MODEL 1
REMARK VINA RESULT:      -5.4      0.000      0.000
REMARK  8 active torsions:
REMARK  status: ('A' for Active; 'I' for Inactive)
REMARK    1  A    between atoms: CG_1  and  CD_2 
REMARK    2  A    between atoms: CG_1  and  CB_5 
REMARK    3  A    between atoms: CD_2  and  CE_3 
REMARK    4  A    between atoms: CE_3  and  NZ_4 
REMARK    5  A    between atoms: CB_5  and  CA_6 
REMARK    6  A    between atoms: CA_6  and  C_7 
REMARK    7  A    between atoms: CA_6  and  N_10 
REMARK    8  A    between atoms: C_7  and  OXT_9 
ROOT
ATOM      1  CA  LYS A   1     -22.827  -3.458 -12.601  1.00  0.00     0.314 C 
ENDROOT
BRANCH   1   2
ATOM      2  CB  LYS A   1     -21.846  -2.832 -11.597  1.00  0.00     0.046 C 
BRANCH   2   3
ATOM      3  CG  LYS A   1     -21.152  -3.886 -10.726  1.00  0.00     0.004 C 
BRANCH   3   4
ATOM      4  CD  LYS A   1     -22.129  -4.617  -9.803  1.00  0.00     0.030 C 
BRANCH   4   5
ATOM      5  CE  LYS A   1     -22.625  -3.677  -8.704  1.00  0.00     0.267 C 
BRANCH   5   6
ATOM      6  NZ  LYS A   1     -24.075  -3.749  -8.579  1.00  0.00     0.078 N 
ATOM      7  HZ1 LYS A   1     -24.391  -3.077  -7.880  1.00  0.00     0.312 HD
ATOM      8  HZ2 LYS A   1     -24.336  -4.668  -8.223  1.00  0.00     0.312 HD
ENDBRANCH   5   6
ENDBRANCH   4   5
ENDBRANCH   3   4
ENDBRANCH   2   3
ENDBRANCH   1   2
BRANCH   1   9
ATOM      9  C   LYS A   1     -24.262  -2.923 -12.403  1.00  0.00     0.173 C 
ATOM     10  O   LYS A   1     -24.940  -3.135 -11.407  1.00  0.00    -0.648 OA
BRANCH   9  11
ATOM     11  OXT LYS A   1     -24.705  -2.148 -13.418  1.00  0.00    -0.775 OA
ATOM     12  HXT LYS A   1     -25.362  -1.477 -13.158  1.00  0.00     0.167 HD
ENDBRANCH   9  11
ENDBRANCH   1   9
BRANCH   1  13
ATOM     13  N   LYS A   1     -22.385  -3.180 -13.986  1.00  0.00     0.093 N 
ATOM     14  H1  LYS A   1     -23.154  -3.423 -14.619  1.00  0.00     0.314 HD
ATOM     15  H2  LYS A   1     -21.663  -3.863 -14.230  1.00  0.00     0.314 HD
ENDBRANCH   1  13
TORSDOF 8
ENDMDL
MODEL 2
REMARK VINA RESULT:      -5.2      1.795      2.144
REMARK  8 active torsions:
REMARK  status: ('A' for Active; 'I' for Inactive)
REMARK    1  A    between atoms: CG_1  and  CD_2 
REMARK    2  A    between atoms: CG_1  and  CB_5 
REMARK    3  A    between atoms: CD_2  and  CE_3 
REMARK    4  A    between atoms: CE_3  and  NZ_4 
REMARK    5  A    between atoms: CB_5  and  CA_6 
REMARK    6  A    between atoms: CA_6  and  C_7 
REMARK    7  A    between atoms: CA_6  and  N_10 
REMARK    8  A    between atoms: C_7  and  OXT_9 
ROOT
ATOM      1  CA  LYS A   1     -23.786  -2.790 -13.103  1.00  0.00     0.314 C 
ENDROOT
BRANCH   1   2
ATOM      2  CB  LYS A   1     -22.613  -2.613 -12.128  1.00  0.00     0.046 C 
BRANCH   2   3
ATOM      3  CG  LYS A   1     -22.364  -3.866 -11.281  1.00  0.00     0.004 C 
BRANCH   3   4
ATOM      4  CD  LYS A   1     -22.957  -3.750  -9.876  1.00  0.00     0.030 C 
BRANCH   4   5
ATOM      5  CE  LYS A   1     -24.288  -4.498  -9.799  1.00  0.00     0.267 C 
BRANCH   5   6
ATOM      6  NZ  LYS A   1     -25.402  -3.562  -9.720  1.00  0.00     0.078 N 
ATOM      7  HZ1 LYS A   1     -25.896  -3.693  -8.836  1.00  0.00     0.312 HD
ATOM      8  HZ2 LYS A   1     -26.077  -3.779 -10.453  1.00  0.00     0.312 HD
ENDBRANCH   5   6
ENDBRANCH   4   5
ENDBRANCH   3   4
ENDBRANCH   2   3
ENDBRANCH   1   2
BRANCH   1   9
ATOM      9  C   LYS A   1     -23.571  -1.988 -14.405  1.00  0.00     0.173 C 
ATOM     10  O   LYS A   1     -22.784  -2.310 -15.284  1.00  0.00    -0.648 OA
BRANCH   9  11
ATOM     11  OXT LYS A   1     -24.369  -0.903 -14.522  1.00  0.00    -0.775 OA
ATOM     12  HXT LYS A   1     -25.159  -0.919 -13.950  1.00  0.00     0.167 HD
ENDBRANCH   9  11
ENDBRANCH   1   9
BRANCH   1  13
ATOM     13  N   LYS A   1     -23.963  -4.223 -13.432  1.00  0.00     0.093 N 
ATOM     14  H1  LYS A   1     -23.052  -4.684 -13.338  1.00  0.00     0.314 HD
ATOM     15  H2  LYS A   1     -24.155  -4.295 -14.435  1.00  0.00     0.314 HD
ENDBRANCH   1  13
TORSDOF 8
ENDMDL
MODEL 3
REMARK VINA RESULT:      -5.0     10.781     11.586
REMARK  8 active torsions:
REMARK  status: ('A' for Active; 'I' for Inactive)
REMARK    1  A    between atoms: CG_1  and  CD_2 
REMARK    2  A    between atoms: CG_1  and  CB_5 
REMARK    3  A    between atoms: CD_2  and  CE_3 
REMARK    4  A    between atoms: CE_3  and  NZ_4 
REMARK    5  A    between atoms: CB_5  and  CA_6 
REMARK    6  A    between atoms: CA_6  and  C_7 
REMARK    7  A    between atoms: CA_6  and  N_10 
REMARK    8  A    between atoms: C_7  and  OXT_9 
ROOT
ATOM      1  CA  LYS A   1     -33.704  -2.370 -11.496  1.00  0.00     0.314 C 
ENDROOT
BRANCH   1   2
ATOM      2  CB  LYS A   1     -33.145  -3.779 -11.245  1.00  0.00     0.046 C 
BRANCH   2   3
ATOM      3  CG  LYS A   1     -34.157  -4.691 -10.541  1.00  0.00     0.004 C 
BRANCH   3   4
ATOM      4  CD  LYS A   1     -33.942  -6.168 -10.874  1.00  0.00     0.030 C 
BRANCH   4   5
ATOM      5  CE  LYS A   1     -34.787  -7.048  -9.952  1.00  0.00     0.267 C 
BRANCH   5   6
ATOM      6  NZ  LYS A   1     -34.375  -8.442 -10.048  1.00  0.00     0.078 N 
ATOM      7  HZ1 LYS A   1     -34.715  -8.955  -9.235  1.00  0.00     0.312 HD
ATOM      8  HZ2 LYS A   1     -33.358  -8.496 -10.010  1.00  0.00     0.312 HD
ENDBRANCH   5   6
ENDBRANCH   4   5
ENDBRANCH   3   4
ENDBRANCH   2   3
ENDBRANCH   1   2
BRANCH   1   9
ATOM      9  C   LYS A   1     -34.854  -2.389 -12.526  1.00  0.00     0.173 C 
ATOM     10  O   LYS A   1     -35.954  -1.890 -12.333  1.00  0.00    -0.648 OA
BRANCH   9  11
ATOM     11  OXT LYS A   1     -34.529  -2.972 -13.702  1.00  0.00    -0.775 OA
ATOM     12  HXT LYS A   1     -35.021  -3.790 -13.897  1.00  0.00     0.167 HD
ENDBRANCH   9  11
ENDBRANCH   1   9
BRANCH   1  13
ATOM     13  N   LYS A   1     -34.190  -1.782 -10.227  1.00  0.00     0.093 N 
ATOM     14  H1  LYS A   1     -33.856  -0.814 -10.178  1.00  0.00     0.314 HD
ATOM     15  H2  LYS A   1     -33.691  -2.236  -9.457  1.00  0.00     0.314 HD
ENDBRANCH   1  13
TORSDOF 8
ENDMDL
MODEL 4
REMARK VINA RESULT:      -4.9     11.092     11.849
REMARK  8 active torsions:
REMARK  status: ('A' for Active; 'I' for Inactive)
REMARK    1  A    between atoms: CG_1  and  CD_2 
REMARK    2  A    between atoms: CG_1  and  CB_5 
REMARK    3  A    between atoms: CD_2  and  CE_3 
REMARK    4  A    between atoms: CE_3  and  NZ_4 
REMARK    5  A    between atoms: CB_5  and  CA_6 
REMARK    6  A    between atoms: CA_6  and  C_7 
REMARK    7  A    between atoms: CA_6  and  N_10 
REMARK    8  A    between atoms: C_7  and  OXT_9 
ROOT
ATOM      1  CA  LYS A   1     -33.951  -6.009 -11.216  1.00  0.00     0.314 C 
ENDROOT
BRANCH   1   2
ATOM      2  CB  LYS A   1     -33.972  -4.666 -10.471  1.00  0.00     0.046 C 
BRANCH   2   3
ATOM      3  CG  LYS A   1     -33.230  -3.563 -11.235  1.00  0.00     0.004 C 
BRANCH   3   4
ATOM      4  CD  LYS A   1     -33.631  -2.161 -10.775  1.00  0.00     0.030 C 
BRANCH   4   5
ATOM      5  CE  LYS A   1     -34.573  -1.518 -11.793  1.00  0.00     0.267 C 
BRANCH   5   6
ATOM      6  NZ  LYS A   1     -34.593  -2.283 -13.032  1.00  0.00     0.078 N 
ATOM      7  HZ1 LYS A   1     -35.332  -1.929 -13.640  1.00  0.00     0.312 HD
ATOM      8  HZ2 LYS A   1     -34.839  -3.251 -12.826  1.00  0.00     0.312 HD
ENDBRANCH   5   6
ENDBRANCH   4   5
ENDBRANCH   3   4
ENDBRANCH   2   3
ENDBRANCH   1   2
BRANCH   1   9
ATOM      9  C   LYS A   1     -34.401  -7.173 -10.306  1.00  0.00     0.173 C 
ATOM     10  O   LYS A   1     -35.312  -7.093  -9.495  1.00  0.00    -0.648 OA
BRANCH   9  11
ATOM     11  OXT LYS A   1     -33.725  -8.325 -10.512  1.00  0.00    -0.775 OA
ATOM     12  HXT LYS A   1     -32.756  -8.224 -10.548  1.00  0.00     0.167 HD
ENDBRANCH   9  11
ENDBRANCH   1   9
BRANCH   1  13
ATOM     13  N   LYS A   1     -34.831  -5.945 -12.405  1.00  0.00     0.093 N 
ATOM     14  H1  LYS A   1     -35.748  -6.320 -12.140  1.00  0.00     0.314 HD
ATOM     15  H2  LYS A   1     -34.492  -6.631 -13.086  1.00  0.00     0.314 HD
ENDBRANCH   1  13
TORSDOF 8
ENDMDL
MODEL 5
REMARK VINA RESULT:      -4.9      1.650      2.889
REMARK  8 active torsions:
REMARK  status: ('A' for Active; 'I' for Inactive)
REMARK    1  A    between atoms: CG_1  and  CD_2 
REMARK    2  A    between atoms: CG_1  and  CB_5 
REMARK    3  A    between atoms: CD_2  and  CE_3 
REMARK    4  A    between atoms: CE_3  and  NZ_4 
REMARK    5  A    between atoms: CB_5  and  CA_6 
REMARK    6  A    between atoms: CA_6  and  C_7 
REMARK    7  A    between atoms: CA_6  and  N_10 
REMARK    8  A    between atoms: C_7  and  OXT_9 
ROOT
ATOM      1  CA  LYS A   1     -24.097  -3.373 -10.434  1.00  0.00     0.314 C 
ENDROOT
BRANCH   1   2
ATOM      2  CB  LYS A   1     -23.196  -4.604 -10.252  1.00  0.00     0.046 C 
BRANCH   2   3
ATOM      3  CG  LYS A   1     -22.229  -4.449  -9.072  1.00  0.00     0.004 C 
BRANCH   3   4
ATOM      4  CD  LYS A   1     -20.769  -4.352  -9.521  1.00  0.00     0.030 C 
BRANCH   4   5
ATOM      5  CE  LYS A   1     -20.684  -4.333 -11.048  1.00  0.00     0.267 C 
BRANCH   5   6
ATOM      6  NZ  LYS A   1     -20.382  -2.992 -11.531  1.00  0.00     0.078 N 
ATOM      7  HZ1 LYS A   1     -19.466  -2.989 -11.980  1.00  0.00     0.312 HD
ATOM      8  HZ2 LYS A   1     -20.307  -2.357 -10.737  1.00  0.00     0.312 HD
ENDBRANCH   5   6
ENDBRANCH   4   5
ENDBRANCH   3   4
ENDBRANCH   2   3
ENDBRANCH   1   2
BRANCH   1   9
ATOM      9  C   LYS A   1     -24.218  -2.971 -11.920  1.00  0.00     0.173 C 
ATOM     10  O   LYS A   1     -25.165  -3.270 -12.634  1.00  0.00    -0.648 OA
BRANCH   9  11
ATOM     11  OXT LYS A   1     -23.196  -2.209 -12.368  1.00  0.00    -0.775 OA
ATOM     12  HXT LYS A   1     -23.377  -1.738 -13.203  1.00  0.00     0.167 HD
ENDBRANCH   9  11
ENDBRANCH   1   9
BRANCH   1  13
ATOM     13  N   LYS A   1     -25.445  -3.644  -9.886  1.00  0.00     0.093 N 
ATOM     14  H1  LYS A   1     -26.128  -3.491 -10.635  1.00  0.00     0.314 HD
ATOM     15  H2  LYS A   1     -25.669  -2.902  -9.217  1.00  0.00     0.314 HD
ENDBRANCH   1  13
TORSDOF 8
ENDMDL
MODEL 6
REMARK VINA RESULT:      -4.8      2.114      2.390
REMARK  8 active torsions:
REMARK  status: ('A' for Active; 'I' for Inactive)
REMARK    1  A    between atoms: CG_1  and  CD_2 
REMARK    2  A    between atoms: CG_1  and  CB_5 
REMARK    3  A    between atoms: CD_2  and  CE_3 
REMARK    4  A    between atoms: CE_3  and  NZ_4 
REMARK    5  A    between atoms: CB_5  and  CA_6 
REMARK    6  A    between atoms: CA_6  and  C_7 
REMARK    7  A    between atoms: CA_6  and  N_10 
REMARK    8  A    between atoms: C_7  and  OXT_9 
ROOT
ATOM      1  CA  LYS A   1     -23.627  -2.967 -13.044  1.00  0.00     0.314 C 
ENDROOT
BRANCH   1   2
ATOM      2  CB  LYS A   1     -22.444  -2.728 -12.093  1.00  0.00     0.046 C 
BRANCH   2   3
ATOM      3  CG  LYS A   1     -21.874  -4.036 -11.532  1.00  0.00     0.004 C 
BRANCH   3   4
ATOM      4  CD  LYS A   1     -20.436  -3.880 -11.032  1.00  0.00     0.030 C 
BRANCH   4   5
ATOM      5  CE  LYS A   1     -20.286  -4.508  -9.646  1.00  0.00     0.267 C 
BRANCH   5   6
ATOM      6  NZ  LYS A   1     -21.446  -4.212  -8.817  1.00  0.00     0.078 N 
ATOM      7  HZ1 LYS A   1     -21.442  -4.817  -7.995  1.00  0.00     0.312 HD
ATOM      8  HZ2 LYS A   1     -22.295  -4.442  -9.331  1.00  0.00     0.312 HD
ENDBRANCH   5   6
ENDBRANCH   4   5
ENDBRANCH   3   4
ENDBRANCH   2   3
ENDBRANCH   1   2
BRANCH   1   9
ATOM      9  C   LYS A   1     -23.357  -2.380 -14.447  1.00  0.00     0.173 C 
ATOM     10  O   LYS A   1     -23.930  -1.399 -14.899  1.00  0.00    -0.648 OA
BRANCH   9  11
ATOM     11  OXT LYS A   1     -22.385  -3.021 -15.133  1.00  0.00    -0.775 OA
ATOM     12  HXT LYS A   1     -22.672  -3.845 -15.569  1.00  0.00     0.167 HD
ENDBRANCH   9  11
ENDBRANCH   1   9
BRANCH   1  13
ATOM     13  N   LYS A   1     -23.900  -4.418 -13.162  1.00  0.00     0.093 N 
ATOM     14  H1  LYS A   1     -23.632  -4.863 -12.279  1.00  0.00     0.314 HD
ATOM     15  H2  LYS A   1     -23.230  -4.812 -13.829  1.00  0.00     0.314 HD
ENDBRANCH   1  13
TORSDOF 8
ENDMDL
MODEL 7
REMARK VINA RESULT:      -4.7      2.281      4.254
REMARK  8 active torsions:
REMARK  status: ('A' for Active; 'I' for Inactive)
REMARK    1  A    between atoms: CG_1  and  CD_2 
REMARK    2  A    between atoms: CG_1  and  CB_5 
REMARK    3  A    between atoms: CD_2  and  CE_3 
REMARK    4  A    between atoms: CE_3  and  NZ_4 
REMARK    5  A    between atoms: CB_5  and  CA_6 
REMARK    6  A    between atoms: CA_6  and  C_7 
REMARK    7  A    between atoms: CA_6  and  N_10 
REMARK    8  A    between atoms: C_7  and  OXT_9 
ROOT
ATOM      1  CA  LYS A   1     -23.056  -3.831 -10.579  1.00  0.00     0.314 C 
ENDROOT
BRANCH   1   2
ATOM      2  CB  LYS A   1     -22.653  -2.686 -11.522  1.00  0.00     0.046 C 
BRANCH   2   3
ATOM      3  CG  LYS A   1     -22.854  -3.048 -12.998  1.00  0.00     0.004 C 
BRANCH   3   4
ATOM      4  CD  LYS A   1     -24.047  -2.322 -13.622  1.00  0.00     0.030 C 
BRANCH   4   5
ATOM      5  CE  LYS A   1     -23.594  -1.493 -14.824  1.00  0.00     0.267 C 
BRANCH   5   6
ATOM      6  NZ  LYS A   1     -24.434  -0.313 -14.982  1.00  0.00     0.078 N 
ATOM      7  HZ1 LYS A   1     -24.890  -0.096 -14.095  1.00  0.00     0.312 HD
ATOM      8  HZ2 LYS A   1     -25.185  -0.520 -15.640  1.00  0.00     0.312 HD
ENDBRANCH   5   6
ENDBRANCH   4   5
ENDBRANCH   3   4
ENDBRANCH   2   3
ENDBRANCH   1   2
BRANCH   1   9
ATOM      9  C   LYS A   1     -24.318  -3.479  -9.763  1.00  0.00     0.173 C 
ATOM     10  O   LYS A   1     -25.355  -3.056 -10.255  1.00  0.00    -0.648 OA
BRANCH   9  11
ATOM     11  OXT LYS A   1     -24.203  -3.723  -8.439  1.00  0.00    -0.775 OA
ATOM     12  HXT LYS A   1     -25.028  -4.007  -8.006  1.00  0.00     0.167 HD
ENDBRANCH   9  11
ENDBRANCH   1   9
BRANCH   1  13
ATOM     13  N   LYS A   1     -23.300  -5.067 -11.356  1.00  0.00     0.093 N 
ATOM     14  H1  LYS A   1     -24.166  -4.939 -11.890  1.00  0.00     0.314 HD
ATOM     15  H2  LYS A   1     -23.546  -5.811 -10.696  1.00  0.00     0.314 HD
ENDBRANCH   1  13
TORSDOF 8
ENDMDL
MODEL 8
REMARK VINA RESULT:      -4.5      2.593      3.303
REMARK  8 active torsions:
REMARK  status: ('A' for Active; 'I' for Inactive)
REMARK    1  A    between atoms: CG_1  and  CD_2 
REMARK    2  A    between atoms: CG_1  and  CB_5 
REMARK    3  A    between atoms: CD_2  and  CE_3 
REMARK    4  A    between atoms: CE_3  and  NZ_4 
REMARK    5  A    between atoms: CB_5  and  CA_6 
REMARK    6  A    between atoms: CA_6  and  C_7 
REMARK    7  A    between atoms: CA_6  and  N_10 
REMARK    8  A    between atoms: C_7  and  OXT_9 
ROOT
ATOM      1  CA  LYS A   1     -23.434  -3.563  -9.261  1.00  0.00     0.314 C 
ENDROOT
BRANCH   1   2
ATOM      2  CB  LYS A   1     -22.340  -4.493  -9.808  1.00  0.00     0.046 C 
BRANCH   2   3
ATOM      3  CG  LYS A   1     -20.930  -3.990  -9.479  1.00  0.00     0.004 C 
BRANCH   3   4
ATOM      4  CD  LYS A   1     -20.078  -5.053  -8.783  1.00  0.00     0.030 C 
BRANCH   4   5
ATOM      5  CE  LYS A   1     -20.656  -5.378  -7.405  1.00  0.00     0.267 C 
BRANCH   5   6
ATOM      6  NZ  LYS A   1     -20.718  -4.181  -6.576  1.00  0.00     0.078 N 
ATOM      7  HZ1 LYS A   1     -19.832  -3.680  -6.633  1.00  0.00     0.312 HD
ATOM      8  HZ2 LYS A   1     -20.825  -4.454  -5.600  1.00  0.00     0.312 HD
ENDBRANCH   5   6
ENDBRANCH   4   5
ENDBRANCH   3   4
ENDBRANCH   2   3
ENDBRANCH   1   2
BRANCH   1   9
ATOM      9  C   LYS A   1     -24.572  -3.359 -10.284  1.00  0.00     0.173 C 
ATOM     10  O   LYS A   1     -24.405  -3.327 -11.495  1.00  0.00    -0.648 OA
BRANCH   9  11
ATOM     11  OXT LYS A   1     -25.801  -3.262  -9.729  1.00  0.00    -0.775 OA
ATOM     12  HXT LYS A   1     -26.096  -2.350  -9.555  1.00  0.00     0.167 HD
ENDBRANCH   9  11
ENDBRANCH   1   9
BRANCH   1  13
ATOM     13  N   LYS A   1     -23.994  -4.118  -8.007  1.00  0.00     0.093 N 
ATOM     14  H1  LYS A   1     -23.212  -4.428  -7.421  1.00  0.00     0.314 HD
ATOM     15  H2  LYS A   1     -24.470  -4.995  -8.236  1.00  0.00     0.314 HD
ENDBRANCH   1  13
TORSDOF 8
ENDMDL
MODEL 9
REMARK VINA RESULT:      -4.4      7.321      8.961
REMARK  8 active torsions:
REMARK  status: ('A' for Active; 'I' for Inactive)
REMARK    1  A    between atoms: CG_1  and  CD_2 
REMARK    2  A    between atoms: CG_1  and  CB_5 
REMARK    3  A    between atoms: CD_2  and  CE_3 
REMARK    4  A    between atoms: CE_3  and  NZ_4 
REMARK    5  A    between atoms: CB_5  and  CA_6 
REMARK    6  A    between atoms: CA_6  and  C_7 
REMARK    7  A    between atoms: CA_6  and  N_10 
REMARK    8  A    between atoms: C_7  and  OXT_9 
ROOT
ATOM      1  CA  LYS A   1     -26.751  -6.135 -16.554  1.00  0.00     0.314 C 
ENDROOT
BRANCH   1   2
ATOM      2  CB  LYS A   1     -27.972  -6.691 -15.806  1.00  0.00     0.046 C 
BRANCH   2   3
ATOM      3  CG  LYS A   1     -28.819  -7.621 -16.683  1.00  0.00     0.004 C 
BRANCH   3   4
ATOM      4  CD  LYS A   1     -30.084  -6.938 -17.206  1.00  0.00     0.030 C 
BRANCH   4   5
ATOM      5  CE  LYS A   1     -30.532  -7.584 -18.517  1.00  0.00     0.267 C 
BRANCH   5   6
ATOM      6  NZ  LYS A   1     -29.556  -8.567 -18.968  1.00  0.00     0.078 N 
ATOM      7  HZ1 LYS A   1     -30.040  -9.402 -19.300  1.00  0.00     0.312 HD
ATOM      8  HZ2 LYS A   1     -28.990  -8.868 -18.174  1.00  0.00     0.312 HD
ENDBRANCH   5   6
ENDBRANCH   4   5
ENDBRANCH   3   4
ENDBRANCH   2   3
ENDBRANCH   1   2
BRANCH   1   9
ATOM      9  C   LYS A   1     -25.428  -6.541 -15.867  1.00  0.00     0.173 C 
ATOM     10  O   LYS A   1     -25.095  -7.698 -15.656  1.00  0.00    -0.648 OA
BRANCH   9  11
ATOM     11  OXT LYS A   1     -24.629  -5.497 -15.553  1.00  0.00    -0.775 OA
ATOM     12  HXT LYS A   1     -25.083  -4.634 -15.523  1.00  0.00     0.167 HD
ENDBRANCH   9  11
ENDBRANCH   1   9
BRANCH   1  13
ATOM     13  N   LYS A   1     -26.747  -6.619 -17.953  1.00  0.00     0.093 N 
ATOM     14  H1  LYS A   1     -26.782  -5.802 -18.571  1.00  0.00     0.314 HD
ATOM     15  H2  LYS A   1     -27.645  -7.079 -18.130  1.00  0.00     0.314 HD
ENDBRANCH   1  13
TORSDOF 8
ENDMDL
