MODEL 1
REMARK VINA RESULT:      -8.7      0.000      0.000
REMARK  18 active torsions:
REMARK  status: ('A' for Active; 'I' for Inactive)
REMARK    1  A    between atoms: CG_2  and  CB_4 
REMARK    2  A    between atoms: CB_4  and  CA_5 
REMARK    3  A    between atoms: CA_5  and  C_6 
REMARK    4  A    between atoms: CA_5  and  N_9 
REMARK    5  A    between atoms: C_6  and  OXT_8 
REMARK       I    between atoms: N_9  and  C_12 
REMARK    6  A    between atoms: C_12  and  CA_14 
REMARK    7  A    between atoms: CA_14  and  CB_15 
REMARK    8  A    between atoms: CA_14  and  N_22 
REMARK    9  A    between atoms: CB_15  and  CG_16 
REMARK       I    between atoms: N_22  and  C_24 
REMARK   10  A    between atoms: C_24  and  CA_26 
REMARK   11  A    between atoms: CA_26  and  N_27 
REMARK       I    between atoms: N_27  and  C_29 
REMARK   12  A    between atoms: C_29  and  CA_31 
REMARK   13  A    between atoms: CA_31  and  N_33 
REMARK       I    between atoms: N_33  and  C_35 
REMARK   14  A    between atoms: C_35  and  CA_37 
REMARK   15  A    between atoms: CA_37  and  CB_38 
REMARK   16  A    between atoms: CA_37  and  N_46 
REMARK   17  A    between atoms: CB_38  and  CG_39 
REMARK   18  A    between atoms: CZ_42  and  OH_45 
ROOT
ATOM      1  N   PHE A   4     -21.346 -12.421  -2.019  1.00  0.00    -0.346 N 
ATOM      2  H   PHE A   4     -21.086 -11.435  -1.997  1.00  0.00     0.163 HD
ATOM      3  C   GLY A   3     -21.947 -12.924  -3.159  1.00  0.00     0.236 C 
ATOM      4  O   GLY A   3     -22.178 -14.119  -3.317  1.00  0.00    -0.272 OA
ENDROOT
BRANCH   3   5
ATOM      5  CA  GLY A   3     -22.305 -11.887  -4.239  1.00  0.00     0.225 C 
BRANCH   5   6
ATOM      6  N   GLY A   3     -22.109 -10.517  -3.783  1.00  0.00    -0.351 N 
ATOM      7  C   ALA A   2     -21.473  -9.576  -4.557  1.00  0.00     0.240 C 
ATOM      8  O   ALA A   2     -21.081  -9.853  -5.692  1.00  0.00    -0.271 OA
ATOM      9  H   GLY A   3     -22.444 -10.253  -2.858  1.00  0.00     0.163 HD
BRANCH   7  10
ATOM     10  CA  ALA A   2     -21.312  -8.173  -3.931  1.00  0.00     0.172 C 
ATOM     11  CB  ALA A   2     -20.339  -8.241  -2.758  1.00  0.00     0.042 C 
BRANCH  10  12
ATOM     12  N   ALA A   2     -20.817  -7.205  -4.916  1.00  0.00    -0.346 N 
ATOM     13  C   TYR A   1     -21.622  -6.243  -5.460  1.00  0.00     0.251 C 
ATOM     14  O   TYR A   1     -22.808  -6.173  -5.162  1.00  0.00    -0.271 OA
ATOM     15  H   ALA A   2     -19.882  -7.305  -5.299  1.00  0.00     0.163 HD
BRANCH  13  16
ATOM     16  CA  TYR A   1     -20.916  -5.285  -6.480  1.00  0.00     0.313 C 
BRANCH  16  17
ATOM     17  CB  TYR A   1     -21.900  -4.270  -7.099  1.00  0.00     0.083 C 
BRANCH  17  18
ATOM     18  CG  TYR A   1     -21.786  -4.092  -8.594  1.00  0.00    -0.056 A 
ATOM     19  CD1 TYR A   1     -20.580  -4.385  -9.250  1.00  0.00     0.010 A 
ATOM     20  CE1 TYR A   1     -20.493  -4.308 -10.640  1.00  0.00     0.037 A 
ATOM     21  CZ  TYR A   1     -21.609  -3.917 -11.371  1.00  0.00     0.065 A 
ATOM     22  CE2 TYR A   1     -22.799  -3.583 -10.736  1.00  0.00     0.037 A 
ATOM     23  CD2 TYR A   1     -22.889  -3.670  -9.348  1.00  0.00     0.010 A 
BRANCH  21  24
ATOM     24  OH  TYR A   1     -21.581  -3.868 -12.733  1.00  0.00    -0.361 OA
ATOM     25  HH  TYR A   1     -21.646  -2.938 -13.004  1.00  0.00     0.217 HD
ENDBRANCH  21  24
ENDBRANCH  17  18
ENDBRANCH  16  17
BRANCH  16  26
ATOM     26  N   TYR A   1     -19.786  -4.577  -5.813  1.00  0.00     0.092 N 
ATOM     27  H1  TYR A   1     -18.984  -5.207  -5.785  1.00  0.00     0.313 HD
ATOM     28  H2  TYR A   1     -20.031  -4.410  -4.836  1.00  0.00     0.313 HD
ENDBRANCH  16  26
ENDBRANCH  13  16
ENDBRANCH  10  12
ENDBRANCH   7  10
ENDBRANCH   5   6
ENDBRANCH   3   5
BRANCH   1  29
ATOM     29  CA  PHE A   4     -21.015 -13.250  -0.848  1.00  0.00     0.180 C 
BRANCH  29  30
ATOM     30  C   PHE A   4     -19.482 -13.481  -0.753  1.00  0.00     0.241 C 
ATOM     31  N   LEU A   5     -18.668 -12.477  -1.249  1.00  0.00    -0.345 N 
ATOM     32  H   LEU A   5     -19.073 -11.558  -1.398  1.00  0.00     0.163 HD
ATOM     33  O   PHE A   4     -18.980 -14.477  -0.219  1.00  0.00    -0.271 OA
BRANCH  31  34
ATOM     34  CA  LEU A   5     -17.189 -12.561  -1.232  1.00  0.00     0.182 C 
BRANCH  34  35
ATOM     35  CB  LEU A   5     -16.588 -11.899  -2.503  1.00  0.00     0.040 C 
BRANCH  35  36
ATOM     36  CG  LEU A   5     -17.107 -10.479  -2.857  1.00  0.00    -0.020 C 
ATOM     37  CD1 LEU A   5     -16.000  -9.427  -2.802  1.00  0.00     0.009 C 
ATOM     38  CD2 LEU A   5     -17.739 -10.407  -4.258  1.00  0.00     0.009 C 
ENDBRANCH  35  36
ENDBRANCH  34  35
BRANCH  34  39
ATOM     39  C   LEU A   5     -16.690 -11.925   0.080  1.00  0.00     0.163 C 
ATOM     40  O   LEU A   5     -15.559 -11.516   0.277  1.00  0.00    -0.648 OA
BRANCH  39  41
ATOM     41  OXT LEU A   5     -17.645 -11.862   1.048  1.00  0.00    -0.775 OA
ATOM     42  HXT LEU A   5     -18.563 -11.863   0.688  1.00  0.00     0.167 HD
ENDBRANCH  39  41
ENDBRANCH  34  39
ENDBRANCH  31  34
ENDBRANCH  29  30
BRANCH  29  43
ATOM     43  CB  PHE A   4     -21.544 -12.661   0.479  1.00  0.00     0.073 C 
BRANCH  43  44
ATOM     44  CG  PHE A   4     -21.834 -11.175   0.417  1.00  0.00    -0.056 A 
ATOM     45  CD1 PHE A   4     -20.872 -10.256   0.852  1.00  0.00     0.007 A 
ATOM     46  CE1 PHE A   4     -21.141  -8.884   0.835  1.00  0.00     0.001 A 
ATOM     47  CZ  PHE A   4     -22.375  -8.424   0.390  1.00  0.00     0.000 A 
ATOM     48  CE2 PHE A   4     -23.340  -9.332  -0.051  1.00  0.00     0.001 A 
ATOM     49  CD2 PHE A   4     -23.067 -10.695  -0.039  1.00  0.00     0.007 A 
ENDBRANCH  43  44
ENDBRANCH  29  43
ENDBRANCH   1  29
TORSDOF 18
ENDMDL
MODEL 2
REMARK VINA RESULT:      -8.4      1.886      2.781
REMARK  18 active torsions:
REMARK  status: ('A' for Active; 'I' for Inactive)
REMARK    1  A    between atoms: CG_2  and  CB_4 
REMARK    2  A    between atoms: CB_4  and  CA_5 
REMARK    3  A    between atoms: CA_5  and  C_6 
REMARK    4  A    between atoms: CA_5  and  N_9 
REMARK    5  A    between atoms: C_6  and  OXT_8 
REMARK       I    between atoms: N_9  and  C_12 
REMARK    6  A    between atoms: C_12  and  CA_14 
REMARK    7  A    between atoms: CA_14  and  CB_15 
REMARK    8  A    between atoms: CA_14  and  N_22 
REMARK    9  A    between atoms: CB_15  and  CG_16 
REMARK       I    between atoms: N_22  and  C_24 
REMARK   10  A    between atoms: C_24  and  CA_26 
REMARK   11  A    between atoms: CA_26  and  N_27 
REMARK       I    between atoms: N_27  and  C_29 
REMARK   12  A    between atoms: C_29  and  CA_31 
REMARK   13  A    between atoms: CA_31  and  N_33 
REMARK       I    between atoms: N_33  and  C_35 
REMARK   14  A    between atoms: C_35  and  CA_37 
REMARK   15  A    between atoms: CA_37  and  CB_38 
REMARK   16  A    between atoms: CA_37  and  N_46 
REMARK   17  A    between atoms: CB_38  and  CG_39 
REMARK   18  A    between atoms: CZ_42  and  OH_45 
ROOT
ATOM      1  N   PHE A   4     -19.684 -11.300  -1.890  1.00  0.00    -0.346 N 
ATOM      2  H   PHE A   4     -18.958 -10.673  -1.543  1.00  0.00     0.163 HD
ATOM      3  C   GLY A   3     -20.036 -11.234  -3.226  1.00  0.00     0.236 C 
ATOM      4  O   GLY A   3     -20.807 -12.032  -3.751  1.00  0.00    -0.272 OA
ENDROOT
BRANCH   3   5
ATOM      5  CA  GLY A   3     -19.389 -10.092  -4.032  1.00  0.00     0.225 C 
BRANCH   5   6
ATOM      6  N   GLY A   3     -20.301  -8.978  -4.252  1.00  0.00    -0.351 N 
ATOM      7  C   ALA A   2     -20.623  -8.092  -3.253  1.00  0.00     0.240 C 
ATOM      8  O   ALA A   2     -20.112  -8.187  -2.135  1.00  0.00    -0.271 OA
ATOM      9  H   GLY A   3     -20.720  -8.859  -5.174  1.00  0.00     0.163 HD
BRANCH   7  10
ATOM     10  CA  ALA A   2     -21.626  -6.977  -3.626  1.00  0.00     0.172 C 
ATOM     11  CB  ALA A   2     -21.989  -6.174  -2.381  1.00  0.00     0.042 C 
BRANCH  10  12
ATOM     12  N   ALA A   2     -21.065  -6.075  -4.638  1.00  0.00    -0.346 N 
ATOM     13  C   TYR A   1     -21.099  -6.368  -5.974  1.00  0.00     0.251 C 
ATOM     14  O   TYR A   1     -21.579  -7.420  -6.374  1.00  0.00    -0.271 OA
ATOM     15  H   ALA A   2     -20.536  -5.258  -4.351  1.00  0.00     0.163 HD
BRANCH  13  16
ATOM     16  CA  TYR A   1     -20.471  -5.278  -6.908  1.00  0.00     0.313 C 
BRANCH  16  17
ATOM     17  CB  TYR A   1     -21.520  -4.253  -7.391  1.00  0.00     0.083 C 
BRANCH  17  18
ATOM     18  CG  TYR A   1     -21.573  -4.042  -8.885  1.00  0.00    -0.056 A 
ATOM     19  CD1 TYR A   1     -20.418  -4.212  -9.664  1.00  0.00     0.010 A 
ATOM     20  CE1 TYR A   1     -20.479  -4.106 -11.053  1.00  0.00     0.037 A 
ATOM     21  CZ  TYR A   1     -21.693  -3.808 -11.661  1.00  0.00     0.065 A 
ATOM     22  CE2 TYR A   1     -22.838  -3.595 -10.903  1.00  0.00     0.037 A 
ATOM     23  CD2 TYR A   1     -22.780  -3.712  -9.515  1.00  0.00     0.010 A 
BRANCH  21  24
ATOM     24  OH  TYR A   1     -21.807  -3.735 -13.017  1.00  0.00    -0.361 OA
ATOM     25  HH  TYR A   1     -20.916  -3.644 -13.391  1.00  0.00     0.217 HD
ENDBRANCH  21  24
ENDBRANCH  17  18
ENDBRANCH  16  17
BRANCH  16  26
ATOM     26  N   TYR A   1     -19.353  -4.587  -6.203  1.00  0.00     0.092 N 
ATOM     27  H1  TYR A   1     -19.710  -4.214  -5.323  1.00  0.00     0.313 HD
ATOM     28  H2  TYR A   1     -19.073  -3.770  -6.748  1.00  0.00     0.313 HD
ENDBRANCH  16  26
ENDBRANCH  13  16
ENDBRANCH  10  12
ENDBRANCH   7  10
ENDBRANCH   5   6
ENDBRANCH   3   5
BRANCH   1  29
ATOM     29  CA  PHE A   4     -20.270 -12.267  -0.947  1.00  0.00     0.180 C 
BRANCH  29  30
ATOM     30  C   PHE A   4     -19.388 -13.541  -0.847  1.00  0.00     0.241 C 
ATOM     31  N   LEU A   5     -18.919 -13.879   0.410  1.00  0.00    -0.345 N 
ATOM     32  H   LEU A   5     -19.368 -13.462   1.220  1.00  0.00     0.163 HD
ATOM     33  O   PHE A   4     -19.141 -14.271  -1.815  1.00  0.00    -0.271 OA
BRANCH  31  34
ATOM     34  CA  LEU A   5     -18.062 -15.062   0.657  1.00  0.00     0.182 C 
BRANCH  34  35
ATOM     35  CB  LEU A   5     -16.581 -14.634   0.858  1.00  0.00     0.040 C 
BRANCH  35  36
ATOM     36  CG  LEU A   5     -16.338 -13.342   1.686  1.00  0.00    -0.020 C 
ATOM     37  CD1 LEU A   5     -15.489 -13.602   2.929  1.00  0.00     0.009 C 
ATOM     38  CD2 LEU A   5     -15.640 -12.237   0.875  1.00  0.00     0.009 C 
ENDBRANCH  35  36
ENDBRANCH  34  35
BRANCH  34  39
ATOM     39  C   LEU A   5     -18.644 -15.828   1.861  1.00  0.00     0.163 C 
ATOM     40  O   LEU A   5     -19.832 -15.962   2.101  1.00  0.00    -0.648 OA
BRANCH  39  41
ATOM     41  OXT LEU A   5     -17.692 -16.357   2.677  1.00  0.00    -0.775 OA
ATOM     42  HXT LEU A   5     -17.958 -17.218   3.077  1.00  0.00     0.167 HD
ENDBRANCH  39  41
ENDBRANCH  34  39
ENDBRANCH  31  34
ENDBRANCH  29  30
BRANCH  29  43
ATOM     43  CB  PHE A   4     -20.504 -11.674   0.460  1.00  0.00     0.073 C 
BRANCH  43  44
ATOM     44  CG  PHE A   4     -21.396 -10.450   0.468  1.00  0.00    -0.056 A 
ATOM     45  CD1 PHE A   4     -20.970  -9.277   1.102  1.00  0.00     0.007 A 
ATOM     46  CE1 PHE A   4     -21.799  -8.152   1.149  1.00  0.00     0.001 A 
ATOM     47  CZ  PHE A   4     -23.062  -8.197   0.570  1.00  0.00     0.000 A 
ATOM     48  CE2 PHE A   4     -23.496  -9.361  -0.068  1.00  0.00     0.001 A 
ATOM     49  CD2 PHE A   4     -22.667 -10.475  -0.120  1.00  0.00     0.007 A 
ENDBRANCH  43  44
ENDBRANCH  29  43
ENDBRANCH   1  29
TORSDOF 18
ENDMDL
MODEL 3
REMARK VINA RESULT:      -8.3      1.634      2.088
REMARK  18 active torsions:
REMARK  status: ('A' for Active; 'I' for Inactive)
REMARK    1  A    between atoms: CG_2  and  CB_4 
REMARK    2  A    between atoms: CB_4  and  CA_5 
REMARK    3  A    between atoms: CA_5  and  C_6 
REMARK    4  A    between atoms: CA_5  and  N_9 
REMARK    5  A    between atoms: C_6  and  OXT_8 
REMARK       I    between atoms: N_9  and  C_12 
REMARK    6  A    between atoms: C_12  and  CA_14 
REMARK    7  A    between atoms: CA_14  and  CB_15 
REMARK    8  A    between atoms: CA_14  and  N_22 
REMARK    9  A    between atoms: CB_15  and  CG_16 
REMARK       I    between atoms: N_22  and  C_24 
REMARK   10  A    between atoms: C_24  and  CA_26 
REMARK   11  A    between atoms: CA_26  and  N_27 
REMARK       I    between atoms: N_27  and  C_29 
REMARK   12  A    between atoms: C_29  and  CA_31 
REMARK   13  A    between atoms: CA_31  and  N_33 
REMARK       I    between atoms: N_33  and  C_35 
REMARK   14  A    between atoms: C_35  and  CA_37 
REMARK   15  A    between atoms: CA_37  and  CB_38 
REMARK   16  A    between atoms: CA_37  and  N_46 
REMARK   17  A    between atoms: CB_38  and  CG_39 
REMARK   18  A    between atoms: CZ_42  and  OH_45 
ROOT
ATOM      1  N   PHE A   4     -19.719 -11.460  -1.841  1.00  0.00    -0.346 N 
ATOM      2  H   PHE A   4     -18.998 -10.758  -2.009  1.00  0.00     0.163 HD
ATOM      3  C   GLY A   3     -20.540 -11.833  -2.891  1.00  0.00     0.236 C 
ATOM      4  O   GLY A   3     -21.346 -12.754  -2.809  1.00  0.00    -0.272 OA
ENDROOT
BRANCH   3   5
ATOM      5  CA  GLY A   3     -20.374 -11.021  -4.189  1.00  0.00     0.225 C 
BRANCH   5   6
ATOM      6  N   GLY A   3     -21.147  -9.786  -4.177  1.00  0.00    -0.351 N 
ATOM      7  C   ALA A   2     -20.645  -8.618  -3.657  1.00  0.00     0.240 C 
ATOM      8  O   ALA A   2     -19.494  -8.566  -3.216  1.00  0.00    -0.271 OA
ATOM      9  H   GLY A   3     -22.092  -9.793  -4.557  1.00  0.00     0.163 HD
BRANCH   7  10
ATOM     10  CA  ALA A   2     -21.589  -7.395  -3.687  1.00  0.00     0.172 C 
ATOM     11  CB  ALA A   2     -21.657  -6.763  -2.301  1.00  0.00     0.042 C 
BRANCH  10  12
ATOM     12  N   ALA A   2     -21.131  -6.393  -4.655  1.00  0.00    -0.346 N 
ATOM     13  C   TYR A   1     -21.092  -6.643  -6.000  1.00  0.00     0.251 C 
ATOM     14  O   TYR A   1     -21.416  -7.736  -6.445  1.00  0.00    -0.271 OA
ATOM     15  H   ALA A   2     -20.723  -5.523  -4.329  1.00  0.00     0.163 HD
BRANCH  13  16
ATOM     16  CA  TYR A   1     -20.593  -5.448  -6.883  1.00  0.00     0.313 C 
BRANCH  16  17
ATOM     17  CB  TYR A   1     -21.762  -4.578  -7.394  1.00  0.00     0.083 C 
BRANCH  17  18
ATOM     18  CG  TYR A   1     -21.722  -4.247  -8.866  1.00  0.00    -0.056 A 
ATOM     19  CD1 TYR A   1     -20.528  -4.392  -9.591  1.00  0.00     0.010 A 
ATOM     20  CE1 TYR A   1     -20.505  -4.174 -10.968  1.00  0.00     0.037 A 
ATOM     21  CZ  TYR A   1     -21.672  -3.788 -11.616  1.00  0.00     0.065 A 
ATOM     22  CE2 TYR A   1     -22.853  -3.598 -10.909  1.00  0.00     0.037 A 
ATOM     23  CD2 TYR A   1     -22.879  -3.827  -9.534  1.00  0.00     0.010 A 
BRANCH  21  24
ATOM     24  OH  TYR A   1     -21.704  -3.603 -12.966  1.00  0.00    -0.361 OA
ATOM     25  HH  TYR A   1     -22.018  -4.425 -13.377  1.00  0.00     0.217 HD
ENDBRANCH  21  24
ENDBRANCH  17  18
ENDBRANCH  16  17
BRANCH  16  26
ATOM     26  N   TYR A   1     -19.622  -4.619  -6.114  1.00  0.00     0.092 N 
ATOM     27  H1  TYR A   1     -18.912  -4.274  -6.761  1.00  0.00     0.313 HD
ATOM     28  H2  TYR A   1     -19.120  -5.220  -5.459  1.00  0.00     0.313 HD
ENDBRANCH  16  26
ENDBRANCH  13  16
ENDBRANCH  10  12
ENDBRANCH   7  10
ENDBRANCH   5   6
ENDBRANCH   3   5
BRANCH   1  29
ATOM     29  CA  PHE A   4     -19.799 -12.062  -0.500  1.00  0.00     0.180 C 
BRANCH  29  30
ATOM     30  C   PHE A   4     -18.570 -12.973  -0.232  1.00  0.00     0.241 C 
ATOM     31  N   LEU A   5     -17.333 -12.480  -0.609  1.00  0.00    -0.345 N 
ATOM     32  H   LEU A   5     -17.245 -11.483  -0.785  1.00  0.00     0.163 HD
ATOM     33  O   PHE A   4     -18.651 -14.069   0.335  1.00  0.00    -0.271 OA
BRANCH  31  34
ATOM     34  CA  LEU A   5     -16.074 -13.239  -0.422  1.00  0.00     0.182 C 
BRANCH  34  35
ATOM     35  CB  LEU A   5     -15.134 -13.050  -1.645  1.00  0.00     0.040 C 
BRANCH  35  36
ATOM     36  CG  LEU A   5     -14.398 -14.319  -2.156  1.00  0.00    -0.020 C 
ATOM     37  CD1 LEU A   5     -13.011 -14.474  -1.533  1.00  0.00     0.009 C 
ATOM     38  CD2 LEU A   5     -15.176 -15.615  -1.874  1.00  0.00     0.009 C 
ENDBRANCH  35  36
ENDBRANCH  34  35
BRANCH  34  39
ATOM     39  C   LEU A   5     -15.440 -12.789   0.909  1.00  0.00     0.163 C 
ATOM     40  O   LEU A   5     -14.539 -13.370   1.489  1.00  0.00    -0.648 OA
BRANCH  39  41
ATOM     41  OXT LEU A   5     -15.992 -11.653   1.415  1.00  0.00    -0.775 OA
ATOM     42  HXT LEU A   5     -16.938 -11.761   1.669  1.00  0.00     0.167 HD
ENDBRANCH  39  41
ENDBRANCH  34  39
ENDBRANCH  31  34
ENDBRANCH  29  30
BRANCH  29  43
ATOM     43  CB  PHE A   4     -19.935 -11.014   0.626  1.00  0.00     0.073 C 
BRANCH  43  44
ATOM     44  CG  PHE A   4     -21.179 -10.156   0.517  1.00  0.00    -0.056 A 
ATOM     45  CD1 PHE A   4     -21.153  -8.825   0.952  1.00  0.00     0.007 A 
ATOM     46  CE1 PHE A   4     -22.304  -8.034   0.891  1.00  0.00     0.001 A 
ATOM     47  CZ  PHE A   4     -23.489  -8.571   0.403  1.00  0.00     0.000 A 
ATOM     48  CE2 PHE A   4     -23.526  -9.896  -0.038  1.00  0.00     0.001 A 
ATOM     49  CD2 PHE A   4     -22.378 -10.678   0.017  1.00  0.00     0.007 A 
ENDBRANCH  43  44
ENDBRANCH  29  43
ENDBRANCH   1  29
TORSDOF 18
ENDMDL
MODEL 4
REMARK VINA RESULT:      -7.8      2.138      3.158
REMARK  18 active torsions:
REMARK  status: ('A' for Active; 'I' for Inactive)
REMARK    1  A    between atoms: CG_2  and  CB_4 
REMARK    2  A    between atoms: CB_4  and  CA_5 
REMARK    3  A    between atoms: CA_5  and  C_6 
REMARK    4  A    between atoms: CA_5  and  N_9 
REMARK    5  A    between atoms: C_6  and  OXT_8 
REMARK       I    between atoms: N_9  and  C_12 
REMARK    6  A    between atoms: C_12  and  CA_14 
REMARK    7  A    between atoms: CA_14  and  CB_15 
REMARK    8  A    between atoms: CA_14  and  N_22 
REMARK    9  A    between atoms: CB_15  and  CG_16 
REMARK       I    between atoms: N_22  and  C_24 
REMARK   10  A    between atoms: C_24  and  CA_26 
REMARK   11  A    between atoms: CA_26  and  N_27 
REMARK       I    between atoms: N_27  and  C_29 
REMARK   12  A    between atoms: C_29  and  CA_31 
REMARK   13  A    between atoms: CA_31  and  N_33 
REMARK       I    between atoms: N_33  and  C_35 
REMARK   14  A    between atoms: C_35  and  CA_37 
REMARK   15  A    between atoms: CA_37  and  CB_38 
REMARK   16  A    between atoms: CA_37  and  N_46 
REMARK   17  A    between atoms: CB_38  and  CG_39 
REMARK   18  A    between atoms: CZ_42  and  OH_45 
ROOT
ATOM      1  N   PHE A   4     -21.521 -10.611  -0.586  1.00  0.00    -0.346 N 
ATOM      2  H   PHE A   4     -21.138 -10.021   0.153  1.00  0.00     0.163 HD
ATOM      3  C   GLY A   3     -21.931 -10.014  -1.766  1.00  0.00     0.236 C 
ATOM      4  O   GLY A   3     -22.285 -10.659  -2.748  1.00  0.00    -0.272 OA
ENDROOT
BRANCH   3   5
ATOM      5  CA  GLY A   3     -21.908  -8.475  -1.779  1.00  0.00     0.225 C 
BRANCH   5   6
ATOM      6  N   GLY A   3     -21.246  -7.936  -2.959  1.00  0.00    -0.351 N 
ATOM      7  C   ALA A   2     -21.546  -6.692  -3.459  1.00  0.00     0.240 C 
ATOM      8  O   ALA A   2     -22.365  -5.965  -2.893  1.00  0.00    -0.271 OA
ATOM      9  H   GLY A   3     -20.547  -8.506  -3.434  1.00  0.00     0.163 HD
BRANCH   7  10
ATOM     10  CA  ALA A   2     -20.783  -6.266  -4.733  1.00  0.00     0.172 C 
ATOM     11  CB  ALA A   2     -20.089  -7.477  -5.346  1.00  0.00     0.042 C 
BRANCH  10  12
ATOM     12  N   ALA A   2     -21.691  -5.674  -5.723  1.00  0.00    -0.346 N 
ATOM     13  C   TYR A   1     -21.271  -4.740  -6.630  1.00  0.00     0.251 C 
ATOM     14  O   TYR A   1     -20.114  -4.339  -6.628  1.00  0.00    -0.271 OA
ATOM     15  H   ALA A   2     -22.686  -5.869  -5.678  1.00  0.00     0.163 HD
BRANCH  13  16
ATOM     16  CA  TYR A   1     -22.374  -4.236  -7.622  1.00  0.00     0.313 C 
BRANCH  16  17
ATOM     17  CB  TYR A   1     -22.276  -4.927  -8.999  1.00  0.00     0.083 C 
BRANCH  17  18
ATOM     18  CG  TYR A   1     -22.756  -4.103 -10.169  1.00  0.00    -0.056 A 
ATOM     19  CD1 TYR A   1     -21.830  -3.502 -11.037  1.00  0.00     0.010 A 
ATOM     20  CE1 TYR A   1     -22.264  -2.814 -12.169  1.00  0.00     0.037 A 
ATOM     21  CZ  TYR A   1     -23.627  -2.709 -12.421  1.00  0.00     0.065 A 
ATOM     22  CE2 TYR A   1     -24.560  -3.261 -11.552  1.00  0.00     0.037 A 
ATOM     23  CD2 TYR A   1     -24.125  -3.959 -10.425  1.00  0.00     0.010 A 
BRANCH  21  24
ATOM     24  OH  TYR A   1     -24.094  -2.081 -13.537  1.00  0.00    -0.361 OA
ATOM     25  HH  TYR A   1     -25.054  -1.970 -13.443  1.00  0.00     0.217 HD
ENDBRANCH  21  24
ENDBRANCH  17  18
ENDBRANCH  16  17
BRANCH  16  26
ATOM     26  N   TYR A   1     -23.726  -4.445  -7.028  1.00  0.00     0.092 N 
ATOM     27  H1  TYR A   1     -24.425  -4.260  -7.748  1.00  0.00     0.313 HD
ATOM     28  H2  TYR A   1     -23.885  -3.737  -6.310  1.00  0.00     0.313 HD
ENDBRANCH  16  26
ENDBRANCH  13  16
ENDBRANCH  10  12
ENDBRANCH   7  10
ENDBRANCH   5   6
ENDBRANCH   3   5
BRANCH   1  29
ATOM     29  CA  PHE A   4     -21.561 -12.065  -0.360  1.00  0.00     0.180 C 
BRANCH  29  30
ATOM     30  C   PHE A   4     -20.242 -12.732  -0.837  1.00  0.00     0.241 C 
ATOM     31  N   LEU A   5     -19.066 -12.051  -0.572  1.00  0.00    -0.345 N 
ATOM     32  H   LEU A   5     -19.084 -11.315   0.127  1.00  0.00     0.163 HD
ATOM     33  O   PHE A   4     -20.204 -13.841  -1.383  1.00  0.00    -0.271 OA
BRANCH  31  34
ATOM     34  CA  LEU A   5     -17.735 -12.561  -0.973  1.00  0.00     0.182 C 
BRANCH  34  35
ATOM     35  CB  LEU A   5     -17.136 -11.693  -2.115  1.00  0.00     0.040 C 
BRANCH  35  36
ATOM     36  CG  LEU A   5     -18.147 -10.896  -2.984  1.00  0.00    -0.020 C 
ATOM     37  CD1 LEU A   5     -18.004  -9.386  -2.801  1.00  0.00     0.009 C 
ATOM     38  CD2 LEU A   5     -18.002 -11.192  -4.487  1.00  0.00     0.009 C 
ENDBRANCH  35  36
ENDBRANCH  34  35
BRANCH  34  39
ATOM     39  C   LEU A   5     -16.846 -12.612   0.285  1.00  0.00     0.163 C 
ATOM     40  O   LEU A   5     -16.254 -11.660   0.765  1.00  0.00    -0.648 OA
BRANCH  39  41
ATOM     41  OXT LEU A   5     -16.758 -13.852   0.836  1.00  0.00    -0.775 OA
ATOM     42  HXT LEU A   5     -17.221 -14.545   0.310  1.00  0.00     0.167 HD
ENDBRANCH  39  41
ENDBRANCH  34  39
ENDBRANCH  31  34
ENDBRANCH  29  30
BRANCH  29  43
ATOM     43  CB  PHE A   4     -21.842 -12.440   1.112  1.00  0.00     0.073 C 
BRANCH  43  44
ATOM     44  CG  PHE A   4     -22.764 -13.630   1.275  1.00  0.00    -0.056 A 
ATOM     45  CD1 PHE A   4     -23.358 -14.216   0.151  1.00  0.00     0.007 A 
ATOM     46  CE1 PHE A   4     -24.241 -15.291   0.291  1.00  0.00     0.001 A 
ATOM     47  CZ  PHE A   4     -24.540 -15.782   1.556  1.00  0.00     0.000 A 
ATOM     48  CE2 PHE A   4     -23.950 -15.208   2.685  1.00  0.00     0.001 A 
ATOM     49  CD2 PHE A   4     -23.067 -14.144   2.542  1.00  0.00     0.007 A 
ENDBRANCH  43  44
ENDBRANCH  29  43
ENDBRANCH   1  29
TORSDOF 18
ENDMDL
MODEL 5
REMARK VINA RESULT:      -7.5      2.366      3.758
REMARK  18 active torsions:
REMARK  status: ('A' for Active; 'I' for Inactive)
REMARK    1  A    between atoms: CG_2  and  CB_4 
REMARK    2  A    between atoms: CB_4  and  CA_5 
REMARK    3  A    between atoms: CA_5  and  C_6 
REMARK    4  A    between atoms: CA_5  and  N_9 
REMARK    5  A    between atoms: C_6  and  OXT_8 
REMARK       I    between atoms: N_9  and  C_12 
REMARK    6  A    between atoms: C_12  and  CA_14 
REMARK    7  A    between atoms: CA_14  and  CB_15 
REMARK    8  A    between atoms: CA_14  and  N_22 
REMARK    9  A    between atoms: CB_15  and  CG_16 
REMARK       I    between atoms: N_22  and  C_24 
REMARK   10  A    between atoms: C_24  and  CA_26 
REMARK   11  A    between atoms: CA_26  and  N_27 
REMARK       I    between atoms: N_27  and  C_29 
REMARK   12  A    between atoms: C_29  and  CA_31 
REMARK   13  A    between atoms: CA_31  and  N_33 
REMARK       I    between atoms: N_33  and  C_35 
REMARK   14  A    between atoms: C_35  and  CA_37 
REMARK   15  A    between atoms: CA_37  and  CB_38 
REMARK   16  A    between atoms: CA_37  and  N_46 
REMARK   17  A    between atoms: CB_38  and  CG_39 
REMARK   18  A    between atoms: CZ_42  and  OH_45 
ROOT
ATOM      1  N   PHE A   4     -20.808  -9.490  -3.003  1.00  0.00    -0.346 N 
ATOM      2  H   PHE A   4     -21.137  -8.744  -2.390  1.00  0.00     0.163 HD
ATOM      3  C   GLY A   3     -21.199  -9.480  -4.330  1.00  0.00     0.236 C 
ATOM      4  O   GLY A   3     -20.751 -10.265  -5.161  1.00  0.00    -0.272 OA
ENDROOT
BRANCH   3   5
ATOM      5  CA  GLY A   3     -22.236  -8.408  -4.713  1.00  0.00     0.225 C 
BRANCH   5   6
ATOM      6  N   GLY A   3     -21.670  -7.357  -5.547  1.00  0.00    -0.351 N 
ATOM      7  C   ALA A   2     -21.300  -6.138  -5.033  1.00  0.00     0.240 C 
ATOM      8  O   ALA A   2     -21.398  -5.906  -3.826  1.00  0.00    -0.271 OA
ATOM      9  H   GLY A   3     -21.554  -7.530  -6.546  1.00  0.00     0.163 HD
BRANCH   7  10
ATOM     10  CA  ALA A   2     -20.741  -5.112  -6.044  1.00  0.00     0.172 C 
ATOM     11  CB  ALA A   2     -19.582  -5.731  -6.817  1.00  0.00     0.042 C 
BRANCH  10  12
ATOM     12  N   ALA A   2     -21.776  -4.676  -6.987  1.00  0.00    -0.346 N 
ATOM     13  C   TYR A   1     -21.475  -4.007  -8.142  1.00  0.00     0.251 C 
ATOM     14  O   TYR A   1     -20.317  -3.721  -8.418  1.00  0.00    -0.271 OA
ATOM     15  H   ALA A   2     -22.757  -4.766  -6.740  1.00  0.00     0.163 HD
BRANCH  13  16
ATOM     16  CA  TYR A   1     -22.708  -3.639  -9.036  1.00  0.00     0.313 C 
BRANCH  16  17
ATOM     17  CB  TYR A   1     -22.769  -4.493 -10.320  1.00  0.00     0.083 C 
BRANCH  17  18
ATOM     18  CG  TYR A   1     -23.074  -3.732 -11.587  1.00  0.00    -0.056 A 
ATOM     19  CD1 TYR A   1     -22.087  -3.581 -12.575  1.00  0.00     0.010 A 
ATOM     20  CE1 TYR A   1     -22.387  -2.955 -13.785  1.00  0.00     0.037 A 
ATOM     21  CZ  TYR A   1     -23.669  -2.462 -13.998  1.00  0.00     0.065 A 
ATOM     22  CE2 TYR A   1     -24.646  -2.564 -13.015  1.00  0.00     0.037 A 
ATOM     23  CD2 TYR A   1     -24.350  -3.199 -11.810  1.00  0.00     0.010 A 
BRANCH  21  24
ATOM     24  OH  TYR A   1     -24.016  -1.880 -15.180  1.00  0.00    -0.361 OA
ATOM     25  HH  TYR A   1     -24.507  -2.531 -15.706  1.00  0.00     0.217 HD
ENDBRANCH  21  24
ENDBRANCH  17  18
ENDBRANCH  16  17
BRANCH  16  26
ATOM     26  N   TYR A   1     -23.967  -3.785  -8.251  1.00  0.00     0.092 N 
ATOM     27  H1  TYR A   1     -24.749  -3.511  -8.846  1.00  0.00     0.313 HD
ATOM     28  H2  TYR A   1     -23.960  -3.109  -7.487  1.00  0.00     0.313 HD
ENDBRANCH  16  26
ENDBRANCH  13  16
ENDBRANCH  10  12
ENDBRANCH   7  10
ENDBRANCH   5   6
ENDBRANCH   3   5
BRANCH   1  29
ATOM     29  CA  PHE A   4     -19.896 -10.498  -2.437  1.00  0.00     0.180 C 
BRANCH  29  30
ATOM     30  C   PHE A   4     -18.415 -10.101  -2.688  1.00  0.00     0.241 C 
ATOM     31  N   LEU A   5     -17.575 -11.093  -3.164  1.00  0.00    -0.345 N 
ATOM     32  H   LEU A   5     -17.993 -11.924  -3.571  1.00  0.00     0.163 HD
ATOM     33  O   PHE A   4     -17.987  -8.951  -2.530  1.00  0.00    -0.271 OA
BRANCH  31  34
ATOM     34  CA  LEU A   5     -16.138 -10.863  -3.442  1.00  0.00     0.182 C 
BRANCH  34  35
ATOM     35  CB  LEU A   5     -15.253 -11.594  -2.394  1.00  0.00     0.040 C 
BRANCH  35  36
ATOM     36  CG  LEU A   5     -15.999 -12.410  -1.304  1.00  0.00    -0.020 C 
ATOM     37  CD1 LEU A   5     -15.616 -13.889  -1.325  1.00  0.00     0.009 C 
ATOM     38  CD2 LEU A   5     -15.734 -11.888   0.118  1.00  0.00     0.009 C 
ENDBRANCH  35  36
ENDBRANCH  34  35
BRANCH  34  39
ATOM     39  C   LEU A   5     -15.857 -11.306  -4.892  1.00  0.00     0.163 C 
ATOM     40  O   LEU A   5     -15.955 -10.592  -5.876  1.00  0.00    -0.648 OA
BRANCH  39  41
ATOM     41  OXT LEU A   5     -15.488 -12.611  -4.997  1.00  0.00    -0.775 OA
ATOM     42  HXT LEU A   5     -16.250 -13.221  -5.127  1.00  0.00     0.167 HD
ENDBRANCH  39  41
ENDBRANCH  34  39
ENDBRANCH  31  34
ENDBRANCH  29  30
BRANCH  29  43
ATOM     43  CB  PHE A   4     -20.129 -10.746  -0.931  1.00  0.00     0.073 C 
BRANCH  43  44
ATOM     44  CG  PHE A   4     -21.238  -9.903  -0.335  1.00  0.00    -0.056 A 
ATOM     45  CD1 PHE A   4     -20.926  -8.752   0.397  1.00  0.00     0.007 A 
ATOM     46  CE1 PHE A   4     -21.938  -7.986   0.983  1.00  0.00     0.001 A 
ATOM     47  CZ  PHE A   4     -23.266  -8.371   0.847  1.00  0.00     0.000 A 
ATOM     48  CE2 PHE A   4     -23.589  -9.516   0.116  1.00  0.00     0.001 A 
ATOM     49  CD2 PHE A   4     -22.582 -10.272  -0.472  1.00  0.00     0.007 A 
ENDBRANCH  43  44
ENDBRANCH  29  43
ENDBRANCH   1  29
TORSDOF 18
ENDMDL
MODEL 6
REMARK VINA RESULT:      -7.0      2.675      4.287
REMARK  18 active torsions:
REMARK  status: ('A' for Active; 'I' for Inactive)
REMARK    1  A    between atoms: CG_2  and  CB_4 
REMARK    2  A    between atoms: CB_4  and  CA_5 
REMARK    3  A    between atoms: CA_5  and  C_6 
REMARK    4  A    between atoms: CA_5  and  N_9 
REMARK    5  A    between atoms: C_6  and  OXT_8 
REMARK       I    between atoms: N_9  and  C_12 
REMARK    6  A    between atoms: C_12  and  CA_14 
REMARK    7  A    between atoms: CA_14  and  CB_15 
REMARK    8  A    between atoms: CA_14  and  N_22 
REMARK    9  A    between atoms: CB_15  and  CG_16 
REMARK       I    between atoms: N_22  and  C_24 
REMARK   10  A    between atoms: C_24  and  CA_26 
REMARK   11  A    between atoms: CA_26  and  N_27 
REMARK       I    between atoms: N_27  and  C_29 
REMARK   12  A    between atoms: C_29  and  CA_31 
REMARK   13  A    between atoms: CA_31  and  N_33 
REMARK       I    between atoms: N_33  and  C_35 
REMARK   14  A    between atoms: C_35  and  CA_37 
REMARK   15  A    between atoms: CA_37  and  CB_38 
REMARK   16  A    between atoms: CA_37  and  N_46 
REMARK   17  A    between atoms: CB_38  and  CG_39 
REMARK   18  A    between atoms: CZ_42  and  OH_45 
ROOT
ATOM      1  N   PHE A   4     -20.553  -8.513  -2.677  1.00  0.00    -0.346 N 
ATOM      2  H   PHE A   4     -19.970  -7.872  -2.140  1.00  0.00     0.163 HD
ATOM      3  C   GLY A   3     -21.583  -7.992  -3.441  1.00  0.00     0.236 C 
ATOM      4  O   GLY A   3     -22.250  -8.676  -4.211  1.00  0.00    -0.272 OA
ENDROOT
BRANCH   3   5
ATOM      5  CA  GLY A   3     -21.841  -6.484  -3.276  1.00  0.00     0.225 C 
BRANCH   5   6
ATOM      6  N   GLY A   3     -21.523  -5.728  -4.479  1.00  0.00    -0.351 N 
ATOM      7  C   ALA A   2     -20.485  -6.078  -5.308  1.00  0.00     0.240 C 
ATOM      8  O   ALA A   2     -19.806  -7.082  -5.079  1.00  0.00    -0.271 OA
ATOM      9  H   GLY A   3     -22.084  -4.907  -4.707  1.00  0.00     0.163 HD
BRANCH   7  10
ATOM     10  CA  ALA A   2     -20.250  -5.166  -6.533  1.00  0.00     0.172 C 
ATOM     11  CB  ALA A   2     -19.337  -5.870  -7.530  1.00  0.00     0.042 C 
BRANCH  10  12
ATOM     12  N   ALA A   2     -21.516  -4.824  -7.191  1.00  0.00    -0.346 N 
ATOM     13  C   TYR A   1     -21.562  -4.094  -8.347  1.00  0.00     0.251 C 
ATOM     14  O   TYR A   1     -20.536  -3.672  -8.864  1.00  0.00    -0.271 OA
ATOM     15  H   ALA A   2     -22.397  -5.031  -6.732  1.00  0.00     0.163 HD
BRANCH  13  16
ATOM     16  CA  TYR A   1     -23.000  -3.842  -8.916  1.00  0.00     0.313 C 
BRANCH  16  17
ATOM     17  CB  TYR A   1     -23.272  -4.670 -10.191  1.00  0.00     0.083 C 
BRANCH  17  18
ATOM     18  CG  TYR A   1     -23.348  -3.875 -11.471  1.00  0.00    -0.056 A 
ATOM     19  CD1 TYR A   1     -22.224  -3.772 -12.306  1.00  0.00     0.010 A 
ATOM     20  CE1 TYR A   1     -22.311  -3.115 -13.533  1.00  0.00     0.037 A 
ATOM     21  CZ  TYR A   1     -23.519  -2.540 -13.914  1.00  0.00     0.065 A 
ATOM     22  CE2 TYR A   1     -24.630  -2.595 -13.082  1.00  0.00     0.037 A 
ATOM     23  CD2 TYR A   1     -24.546  -3.262 -11.860  1.00  0.00     0.010 A 
BRANCH  21  24
ATOM     24  OH  TYR A   1     -23.659  -1.923 -15.121  1.00  0.00    -0.361 OA
ATOM     25  HH  TYR A   1     -24.247  -1.160 -15.004  1.00  0.00     0.217 HD
ENDBRANCH  21  24
ENDBRANCH  17  18
ENDBRANCH  16  17
BRANCH  16  26
ATOM     26  N   TYR A   1     -24.020  -4.143  -7.871  1.00  0.00     0.092 N 
ATOM     27  H1  TYR A   1     -23.789  -3.606  -7.034  1.00  0.00     0.313 HD
ATOM     28  H2  TYR A   1     -23.932  -5.122  -7.595  1.00  0.00     0.313 HD
ENDBRANCH  16  26
ENDBRANCH  13  16
ENDBRANCH  10  12
ENDBRANCH   7  10
ENDBRANCH   5   6
ENDBRANCH   3   5
BRANCH   1  29
ATOM     29  CA  PHE A   4     -20.222  -9.947  -2.638  1.00  0.00     0.180 C 
BRANCH  29  30
ATOM     30  C   PHE A   4     -18.950 -10.240  -3.480  1.00  0.00     0.241 C 
ATOM     31  N   LEU A   5     -19.010 -11.317  -4.347  1.00  0.00    -0.345 N 
ATOM     32  H   LEU A   5     -19.923 -11.689  -4.591  1.00  0.00     0.163 HD
ATOM     33  O   PHE A   4     -17.935  -9.534  -3.441  1.00  0.00    -0.271 OA
BRANCH  31  34
ATOM     34  CA  LEU A   5     -17.873 -11.720  -5.207  1.00  0.00     0.182 C 
BRANCH  34  35
ATOM     35  CB  LEU A   5     -16.876 -12.612  -4.415  1.00  0.00     0.040 C 
BRANCH  35  36
ATOM     36  CG  LEU A   5     -15.366 -12.302  -4.606  1.00  0.00    -0.020 C 
ATOM     37  CD1 LEU A   5     -15.129 -10.903  -5.172  1.00  0.00     0.009 C 
ATOM     38  CD2 LEU A   5     -14.565 -12.410  -3.298  1.00  0.00     0.009 C 
ENDBRANCH  35  36
ENDBRANCH  34  35
BRANCH  34  39
ATOM     39  C   LEU A   5     -18.446 -12.412  -6.460  1.00  0.00     0.163 C 
ATOM     40  O   LEU A   5     -18.415 -13.611  -6.676  1.00  0.00    -0.648 OA
BRANCH  39  41
ATOM     41  OXT LEU A   5     -19.002 -11.546  -7.350  1.00  0.00    -0.775 OA
ATOM     42  HXT LEU A   5     -19.363 -10.732  -6.926  1.00  0.00     0.167 HD
ENDBRANCH  39  41
ENDBRANCH  34  39
ENDBRANCH  31  34
ENDBRANCH  29  30
BRANCH  29  43
ATOM     43  CB  PHE A   4     -20.041 -10.487  -1.202  1.00  0.00     0.073 C 
BRANCH  43  44
ATOM     44  CG  PHE A   4     -21.283 -11.143  -0.634  1.00  0.00    -0.056 A 
ATOM     45  CD1 PHE A   4     -22.548 -10.774  -1.105  1.00  0.00     0.007 A 
ATOM     46  CE1 PHE A   4     -23.704 -11.345  -0.563  1.00  0.00     0.001 A 
ATOM     47  CZ  PHE A   4     -23.601 -12.283   0.457  1.00  0.00     0.000 A 
ATOM     48  CE2 PHE A   4     -22.343 -12.662   0.932  1.00  0.00     0.001 A 
ATOM     49  CD2 PHE A   4     -21.196 -12.097   0.387  1.00  0.00     0.007 A 
ENDBRANCH  43  44
ENDBRANCH  29  43
ENDBRANCH   1  29
TORSDOF 18
ENDMDL
MODEL 7
REMARK VINA RESULT:      -6.9      2.352      3.670
REMARK  18 active torsions:
REMARK  status: ('A' for Active; 'I' for Inactive)
REMARK    1  A    between atoms: CG_2  and  CB_4 
REMARK    2  A    between atoms: CB_4  and  CA_5 
REMARK    3  A    between atoms: CA_5  and  C_6 
REMARK    4  A    between atoms: CA_5  and  N_9 
REMARK    5  A    between atoms: C_6  and  OXT_8 
REMARK       I    between atoms: N_9  and  C_12 
REMARK    6  A    between atoms: C_12  and  CA_14 
REMARK    7  A    between atoms: CA_14  and  CB_15 
REMARK    8  A    between atoms: CA_14  and  N_22 
REMARK    9  A    between atoms: CB_15  and  CG_16 
REMARK       I    between atoms: N_22  and  C_24 
REMARK   10  A    between atoms: C_24  and  CA_26 
REMARK   11  A    between atoms: CA_26  and  N_27 
REMARK       I    between atoms: N_27  and  C_29 
REMARK   12  A    between atoms: C_29  and  CA_31 
REMARK   13  A    between atoms: CA_31  and  N_33 
REMARK       I    between atoms: N_33  and  C_35 
REMARK   14  A    between atoms: C_35  and  CA_37 
REMARK   15  A    between atoms: CA_37  and  CB_38 
REMARK   16  A    between atoms: CA_37  and  N_46 
REMARK   17  A    between atoms: CB_38  and  CG_39 
REMARK   18  A    between atoms: CZ_42  and  OH_45 
ROOT
ATOM      1  N   PHE A   4     -20.605  -8.547  -1.877  1.00  0.00    -0.346 N 
ATOM      2  H   PHE A   4     -19.878  -7.976  -1.446  1.00  0.00     0.163 HD
ATOM      3  C   GLY A   3     -21.545  -7.929  -2.682  1.00  0.00     0.236 C 
ATOM      4  O   GLY A   3     -22.375  -8.554  -3.335  1.00  0.00    -0.272 OA
ENDROOT
BRANCH   3   5
ATOM      5  CA  GLY A   3     -21.484  -6.391  -2.721  1.00  0.00     0.225 C 
BRANCH   5   6
ATOM      6  N   GLY A   3     -21.178  -5.878  -4.049  1.00  0.00    -0.351 N 
ATOM      7  C   ALA A   2     -20.313  -6.524  -4.899  1.00  0.00     0.240 C 
ATOM      8  O   ALA A   2     -19.793  -7.594  -4.577  1.00  0.00    -0.271 OA
ATOM      9  H   GLY A   3     -21.612  -5.006  -4.352  1.00  0.00     0.163 HD
BRANCH   7  10
ATOM     10  CA  ALA A   2     -20.064  -5.846  -6.265  1.00  0.00     0.172 C 
ATOM     11  CB  ALA A   2     -19.369  -6.824  -7.205  1.00  0.00     0.042 C 
BRANCH  10  12
ATOM     12  N   ALA A   2     -21.321  -5.397  -6.873  1.00  0.00    -0.346 N 
ATOM     13  C   TYR A   1     -21.363  -4.399  -7.807  1.00  0.00     0.251 C 
ATOM     14  O   TYR A   1     -20.342  -3.818  -8.152  1.00  0.00    -0.271 OA
ATOM     15  H   ALA A   2     -22.207  -5.750  -6.524  1.00  0.00     0.163 HD
BRANCH  13  16
ATOM     16  CA  TYR A   1     -22.791  -4.068  -8.361  1.00  0.00     0.313 C 
BRANCH  16  17
ATOM     17  CB  TYR A   1     -23.123  -4.878  -9.633  1.00  0.00     0.083 C 
BRANCH  17  18
ATOM     18  CG  TYR A   1     -23.220  -4.070 -10.904  1.00  0.00    -0.056 A 
ATOM     19  CD1 TYR A   1     -22.078  -3.849 -11.690  1.00  0.00     0.010 A 
ATOM     20  CE1 TYR A   1     -22.176  -3.180 -12.909  1.00  0.00     0.037 A 
ATOM     21  CZ  TYR A   1     -23.415  -2.712 -13.332  1.00  0.00     0.065 A 
ATOM     22  CE2 TYR A   1     -24.549  -2.885 -12.548  1.00  0.00     0.037 A 
ATOM     23  CD2 TYR A   1     -24.453  -3.564 -11.334  1.00  0.00     0.010 A 
BRANCH  21  24
ATOM     24  OH  TYR A   1     -23.564  -2.089 -14.535  1.00  0.00    -0.361 OA
ATOM     25  HH  TYR A   1     -22.971  -2.517 -15.173  1.00  0.00     0.217 HD
ENDBRANCH  21  24
ENDBRANCH  17  18
ENDBRANCH  16  17
BRANCH  16  26
ATOM     26  N   TYR A   1     -23.815  -4.313  -7.305  1.00  0.00     0.092 N 
ATOM     27  H1  TYR A   1     -23.810  -5.308  -7.078  1.00  0.00     0.313 HD
ATOM     28  H2  TYR A   1     -24.741  -4.131  -7.694  1.00  0.00     0.313 HD
ENDBRANCH  16  26
ENDBRANCH  13  16
ENDBRANCH  10  12
ENDBRANCH   7  10
ENDBRANCH   5   6
ENDBRANCH   3   5
BRANCH   1  29
ATOM     29  CA  PHE A   4     -20.568 -10.001  -1.647  1.00  0.00     0.180 C 
BRANCH  29  30
ATOM     30  C   PHE A   4     -19.376 -10.647  -2.406  1.00  0.00     0.241 C 
ATOM     31  N   LEU A   5     -18.528  -9.789  -3.084  1.00  0.00    -0.345 N 
ATOM     32  H   LEU A   5     -18.554  -8.801  -2.848  1.00  0.00     0.163 HD
ATOM     33  O   PHE A   4     -19.138 -11.860  -2.382  1.00  0.00    -0.271 OA
BRANCH  31  34
ATOM     34  CA  LEU A   5     -17.356 -10.262  -3.856  1.00  0.00     0.182 C 
BRANCH  34  35
ATOM     35  CB  LEU A   5     -17.352  -9.642  -5.281  1.00  0.00     0.040 C 
BRANCH  35  36
ATOM     36  CG  LEU A   5     -17.213 -10.634  -6.468  1.00  0.00    -0.020 C 
ATOM     37  CD1 LEU A   5     -16.042 -11.598  -6.284  1.00  0.00     0.009 C 
ATOM     38  CD2 LEU A   5     -18.477 -11.483  -6.687  1.00  0.00     0.009 C 
ENDBRANCH  35  36
ENDBRANCH  34  35
BRANCH  34  39
ATOM     39  C   LEU A   5     -16.087  -9.932  -3.044  1.00  0.00     0.163 C 
ATOM     40  O   LEU A   5     -15.701  -8.808  -2.771  1.00  0.00    -0.648 OA
BRANCH  39  41
ATOM     41  OXT LEU A   5     -15.395 -11.035  -2.650  1.00  0.00    -0.775 OA
ATOM     42  HXT LEU A   5     -15.035 -10.961  -1.735  1.00  0.00     0.167 HD
ENDBRANCH  39  41
ENDBRANCH  34  39
ENDBRANCH  31  34
ENDBRANCH  29  30
BRANCH  29  43
ATOM     43  CB  PHE A   4     -20.508 -10.375  -0.150  1.00  0.00     0.073 C 
BRANCH  43  44
ATOM     44  CG  PHE A   4     -21.552 -11.389   0.270  1.00  0.00    -0.056 A 
ATOM     45  CD1 PHE A   4     -22.892 -11.204  -0.089  1.00  0.00     0.007 A 
ATOM     46  CE1 PHE A   4     -23.872 -12.112   0.324  1.00  0.00     0.001 A 
ATOM     47  CZ  PHE A   4     -23.518 -13.205   1.106  1.00  0.00     0.000 A 
ATOM     48  CE2 PHE A   4     -22.183 -13.402   1.467  1.00  0.00     0.001 A 
ATOM     49  CD2 PHE A   4     -21.211 -12.501   1.049  1.00  0.00     0.007 A 
ENDBRANCH  43  44
ENDBRANCH  29  43
ENDBRANCH   1  29
TORSDOF 18
ENDMDL
MODEL 8
REMARK VINA RESULT:      -6.7      2.398      3.943
REMARK  18 active torsions:
REMARK  status: ('A' for Active; 'I' for Inactive)
REMARK    1  A    between atoms: CG_2  and  CB_4 
REMARK    2  A    between atoms: CB_4  and  CA_5 
REMARK    3  A    between atoms: CA_5  and  C_6 
REMARK    4  A    between atoms: CA_5  and  N_9 
REMARK    5  A    between atoms: C_6  and  OXT_8 
REMARK       I    between atoms: N_9  and  C_12 
REMARK    6  A    between atoms: C_12  and  CA_14 
REMARK    7  A    between atoms: CA_14  and  CB_15 
REMARK    8  A    between atoms: CA_14  and  N_22 
REMARK    9  A    between atoms: CB_15  and  CG_16 
REMARK       I    between atoms: N_22  and  C_24 
REMARK   10  A    between atoms: C_24  and  CA_26 
REMARK   11  A    between atoms: CA_26  and  N_27 
REMARK       I    between atoms: N_27  and  C_29 
REMARK   12  A    between atoms: C_29  and  CA_31 
REMARK   13  A    between atoms: CA_31  and  N_33 
REMARK       I    between atoms: N_33  and  C_35 
REMARK   14  A    between atoms: C_35  and  CA_37 
REMARK   15  A    between atoms: CA_37  and  CB_38 
REMARK   16  A    between atoms: CA_37  and  N_46 
REMARK   17  A    between atoms: CB_38  and  CG_39 
REMARK   18  A    between atoms: CZ_42  and  OH_45 
ROOT
ATOM      1  N   PHE A   4     -21.513 -10.355  -2.896  1.00  0.00    -0.346 N 
ATOM      2  H   PHE A   4     -21.730  -9.778  -2.083  1.00  0.00     0.163 HD
ATOM      3  C   GLY A   3     -21.593  -9.786  -4.155  1.00  0.00     0.236 C 
ATOM      4  O   GLY A   3     -21.230 -10.369  -5.172  1.00  0.00    -0.272 OA
ENDROOT
BRANCH   3   5
ATOM      5  CA  GLY A   3     -22.162  -8.357  -4.207  1.00  0.00     0.225 C 
BRANCH   5   6
ATOM      6  N   GLY A   3     -21.537  -7.545  -5.242  1.00  0.00    -0.351 N 
ATOM      7  C   ALA A   2     -21.147  -6.247  -5.014  1.00  0.00     0.240 C 
ATOM      8  O   ALA A   2     -21.277  -5.735  -3.900  1.00  0.00    -0.271 OA
ATOM      9  H   GLY A   3     -21.395  -7.950  -6.167  1.00  0.00     0.163 HD
BRANCH   7  10
ATOM     10  CA  ALA A   2     -20.524  -5.500  -6.215  1.00  0.00     0.172 C 
ATOM     11  CB  ALA A   2     -19.449  -6.369  -6.859  1.00  0.00     0.042 C 
BRANCH  10  12
ATOM     12  N   ALA A   2     -21.541  -5.163  -7.217  1.00  0.00    -0.346 N 
ATOM     13  C   TYR A   1     -21.795  -3.873  -7.593  1.00  0.00     0.251 C 
ATOM     14  O   TYR A   1     -21.193  -2.939  -7.077  1.00  0.00    -0.271 OA
ATOM     15  H   ALA A   2     -22.160  -5.885  -7.573  1.00  0.00     0.163 HD
BRANCH  13  16
ATOM     16  CA  TYR A   1     -22.901  -3.706  -8.690  1.00  0.00     0.313 C 
BRANCH  16  17
ATOM     17  CB  TYR A   1     -22.582  -4.520  -9.963  1.00  0.00     0.083 C 
BRANCH  17  18
ATOM     18  CG  TYR A   1     -22.915  -3.835 -11.266  1.00  0.00    -0.056 A 
ATOM     19  CD1 TYR A   1     -21.919  -3.642 -12.237  1.00  0.00     0.010 A 
ATOM     20  CE1 TYR A   1     -22.237  -3.091 -13.477  1.00  0.00     0.037 A 
ATOM     21  CZ  TYR A   1     -23.549  -2.712 -13.738  1.00  0.00     0.065 A 
ATOM     22  CE2 TYR A   1     -24.540  -2.856 -12.775  1.00  0.00     0.037 A 
ATOM     23  CD2 TYR A   1     -24.224  -3.418 -11.538  1.00  0.00     0.010 A 
BRANCH  21  24
ATOM     24  OH  TYR A   1     -23.912  -2.207 -14.951  1.00  0.00    -0.361 OA
ATOM     25  HH  TYR A   1     -23.163  -2.312 -15.560  1.00  0.00     0.217 HD
ENDBRANCH  21  24
ENDBRANCH  17  18
ENDBRANCH  16  17
BRANCH  16  26
ATOM     26  N   TYR A   1     -24.228  -4.099  -8.138  1.00  0.00     0.092 N 
ATOM     27  H1  TYR A   1     -24.930  -3.970  -8.867  1.00  0.00     0.313 HD
ATOM     28  H2  TYR A   1     -24.486  -3.444  -7.398  1.00  0.00     0.313 HD
ENDBRANCH  16  26
ENDBRANCH  13  16
ENDBRANCH  10  12
ENDBRANCH   7  10
ENDBRANCH   5   6
ENDBRANCH   3   5
BRANCH   1  29
ATOM     29  CA  PHE A   4     -21.079 -11.742  -2.663  1.00  0.00     0.180 C 
BRANCH  29  30
ATOM     30  C   PHE A   4     -19.541 -11.811  -2.456  1.00  0.00     0.241 C 
ATOM     31  N   LEU A   5     -18.750 -11.392  -3.513  1.00  0.00    -0.345 N 
ATOM     32  H   LEU A   5     -19.179 -10.829  -4.241  1.00  0.00     0.163 HD
ATOM     33  O   PHE A   4     -19.016 -12.166  -1.395  1.00  0.00    -0.271 OA
BRANCH  31  34
ATOM     34  CA  LEU A   5     -17.270 -11.407  -3.463  1.00  0.00     0.182 C 
BRANCH  34  35
ATOM     35  CB  LEU A   5     -16.677 -11.674  -4.874  1.00  0.00     0.040 C 
BRANCH  35  36
ATOM     36  CG  LEU A   5     -15.572 -12.762  -4.969  1.00  0.00    -0.020 C 
ATOM     37  CD1 LEU A   5     -14.355 -12.283  -5.759  1.00  0.00     0.009 C 
ATOM     38  CD2 LEU A   5     -15.072 -13.225  -3.590  1.00  0.00     0.009 C 
ENDBRANCH  35  36
ENDBRANCH  34  35
BRANCH  34  39
ATOM     39  C   LEU A   5     -16.801 -10.074  -2.847  1.00  0.00     0.163 C 
ATOM     40  O   LEU A   5     -17.483  -9.069  -2.744  1.00  0.00    -0.648 OA
BRANCH  39  41
ATOM     41  OXT LEU A   5     -15.510 -10.101  -2.419  1.00  0.00    -0.775 OA
ATOM     42  HXT LEU A   5     -15.133 -11.010  -2.377  1.00  0.00     0.167 HD
ENDBRANCH  39  41
ENDBRANCH  34  39
ENDBRANCH  31  34
ENDBRANCH  29  30
BRANCH  29  43
ATOM     43  CB  PHE A   4     -21.802 -12.410  -1.472  1.00  0.00     0.073 C 
BRANCH  43  44
ATOM     44  CG  PHE A   4     -22.770 -13.502  -1.878  1.00  0.00    -0.056 A 
ATOM     45  CD1 PHE A   4     -23.818 -13.862  -1.023  1.00  0.00     0.007 A 
ATOM     46  CE1 PHE A   4     -24.696 -14.894  -1.369  1.00  0.00     0.001 A 
ATOM     47  CZ  PHE A   4     -24.527 -15.576  -2.567  1.00  0.00     0.000 A 
ATOM     48  CE2 PHE A   4     -23.487 -15.222  -3.430  1.00  0.00     0.001 A 
ATOM     49  CD2 PHE A   4     -22.620 -14.191  -3.087  1.00  0.00     0.007 A 
ENDBRANCH  43  44
ENDBRANCH  29  43
ENDBRANCH   1  29
TORSDOF 18
ENDMDL
MODEL 9
REMARK VINA RESULT:      -6.7     17.704     20.707
REMARK  18 active torsions:
REMARK  status: ('A' for Active; 'I' for Inactive)
REMARK    1  A    between atoms: CG_2  and  CB_4 
REMARK    2  A    between atoms: CB_4  and  CA_5 
REMARK    3  A    between atoms: CA_5  and  C_6 
REMARK    4  A    between atoms: CA_5  and  N_9 
REMARK    5  A    between atoms: C_6  and  OXT_8 
REMARK       I    between atoms: N_9  and  C_12 
REMARK    6  A    between atoms: C_12  and  CA_14 
REMARK    7  A    between atoms: CA_14  and  CB_15 
REMARK    8  A    between atoms: CA_14  and  N_22 
REMARK    9  A    between atoms: CB_15  and  CG_16 
REMARK       I    between atoms: N_22  and  C_24 
REMARK   10  A    between atoms: C_24  and  CA_26 
REMARK   11  A    between atoms: CA_26  and  N_27 
REMARK       I    between atoms: N_27  and  C_29 
REMARK   12  A    between atoms: C_29  and  CA_31 
REMARK   13  A    between atoms: CA_31  and  N_33 
REMARK       I    between atoms: N_33  and  C_35 
REMARK   14  A    between atoms: C_35  and  CA_37 
REMARK   15  A    between atoms: CA_37  and  CB_38 
REMARK   16  A    between atoms: CA_37  and  N_46 
REMARK   17  A    between atoms: CB_38  and  CG_39 
REMARK   18  A    between atoms: CZ_42  and  OH_45 
ROOT
ATOM      1  N   PHE A   4     -27.475  11.086  -0.067  1.00  0.00    -0.346 N 
ATOM      2  H   PHE A   4     -28.488  11.204  -0.042  1.00  0.00     0.163 HD
ATOM      3  C   GLY A   3     -26.754  11.739  -1.051  1.00  0.00     0.236 C 
ATOM      4  O   GLY A   3     -25.527  11.753  -1.078  1.00  0.00    -0.272 OA
ENDROOT
BRANCH   3   5
ATOM      5  CA  GLY A   3     -27.590  12.466  -2.120  1.00  0.00     0.225 C 
BRANCH   5   6
ATOM      6  N   GLY A   3     -27.889  11.619  -3.266  1.00  0.00    -0.351 N 
ATOM      7  C   ALA A   2     -28.887  10.676  -3.234  1.00  0.00     0.240 C 
ATOM      8  O   ALA A   2     -29.599  10.543  -2.237  1.00  0.00    -0.271 OA
ATOM      9  H   GLY A   3     -27.333  11.723  -4.114  1.00  0.00     0.163 HD
BRANCH   7  10
ATOM     10  CA  ALA A   2     -29.071   9.831  -4.515  1.00  0.00     0.172 C 
ATOM     11  CB  ALA A   2     -29.866  10.626  -5.546  1.00  0.00     0.042 C 
BRANCH  10  12
ATOM     12  N   ALA A   2     -27.776   9.450  -5.090  1.00  0.00    -0.346 N 
ATOM     13  C   TYR A   1     -27.110   8.320  -4.702  1.00  0.00     0.251 C 
ATOM     14  O   TYR A   1     -27.564   7.594  -3.827  1.00  0.00    -0.271 OA
ATOM     15  H   ALA A   2     -27.293  10.087  -5.716  1.00  0.00     0.163 HD
BRANCH  13  16
ATOM     16  CA  TYR A   1     -25.752   8.064  -5.439  1.00  0.00     0.313 C 
BRANCH  16  17
ATOM     17  CB  TYR A   1     -24.673   7.502  -4.489  1.00  0.00     0.083 C 
BRANCH  17  18
ATOM     18  CG  TYR A   1     -23.581   8.472  -4.108  1.00  0.00    -0.056 A 
ATOM     19  CD1 TYR A   1     -23.906   9.706  -3.521  1.00  0.00     0.010 A 
ATOM     20  CE1 TYR A   1     -22.901  10.569  -3.086  1.00  0.00     0.037 A 
ATOM     21  CZ  TYR A   1     -21.570  10.207  -3.257  1.00  0.00     0.065 A 
ATOM     22  CE2 TYR A   1     -21.229   9.009  -3.873  1.00  0.00     0.037 A 
ATOM     23  CD2 TYR A   1     -22.234   8.141  -4.299  1.00  0.00     0.010 A 
BRANCH  21  24
ATOM     24  OH  TYR A   1     -20.557  11.001  -2.810  1.00  0.00    -0.361 OA
ATOM     25  HH  TYR A   1     -20.673  11.132  -1.856  1.00  0.00     0.217 HD
ENDBRANCH  21  24
ENDBRANCH  17  18
ENDBRANCH  16  17
BRANCH  16  26
ATOM     26  N   TYR A   1     -25.965   7.141  -6.591  1.00  0.00     0.092 N 
ATOM     27  H1  TYR A   1     -25.955   6.183  -6.240  1.00  0.00     0.313 HD
ATOM     28  H2  TYR A   1     -25.162   7.206  -7.219  1.00  0.00     0.313 HD
ENDBRANCH  16  26
ENDBRANCH  13  16
ENDBRANCH  10  12
ENDBRANCH   7  10
ENDBRANCH   5   6
ENDBRANCH   3   5
BRANCH   1  29
ATOM     29  CA  PHE A   4     -26.849  10.267   0.984  1.00  0.00     0.180 C 
BRANCH  29  30
ATOM     30  C   PHE A   4     -27.562  10.481   2.347  1.00  0.00     0.241 C 
ATOM     31  N   LEU A   5     -27.140   9.693   3.403  1.00  0.00    -0.345 N 
ATOM     32  H   LEU A   5     -26.244   9.222   3.324  1.00  0.00     0.163 HD
ATOM     33  O   PHE A   4     -28.431  11.342   2.527  1.00  0.00    -0.271 OA
BRANCH  31  34
ATOM     34  CA  LEU A   5     -27.732   9.781   4.758  1.00  0.00     0.182 C 
BRANCH  34  35
ATOM     35  CB  LEU A   5     -28.001   8.362   5.333  1.00  0.00     0.040 C 
BRANCH  35  36
ATOM     36  CG  LEU A   5     -29.296   7.652   4.852  1.00  0.00    -0.020 C 
ATOM     37  CD1 LEU A   5     -29.037   6.711   3.677  1.00  0.00     0.009 C 
ATOM     38  CD2 LEU A   5     -29.971   6.828   5.962  1.00  0.00     0.009 C 
ENDBRANCH  35  36
ENDBRANCH  34  35
BRANCH  34  39
ATOM     39  C   LEU A   5     -26.787  10.626   5.636  1.00  0.00     0.163 C 
ATOM     40  O   LEU A   5     -26.231  10.233   6.648  1.00  0.00    -0.648 OA
BRANCH  39  41
ATOM     41  OXT LEU A   5     -26.622  11.898   5.185  1.00  0.00    -0.775 OA
ATOM     42  HXT LEU A   5     -27.329  12.183   4.560  1.00  0.00     0.167 HD
ENDBRANCH  39  41
ENDBRANCH  34  39
ENDBRANCH  31  34
ENDBRANCH  29  30
BRANCH  29  43
ATOM     43  CB  PHE A   4     -26.814   8.762   0.636  1.00  0.00     0.073 C 
BRANCH  43  44
ATOM     44  CG  PHE A   4     -25.449   8.263   0.212  1.00  0.00    -0.056 A 
ATOM     45  CD1 PHE A   4     -24.293   8.853   0.737  1.00  0.00     0.007 A 
ATOM     46  CE1 PHE A   4     -23.027   8.426   0.325  1.00  0.00     0.001 A 
ATOM     47  CZ  PHE A   4     -22.909   7.413  -0.618  1.00  0.00     0.000 A 
ATOM     48  CE2 PHE A   4     -24.055   6.815  -1.146  1.00  0.00     0.001 A 
ATOM     49  CD2 PHE A   4     -25.312   7.236  -0.730  1.00  0.00     0.007 A 
ENDBRANCH  43  44
ENDBRANCH  29  43
ENDBRANCH   1  29
TORSDOF 18
ENDMDL
