MODEL 1
REMARK VINA RESULT:      -5.1      0.000      0.000
REMARK  5 active torsions:
REMARK  status: ('A' for Active; 'I' for Inactive)
REMARK       I    between atoms: C_2  and  N_4 
REMARK    1  A    between atoms: N_4  and  CA_5 
REMARK    2  A    between atoms: CA_5  and  CB_6 
REMARK    3  A    between atoms: CA_5  and  C_8 
REMARK    4  A    between atoms: CB_6  and  SG_7 
REMARK    5  A    between atoms: C_8  and  OXT_10 
ROOT
ATOM      1  CA  CYS A   1     -23.543  -4.045 -10.786  1.00  0.00     0.191 C 
ENDROOT
BRANCH   1   2
ATOM      2  N   CYS A   1     -23.432  -2.972 -11.779  1.00  0.00    -0.346 N 
HETATM    3  C   UNK A   0     -23.872  -3.104 -13.071  1.00  0.00     0.214 C 
HETATM    4  C   UNK A   0     -23.654  -1.883 -13.921  1.00  0.00     0.117 C 
HETATM    5  O   UNK A   0     -24.415  -4.120 -13.490  1.00  0.00    -0.274 OA
ATOM      6  H   CYS A   1     -23.183  -2.047 -11.433  1.00  0.00     0.163 HD
ENDBRANCH   1   2
BRANCH   1   7
ATOM      7  CB  CYS A   1     -22.215  -4.357 -10.080  1.00  0.00     0.106 C 
BRANCH   7   8
ATOM      8  SG  CYS A   1     -20.695  -3.952 -11.011  1.00  0.00    -0.180 SA
ATOM      9  HG  CYS A   1     -20.109  -5.162 -10.918  1.00  0.00     0.101 HD
ENDBRANCH   7   8
ENDBRANCH   1   7
BRANCH   1  10
ATOM     10  C   CYS A   1     -24.555  -3.575  -9.734  1.00  0.00     0.164 C 
ATOM     11  O   CYS A   1     -25.669  -3.136 -10.021  1.00  0.00    -0.648 OA
BRANCH  10  12
ATOM     12  OXT CYS A   1     -24.141  -3.675  -8.454  1.00  0.00    -0.775 OA
ATOM     13  HXT CYS A   1     -23.307  -3.217  -8.233  1.00  0.00     0.167 HD
ENDBRANCH  10  12
ENDBRANCH   1  10
TORSDOF 5
ENDMDL
MODEL 2
REMARK VINA RESULT:      -5.0      2.235      3.205
REMARK  5 active torsions:
REMARK  status: ('A' for Active; 'I' for Inactive)
REMARK       I    between atoms: C_2  and  N_4 
REMARK    1  A    between atoms: N_4  and  CA_5 
REMARK    2  A    between atoms: CA_5  and  CB_6 
REMARK    3  A    between atoms: CA_5  and  C_8 
REMARK    4  A    between atoms: CB_6  and  SG_7 
REMARK    5  A    between atoms: C_8  and  OXT_10 
ROOT
ATOM      1  CA  CYS A   1     -23.416  -3.293 -10.683  1.00  0.00     0.191 C 
ENDROOT
BRANCH   1   2
ATOM      2  N   CYS A   1     -22.305  -4.090 -10.154  1.00  0.00    -0.346 N 
HETATM    3  C   UNK A   0     -20.996  -3.855 -10.485  1.00  0.00     0.214 C 
HETATM    4  C   UNK A   0     -20.020  -4.795  -9.832  1.00  0.00     0.117 C 
HETATM    5  O   UNK A   0     -20.649  -2.945 -11.230  1.00  0.00    -0.274 OA
ATOM      6  H   CYS A   1     -22.516  -4.715  -9.378  1.00  0.00     0.163 HD
ENDBRANCH   1   2
BRANCH   1   7
ATOM      7  CB  CYS A   1     -23.923  -3.790 -12.046  1.00  0.00     0.106 C 
BRANCH   7   8
ATOM      8  SG  CYS A   1     -23.462  -2.775 -13.494  1.00  0.00    -0.180 SA
ATOM      9  HG  CYS A   1     -23.552  -3.749 -14.422  1.00  0.00     0.101 HD
ENDBRANCH   7   8
ENDBRANCH   1   7
BRANCH   1  10
ATOM     10  C   CYS A   1     -24.562  -3.396  -9.670  1.00  0.00     0.164 C 
ATOM     11  O   CYS A   1     -25.736  -3.163  -9.956  1.00  0.00    -0.648 OA
BRANCH  10  12
ATOM     12  OXT CYS A   1     -24.196  -3.764  -8.425  1.00  0.00    -0.775 OA
ATOM     13  HXT CYS A   1     -24.795  -3.495  -7.702  1.00  0.00     0.167 HD
ENDBRANCH  10  12
ENDBRANCH   1  10
TORSDOF 5
ENDMDL
MODEL 3
REMARK VINA RESULT:      -4.8      2.609      3.154
REMARK  5 active torsions:
REMARK  status: ('A' for Active; 'I' for Inactive)
REMARK       I    between atoms: C_2  and  N_4 
REMARK    1  A    between atoms: N_4  and  CA_5 
REMARK    2  A    between atoms: CA_5  and  CB_6 
REMARK    3  A    between atoms: CA_5  and  C_8 
REMARK    4  A    between atoms: CB_6  and  SG_7 
REMARK    5  A    between atoms: C_8  and  OXT_10 
ROOT
ATOM      1  CA  CYS A   1     -22.312  -3.474 -11.487  1.00  0.00     0.191 C 
ENDROOT
BRANCH   1   2
ATOM      2  N   CYS A   1     -22.142  -3.295 -12.932  1.00  0.00    -0.346 N 
HETATM    3  C   UNK A   0     -23.128  -2.794 -13.742  1.00  0.00     0.214 C 
HETATM    4  C   UNK A   0     -22.742  -2.700 -15.192  1.00  0.00     0.117 C 
HETATM    5  O   UNK A   0     -24.221  -2.434 -13.318  1.00  0.00    -0.274 OA
ATOM      6  H   CYS A   1     -21.195  -3.380 -13.298  1.00  0.00     0.163 HD
ENDBRANCH   1   2
BRANCH   1   7
ATOM      7  CB  CYS A   1     -23.269  -4.621 -11.126  1.00  0.00     0.106 C 
BRANCH   7   8
ATOM      8  SG  CYS A   1     -24.440  -4.293  -9.763  1.00  0.00    -0.180 SA
ATOM      9  HG  CYS A   1     -23.707  -4.838  -8.772  1.00  0.00     0.101 HD
ENDBRANCH   7   8
ENDBRANCH   1   7
BRANCH   1  10
ATOM     10  C   CYS A   1     -20.928  -3.795 -10.911  1.00  0.00     0.164 C 
ATOM     11  O   CYS A   1     -20.741  -4.083  -9.729  1.00  0.00    -0.648 OA
BRANCH  10  12
ATOM     12  OXT CYS A   1     -19.911  -3.742 -11.796  1.00  0.00    -0.775 OA
ATOM     13  HXT CYS A   1     -19.029  -3.537 -11.428  1.00  0.00     0.167 HD
ENDBRANCH  10  12
ENDBRANCH   1  10
TORSDOF 5
ENDMDL
MODEL 4
REMARK VINA RESULT:      -4.6      2.533      4.406
REMARK  5 active torsions:
REMARK  status: ('A' for Active; 'I' for Inactive)
REMARK       I    between atoms: C_2  and  N_4 
REMARK    1  A    between atoms: N_4  and  CA_5 
REMARK    2  A    between atoms: CA_5  and  CB_6 
REMARK    3  A    between atoms: CA_5  and  C_8 
REMARK    4  A    between atoms: CB_6  and  SG_7 
REMARK    5  A    between atoms: C_8  and  OXT_10 
ROOT
ATOM      1  CA  CYS A   1     -22.737  -3.660  -9.536  1.00  0.00     0.191 C 
ENDROOT
BRANCH   1   2
ATOM      2  N   CYS A   1     -22.212  -4.714  -8.662  1.00  0.00    -0.346 N 
HETATM    3  C   UNK A   0     -21.536  -4.449  -7.499  1.00  0.00     0.214 C 
HETATM    4  C   UNK A   0     -21.081  -5.678  -6.761  1.00  0.00     0.117 C 
HETATM    5  O   UNK A   0     -21.338  -3.312  -7.086  1.00  0.00    -0.274 OA
ATOM      6  H   CYS A   1     -22.526  -5.665  -8.847  1.00  0.00     0.163 HD
ENDBRANCH   1   2
BRANCH   1   7
ATOM      7  CB  CYS A   1     -22.175  -3.721 -10.964  1.00  0.00     0.106 C 
BRANCH   7   8
ATOM      8  SG  CYS A   1     -23.025  -2.687 -12.208  1.00  0.00    -0.180 SA
ATOM      9  HG  CYS A   1     -23.899  -2.094 -11.370  1.00  0.00     0.101 HD
ENDBRANCH   7   8
ENDBRANCH   1   7
BRANCH   1  10
ATOM     10  C   CYS A   1     -24.256  -3.851  -9.602  1.00  0.00     0.164 C 
ATOM     11  O   CYS A   1     -24.788  -4.891  -9.992  1.00  0.00    -0.648 OA
BRANCH  10  12
ATOM     12  OXT CYS A   1     -24.988  -2.791  -9.200  1.00  0.00    -0.775 OA
ATOM     13  HXT CYS A   1     -25.958  -2.887  -9.263  1.00  0.00     0.167 HD
ENDBRANCH  10  12
ENDBRANCH   1  10
TORSDOF 5
ENDMDL
MODEL 5
REMARK VINA RESULT:      -4.4     17.268     17.999
REMARK  5 active torsions:
REMARK  status: ('A' for Active; 'I' for Inactive)
REMARK       I    between atoms: C_2  and  N_4 
REMARK    1  A    between atoms: N_4  and  CA_5 
REMARK    2  A    between atoms: CA_5  and  CB_6 
REMARK    3  A    between atoms: CA_5  and  C_8 
REMARK    4  A    between atoms: CB_6  and  SG_7 
REMARK    5  A    between atoms: C_8  and  OXT_10 
ROOT
ATOM      1  CA  CYS A   1     -11.140   5.142 -19.687  1.00  0.00     0.191 C 
ENDROOT
BRANCH   1   2
ATOM      2  N   CYS A   1     -11.564   6.025 -20.778  1.00  0.00    -0.346 N 
HETATM    3  C   UNK A   0     -12.465   7.044 -20.605  1.00  0.00     0.214 C 
HETATM    4  C   UNK A   0     -12.761   7.821 -21.858  1.00  0.00     0.117 C 
HETATM    5  O   UNK A   0     -12.969   7.311 -19.520  1.00  0.00    -0.274 OA
ATOM      6  H   CYS A   1     -11.025   5.982 -21.642  1.00  0.00     0.163 HD
ENDBRANCH   1   2
BRANCH   1   7
ATOM      7  CB  CYS A   1     -10.982   3.677 -20.121  1.00  0.00     0.106 C 
BRANCH   7   8
ATOM      8  SG  CYS A   1     -12.349   2.980 -21.114  1.00  0.00    -0.180 SA
ATOM      9  HG  CYS A   1     -13.338   3.210 -20.228  1.00  0.00     0.101 HD
ENDBRANCH   7   8
ENDBRANCH   1   7
BRANCH   1  10
ATOM     10  C   CYS A   1      -9.780   5.655 -19.201  1.00  0.00     0.164 C 
ATOM     11  O   CYS A   1      -8.873   5.989 -19.964  1.00  0.00    -0.648 OA
BRANCH  10  12
ATOM     12  OXT CYS A   1      -9.636   5.720 -17.861  1.00  0.00    -0.775 OA
ATOM     13  HXT CYS A   1     -10.428   5.985 -17.354  1.00  0.00     0.167 HD
ENDBRANCH  10  12
ENDBRANCH   1  10
TORSDOF 5
ENDMDL
MODEL 6
REMARK VINA RESULT:      -4.3      3.160      4.708
REMARK  5 active torsions:
REMARK  status: ('A' for Active; 'I' for Inactive)
REMARK       I    between atoms: C_2  and  N_4 
REMARK    1  A    between atoms: N_4  and  CA_5 
REMARK    2  A    between atoms: CA_5  and  CB_6 
REMARK    3  A    between atoms: CA_5  and  C_8 
REMARK    4  A    between atoms: CB_6  and  SG_7 
REMARK    5  A    between atoms: C_8  and  OXT_10 
ROOT
ATOM      1  CA  CYS A   1     -22.219  -4.411 -10.521  1.00  0.00     0.191 C 
ENDROOT
BRANCH   1   2
ATOM      2  N   CYS A   1     -21.994  -3.991  -9.135  1.00  0.00    -0.346 N 
HETATM    3  C   UNK A   0     -20.908  -4.393  -8.401  1.00  0.00     0.214 C 
HETATM    4  C   UNK A   0     -20.877  -3.847  -7.000  1.00  0.00     0.117 C 
HETATM    5  O   UNK A   0     -20.027  -5.116  -8.854  1.00  0.00    -0.274 OA
ATOM      6  H   CYS A   1     -22.576  -3.232  -8.783  1.00  0.00     0.163 HD
ENDBRANCH   1   2
BRANCH   1   7
ATOM      7  CB  CYS A   1     -23.706  -4.466 -10.904  1.00  0.00     0.106 C 
BRANCH   7   8
ATOM      8  SG  CYS A   1     -24.842  -3.494  -9.853  1.00  0.00    -0.180 SA
ATOM      9  HG  CYS A   1     -25.154  -4.476  -8.984  1.00  0.00     0.101 HD
ENDBRANCH   7   8
ENDBRANCH   1   7
BRANCH   1  10
ATOM     10  C   CYS A   1     -21.523  -3.382 -11.418  1.00  0.00     0.164 C 
ATOM     11  O   CYS A   1     -22.106  -2.420 -11.918  1.00  0.00    -0.648 OA
BRANCH  10  12
ATOM     12  OXT CYS A   1     -20.208  -3.600 -11.630  1.00  0.00    -0.775 OA
ATOM     13  HXT CYS A   1     -19.968  -4.478 -11.985  1.00  0.00     0.167 HD
ENDBRANCH  10  12
ENDBRANCH   1  10
TORSDOF 5
ENDMDL
MODEL 7
REMARK VINA RESULT:      -4.3      2.406      2.735
REMARK  5 active torsions:
REMARK  status: ('A' for Active; 'I' for Inactive)
REMARK       I    between atoms: C_2  and  N_4 
REMARK    1  A    between atoms: N_4  and  CA_5 
REMARK    2  A    between atoms: CA_5  and  CB_6 
REMARK    3  A    between atoms: CA_5  and  C_8 
REMARK    4  A    between atoms: CB_6  and  SG_7 
REMARK    5  A    between atoms: C_8  and  OXT_10 
ROOT
ATOM      1  CA  CYS A   1     -23.535  -4.135  -9.763  1.00  0.00     0.191 C 
ENDROOT
BRANCH   1   2
ATOM      2  N   CYS A   1     -22.336  -3.382 -10.146  1.00  0.00    -0.346 N 
HETATM    3  C   UNK A   0     -21.496  -3.781 -11.153  1.00  0.00     0.214 C 
HETATM    4  C   UNK A   0     -20.325  -2.865 -11.375  1.00  0.00     0.117 C 
HETATM    5  O   UNK A   0     -21.694  -4.786 -11.828  1.00  0.00    -0.274 OA
ATOM      6  H   CYS A   1     -22.240  -2.443  -9.764  1.00  0.00     0.163 HD
ENDBRANCH   1   2
BRANCH   1   7
ATOM      7  CB  CYS A   1     -23.752  -4.193  -8.243  1.00  0.00     0.106 C 
BRANCH   7   8
ATOM      8  SG  CYS A   1     -22.260  -4.479  -7.227  1.00  0.00    -0.180 SA
ATOM      9  HG  CYS A   1     -22.652  -3.777  -6.146  1.00  0.00     0.101 HD
ENDBRANCH   7   8
ENDBRANCH   1   7
BRANCH   1  10
ATOM     10  C   CYS A   1     -24.732  -3.421 -10.399  1.00  0.00     0.164 C 
ATOM     11  O   CYS A   1     -24.739  -3.024 -11.565  1.00  0.00    -0.648 OA
BRANCH  10  12
ATOM     12  OXT CYS A   1     -25.797  -3.250  -9.588  1.00  0.00    -0.775 OA
ATOM     13  HXT CYS A   1     -25.602  -3.143  -8.637  1.00  0.00     0.167 HD
ENDBRANCH  10  12
ENDBRANCH   1  10
TORSDOF 5
ENDMDL
MODEL 8
REMARK VINA RESULT:      -4.1      1.970      2.461
REMARK  5 active torsions:
REMARK  status: ('A' for Active; 'I' for Inactive)
REMARK       I    between atoms: C_2  and  N_4 
REMARK    1  A    between atoms: N_4  and  CA_5 
REMARK    2  A    between atoms: CA_5  and  CB_6 
REMARK    3  A    between atoms: CA_5  and  C_8 
REMARK    4  A    between atoms: CB_6  and  SG_7 
REMARK    5  A    between atoms: C_8  and  OXT_10 
ROOT
ATOM      1  CA  CYS A   1     -22.153  -4.351  -9.167  1.00  0.00     0.191 C 
ENDROOT
BRANCH   1   2
ATOM      2  N   CYS A   1     -22.353  -3.436 -10.295  1.00  0.00    -0.346 N 
HETATM    3  C   UNK A   0     -22.908  -3.831 -11.485  1.00  0.00     0.214 C 
HETATM    4  C   UNK A   0     -23.015  -2.733 -12.507  1.00  0.00     0.117 C 
HETATM    5  O   UNK A   0     -23.303  -4.973 -11.691  1.00  0.00    -0.274 OA
ATOM      6  H   CYS A   1     -22.238  -2.441 -10.108  1.00  0.00     0.163 HD
ENDBRANCH   1   2
BRANCH   1   7
ATOM      7  CB  CYS A   1     -20.840  -4.101  -8.410  1.00  0.00     0.106 C 
BRANCH   7   8
ATOM      8  SG  CYS A   1     -20.086  -5.557  -7.604  1.00  0.00    -0.180 SA
ATOM      9  HG  CYS A   1     -19.377  -5.992  -8.664  1.00  0.00     0.101 HD
ENDBRANCH   7   8
ENDBRANCH   1   7
BRANCH   1  10
ATOM     10  C   CYS A   1     -23.322  -4.129  -8.200  1.00  0.00     0.164 C 
ATOM     11  O   CYS A   1     -23.317  -4.527  -7.035  1.00  0.00    -0.648 OA
BRANCH  10  12
ATOM     12  OXT CYS A   1     -24.374  -3.460  -8.715  1.00  0.00    -0.775 OA
ATOM     13  HXT CYS A   1     -25.112  -4.006  -9.049  1.00  0.00     0.167 HD
ENDBRANCH  10  12
ENDBRANCH   1  10
TORSDOF 5
ENDMDL
MODEL 9
REMARK VINA RESULT:      -4.1      2.833      3.503
REMARK  5 active torsions:
REMARK  status: ('A' for Active; 'I' for Inactive)
REMARK       I    between atoms: C_2  and  N_4 
REMARK    1  A    between atoms: N_4  and  CA_5 
REMARK    2  A    between atoms: CA_5  and  CB_6 
REMARK    3  A    between atoms: CA_5  and  C_8 
REMARK    4  A    between atoms: CB_6  and  SG_7 
REMARK    5  A    between atoms: C_8  and  OXT_10 
ROOT
ATOM      1  CA  CYS A   1     -21.790  -3.889 -10.112  1.00  0.00     0.191 C 
ENDROOT
BRANCH   1   2
ATOM      2  N   CYS A   1     -22.799  -4.197 -11.130  1.00  0.00    -0.346 N 
HETATM    3  C   UNK A   0     -23.216  -3.287 -12.067  1.00  0.00     0.214 C 
HETATM    4  C   UNK A   0     -24.261  -3.813 -13.011  1.00  0.00     0.117 C 
HETATM    5  O   UNK A   0     -22.760  -2.151 -12.142  1.00  0.00    -0.274 OA
ATOM      6  H   CYS A   1     -23.054  -5.177 -11.244  1.00  0.00     0.163 HD
ENDBRANCH   1   2
BRANCH   1   7
ATOM      7  CB  CYS A   1     -22.004  -4.653  -8.797  1.00  0.00     0.106 C 
BRANCH   7   8
ATOM      8  SG  CYS A   1     -21.398  -3.831  -7.281  1.00  0.00    -0.180 SA
ATOM      9  HG  CYS A   1     -20.522  -4.785  -6.907  1.00  0.00     0.101 HD
ENDBRANCH   7   8
ENDBRANCH   1   7
BRANCH   1  10
ATOM     10  C   CYS A   1     -20.431  -4.291 -10.695  1.00  0.00     0.164 C 
ATOM     11  O   CYS A   1     -19.734  -5.188 -10.220  1.00  0.00    -0.648 OA
BRANCH  10  12
ATOM     12  OXT CYS A   1     -20.039  -3.589 -11.778  1.00  0.00    -0.775 OA
ATOM     13  HXT CYS A   1     -19.304  -2.960 -11.642  1.00  0.00     0.167 HD
ENDBRANCH  10  12
ENDBRANCH   1  10
TORSDOF 5
ENDMDL
