MODEL 1
REMARK VINA RESULT:      -7.3      0.000      0.000
REMARK  12 active torsions:
REMARK  status: ('A' for Active; 'I' for Inactive)
REMARK    1  A    between atoms: C_6  and  O_11 
REMARK    2  A    between atoms: C_7  and  C_8 
REMARK    3  A    between atoms: C_8  and  O_10 
REMARK    4  A    between atoms: C_18  and  O_35 
REMARK    5  A    between atoms: C_19  and  C_24 
REMARK    6  A    between atoms: C_20  and  O_23 
REMARK    7  A    between atoms: C_21  and  O_22 
REMARK    8  A    between atoms: C_25  and  O_34 
REMARK    9  A    between atoms: C_26  and  O_33 
REMARK   10  A    between atoms: C_27  and  O_32 
REMARK   11  A    between atoms: C_28  and  C_30 
REMARK   12  A    between atoms: C_30  and  O_31 
ROOT
HETATM    1  C   UNL     1     -20.711 -10.169   0.546  1.00  0.00     0.050 C 
HETATM    2  C   UNL     1     -20.825  -9.244  -0.653  1.00  0.00    -0.027 A 
HETATM    3  C   UNL     1     -20.070  -9.436  -1.860  1.00  0.00     0.036 A 
HETATM    4  C   UNL     1     -20.204  -8.552  -2.940  1.00  0.00     0.032 A 
HETATM    5  C   UNL     1     -21.082  -7.477  -2.845  1.00  0.00     0.054 A 
HETATM    6  C   UNL     1     -21.830  -7.277  -1.682  1.00  0.00     0.084 A 
HETATM    7  C   UNL     1     -21.725  -8.141  -0.571  1.00  0.00     0.077 A 
HETATM    8  C   UNL     1     -19.442  -8.725  -4.215  1.00  0.00     0.197 A 
HETATM    9  O   UNL     1     -19.641  -7.917  -5.115  1.00  0.00    -0.286 OA
HETATM   10  C   UNL     1     -18.470  -9.840  -4.355  1.00  0.00     0.068 A 
HETATM   11  C   UNL     1     -18.308 -10.674  -3.264  1.00  0.00     0.066 A 
HETATM   12  C   UNL     1     -19.136 -10.558  -2.058  1.00  0.00     0.197 A 
HETATM   13  O   UNL     1     -19.038 -11.469  -1.244  1.00  0.00    -0.286 OA
HETATM   14  C   UNL     1     -17.361 -11.711  -3.333  1.00  0.00     0.092 A 
HETATM   15  C   UNL     1     -16.626 -12.032  -4.501  1.00  0.00     0.043 A 
HETATM   16  C   UNL     1     -16.806 -11.198  -5.588  1.00  0.00     0.111 A 
HETATM   17  C   UNL     1     -17.708 -10.102  -5.514  1.00  0.00     0.115 A 
ENDROOT
BRANCH  15  18
HETATM   18  C   UNL     1     -15.811 -13.306  -4.364  1.00  0.00     0.192 C 
HETATM   19  C   UNL     1     -15.483 -13.889  -5.764  1.00  0.00     0.183 C 
HETATM   20  C   UNL     1     -15.376 -15.404  -5.564  1.00  0.00     0.181 C 
HETATM   21  C   UNL     1     -14.313 -15.748  -4.507  1.00  0.00     0.180 C 
HETATM   22  C   UNL     1     -14.495 -14.883  -3.227  1.00  0.00     0.177 C 
HETATM   23  O   UNL     1     -14.619 -13.436  -3.543  1.00  0.00    -0.368 OA
BRANCH  19  24
HETATM   24  O   UNL     1     -14.265 -13.339  -6.295  1.00  0.00    -0.390 OA
HETATM   25  H   UNL     1     -13.576 -13.438  -5.618  1.00  0.00     0.210 HD
ENDBRANCH  19  24
BRANCH  20  26
HETATM   26  O   UNL     1     -15.111 -16.057  -6.803  1.00  0.00    -0.390 OA
HETATM   27  H   UNL     1     -15.900 -16.606  -6.980  1.00  0.00     0.210 HD
ENDBRANCH  20  26
BRANCH  21  28
HETATM   28  O   UNL     1     -13.003 -15.605  -5.077  1.00  0.00    -0.390 OA
HETATM   29  H   UNL     1     -12.984 -14.845  -5.678  1.00  0.00     0.210 HD
ENDBRANCH  21  28
BRANCH  22  30
HETATM   30  C   UNL     1     -13.372 -15.161  -2.221  1.00  0.00     0.198 C 
BRANCH  30  31
HETATM   31  O   UNL     1     -12.200 -14.437  -2.576  1.00  0.00    -0.398 OA
HETATM   32  H   UNL     1     -12.465 -13.508  -2.680  1.00  0.00     0.209 HD
ENDBRANCH  30  31
ENDBRANCH  22  30
ENDBRANCH  15  18
BRANCH  14  33
HETATM   33  O   UNL     1     -17.103 -12.506  -2.229  1.00  0.00    -0.359 OA
HETATM   34  H   UNL     1     -17.911 -13.029  -2.011  1.00  0.00     0.217 HD
ENDBRANCH  14  33
BRANCH  16  35
HETATM   35  O   UNL     1     -16.140 -11.373  -6.774  1.00  0.00    -0.357 OA
HETATM   36  H   UNL     1     -15.885 -12.312  -6.846  1.00  0.00     0.217 HD
ENDBRANCH  16  35
BRANCH  17  37
HETATM   37  O   UNL     1     -17.825  -9.308  -6.626  1.00  0.00    -0.357 OA
HETATM   38  H   UNL     1     -18.648  -9.582  -7.077  1.00  0.00     0.217 HD
ENDBRANCH  17  37
BRANCH   7  39
HETATM   39  C   UNL     1     -22.561  -7.905   0.681  1.00  0.00     0.179 C 
HETATM   40  O   UNL     1     -22.109  -7.808   1.810  1.00  0.00    -0.646 OA
BRANCH  39  41
HETATM   41  O   UNL     1     -23.895  -7.808   0.486  1.00  0.00    -0.773 OA
HETATM   42  H   UNL     1     -24.142  -7.088  -0.134  1.00  0.00     0.167 HD
ENDBRANCH  39  41
ENDBRANCH   7  39
BRANCH   6  43
HETATM   43  O   UNL     1     -22.676  -6.197  -1.646  1.00  0.00    -0.360 OA
HETATM   44  H   UNL     1     -22.156  -5.376  -1.558  1.00  0.00     0.217 HD
ENDBRANCH   6  43
TORSDOF 12
ENDMDL
MODEL 2
REMARK VINA RESULT:      -7.1      4.104      6.827
REMARK  12 active torsions:
REMARK  status: ('A' for Active; 'I' for Inactive)
REMARK    1  A    between atoms: C_6  and  O_11 
REMARK    2  A    between atoms: C_7  and  C_8 
REMARK    3  A    between atoms: C_8  and  O_10 
REMARK    4  A    between atoms: C_18  and  O_35 
REMARK    5  A    between atoms: C_19  and  C_24 
REMARK    6  A    between atoms: C_20  and  O_23 
REMARK    7  A    between atoms: C_21  and  O_22 
REMARK    8  A    between atoms: C_25  and  O_34 
REMARK    9  A    between atoms: C_26  and  O_33 
REMARK   10  A    between atoms: C_27  and  O_32 
REMARK   11  A    between atoms: C_28  and  C_30 
REMARK   12  A    between atoms: C_30  and  O_31 
ROOT
HETATM    1  C   UNL     1     -19.887  -5.247  -9.731  1.00  0.00     0.050 C 
HETATM    2  C   UNL     1     -21.033  -5.114  -8.744  1.00  0.00    -0.027 A 
HETATM    3  C   UNL     1     -21.060  -5.802  -7.484  1.00  0.00     0.036 A 
HETATM    4  C   UNL     1     -22.143  -5.651  -6.606  1.00  0.00     0.032 A 
HETATM    5  C   UNL     1     -23.204  -4.824  -6.957  1.00  0.00     0.054 A 
HETATM    6  C   UNL     1     -23.193  -4.141  -8.176  1.00  0.00     0.084 A 
HETATM    7  C   UNL     1     -22.124  -4.264  -9.090  1.00  0.00     0.077 A 
HETATM    8  C   UNL     1     -22.202  -6.344  -5.282  1.00  0.00     0.197 A 
HETATM    9  O   UNL     1     -23.177  -6.135  -4.570  1.00  0.00    -0.286 OA
HETATM   10  C   UNL     1     -21.108  -7.262  -4.874  1.00  0.00     0.068 A 
HETATM   11  C   UNL     1     -20.071  -7.444  -5.770  1.00  0.00     0.066 A 
HETATM   12  C   UNL     1     -19.972  -6.679  -7.019  1.00  0.00     0.197 A 
HETATM   13  O   UNL     1     -18.915  -6.779  -7.633  1.00  0.00    -0.286 OA
HETATM   14  C   UNL     1     -19.040  -8.343  -5.448  1.00  0.00     0.092 A 
HETATM   15  C   UNL     1     -18.934  -9.008  -4.202  1.00  0.00     0.043 A 
HETATM   16  C   UNL     1     -19.971  -8.810  -3.310  1.00  0.00     0.111 A 
HETATM   17  C   UNL     1     -21.057  -7.958  -3.646  1.00  0.00     0.115 A 
ENDROOT
BRANCH  15  18
HETATM   18  C   UNL     1     -17.634  -9.777  -4.043  1.00  0.00     0.192 C 
HETATM   19  C   UNL     1     -17.564 -10.434  -2.638  1.00  0.00     0.183 C 
HETATM   20  C   UNL     1     -16.075 -10.502  -2.288  1.00  0.00     0.181 C 
HETATM   21  C   UNL     1     -15.292 -11.285  -3.356  1.00  0.00     0.180 C 
HETATM   22  C   UNL     1     -15.654 -10.797  -4.788  1.00  0.00     0.177 C 
HETATM   23  O   UNL     1     -17.124 -10.740  -5.004  1.00  0.00    -0.368 OA
BRANCH  19  24
HETATM   24  O   UNL     1     -18.169 -11.739  -2.634  1.00  0.00    -0.390 OA
HETATM   25  H   UNL     1     -18.333 -11.986  -1.709  1.00  0.00     0.210 HD
ENDBRANCH  19  24
BRANCH  20  26
HETATM   26  O   UNL     1     -15.889 -11.060  -0.990  1.00  0.00    -0.390 OA
HETATM   27  H   UNL     1     -16.403 -10.488  -0.386  1.00  0.00     0.210 HD
ENDBRANCH  20  26
BRANCH  21  28
HETATM   28  O   UNL     1     -15.524 -12.692  -3.187  1.00  0.00    -0.390 OA
HETATM   29  H   UNL     1     -16.278 -12.971  -3.728  1.00  0.00     0.210 HD
ENDBRANCH  21  28
BRANCH  22  30
HETATM   30  C   UNL     1     -14.946 -11.649  -5.846  1.00  0.00     0.198 C 
BRANCH  30  31
HETATM   31  O   UNL     1     -13.653 -12.029  -5.390  1.00  0.00    -0.398 OA
HETATM   32  H   UNL     1     -13.233 -11.229  -5.037  1.00  0.00     0.209 HD
ENDBRANCH  30  31
ENDBRANCH  22  30
ENDBRANCH  15  18
BRANCH  14  33
HETATM   33  O   UNL     1     -18.035  -8.622  -6.360  1.00  0.00    -0.359 OA
HETATM   34  H   UNL     1     -18.327  -9.357  -6.948  1.00  0.00     0.217 HD
ENDBRANCH  14  33
BRANCH  16  35
HETATM   35  O   UNL     1     -20.013  -9.411  -2.078  1.00  0.00    -0.357 OA
HETATM   36  H   UNL     1     -20.937  -9.402  -1.765  1.00  0.00     0.217 HD
ENDBRANCH  16  35
BRANCH  17  37
HETATM   37  O   UNL     1     -22.058  -7.820  -2.719  1.00  0.00    -0.357 OA
HETATM   38  H   UNL     1     -21.705  -8.167  -1.876  1.00  0.00     0.217 HD
ENDBRANCH  17  37
BRANCH   7  39
HETATM   39  C   UNL     1     -22.134  -3.499 -10.407  1.00  0.00     0.179 C 
HETATM   40  O   UNL     1     -21.188  -2.869 -10.852  1.00  0.00    -0.646 OA
BRANCH  39  41
HETATM   41  O   UNL     1     -23.294  -3.541 -11.101  1.00  0.00    -0.773 OA
HETATM   42  H   UNL     1     -23.161  -3.663 -12.066  1.00  0.00     0.167 HD
ENDBRANCH  39  41
ENDBRANCH   7  39
BRANCH   6  43
HETATM   43  O   UNL     1     -24.270  -3.342  -8.469  1.00  0.00    -0.360 OA
HETATM   44  H   UNL     1     -24.530  -2.838  -7.675  1.00  0.00     0.217 HD
ENDBRANCH   6  43
TORSDOF 12
ENDMDL
MODEL 3
REMARK VINA RESULT:      -6.7      1.624      2.396
REMARK  12 active torsions:
REMARK  status: ('A' for Active; 'I' for Inactive)
REMARK    1  A    between atoms: C_6  and  O_11 
REMARK    2  A    between atoms: C_7  and  C_8 
REMARK    3  A    between atoms: C_8  and  O_10 
REMARK    4  A    between atoms: C_18  and  O_35 
REMARK    5  A    between atoms: C_19  and  C_24 
REMARK    6  A    between atoms: C_20  and  O_23 
REMARK    7  A    between atoms: C_21  and  O_22 
REMARK    8  A    between atoms: C_25  and  O_34 
REMARK    9  A    between atoms: C_26  and  O_33 
REMARK   10  A    between atoms: C_27  and  O_32 
REMARK   11  A    between atoms: C_28  and  C_30 
REMARK   12  A    between atoms: C_30  and  O_31 
ROOT
HETATM    1  C   UNL     1     -20.636  -8.724  -0.244  1.00  0.00     0.050 C 
HETATM    2  C   UNL     1     -20.506  -8.427  -1.728  1.00  0.00    -0.027 A 
HETATM    3  C   UNL     1     -19.584  -9.120  -2.584  1.00  0.00     0.036 A 
HETATM    4  C   UNL     1     -19.496  -8.808  -3.948  1.00  0.00     0.032 A 
HETATM    5  C   UNL     1     -20.313  -7.816  -4.481  1.00  0.00     0.054 A 
HETATM    6  C   UNL     1     -21.220  -7.135  -3.666  1.00  0.00     0.084 A 
HETATM    7  C   UNL     1     -21.341  -7.416  -2.288  1.00  0.00     0.077 A 
HETATM    8  C   UNL     1     -18.556  -9.514  -4.871  1.00  0.00     0.197 A 
HETATM    9  O   UNL     1     -18.564  -9.191  -6.053  1.00  0.00    -0.286 OA
HETATM   10  C   UNL     1     -17.642 -10.560  -4.345  1.00  0.00     0.068 A 
HETATM   11  C   UNL     1     -17.701 -10.823  -2.988  1.00  0.00     0.066 A 
HETATM   12  C   UNL     1     -18.699 -10.199  -2.112  1.00  0.00     0.197 A 
HETATM   13  O   UNL     1     -18.783 -10.655  -0.977  1.00  0.00    -0.286 OA
HETATM   14  C   UNL     1     -16.818 -11.767  -2.438  1.00  0.00     0.092 A 
HETATM   15  C   UNL     1     -15.929 -12.560  -3.206  1.00  0.00     0.043 A 
HETATM   16  C   UNL     1     -15.888 -12.296  -4.562  1.00  0.00     0.111 A 
HETATM   17  C   UNL     1     -16.724 -11.295  -5.126  1.00  0.00     0.115 A 
ENDROOT
BRANCH  15  18
HETATM   18  C   UNL     1     -15.223 -13.628  -2.390  1.00  0.00     0.192 C 
HETATM   19  C   UNL     1     -15.784 -15.033  -2.740  1.00  0.00     0.183 C 
HETATM   20  C   UNL     1     -15.625 -15.868  -1.467  1.00  0.00     0.181 C 
HETATM   21  C   UNL     1     -14.156 -15.906  -1.011  1.00  0.00     0.180 C 
HETATM   22  C   UNL     1     -13.536 -14.479  -0.995  1.00  0.00     0.177 C 
HETATM   23  O   UNL     1     -13.780 -13.750  -2.268  1.00  0.00    -0.368 OA
BRANCH  19  24
HETATM   24  O   UNL     1     -15.084 -15.621  -3.850  1.00  0.00    -0.390 OA
HETATM   25  H   UNL     1     -14.804 -16.512  -3.584  1.00  0.00     0.210 HD
ENDBRANCH  19  24
BRANCH  20  26
HETATM   26  O   UNL     1     -16.145 -17.181  -1.658  1.00  0.00    -0.390 OA
HETATM   27  H   UNL     1     -16.862 -17.081  -2.317  1.00  0.00     0.210 HD
ENDBRANCH  20  26
BRANCH  21  28
HETATM   28  O   UNL     1     -13.416 -16.810  -1.846  1.00  0.00    -0.390 OA
HETATM   29  H   UNL     1     -12.953 -17.463  -1.300  1.00  0.00     0.210 HD
ENDBRANCH  21  28
BRANCH  22  30
HETATM   30  C   UNL     1     -12.048 -14.538  -0.638  1.00  0.00     0.198 C 
BRANCH  30  31
HETATM   31  O   UNL     1     -11.812 -15.555   0.331  1.00  0.00    -0.398 OA
HETATM   32  H   UNL     1     -12.558 -16.173   0.275  1.00  0.00     0.209 HD
ENDBRANCH  30  31
ENDBRANCH  22  30
ENDBRANCH  15  18
BRANCH  14  33
HETATM   33  O   UNL     1     -16.783 -11.988  -1.071  1.00  0.00    -0.359 OA
HETATM   34  H   UNL     1     -17.588 -12.490  -0.803  1.00  0.00     0.217 HD
ENDBRANCH  14  33
BRANCH  16  35
HETATM   35  O   UNL     1     -15.057 -12.966  -5.422  1.00  0.00    -0.357 OA
HETATM   36  H   UNL     1     -15.347 -12.781  -6.334  1.00  0.00     0.217 HD
ENDBRANCH  16  35
BRANCH  17  37
HETATM   37  O   UNL     1     -16.619 -11.077  -6.476  1.00  0.00    -0.357 OA
HETATM   38  H   UNL     1     -15.842 -11.585  -6.780  1.00  0.00     0.217 HD
ENDBRANCH  17  37
BRANCH   7  39
HETATM   39  C   UNL     1     -22.347  -6.665  -1.425  1.00  0.00     0.179 C 
HETATM   40  O   UNL     1     -23.070  -7.183  -0.590  1.00  0.00    -0.646 OA
BRANCH  39  41
HETATM   41  O   UNL     1     -22.416  -5.331  -1.633  1.00  0.00    -0.773 OA
HETATM   42  H   UNL     1     -21.607  -4.963  -2.048  1.00  0.00     0.167 HD
ENDBRANCH  39  41
ENDBRANCH   7  39
BRANCH   6  43
HETATM   43  O   UNL     1     -21.996  -6.164  -4.249  1.00  0.00    -0.360 OA
HETATM   44  H   UNL     1     -22.904  -6.499  -4.370  1.00  0.00     0.217 HD
ENDBRANCH   6  43
TORSDOF 12
ENDMDL
MODEL 4
REMARK VINA RESULT:      -6.7      5.272      8.818
REMARK  12 active torsions:
REMARK  status: ('A' for Active; 'I' for Inactive)
REMARK    1  A    between atoms: C_6  and  O_11 
REMARK    2  A    between atoms: C_7  and  C_8 
REMARK    3  A    between atoms: C_8  and  O_10 
REMARK    4  A    between atoms: C_18  and  O_35 
REMARK    5  A    between atoms: C_19  and  C_24 
REMARK    6  A    between atoms: C_20  and  O_23 
REMARK    7  A    between atoms: C_21  and  O_22 
REMARK    8  A    between atoms: C_25  and  O_34 
REMARK    9  A    between atoms: C_26  and  O_33 
REMARK   10  A    between atoms: C_27  and  O_32 
REMARK   11  A    between atoms: C_28  and  C_30 
REMARK   12  A    between atoms: C_30  and  O_31 
ROOT
HETATM    1  C   UNL     1     -22.162 -13.479  -5.264  1.00  0.00     0.050 C 
HETATM    2  C   UNL     1     -22.226 -13.088  -3.799  1.00  0.00    -0.027 A 
HETATM    3  C   UNL     1     -22.094 -11.732  -3.347  1.00  0.00     0.036 A 
HETATM    4  C   UNL     1     -22.155 -11.419  -1.981  1.00  0.00     0.032 A 
HETATM    5  C   UNL     1     -22.347 -12.435  -1.051  1.00  0.00     0.054 A 
HETATM    6  C   UNL     1     -22.484 -13.760  -1.470  1.00  0.00     0.084 A 
HETATM    7  C   UNL     1     -22.428 -14.120  -2.835  1.00  0.00     0.077 A 
HETATM    8  C   UNL     1     -22.031 -10.018  -1.474  1.00  0.00     0.197 A 
HETATM    9  O   UNL     1     -22.120  -9.836  -0.266  1.00  0.00    -0.286 OA
HETATM   10  C   UNL     1     -21.795  -8.901  -2.425  1.00  0.00     0.068 A 
HETATM   11  C   UNL     1     -21.685  -9.228  -3.765  1.00  0.00     0.066 A 
HETATM   12  C   UNL     1     -21.911 -10.591  -4.260  1.00  0.00     0.197 A 
HETATM   13  O   UNL     1     -21.982 -10.719  -5.478  1.00  0.00    -0.286 OA
HETATM   14  C   UNL     1     -21.409  -8.210  -4.694  1.00  0.00     0.092 A 
HETATM   15  C   UNL     1     -21.341  -6.835  -4.362  1.00  0.00     0.043 A 
HETATM   16  C   UNL     1     -21.464  -6.520  -3.022  1.00  0.00     0.111 A 
HETATM   17  C   UNL     1     -21.673  -7.544  -2.059  1.00  0.00     0.115 A 
ENDROOT
BRANCH  15  18
HETATM   18  C   UNL     1     -21.214  -5.932  -5.576  1.00  0.00     0.192 C 
HETATM   19  C   UNL     1     -19.737  -5.868  -6.050  1.00  0.00     0.183 C 
HETATM   20  C   UNL     1     -19.569  -4.487  -6.687  1.00  0.00     0.181 C 
HETATM   21  C   UNL     1     -20.574  -4.280  -7.833  1.00  0.00     0.180 C 
HETATM   22  C   UNL     1     -22.013  -4.678  -7.394  1.00  0.00     0.177 C 
HETATM   23  O   UNL     1     -22.052  -6.023  -6.760  1.00  0.00    -0.368 OA
BRANCH  19  24
HETATM   24  O   UNL     1     -19.435  -6.922  -6.982  1.00  0.00    -0.390 OA
HETATM   25  H   UNL     1     -19.360  -6.523  -7.864  1.00  0.00     0.210 HD
ENDBRANCH  19  24
BRANCH  20  26
HETATM   26  O   UNL     1     -18.227  -4.298  -7.132  1.00  0.00    -0.390 OA
HETATM   27  H   UNL     1     -17.968  -3.414  -6.804  1.00  0.00     0.210 HD
ENDBRANCH  20  26
BRANCH  21  28
HETATM   28  O   UNL     1     -20.140  -5.006  -8.993  1.00  0.00    -0.390 OA
HETATM   29  H   UNL     1     -20.907  -5.284  -9.517  1.00  0.00     0.210 HD
ENDBRANCH  21  28
BRANCH  22  30
HETATM   30  C   UNL     1     -22.989  -4.565  -8.570  1.00  0.00     0.198 C 
BRANCH  30  31
HETATM   31  O   UNL     1     -24.212  -3.974  -8.142  1.00  0.00    -0.398 OA
HETATM   32  H   UNL     1     -24.089  -3.012  -8.187  1.00  0.00     0.209 HD
ENDBRANCH  30  31
ENDBRANCH  22  30
ENDBRANCH  15  18
BRANCH  14  33
HETATM   33  O   UNL     1     -21.198  -8.512  -6.030  1.00  0.00    -0.359 OA
HETATM   34  H   UNL     1     -21.484  -9.440  -6.200  1.00  0.00     0.217 HD
ENDBRANCH  14  33
BRANCH  16  35
HETATM   35  O   UNL     1     -21.391  -5.234  -2.554  1.00  0.00    -0.357 OA
HETATM   36  H   UNL     1     -20.863  -4.709  -3.184  1.00  0.00     0.217 HD
ENDBRANCH  16  35
BRANCH  17  37
HETATM   37  O   UNL     1     -21.772  -7.160  -0.745  1.00  0.00    -0.357 OA
HETATM   38  H   UNL     1     -21.789  -7.982  -0.216  1.00  0.00     0.217 HD
ENDBRANCH  17  37
BRANCH   7  39
HETATM   39  C   UNL     1     -22.591 -15.572  -3.265  1.00  0.00     0.179 C 
HETATM   40  O   UNL     1     -21.677 -16.296  -3.626  1.00  0.00    -0.646 OA
BRANCH  39  41
HETATM   41  O   UNL     1     -23.853 -16.054  -3.237  1.00  0.00    -0.773 OA
HETATM   42  H   UNL     1     -24.461 -15.577  -3.841  1.00  0.00     0.167 HD
ENDBRANCH  39  41
ENDBRANCH   7  39
BRANCH   6  43
HETATM   43  O   UNL     1     -22.667 -14.719  -0.506  1.00  0.00    -0.360 OA
HETATM   44  H   UNL     1     -23.378 -14.441   0.102  1.00  0.00     0.217 HD
ENDBRANCH   6  43
TORSDOF 12
ENDMDL
MODEL 5
REMARK VINA RESULT:      -6.7      3.734      9.393
REMARK  12 active torsions:
REMARK  status: ('A' for Active; 'I' for Inactive)
REMARK    1  A    between atoms: C_6  and  O_11 
REMARK    2  A    between atoms: C_7  and  C_8 
REMARK    3  A    between atoms: C_8  and  O_10 
REMARK    4  A    between atoms: C_18  and  O_35 
REMARK    5  A    between atoms: C_19  and  C_24 
REMARK    6  A    between atoms: C_20  and  O_23 
REMARK    7  A    between atoms: C_21  and  O_22 
REMARK    8  A    between atoms: C_25  and  O_34 
REMARK    9  A    between atoms: C_26  and  O_33 
REMARK   10  A    between atoms: C_27  and  O_32 
REMARK   11  A    between atoms: C_28  and  C_30 
REMARK   12  A    between atoms: C_30  and  O_31 
ROOT
HETATM    1  C   UNL     1     -15.767 -11.021  -5.726  1.00  0.00     0.050 C 
HETATM    2  C   UNL     1     -16.540 -10.992  -4.420  1.00  0.00    -0.027 A 
HETATM    3  C   UNL     1     -17.685 -10.151  -4.210  1.00  0.00     0.036 A 
HETATM    4  C   UNL     1     -18.366 -10.154  -2.984  1.00  0.00     0.032 A 
HETATM    5  C   UNL     1     -17.928 -10.983  -1.956  1.00  0.00     0.054 A 
HETATM    6  C   UNL     1     -16.820 -11.813  -2.142  1.00  0.00     0.084 A 
HETATM    7  C   UNL     1     -16.105 -11.841  -3.360  1.00  0.00     0.077 A 
HETATM    8  C   UNL     1     -19.567  -9.300  -2.733  1.00  0.00     0.197 A 
HETATM    9  O   UNL     1     -20.112  -9.386  -1.638  1.00  0.00    -0.286 OA
HETATM   10  C   UNL     1     -20.056  -8.376  -3.787  1.00  0.00     0.068 A 
HETATM   11  C   UNL     1     -19.346  -8.343  -4.974  1.00  0.00     0.066 A 
HETATM   12  C   UNL     1     -18.233  -9.260  -5.247  1.00  0.00     0.197 A 
HETATM   13  O   UNL     1     -17.813  -9.273  -6.399  1.00  0.00    -0.286 OA
HETATM   14  C   UNL     1     -19.741  -7.445  -5.980  1.00  0.00     0.092 A 
HETATM   15  C   UNL     1     -20.900  -6.634  -5.904  1.00  0.00     0.043 A 
HETATM   16  C   UNL     1     -21.608  -6.684  -4.718  1.00  0.00     0.111 A 
HETATM   17  C   UNL     1     -21.183  -7.535  -3.662  1.00  0.00     0.115 A 
ENDROOT
BRANCH  15  18
HETATM   18  C   UNL     1     -21.200  -5.895  -7.197  1.00  0.00     0.192 C 
HETATM   19  C   UNL     1     -22.376  -4.903  -6.990  1.00  0.00     0.183 C 
HETATM   20  C   UNL     1     -23.070  -4.799  -8.351  1.00  0.00     0.181 C 
HETATM   21  C   UNL     1     -22.086  -4.343  -9.441  1.00  0.00     0.180 C 
HETATM   22  C   UNL     1     -20.768  -5.170  -9.388  1.00  0.00     0.177 C 
HETATM   23  O   UNL     1     -20.201  -5.229  -8.015  1.00  0.00    -0.368 OA
BRANCH  19  24
HETATM   24  O   UNL     1     -21.912  -3.620  -6.534  1.00  0.00    -0.390 OA
HETATM   25  H   UNL     1     -22.079  -3.567  -5.580  1.00  0.00     0.210 HD
ENDBRANCH  19  24
BRANCH  20  26
HETATM   26  O   UNL     1     -24.200  -3.934  -8.274  1.00  0.00    -0.390 OA
HETATM   27  H   UNL     1     -23.831  -3.038  -8.140  1.00  0.00     0.210 HD
ENDBRANCH  20  26
BRANCH  21  28
HETATM   28  O   UNL     1     -21.847  -2.933  -9.315  1.00  0.00    -0.390 OA
HETATM   29  H   UNL     1     -22.607  -2.436  -9.654  1.00  0.00     0.210 HD
ENDBRANCH  21  28
BRANCH  22  30
HETATM   30  C   UNL     1     -19.756  -4.642 -10.410  1.00  0.00     0.198 C 
BRANCH  30  31
HETATM   31  O   UNL     1     -20.431  -4.026 -11.501  1.00  0.00    -0.398 OA
HETATM   32  H   UNL     1     -20.316  -4.611 -12.268  1.00  0.00     0.209 HD
ENDBRANCH  30  31
ENDBRANCH  22  30
ENDBRANCH  15  18
BRANCH  14  33
HETATM   33  O   UNL     1     -19.000  -7.316  -7.143  1.00  0.00    -0.359 OA
HETATM   34  H   UNL     1     -19.046  -6.382  -7.455  1.00  0.00     0.217 HD
ENDBRANCH  14  33
BRANCH  16  35
HETATM   35  O   UNL     1     -22.733  -5.933  -4.494  1.00  0.00    -0.357 OA
HETATM   36  H   UNL     1     -23.513  -6.487  -4.687  1.00  0.00     0.217 HD
ENDBRANCH  16  35
BRANCH  17  37
HETATM   37  O   UNL     1     -21.924  -7.523  -2.508  1.00  0.00    -0.357 OA
HETATM   38  H   UNL     1     -22.369  -6.653  -2.473  1.00  0.00     0.217 HD
ENDBRANCH  17  37
BRANCH   7  39
HETATM   39  C   UNL     1     -14.906 -12.763  -3.538  1.00  0.00     0.179 C 
HETATM   40  O   UNL     1     -13.743 -12.395  -3.562  1.00  0.00    -0.646 OA
BRANCH  39  41
HETATM   41  O   UNL     1     -15.193 -14.077  -3.683  1.00  0.00    -0.773 OA
HETATM   42  H   UNL     1     -15.942 -14.372  -3.122  1.00  0.00     0.167 HD
ENDBRANCH  39  41
ENDBRANCH   7  39
BRANCH   6  43
HETATM   43  O   UNL     1     -16.433 -12.606  -1.090  1.00  0.00    -0.360 OA
HETATM   44  H   UNL     1     -15.573 -13.020  -1.291  1.00  0.00     0.217 HD
ENDBRANCH   6  43
TORSDOF 12
ENDMDL
MODEL 6
REMARK VINA RESULT:      -6.5      1.878      3.016
REMARK  12 active torsions:
REMARK  status: ('A' for Active; 'I' for Inactive)
REMARK    1  A    between atoms: C_6  and  O_11 
REMARK    2  A    between atoms: C_7  and  C_8 
REMARK    3  A    between atoms: C_8  and  O_10 
REMARK    4  A    between atoms: C_18  and  O_35 
REMARK    5  A    between atoms: C_19  and  C_24 
REMARK    6  A    between atoms: C_20  and  O_23 
REMARK    7  A    between atoms: C_21  and  O_22 
REMARK    8  A    between atoms: C_25  and  O_34 
REMARK    9  A    between atoms: C_26  and  O_33 
REMARK   10  A    between atoms: C_27  and  O_32 
REMARK   11  A    between atoms: C_28  and  C_30 
REMARK   12  A    between atoms: C_30  and  O_31 
ROOT
HETATM    1  C   UNL     1     -20.825  -8.833  -0.187  1.00  0.00     0.050 C 
HETATM    2  C   UNL     1     -20.640  -8.510  -1.659  1.00  0.00    -0.027 A 
HETATM    3  C   UNL     1     -19.761  -9.256  -2.516  1.00  0.00     0.036 A 
HETATM    4  C   UNL     1     -19.619  -8.918  -3.870  1.00  0.00     0.032 A 
HETATM    5  C   UNL     1     -20.338  -7.848  -4.391  1.00  0.00     0.054 A 
HETATM    6  C   UNL     1     -21.202  -7.113  -3.575  1.00  0.00     0.084 A 
HETATM    7  C   UNL     1     -21.375  -7.419  -2.207  1.00  0.00     0.077 A 
HETATM    8  C   UNL     1     -18.722  -9.678  -4.794  1.00  0.00     0.197 A 
HETATM    9  O   UNL     1     -18.678  -9.325  -5.967  1.00  0.00    -0.286 OA
HETATM   10  C   UNL     1     -17.910 -10.810  -4.279  1.00  0.00     0.068 A 
HETATM   11  C   UNL     1     -18.019 -11.101  -2.931  1.00  0.00     0.066 A 
HETATM   12  C   UNL     1     -18.980 -10.418  -2.057  1.00  0.00     0.197 A 
HETATM   13  O   UNL     1     -19.126 -10.894  -0.937  1.00  0.00    -0.286 OA
HETATM   14  C   UNL     1     -17.230 -12.131  -2.390  1.00  0.00     0.092 A 
HETATM   15  C   UNL     1     -16.396 -12.975  -3.163  1.00  0.00     0.043 A 
HETATM   16  C   UNL     1     -16.304 -12.682  -4.510  1.00  0.00     0.111 A 
HETATM   17  C   UNL     1     -17.041 -11.600  -5.063  1.00  0.00     0.115 A 
ENDROOT
BRANCH  15  18
HETATM   18  C   UNL     1     -15.798 -14.120  -2.364  1.00  0.00     0.192 C 
HETATM   19  C   UNL     1     -14.437 -13.695  -1.748  1.00  0.00     0.183 C 
HETATM   20  C   UNL     1     -13.611 -14.981  -1.650  1.00  0.00     0.181 C 
HETATM   21  C   UNL     1     -14.342 -16.044  -0.813  1.00  0.00     0.180 C 
HETATM   22  C   UNL     1     -15.822 -16.196  -1.266  1.00  0.00     0.177 C 
HETATM   23  O   UNL     1     -16.516 -14.884  -1.357  1.00  0.00    -0.368 OA
BRANCH  19  24
HETATM   24  O   UNL     1     -14.608 -13.076  -0.461  1.00  0.00    -0.390 OA
HETATM   25  H   UNL     1     -15.191 -13.646   0.066  1.00  0.00     0.210 HD
ENDBRANCH  19  24
BRANCH  20  26
HETATM   26  O   UNL     1     -12.314 -14.706  -1.127  1.00  0.00    -0.390 OA
HETATM   27  H   UNL     1     -12.218 -15.294  -0.352  1.00  0.00     0.210 HD
ENDBRANCH  20  26
BRANCH  21  28
HETATM   28  O   UNL     1     -14.232 -15.719   0.582  1.00  0.00    -0.390 OA
HETATM   29  H   UNL     1     -14.719 -14.902   0.771  1.00  0.00     0.210 HD
ENDBRANCH  21  28
BRANCH  22  30
HETATM   30  C   UNL     1     -16.568 -17.183  -0.362  1.00  0.00     0.198 C 
BRANCH  30  31
HETATM   31  O   UNL     1     -17.041 -16.522   0.807  1.00  0.00    -0.398 OA
HETATM   32  H   UNL     1     -17.857 -16.973   1.074  1.00  0.00     0.209 HD
ENDBRANCH  30  31
ENDBRANCH  22  30
ENDBRANCH  15  18
BRANCH  14  33
HETATM   33  O   UNL     1     -17.242 -12.388  -1.029  1.00  0.00    -0.359 OA
HETATM   34  H   UNL     1     -16.341 -12.229  -0.662  1.00  0.00     0.217 HD
ENDBRANCH  14  33
BRANCH  16  35
HETATM   35  O   UNL     1     -15.514 -13.397  -5.372  1.00  0.00    -0.357 OA
HETATM   36  H   UNL     1     -15.745 -13.139  -6.284  1.00  0.00     0.217 HD
ENDBRANCH  16  35
BRANCH  17  37
HETATM   37  O   UNL     1     -16.890 -11.356  -6.404  1.00  0.00    -0.357 OA
HETATM   38  H   UNL     1     -15.981 -11.018  -6.524  1.00  0.00     0.217 HD
ENDBRANCH  17  37
BRANCH   7  39
HETATM   39  C   UNL     1     -22.332  -6.607  -1.343  1.00  0.00     0.179 C 
HETATM   40  O   UNL     1     -23.078  -7.079  -0.501  1.00  0.00    -0.646 OA
BRANCH  39  41
HETATM   41  O   UNL     1     -22.328  -5.272  -1.559  1.00  0.00    -0.773 OA
HETATM   42  H   UNL     1     -21.470  -4.940  -1.899  1.00  0.00     0.167 HD
ENDBRANCH  39  41
ENDBRANCH   7  39
BRANCH   6  43
HETATM   43  O   UNL     1     -21.881  -6.066  -4.145  1.00  0.00    -0.360 OA
HETATM   44  H   UNL     1     -21.368  -5.244  -4.036  1.00  0.00     0.217 HD
ENDBRANCH   6  43
TORSDOF 12
ENDMDL
MODEL 7
REMARK VINA RESULT:      -6.3      1.719      4.154
REMARK  12 active torsions:
REMARK  status: ('A' for Active; 'I' for Inactive)
REMARK    1  A    between atoms: C_6  and  O_11 
REMARK    2  A    between atoms: C_7  and  C_8 
REMARK    3  A    between atoms: C_8  and  O_10 
REMARK    4  A    between atoms: C_18  and  O_35 
REMARK    5  A    between atoms: C_19  and  C_24 
REMARK    6  A    between atoms: C_20  and  O_23 
REMARK    7  A    between atoms: C_21  and  O_22 
REMARK    8  A    between atoms: C_25  and  O_34 
REMARK    9  A    between atoms: C_26  and  O_33 
REMARK   10  A    between atoms: C_27  and  O_32 
REMARK   11  A    between atoms: C_28  and  C_30 
REMARK   12  A    between atoms: C_30  and  O_31 
ROOT
HETATM    1  C   UNL     1     -19.479  -7.431  -6.165  1.00  0.00     0.050 C 
HETATM    2  C   UNL     1     -20.075  -7.592  -4.778  1.00  0.00    -0.027 A 
HETATM    3  C   UNL     1     -19.661  -8.621  -3.866  1.00  0.00     0.036 A 
HETATM    4  C   UNL     1     -20.244  -8.734  -2.596  1.00  0.00     0.032 A 
HETATM    5  C   UNL     1     -21.237  -7.838  -2.213  1.00  0.00     0.054 A 
HETATM    6  C   UNL     1     -21.650  -6.826  -3.083  1.00  0.00     0.084 A 
HETATM    7  C   UNL     1     -21.089  -6.676  -4.371  1.00  0.00     0.077 A 
HETATM    8  C   UNL     1     -19.831  -9.785  -1.616  1.00  0.00     0.197 A 
HETATM    9  O   UNL     1     -20.380  -9.793  -0.521  1.00  0.00    -0.286 OA
HETATM   10  C   UNL     1     -18.798 -10.784  -1.989  1.00  0.00     0.068 A 
HETATM   11  C   UNL     1     -18.266 -10.695  -3.263  1.00  0.00     0.066 A 
HETATM   12  C   UNL     1     -18.602  -9.597  -4.177  1.00  0.00     0.197 A 
HETATM   13  O   UNL     1     -17.924  -9.514  -5.195  1.00  0.00    -0.286 OA
HETATM   14  C   UNL     1     -17.323 -11.651  -3.677  1.00  0.00     0.092 A 
HETATM   15  C   UNL     1     -16.791 -12.654  -2.829  1.00  0.00     0.043 A 
HETATM   16  C   UNL     1     -17.321 -12.725  -1.555  1.00  0.00     0.111 A 
HETATM   17  C   UNL     1     -18.326 -11.810  -1.142  1.00  0.00     0.115 A 
ENDROOT
BRANCH  15  18
HETATM   18  C   UNL     1     -15.657 -13.437  -3.468  1.00  0.00     0.192 C 
HETATM   19  C   UNL     1     -14.598 -13.820  -2.399  1.00  0.00     0.183 C 
HETATM   20  C   UNL     1     -13.264 -13.888  -3.148  1.00  0.00     0.181 C 
HETATM   21  C   UNL     1     -13.333 -14.893  -4.310  1.00  0.00     0.180 C 
HETATM   22  C   UNL     1     -14.609 -14.668  -5.171  1.00  0.00     0.177 C 
HETATM   23  O   UNL     1     -15.838 -14.586  -4.338  1.00  0.00    -0.368 OA
BRANCH  19  24
HETATM   24  O   UNL     1     -14.913 -15.072  -1.766  1.00  0.00    -0.390 OA
HETATM   25  H   UNL     1     -14.647 -15.784  -2.369  1.00  0.00     0.210 HD
ENDBRANCH  19  24
BRANCH  20  26
HETATM   26  O   UNL     1     -12.200 -14.199  -2.252  1.00  0.00    -0.390 OA
HETATM   27  H   UNL     1     -11.379 -14.004  -2.747  1.00  0.00     0.210 HD
ENDBRANCH  20  26
BRANCH  21  28
HETATM   28  O   UNL     1     -13.255 -16.231  -3.794  1.00  0.00    -0.390 OA
HETATM   29  H   UNL     1     -13.710 -16.844  -4.392  1.00  0.00     0.210 HD
ENDBRANCH  21  28
BRANCH  22  30
HETATM   30  C   UNL     1     -14.721 -15.736  -6.264  1.00  0.00     0.198 C 
BRANCH  30  31
HETATM   31  O   UNL     1     -13.432 -16.058  -6.774  1.00  0.00    -0.398 OA
HETATM   32  H   UNL     1     -12.948 -15.221  -6.861  1.00  0.00     0.209 HD
ENDBRANCH  30  31
ENDBRANCH  22  30
ENDBRANCH  15  18
BRANCH  14  33
HETATM   33  O   UNL     1     -16.840 -11.650  -4.975  1.00  0.00    -0.359 OA
HETATM   34  H   UNL     1     -16.073 -12.268  -5.036  1.00  0.00     0.217 HD
ENDBRANCH  14  33
BRANCH  16  35
HETATM   35  O   UNL     1     -16.920 -13.662  -0.638  1.00  0.00    -0.357 OA
HETATM   36  H   UNL     1     -15.985 -13.880  -0.812  1.00  0.00     0.217 HD
ENDBRANCH  16  35
BRANCH  17  37
HETATM   37  O   UNL     1     -18.818 -11.949   0.132  1.00  0.00    -0.357 OA
HETATM   38  H   UNL     1     -19.747 -11.646   0.105  1.00  0.00     0.217 HD
ENDBRANCH  17  37
BRANCH   7  39
HETATM   39  C   UNL     1     -21.552  -5.558  -5.296  1.00  0.00     0.179 C 
HETATM   40  O   UNL     1     -20.836  -4.664  -5.716  1.00  0.00    -0.646 OA
BRANCH  39  41
HETATM   41  O   UNL     1     -22.857  -5.591  -5.649  1.00  0.00    -0.773 OA
HETATM   42  H   UNL     1     -23.071  -4.980  -6.386  1.00  0.00     0.167 HD
ENDBRANCH  39  41
ENDBRANCH   7  39
BRANCH   6  43
HETATM   43  O   UNL     1     -22.635  -5.975  -2.650  1.00  0.00    -0.360 OA
HETATM   44  H   UNL     1     -22.504  -5.093  -3.046  1.00  0.00     0.217 HD
ENDBRANCH   6  43
TORSDOF 12
ENDMDL
MODEL 8
REMARK VINA RESULT:      -6.3      2.980      4.774
REMARK  12 active torsions:
REMARK  status: ('A' for Active; 'I' for Inactive)
REMARK    1  A    between atoms: C_6  and  O_11 
REMARK    2  A    between atoms: C_7  and  C_8 
REMARK    3  A    between atoms: C_8  and  O_10 
REMARK    4  A    between atoms: C_18  and  O_35 
REMARK    5  A    between atoms: C_19  and  C_24 
REMARK    6  A    between atoms: C_20  and  O_23 
REMARK    7  A    between atoms: C_21  and  O_22 
REMARK    8  A    between atoms: C_25  and  O_34 
REMARK    9  A    between atoms: C_26  and  O_33 
REMARK   10  A    between atoms: C_27  and  O_32 
REMARK   11  A    between atoms: C_28  and  C_30 
REMARK   12  A    between atoms: C_30  and  O_31 
ROOT
HETATM    1  C   UNL     1     -21.161  -8.322  -1.656  1.00  0.00     0.050 C 
HETATM    2  C   UNL     1     -20.432  -8.415  -2.985  1.00  0.00    -0.027 A 
HETATM    3  C   UNL     1     -19.373  -9.355  -3.230  1.00  0.00     0.036 A 
HETATM    4  C   UNL     1     -18.725  -9.401  -4.472  1.00  0.00     0.032 A 
HETATM    5  C   UNL     1     -19.112  -8.526  -5.483  1.00  0.00     0.054 A 
HETATM    6  C   UNL     1     -20.144  -7.609  -5.266  1.00  0.00     0.084 A 
HETATM    7  C   UNL     1     -20.823  -7.529  -4.031  1.00  0.00     0.077 A 
HETATM    8  C   UNL     1     -17.627 -10.371  -4.767  1.00  0.00     0.197 A 
HETATM    9  O   UNL     1     -17.134 -10.354  -5.889  1.00  0.00    -0.286 OA
HETATM   10  C   UNL     1     -17.156 -11.304  -3.711  1.00  0.00     0.068 A 
HETATM   11  C   UNL     1     -17.767 -11.215  -2.474  1.00  0.00     0.066 A 
HETATM   12  C   UNL     1     -18.914 -10.332  -2.228  1.00  0.00     0.197 A 
HETATM   13  O   UNL     1     -19.493 -10.483  -1.158  1.00  0.00    -0.286 OA
HETATM   14  C   UNL     1     -17.319 -12.043  -1.430  1.00  0.00     0.092 A 
HETATM   15  C   UNL     1     -16.340 -13.054  -1.590  1.00  0.00     0.043 A 
HETATM   16  C   UNL     1     -15.746 -13.142  -2.835  1.00  0.00     0.111 A 
HETATM   17  C   UNL     1     -16.137 -12.266  -3.883  1.00  0.00     0.115 A 
ENDROOT
BRANCH  15  18
HETATM   18  C   UNL     1     -16.173 -13.925  -0.357  1.00  0.00     0.192 C 
HETATM   19  C   UNL     1     -14.889 -13.521   0.417  1.00  0.00     0.183 C 
HETATM   20  C   UNL     1     -14.405 -14.800   1.106  1.00  0.00     0.181 C 
HETATM   21  C   UNL     1     -15.496 -15.384   2.018  1.00  0.00     0.180 C 
HETATM   22  C   UNL     1     -16.864 -15.461   1.279  1.00  0.00     0.177 C 
HETATM   23  O   UNL     1     -17.216 -14.174   0.623  1.00  0.00    -0.368 OA
BRANCH  19  24
HETATM   24  O   UNL     1     -15.152 -12.475   1.369  1.00  0.00    -0.390 OA
HETATM   25  H   UNL     1     -15.360 -12.895   2.219  1.00  0.00     0.210 HD
ENDBRANCH  19  24
BRANCH  20  26
HETATM   26  O   UNL     1     -13.199 -14.558   1.825  1.00  0.00    -0.390 OA
HETATM   27  H   UNL     1     -13.458 -14.548   2.768  1.00  0.00     0.210 HD
ENDBRANCH  20  26
BRANCH  21  28
HETATM   28  O   UNL     1     -15.576 -14.614   3.228  1.00  0.00    -0.390 OA
HETATM   29  H   UNL     1     -16.426 -14.772   3.667  1.00  0.00     0.210 HD
ENDBRANCH  21  28
BRANCH  22  30
HETATM   30  C   UNL     1     -17.965 -15.948   2.226  1.00  0.00     0.198 C 
BRANCH  30  31
HETATM   31  O   UNL     1     -17.418 -16.808   3.220  1.00  0.00    -0.398 OA
HETATM   32  H   UNL     1     -18.135 -17.009   3.843  1.00  0.00     0.209 HD
ENDBRANCH  30  31
ENDBRANCH  22  30
ENDBRANCH  15  18
BRANCH  14  33
HETATM   33  O   UNL     1     -17.842 -11.916  -0.154  1.00  0.00    -0.359 OA
HETATM   34  H   UNL     1     -18.814 -11.766  -0.216  1.00  0.00     0.217 HD
ENDBRANCH  14  33
BRANCH  16  35
HETATM   35  O   UNL     1     -14.765 -14.055  -3.124  1.00  0.00    -0.357 OA
HETATM   36  H   UNL     1     -14.152 -14.096  -2.365  1.00  0.00     0.217 HD
ENDBRANCH  16  35
BRANCH  17  37
HETATM   37  O   UNL     1     -15.494 -12.400  -5.087  1.00  0.00    -0.357 OA
HETATM   38  H   UNL     1     -16.111 -12.071  -5.770  1.00  0.00     0.217 HD
ENDBRANCH  17  37
BRANCH   7  39
HETATM   39  C   UNL     1     -21.950  -6.525  -3.826  1.00  0.00     0.179 C 
HETATM   40  O   UNL     1     -22.172  -5.933  -2.783  1.00  0.00    -0.646 OA
BRANCH  39  41
HETATM   41  O   UNL     1     -22.744  -6.308  -4.899  1.00  0.00    -0.773 OA
HETATM   42  H   UNL     1     -23.509  -6.920  -4.942  1.00  0.00     0.167 HD
ENDBRANCH  39  41
ENDBRANCH   7  39
BRANCH   6  43
HETATM   43  O   UNL     1     -20.478  -6.770  -6.300  1.00  0.00    -0.360 OA
HETATM   44  H   UNL     1     -19.674  -6.340  -6.646  1.00  0.00     0.217 HD
ENDBRANCH   6  43
TORSDOF 12
ENDMDL
MODEL 9
REMARK VINA RESULT:      -6.2      3.378      4.887
REMARK  12 active torsions:
REMARK  status: ('A' for Active; 'I' for Inactive)
REMARK    1  A    between atoms: C_6  and  O_11 
REMARK    2  A    between atoms: C_7  and  C_8 
REMARK    3  A    between atoms: C_8  and  O_10 
REMARK    4  A    between atoms: C_18  and  O_35 
REMARK    5  A    between atoms: C_19  and  C_24 
REMARK    6  A    between atoms: C_20  and  O_23 
REMARK    7  A    between atoms: C_21  and  O_22 
REMARK    8  A    between atoms: C_25  and  O_34 
REMARK    9  A    between atoms: C_26  and  O_33 
REMARK   10  A    between atoms: C_27  and  O_32 
REMARK   11  A    between atoms: C_28  and  C_30 
REMARK   12  A    between atoms: C_30  and  O_31 
ROOT
HETATM    1  C   UNL     1     -21.578  -8.335  -1.663  1.00  0.00     0.050 C 
HETATM    2  C   UNL     1     -20.681  -8.471  -2.880  1.00  0.00    -0.027 A 
HETATM    3  C   UNL     1     -19.618  -9.434  -2.962  1.00  0.00     0.036 A 
HETATM    4  C   UNL     1     -18.811  -9.520  -4.106  1.00  0.00     0.032 A 
HETATM    5  C   UNL     1     -19.043  -8.663  -5.177  1.00  0.00     0.054 A 
HETATM    6  C   UNL     1     -20.075  -7.724  -5.119  1.00  0.00     0.084 A 
HETATM    7  C   UNL     1     -20.911  -7.603  -3.988  1.00  0.00     0.077 A 
HETATM    8  C   UNL     1     -17.703 -10.516  -4.230  1.00  0.00     0.197 A 
HETATM    9  O   UNL     1     -17.065 -10.534  -5.276  1.00  0.00    -0.286 OA
HETATM   10  C   UNL     1     -17.396 -11.432  -3.102  1.00  0.00     0.068 A 
HETATM   11  C   UNL     1     -18.165 -11.303  -1.960  1.00  0.00     0.066 A 
HETATM   12  C   UNL     1     -19.316 -10.395  -1.887  1.00  0.00     0.197 A 
HETATM   13  O   UNL     1     -20.036 -10.511  -0.902  1.00  0.00    -0.286 OA
HETATM   14  C   UNL     1     -17.876 -12.114  -0.849  1.00  0.00     0.092 A 
HETATM   15  C   UNL     1     -16.905 -13.146  -0.855  1.00  0.00     0.043 A 
HETATM   16  C   UNL     1     -16.152 -13.272  -2.007  1.00  0.00     0.111 A 
HETATM   17  C   UNL     1     -16.382 -12.414  -3.116  1.00  0.00     0.115 A 
ENDROOT
BRANCH  15  18
HETATM   18  C   UNL     1     -16.920 -13.990   0.407  1.00  0.00     0.192 C 
HETATM   19  C   UNL     1     -17.580 -15.367   0.127  1.00  0.00     0.183 C 
HETATM   20  C   UNL     1     -18.217 -15.795   1.451  1.00  0.00     0.181 C 
HETATM   21  C   UNL     1     -17.170 -15.851   2.576  1.00  0.00     0.180 C 
HETATM   22  C   UNL     1     -16.304 -14.558   2.601  1.00  0.00     0.177 C 
HETATM   23  O   UNL     1     -15.765 -14.222   1.257  1.00  0.00    -0.368 OA
BRANCH  19  24
HETATM   24  O   UNL     1     -16.617 -16.331  -0.333  1.00  0.00    -0.390 OA
HETATM   25  H   UNL     1     -17.000 -17.214  -0.208  1.00  0.00     0.210 HD
ENDBRANCH  19  24
BRANCH  20  26
HETATM   26  O   UNL     1     -18.891 -17.043   1.305  1.00  0.00    -0.390 OA
HETATM   27  H   UNL     1     -19.148 -17.089   0.362  1.00  0.00     0.210 HD
ENDBRANCH  20  26
BRANCH  21  28
HETATM   28  O   UNL     1     -16.372 -17.036   2.433  1.00  0.00    -0.390 OA
HETATM   29  H   UNL     1     -16.924 -17.824   2.547  1.00  0.00     0.210 HD
ENDBRANCH  21  28
BRANCH  22  30
HETATM   30  C   UNL     1     -15.200 -14.665   3.658  1.00  0.00     0.198 C 
BRANCH  30  31
HETATM   31  O   UNL     1     -14.074 -15.357   3.128  1.00  0.00    -0.398 OA
HETATM   32  H   UNL     1     -13.963 -16.161   3.660  1.00  0.00     0.209 HD
ENDBRANCH  30  31
ENDBRANCH  22  30
ENDBRANCH  15  18
BRANCH  14  33
HETATM   33  O   UNL     1     -18.561 -11.948   0.344  1.00  0.00    -0.359 OA
HETATM   34  H   UNL     1     -18.178 -12.551   1.024  1.00  0.00     0.217 HD
ENDBRANCH  14  33
BRANCH  16  35
HETATM   35  O   UNL     1     -15.159 -14.209  -2.143  1.00  0.00    -0.357 OA
HETATM   36  H   UNL     1     -14.849 -14.456  -1.252  1.00  0.00     0.217 HD
ENDBRANCH  16  35
BRANCH  17  37
HETATM   37  O   UNL     1     -15.587 -12.587  -4.220  1.00  0.00    -0.357 OA
HETATM   38  H   UNL     1     -15.629 -13.537  -4.446  1.00  0.00     0.217 HD
ENDBRANCH  17  37
BRANCH   7  39
HETATM   39  C   UNL     1     -22.036  -6.576  -3.956  1.00  0.00     0.179 C 
HETATM   40  O   UNL     1     -22.758  -6.308  -4.902  1.00  0.00    -0.646 OA
BRANCH  39  41
HETATM   41  O   UNL     1     -22.210  -5.933  -2.780  1.00  0.00    -0.773 OA
HETATM   42  H   UNL     1     -22.955  -5.295  -2.797  1.00  0.00     0.167 HD
ENDBRANCH  39  41
ENDBRANCH   7  39
BRANCH   6  43
HETATM   43  O   UNL     1     -20.252  -6.904  -6.206  1.00  0.00    -0.360 OA
HETATM   44  H   UNL     1     -19.385  -6.602  -6.533  1.00  0.00     0.217 HD
ENDBRANCH   6  43
TORSDOF 12
ENDMDL
