MODEL 1
REMARK VINA RESULT:      -5.5      0.000      0.000
REMARK  8 active torsions:
REMARK  status: ('A' for Active; 'I' for Inactive)
REMARK    1  A    between atoms: C_2  and  C_3 
REMARK    2  A    between atoms: C_3  and  C_4 
REMARK    3  A    between atoms: C_4  and  C_5 
REMARK    4  A    between atoms: C_5  and  C_6 
REMARK    5  A    between atoms: C_6  and  C_7 
REMARK    6  A    between atoms: C_7  and  C_8 
REMARK    7  A    between atoms: C_7  and  O_10 
REMARK    8  A    between atoms: C_8  and  O_9 
ROOT
HETATM    1  C   UNL     1     -23.089  -2.506 -12.965  1.00  0.00     0.034 C 
ENDROOT
BRANCH   1   2
HETATM    2  C   UNL     1     -24.195  -3.136 -12.120  1.00  0.00     0.002 C 
BRANCH   2   3
HETATM    3  C   UNL     1     -23.671  -4.222 -11.178  1.00  0.00     0.000 C 
BRANCH   3   4
HETATM    4  C   UNL     1     -22.798  -3.595 -10.089  1.00  0.00    -0.000 C 
BRANCH   4   5
HETATM    5  C   UNL     1     -21.525  -4.399  -9.834  1.00  0.00    -0.005 C 
HETATM    6  C   UNL     1     -20.499  -4.150 -10.930  1.00  0.00     0.005 C 
ENDBRANCH   4   5
ENDBRANCH   3   4
ENDBRANCH   2   3
ENDBRANCH   1   2
BRANCH   1   7
HETATM    7  C   UNL     1     -23.426  -2.460 -14.463  1.00  0.00     0.141 C 
BRANCH   7   8
HETATM    8  C   UNL     1     -23.650  -1.040 -15.000  1.00  0.00     0.195 C 
BRANCH   8   9
HETATM    9  O   UNL     1     -24.945  -0.564 -14.637  1.00  0.00    -0.398 OA
HETATM   10  H   UNL     1     -24.828   0.365 -14.364  1.00  0.00     0.209 HD
ENDBRANCH   8   9
ENDBRANCH   7   8
BRANCH   7  11
HETATM   11  O   UNL     1     -22.349  -3.053 -15.203  1.00  0.00    -0.393 OA
HETATM   12  H   UNL     1     -21.790  -2.335 -15.550  1.00  0.00     0.210 HD
ENDBRANCH   7  11
ENDBRANCH   1   7
TORSDOF 8
ENDMDL
MODEL 2
REMARK VINA RESULT:      -5.3      1.445      2.007
REMARK  8 active torsions:
REMARK  status: ('A' for Active; 'I' for Inactive)
REMARK    1  A    between atoms: C_2  and  C_3 
REMARK    2  A    between atoms: C_3  and  C_4 
REMARK    3  A    between atoms: C_4  and  C_5 
REMARK    4  A    between atoms: C_5  and  C_6 
REMARK    5  A    between atoms: C_6  and  C_7 
REMARK    6  A    between atoms: C_7  and  C_8 
REMARK    7  A    between atoms: C_7  and  O_10 
REMARK    8  A    between atoms: C_8  and  O_9 
ROOT
HETATM    1  C   UNL     1     -23.049  -2.542 -12.136  1.00  0.00     0.034 C 
ENDROOT
BRANCH   1   2
HETATM    2  C   UNL     1     -22.041  -3.689 -12.086  1.00  0.00     0.002 C 
BRANCH   2   3
HETATM    3  C   UNL     1     -20.766  -3.321 -11.324  1.00  0.00     0.000 C 
BRANCH   3   4
HETATM    4  C   UNL     1     -20.353  -4.471 -10.404  1.00  0.00    -0.000 C 
BRANCH   4   5
HETATM    5  C   UNL     1     -20.774  -4.234  -8.955  1.00  0.00    -0.005 C 
HETATM    6  C   UNL     1     -19.570  -4.286  -8.026  1.00  0.00     0.005 C 
ENDBRANCH   4   5
ENDBRANCH   3   4
ENDBRANCH   2   3
ENDBRANCH   1   2
BRANCH   1   7
HETATM    7  C   UNL     1     -24.035  -2.655 -13.309  1.00  0.00     0.141 C 
BRANCH   7   8
HETATM    8  C   UNL     1     -23.753  -1.665 -14.447  1.00  0.00     0.195 C 
BRANCH   8   9
HETATM    9  O   UNL     1     -24.812  -0.716 -14.560  1.00  0.00    -0.398 OA
HETATM   10  H   UNL     1     -24.935  -0.337 -13.670  1.00  0.00     0.209 HD
ENDBRANCH   8   9
ENDBRANCH   7   8
BRANCH   7  11
HETATM   11  O   UNL     1     -23.970  -3.984 -13.847  1.00  0.00    -0.393 OA
HETATM   12  H   UNL     1     -23.310  -4.484 -13.336  1.00  0.00     0.210 HD
ENDBRANCH   7  11
ENDBRANCH   1   7
TORSDOF 8
ENDMDL
MODEL 3
REMARK VINA RESULT:      -5.3     10.642     11.916
REMARK  8 active torsions:
REMARK  status: ('A' for Active; 'I' for Inactive)
REMARK    1  A    between atoms: C_2  and  C_3 
REMARK    2  A    between atoms: C_3  and  C_4 
REMARK    3  A    between atoms: C_4  and  C_5 
REMARK    4  A    between atoms: C_5  and  C_6 
REMARK    5  A    between atoms: C_6  and  C_7 
REMARK    6  A    between atoms: C_7  and  C_8 
REMARK    7  A    between atoms: C_7  and  O_10 
REMARK    8  A    between atoms: C_8  and  O_9 
ROOT
HETATM    1  C   UNL     1     -34.018  -1.833 -11.419  1.00  0.00     0.034 C 
ENDROOT
BRANCH   1   2
HETATM    2  C   UNL     1     -33.691  -3.148 -10.709  1.00  0.00     0.002 C 
BRANCH   2   3
HETATM    3  C   UNL     1     -32.902  -4.115 -11.595  1.00  0.00     0.000 C 
BRANCH   3   4
HETATM    4  C   UNL     1     -33.286  -5.559 -11.267  1.00  0.00    -0.000 C 
BRANCH   4   5
HETATM    5  C   UNL     1     -34.574  -5.645 -10.452  1.00  0.00    -0.005 C 
HETATM    6  C   UNL     1     -34.789  -7.057  -9.925  1.00  0.00     0.005 C 
ENDBRANCH   4   5
ENDBRANCH   3   4
ENDBRANCH   2   3
ENDBRANCH   1   2
BRANCH   1   7
HETATM    7  C   UNL     1     -35.252  -1.929 -12.328  1.00  0.00     0.141 C 
BRANCH   7   8
HETATM    8  C   UNL     1     -36.104  -0.653 -12.344  1.00  0.00     0.195 C 
BRANCH   8   9
HETATM    9  O   UNL     1     -37.241  -0.819 -13.190  1.00  0.00    -0.398 OA
HETATM   10  H   UNL     1     -37.652  -1.664 -12.932  1.00  0.00     0.209 HD
ENDBRANCH   8   9
ENDBRANCH   7   8
BRANCH   7  11
HETATM   11  O   UNL     1     -34.823  -2.197 -13.671  1.00  0.00    -0.393 OA
HETATM   12  H   UNL     1     -35.117  -3.094 -13.908  1.00  0.00     0.210 HD
ENDBRANCH   7  11
ENDBRANCH   1   7
TORSDOF 8
ENDMDL
MODEL 4
REMARK VINA RESULT:      -5.3     11.049     12.450
REMARK  8 active torsions:
REMARK  status: ('A' for Active; 'I' for Inactive)
REMARK    1  A    between atoms: C_2  and  C_3 
REMARK    2  A    between atoms: C_3  and  C_4 
REMARK    3  A    between atoms: C_4  and  C_5 
REMARK    4  A    between atoms: C_5  and  C_6 
REMARK    5  A    between atoms: C_6  and  C_7 
REMARK    6  A    between atoms: C_7  and  C_8 
REMARK    7  A    between atoms: C_7  and  O_10 
REMARK    8  A    between atoms: C_8  and  O_9 
ROOT
HETATM    1  C   UNL     1     -34.036  -4.728 -10.460  1.00  0.00     0.034 C 
ENDROOT
BRANCH   1   2
HETATM    2  C   UNL     1     -33.246  -3.719 -11.292  1.00  0.00     0.002 C 
BRANCH   2   3
HETATM    3  C   UNL     1     -33.440  -2.278 -10.813  1.00  0.00     0.000 C 
BRANCH   3   4
HETATM    4  C   UNL     1     -34.849  -1.795 -11.161  1.00  0.00    -0.000 C 
BRANCH   4   5
HETATM    5  C   UNL     1     -34.976  -1.388 -12.627  1.00  0.00    -0.005 C 
HETATM    6  C   UNL     1     -34.966   0.127 -12.772  1.00  0.00     0.005 C 
ENDBRANCH   4   5
ENDBRANCH   3   4
ENDBRANCH   2   3
ENDBRANCH   1   2
BRANCH   1   7
HETATM    7  C   UNL     1     -34.057  -6.134 -11.077  1.00  0.00     0.141 C 
BRANCH   7   8
HETATM    8  C   UNL     1     -34.727  -7.188 -10.185  1.00  0.00     0.195 C 
BRANCH   8   9
HETATM    9  O   UNL     1     -34.134  -8.469 -10.389  1.00  0.00    -0.398 OA
HETATM   10  H   UNL     1     -33.171  -8.320 -10.435  1.00  0.00     0.209 HD
ENDBRANCH   8   9
ENDBRANCH   7   8
BRANCH   7  11
HETATM   11  O   UNL     1     -34.768  -6.087 -12.323  1.00  0.00    -0.393 OA
HETATM   12  H   UNL     1     -34.509  -6.866 -12.847  1.00  0.00     0.210 HD
ENDBRANCH   7  11
ENDBRANCH   1   7
TORSDOF 8
ENDMDL
MODEL 5
REMARK VINA RESULT:      -5.1      1.744      2.755
REMARK  8 active torsions:
REMARK  status: ('A' for Active; 'I' for Inactive)
REMARK    1  A    between atoms: C_2  and  C_3 
REMARK    2  A    between atoms: C_3  and  C_4 
REMARK    3  A    between atoms: C_4  and  C_5 
REMARK    4  A    between atoms: C_5  and  C_6 
REMARK    5  A    between atoms: C_6  and  C_7 
REMARK    6  A    between atoms: C_7  and  C_8 
REMARK    7  A    between atoms: C_7  and  O_10 
REMARK    8  A    between atoms: C_8  and  O_9 
ROOT
HETATM    1  C   UNL     1     -22.481  -3.934 -11.986  1.00  0.00     0.034 C 
ENDROOT
BRANCH   1   2
HETATM    2  C   UNL     1     -21.114  -3.691 -11.345  1.00  0.00     0.002 C 
BRANCH   2   3
HETATM    3  C   UNL     1     -21.066  -4.122  -9.877  1.00  0.00     0.000 C 
BRANCH   3   4
HETATM    4  C   UNL     1     -22.452  -3.985  -9.244  1.00  0.00    -0.000 C 
BRANCH   4   5
HETATM    5  C   UNL     1     -22.434  -4.270  -7.744  1.00  0.00    -0.005 C 
HETATM    6  C   UNL     1     -21.180  -3.700  -7.099  1.00  0.00     0.005 C 
ENDBRANCH   4   5
ENDBRANCH   3   4
ENDBRANCH   2   3
ENDBRANCH   1   2
BRANCH   1   7
HETATM    7  C   UNL     1     -23.039  -2.696 -12.703  1.00  0.00     0.141 C 
BRANCH   7   8
HETATM    8  C   UNL     1     -22.971  -2.789 -14.233  1.00  0.00     0.195 C 
BRANCH   8   9
HETATM    9  O   UNL     1     -23.826  -3.826 -14.712  1.00  0.00    -0.398 OA
HETATM   10  H   UNL     1     -23.890  -3.703 -15.677  1.00  0.00     0.209 HD
ENDBRANCH   8   9
ENDBRANCH   7   8
BRANCH   7  11
HETATM   11  O   UNL     1     -24.413  -2.518 -12.327  1.00  0.00    -0.393 OA
HETATM   12  H   UNL     1     -24.554  -2.970 -11.477  1.00  0.00     0.210 HD
ENDBRANCH   7  11
ENDBRANCH   1   7
TORSDOF 8
ENDMDL
MODEL 6
REMARK VINA RESULT:      -5.0      2.567      3.781
REMARK  8 active torsions:
REMARK  status: ('A' for Active; 'I' for Inactive)
REMARK    1  A    between atoms: C_2  and  C_3 
REMARK    2  A    between atoms: C_3  and  C_4 
REMARK    3  A    between atoms: C_4  and  C_5 
REMARK    4  A    between atoms: C_5  and  C_6 
REMARK    5  A    between atoms: C_6  and  C_7 
REMARK    6  A    between atoms: C_7  and  C_8 
REMARK    7  A    between atoms: C_7  and  O_10 
REMARK    8  A    between atoms: C_8  and  O_9 
ROOT
HETATM    1  C   UNL     1     -23.490  -4.693 -10.465  1.00  0.00     0.034 C 
ENDROOT
BRANCH   1   2
HETATM    2  C   UNL     1     -22.498  -4.655  -9.302  1.00  0.00     0.002 C 
BRANCH   2   3
HETATM    3  C   UNL     1     -21.108  -4.178  -9.729  1.00  0.00     0.000 C 
BRANCH   3   4
HETATM    4  C   UNL     1     -20.185  -4.096  -8.511  1.00  0.00    -0.000 C 
BRANCH   4   5
HETATM    5  C   UNL     1     -20.953  -3.828  -7.219  1.00  0.00    -0.005 C 
HETATM    6  C   UNL     1     -20.349  -4.605  -6.059  1.00  0.00     0.005 C 
ENDBRANCH   4   5
ENDBRANCH   3   4
ENDBRANCH   2   3
ENDBRANCH   1   2
BRANCH   1   7
HETATM    7  C   UNL     1     -24.071  -3.313 -10.807  1.00  0.00     0.141 C 
BRANCH   7   8
HETATM    8  C   UNL     1     -24.150  -3.035 -12.315  1.00  0.00     0.195 C 
BRANCH   8   9
HETATM    9  O   UNL     1     -25.506  -2.866 -12.724  1.00  0.00    -0.398 OA
HETATM   10  H   UNL     1     -25.926  -3.742 -12.644  1.00  0.00     0.209 HD
ENDBRANCH   8   9
ENDBRANCH   7   8
BRANCH   7  11
HETATM   11  O   UNL     1     -25.396  -3.216 -10.265  1.00  0.00    -0.393 OA
HETATM   12  H   UNL     1     -25.331  -3.278  -9.296  1.00  0.00     0.210 HD
ENDBRANCH   7  11
ENDBRANCH   1   7
TORSDOF 8
ENDMDL
MODEL 7
REMARK VINA RESULT:      -4.9     11.384     12.591
REMARK  8 active torsions:
REMARK  status: ('A' for Active; 'I' for Inactive)
REMARK    1  A    between atoms: C_2  and  C_3 
REMARK    2  A    between atoms: C_3  and  C_4 
REMARK    3  A    between atoms: C_4  and  C_5 
REMARK    4  A    between atoms: C_5  and  C_6 
REMARK    5  A    between atoms: C_6  and  C_7 
REMARK    6  A    between atoms: C_7  and  C_8 
REMARK    7  A    between atoms: C_7  and  O_10 
REMARK    8  A    between atoms: C_8  and  O_9 
ROOT
HETATM    1  C   UNL     1     -35.361  -0.918 -13.449  1.00  0.00     0.034 C 
ENDROOT
BRANCH   1   2
HETATM    2  C   UNL     1     -34.997  -0.628 -11.993  1.00  0.00     0.002 C 
BRANCH   2   3
HETATM    3  C   UNL     1     -34.931  -1.896 -11.138  1.00  0.00     0.000 C 
BRANCH   3   4
HETATM    4  C   UNL     1     -33.474  -2.251 -10.838  1.00  0.00    -0.000 C 
BRANCH   4   5
HETATM    5  C   UNL     1     -33.108  -3.654 -11.319  1.00  0.00    -0.005 C 
HETATM    6  C   UNL     1     -33.982  -4.702 -10.644  1.00  0.00     0.005 C 
ENDBRANCH   4   5
ENDBRANCH   3   4
ENDBRANCH   2   3
ENDBRANCH   1   2
BRANCH   1   7
HETATM    7  C   UNL     1     -36.480  -0.012 -13.983  1.00  0.00     0.141 C 
BRANCH   7   8
HETATM    8  C   UNL     1     -36.281   0.417 -15.443  1.00  0.00     0.195 C 
BRANCH   8   9
HETATM    9  O   UNL     1     -37.365   1.236 -15.878  1.00  0.00    -0.398 OA
HETATM   10  H   UNL     1     -38.049   0.627 -16.213  1.00  0.00     0.209 HD
ENDBRANCH   8   9
ENDBRANCH   7   8
BRANCH   7  11
HETATM   11  O   UNL     1     -37.731  -0.709 -13.889  1.00  0.00    -0.393 OA
HETATM   12  H   UNL     1     -38.437  -0.101 -14.169  1.00  0.00     0.210 HD
ENDBRANCH   7  11
ENDBRANCH   1   7
TORSDOF 8
ENDMDL
MODEL 8
REMARK VINA RESULT:      -4.9     10.910     12.243
REMARK  8 active torsions:
REMARK  status: ('A' for Active; 'I' for Inactive)
REMARK    1  A    between atoms: C_2  and  C_3 
REMARK    2  A    between atoms: C_3  and  C_4 
REMARK    3  A    between atoms: C_4  and  C_5 
REMARK    4  A    between atoms: C_5  and  C_6 
REMARK    5  A    between atoms: C_6  and  C_7 
REMARK    6  A    between atoms: C_7  and  C_8 
REMARK    7  A    between atoms: C_7  and  O_10 
REMARK    8  A    between atoms: C_8  and  O_9 
ROOT
HETATM    1  C   UNL     1     -33.697  -4.084 -10.504  1.00  0.00     0.034 C 
ENDROOT
BRANCH   1   2
HETATM    2  C   UNL     1     -33.383  -2.976 -11.511  1.00  0.00     0.002 C 
BRANCH   2   3
HETATM    3  C   UNL     1     -34.230  -1.721 -11.289  1.00  0.00     0.000 C 
BRANCH   3   4
HETATM    4  C   UNL     1     -34.865  -1.276 -12.608  1.00  0.00    -0.000 C 
BRANCH   4   5
HETATM    5  C   UNL     1     -35.129   0.227 -12.646  1.00  0.00    -0.005 C 
HETATM    6  C   UNL     1     -34.686   0.822 -13.975  1.00  0.00     0.005 C 
ENDBRANCH   4   5
ENDBRANCH   3   4
ENDBRANCH   2   3
ENDBRANCH   1   2
BRANCH   1   7
HETATM    7  C   UNL     1     -34.231  -5.364 -11.164  1.00  0.00     0.141 C 
BRANCH   7   8
HETATM    8  C   UNL     1     -34.815  -5.137 -12.564  1.00  0.00     0.195 C 
BRANCH   8   9
HETATM    9  O   UNL     1     -35.238  -6.372 -13.138  1.00  0.00    -0.398 OA
HETATM   10  H   UNL     1     -35.992  -6.679 -12.601  1.00  0.00     0.209 HD
ENDBRANCH   8   9
ENDBRANCH   7   8
BRANCH   7  11
HETATM   11  O   UNL     1     -33.161  -6.314 -11.275  1.00  0.00    -0.393 OA
HETATM   12  H   UNL     1     -33.358  -6.904 -12.024  1.00  0.00     0.210 HD
ENDBRANCH   7  11
ENDBRANCH   1   7
TORSDOF 8
ENDMDL
MODEL 9
REMARK VINA RESULT:      -4.8     10.288     11.540
REMARK  8 active torsions:
REMARK  status: ('A' for Active; 'I' for Inactive)
REMARK    1  A    between atoms: C_2  and  C_3 
REMARK    2  A    between atoms: C_3  and  C_4 
REMARK    3  A    between atoms: C_4  and  C_5 
REMARK    4  A    between atoms: C_5  and  C_6 
REMARK    5  A    between atoms: C_6  and  C_7 
REMARK    6  A    between atoms: C_7  and  C_8 
REMARK    7  A    between atoms: C_7  and  O_10 
REMARK    8  A    between atoms: C_8  and  O_9 
ROOT
HETATM    1  C   UNL     1     -34.902  -1.817 -12.789  1.00  0.00     0.034 C 
ENDROOT
BRANCH   1   2
HETATM    2  C   UNL     1     -34.466  -1.570 -11.345  1.00  0.00     0.002 C 
BRANCH   2   3
HETATM    3  C   UNL     1     -33.385  -2.548 -10.880  1.00  0.00     0.000 C 
BRANCH   3   4
HETATM    4  C   UNL     1     -34.016  -3.891 -10.508  1.00  0.00    -0.000 C 
BRANCH   4   5
HETATM    5  C   UNL     1     -33.421  -5.051 -11.302  1.00  0.00    -0.005 C 
HETATM    6  C   UNL     1     -32.274  -4.574 -12.181  1.00  0.00     0.005 C 
ENDBRANCH   4   5
ENDBRANCH   3   4
ENDBRANCH   2   3
ENDBRANCH   1   2
BRANCH   1   7
HETATM    7  C   UNL     1     -35.734  -0.665 -13.373  1.00  0.00     0.141 C 
BRANCH   7   8
HETATM    8  C   UNL     1     -34.934   0.628 -13.580  1.00  0.00     0.195 C 
BRANCH   8   9
HETATM    9  O   UNL     1     -34.321   0.638 -14.868  1.00  0.00    -0.398 OA
HETATM   10  H   UNL     1     -34.930   0.164 -15.464  1.00  0.00     0.209 HD
ENDBRANCH   8   9
ENDBRANCH   7   8
BRANCH   7  11
HETATM   11  O   UNL     1     -36.266  -1.070 -14.643  1.00  0.00    -0.393 OA
HETATM   12  H   UNL     1     -36.511  -2.010 -14.582  1.00  0.00     0.210 HD
ENDBRANCH   7  11
ENDBRANCH   1   7
TORSDOF 8
ENDMDL
