MODEL 1
REMARK VINA RESULT:      -7.8      0.000      0.000
REMARK  12 active torsions:
REMARK  status: ('A' for Active; 'I' for Inactive)
REMARK    1  A    between atoms: CG_2  and  CB_4 
REMARK    2  A    between atoms: CB_4  and  CA_5 
REMARK    3  A    between atoms: CA_5  and  C_6 
REMARK    4  A    between atoms: CA_5  and  N_9 
REMARK    5  A    between atoms: C_6  and  OXT_8 
REMARK       I    between atoms: N_9  and  C_10 
REMARK    6  A    between atoms: C_10  and  CA_12 
REMARK    7  A    between atoms: CA_12  and  CB_13 
REMARK    8  A    between atoms: CA_12  and  N_21 
REMARK    9  A    between atoms: CB_13  and  CG_14 
REMARK   10  A    between atoms: CZ_17  and  OH_20 
REMARK       I    between atoms: N_21  and  C_26 
REMARK   11  A    between atoms: C_26  and  C_28 
REMARK       I    between atoms: N_32  and  C_33 
REMARK   12  A    between atoms: C_33  and  C_35 
REMARK       I    between atoms: N_39  and  C_40 
ROOT
ATOM      1  CA  TYR A   1     -20.960  -8.454  -4.504  1.00  0.00     0.180 C 
ENDROOT
BRANCH   1   2
ATOM      2  C   TYR A   1     -20.921  -9.051  -3.049  1.00  0.00     0.241 C 
ATOM      3  N   TYR A   1     -22.042  -9.718  -2.568  1.00  0.00    -0.345 N 
ATOM      4  H   TYR A   1     -22.731 -10.043  -3.238  1.00  0.00     0.163 HD
ATOM      5  O   TYR A   1     -19.894  -9.028  -2.366  1.00  0.00    -0.271 OA
BRANCH   3   6
ATOM      6  CA  TYR A   1     -22.093 -10.332  -1.212  1.00  0.00     0.182 C 
BRANCH   6   7
ATOM      7  CB  TYR A   1     -23.114  -9.595  -0.308  1.00  0.00     0.040 C 
BRANCH   7   8
ATOM      8  CG  TYR A   1     -22.606  -8.354   0.487  1.00  0.00    -0.020 A 
ATOM      9  CD1 TYR A   1     -21.246  -8.573   1.151  1.00  0.00     0.009 A 
ATOM     10  CD2 TYR A   1     -22.508  -7.133  -0.443  1.00  0.00     0.009 A 
ENDBRANCH   7   8
ENDBRANCH   6   7
BRANCH   6  11
ATOM     11  C   TYR A   1     -22.422 -11.841  -1.359  1.00  0.00     0.163 C 
ATOM     12  O   TYR A   1     -22.545 -12.627  -0.443  1.00  0.00    -0.648 OA
BRANCH  11  13
ATOM     13  OXT TYR A   1     -22.587 -12.208  -2.656  1.00  0.00    -0.775 OA
ATOM     14  HXT TYR A   1     -22.877 -13.151  -2.749  1.00  0.00     0.167 HD
ENDBRANCH  11  13
ENDBRANCH   6  11
ENDBRANCH   3   6
ENDBRANCH   1   2
BRANCH   1  15
ATOM     15  CB  TYR A   1     -20.413  -7.012  -4.579  1.00  0.00     0.073 C 
BRANCH  15  16
ATOM     16  CG  TYR A   1     -20.790  -6.226  -5.817  1.00  0.00    -0.056 A 
ATOM     17  CD1 TYR A   1     -19.872  -6.068  -6.865  1.00  0.00     0.010 A 
ATOM     18  CE1 TYR A   1     -20.210  -5.326  -8.001  1.00  0.00     0.037 A 
ATOM     19  CZ  TYR A   1     -21.470  -4.744  -8.091  1.00  0.00     0.065 A 
ATOM     20  CE2 TYR A   1     -22.402  -4.911  -7.077  1.00  0.00     0.037 A 
ATOM     21  CD2 TYR A   1     -22.068  -5.659  -5.947  1.00  0.00     0.010 A 
BRANCH  19  22
ATOM     22  OH  TYR A   1     -21.837  -3.997  -9.171  1.00  0.00    -0.361 OA
ATOM     23  HH  TYR A   1     -22.612  -3.462  -8.933  1.00  0.00     0.217 HD
ENDBRANCH  19  22
ENDBRANCH  15  16
ENDBRANCH   1  15
BRANCH   1  24
ATOM     24  N   TYR A   1     -20.313  -9.420  -5.450  1.00  0.00    -0.346 N 
HETATM   25  C   UNK A   0     -20.682 -10.755  -5.627  1.00  0.00     0.241 C 
HETATM   26  O   UNK A   0     -21.701 -11.216  -5.128  1.00  0.00    -0.271 OA
ATOM     27  H   TYR A   1     -19.431  -9.097  -5.833  1.00  0.00     0.163 HD
BRANCH  25  28
HETATM   28  C   UNK A   0     -19.720 -11.597  -6.552  1.00  0.00     0.179 C 
HETATM   29  C   UNK A   0     -20.596 -12.606  -7.342  1.00  0.00     0.037 C 
HETATM   30  C   UNK A   0     -19.601 -13.568  -7.973  1.00  0.00     0.022 C 
HETATM   31  C   UNK A   0     -18.448 -13.609  -6.999  1.00  0.00     0.127 C 
HETATM   32  N   UNK A   0     -18.650 -12.511  -6.062  1.00  0.00    -0.337 N 
HETATM   33  C   UNK A   0     -17.543 -12.250  -5.261  1.00  0.00     0.243 C 
HETATM   34  O   UNK A   0     -16.482 -12.859  -5.428  1.00  0.00    -0.271 OA
BRANCH  33  35
HETATM   35  C   UNK A   0     -17.683 -11.254  -4.113  1.00  0.00     0.179 C 
HETATM   36  C   UNK A   0     -16.873 -10.005  -4.467  1.00  0.00     0.037 C 
HETATM   37  C   UNK A   0     -15.913  -9.757  -3.305  1.00  0.00     0.022 C 
HETATM   38  C   UNK A   0     -16.318 -10.714  -2.207  1.00  0.00     0.127 C 
HETATM   39  N   UNK A   0     -17.100 -11.742  -2.850  1.00  0.00    -0.339 N 
HETATM   40  C   UNK A   0     -17.511 -12.820  -2.084  1.00  0.00     0.216 C 
HETATM   41  O   UNK A   0     -17.193 -12.920  -0.898  1.00  0.00    -0.274 OA
HETATM   42  C   UNK A   0     -18.292 -13.935  -2.730  1.00  0.00     0.117 C 
ENDBRANCH  33  35
ENDBRANCH  25  28
ENDBRANCH   1  24
TORSDOF 12
ENDMDL
MODEL 2
REMARK VINA RESULT:      -7.6      2.069      3.710
REMARK  12 active torsions:
REMARK  status: ('A' for Active; 'I' for Inactive)
REMARK    1  A    between atoms: CG_2  and  CB_4 
REMARK    2  A    between atoms: CB_4  and  CA_5 
REMARK    3  A    between atoms: CA_5  and  C_6 
REMARK    4  A    between atoms: CA_5  and  N_9 
REMARK    5  A    between atoms: C_6  and  OXT_8 
REMARK       I    between atoms: N_9  and  C_10 
REMARK    6  A    between atoms: C_10  and  CA_12 
REMARK    7  A    between atoms: CA_12  and  CB_13 
REMARK    8  A    between atoms: CA_12  and  N_21 
REMARK    9  A    between atoms: CB_13  and  CG_14 
REMARK   10  A    between atoms: CZ_17  and  OH_20 
REMARK       I    between atoms: N_21  and  C_26 
REMARK   11  A    between atoms: C_26  and  C_28 
REMARK       I    between atoms: N_32  and  C_33 
REMARK   12  A    between atoms: C_33  and  C_35 
REMARK       I    between atoms: N_39  and  C_40 
ROOT
ATOM      1  CA  TYR A   1     -21.304  -7.369  -3.630  1.00  0.00     0.180 C 
ENDROOT
BRANCH   1   2
ATOM      2  C   TYR A   1     -21.722  -7.624  -2.134  1.00  0.00     0.241 C 
ATOM      3  N   TYR A   1     -21.435  -8.856  -1.559  1.00  0.00    -0.345 N 
ATOM      4  H   TYR A   1     -20.737  -9.442  -2.002  1.00  0.00     0.163 HD
ATOM      5  O   TYR A   1     -22.206  -6.730  -1.436  1.00  0.00    -0.271 OA
BRANCH   3   6
ATOM      6  CA  TYR A   1     -21.775  -9.183  -0.145  1.00  0.00     0.182 C 
BRANCH   6   7
ATOM      7  CB  TYR A   1     -23.152  -9.891  -0.057  1.00  0.00     0.040 C 
BRANCH   7   8
ATOM      8  CG  TYR A   1     -23.217 -11.391  -0.473  1.00  0.00    -0.020 A 
ATOM      9  CD1 TYR A   1     -23.475 -12.337   0.702  1.00  0.00     0.009 A 
ATOM     10  CD2 TYR A   1     -24.320 -11.603  -1.524  1.00  0.00     0.009 A 
ENDBRANCH   7   8
ENDBRANCH   6   7
BRANCH   6  11
ATOM     11  C   TYR A   1     -20.634 -10.042   0.457  1.00  0.00     0.163 C 
ATOM     12  O   TYR A   1     -20.436 -10.222   1.641  1.00  0.00    -0.648 OA
BRANCH  11  13
ATOM     13  OXT TYR A   1     -19.860 -10.616  -0.501  1.00  0.00    -0.775 OA
ATOM     14  HXT TYR A   1     -19.215 -11.268  -0.127  1.00  0.00     0.167 HD
ENDBRANCH  11  13
ENDBRANCH   6  11
ENDBRANCH   3   6
ENDBRANCH   1   2
BRANCH   1  15
ATOM     15  CB  TYR A   1     -21.173  -5.870  -3.973  1.00  0.00     0.073 C 
BRANCH  15  16
ATOM     16  CG  TYR A   1     -20.869  -5.548  -5.421  1.00  0.00    -0.056 A 
ATOM     17  CD1 TYR A   1     -21.784  -5.879  -6.430  1.00  0.00     0.010 A 
ATOM     18  CE1 TYR A   1     -21.499  -5.602  -7.770  1.00  0.00     0.037 A 
ATOM     19  CZ  TYR A   1     -20.296  -4.988  -8.102  1.00  0.00     0.065 A 
ATOM     20  CE2 TYR A   1     -19.388  -4.627  -7.116  1.00  0.00     0.037 A 
ATOM     21  CD2 TYR A   1     -19.677  -4.896  -5.778  1.00  0.00     0.010 A 
BRANCH  19  22
ATOM     22  OH  TYR A   1     -19.966  -4.715  -9.396  1.00  0.00    -0.361 OA
ATOM     23  HH  TYR A   1     -19.264  -5.326  -9.677  1.00  0.00     0.217 HD
ENDBRANCH  19  22
ENDBRANCH  15  16
ENDBRANCH   1  15
BRANCH   1  24
ATOM     24  N   TYR A   1     -20.093  -8.194  -3.949  1.00  0.00    -0.346 N 
HETATM   25  C   UNK A   0     -20.024  -9.195  -4.921  1.00  0.00     0.241 C 
HETATM   26  O   UNK A   0     -20.927  -9.375  -5.729  1.00  0.00    -0.271 OA
ATOM     27  H   TYR A   1     -19.348  -8.119  -3.265  1.00  0.00     0.163 HD
BRANCH  25  28
HETATM   28  C   UNK A   0     -18.685 -10.029  -4.927  1.00  0.00     0.179 C 
HETATM   29  C   UNK A   0     -17.714  -9.346  -5.926  1.00  0.00     0.037 C 
HETATM   30  C   UNK A   0     -16.583 -10.347  -6.109  1.00  0.00     0.022 C 
HETATM   31  C   UNK A   0     -17.241 -11.694  -5.930  1.00  0.00     0.127 C 
HETATM   32  N   UNK A   0     -18.565 -11.446  -5.375  1.00  0.00    -0.337 N 
HETATM   33  C   UNK A   0     -19.201 -12.592  -4.909  1.00  0.00     0.243 C 
HETATM   34  O   UNK A   0     -18.619 -13.681  -4.905  1.00  0.00    -0.271 OA
BRANCH  33  35
HETATM   35  C   UNK A   0     -20.662 -12.500  -4.477  1.00  0.00     0.179 C 
HETATM   36  C   UNK A   0     -20.724 -12.725  -2.965  1.00  0.00     0.037 C 
HETATM   37  C   UNK A   0     -21.715 -13.864  -2.729  1.00  0.00     0.022 C 
HETATM   38  C   UNK A   0     -22.375 -14.137  -4.061  1.00  0.00     0.127 C 
HETATM   39  N   UNK A   0     -21.503 -13.564  -5.057  1.00  0.00    -0.339 N 
HETATM   40  C   UNK A   0     -21.816 -13.770  -6.390  1.00  0.00     0.216 C 
HETATM   41  O   UNK A   0     -22.789 -14.448  -6.722  1.00  0.00    -0.274 OA
HETATM   42  C   UNK A   0     -20.904 -13.224  -7.458  1.00  0.00     0.117 C 
ENDBRANCH  33  35
ENDBRANCH  25  28
ENDBRANCH   1  24
TORSDOF 12
ENDMDL
MODEL 3
REMARK VINA RESULT:      -7.6      1.933      3.131
REMARK  12 active torsions:
REMARK  status: ('A' for Active; 'I' for Inactive)
REMARK    1  A    between atoms: CG_2  and  CB_4 
REMARK    2  A    between atoms: CB_4  and  CA_5 
REMARK    3  A    between atoms: CA_5  and  C_6 
REMARK    4  A    between atoms: CA_5  and  N_9 
REMARK    5  A    between atoms: C_6  and  OXT_8 
REMARK       I    between atoms: N_9  and  C_10 
REMARK    6  A    between atoms: C_10  and  CA_12 
REMARK    7  A    between atoms: CA_12  and  CB_13 
REMARK    8  A    between atoms: CA_12  and  N_21 
REMARK    9  A    between atoms: CB_13  and  CG_14 
REMARK   10  A    between atoms: CZ_17  and  OH_20 
REMARK       I    between atoms: N_21  and  C_26 
REMARK   11  A    between atoms: C_26  and  C_28 
REMARK       I    between atoms: N_32  and  C_33 
REMARK   12  A    between atoms: C_33  and  C_35 
REMARK       I    between atoms: N_39  and  C_40 
ROOT
ATOM      1  CA  TYR A   1     -20.515  -8.349  -4.593  1.00  0.00     0.180 C 
ENDROOT
BRANCH   1   2
ATOM      2  C   TYR A   1     -21.435  -9.030  -3.513  1.00  0.00     0.241 C 
ATOM      3  N   TYR A   1     -21.475  -8.492  -2.233  1.00  0.00    -0.345 N 
ATOM      4  H   TYR A   1     -21.147  -7.542  -2.100  1.00  0.00     0.163 HD
ATOM      5  O   TYR A   1     -22.190  -9.963  -3.800  1.00  0.00    -0.271 OA
BRANCH   3   6
ATOM      6  CA  TYR A   1     -22.329  -9.056  -1.149  1.00  0.00     0.182 C 
BRANCH   6   7
ATOM      7  CB  TYR A   1     -21.614 -10.233  -0.437  1.00  0.00     0.040 C 
BRANCH   7   8
ATOM      8  CG  TYR A   1     -22.352 -11.605  -0.399  1.00  0.00    -0.020 A 
ATOM      9  CD1 TYR A   1     -22.039 -12.430   0.851  1.00  0.00     0.009 A 
ATOM     10  CD2 TYR A   1     -23.874 -11.392  -0.477  1.00  0.00     0.009 A 
ENDBRANCH   7   8
ENDBRANCH   6   7
BRANCH   6  11
ATOM     11  C   TYR A   1     -22.705  -7.917  -0.166  1.00  0.00     0.163 C 
ATOM     12  O   TYR A   1     -22.993  -8.063   1.004  1.00  0.00    -0.648 OA
BRANCH  11  13
ATOM     13  OXT TYR A   1     -22.659  -6.693  -0.753  1.00  0.00    -0.775 OA
ATOM     14  HXT TYR A   1     -23.384  -6.562  -1.415  1.00  0.00     0.167 HD
ENDBRANCH  11  13
ENDBRANCH   6  11
ENDBRANCH   3   6
ENDBRANCH   1   2
BRANCH   1  15
ATOM     15  CB  TYR A   1     -20.304  -6.840  -4.342  1.00  0.00     0.073 C 
BRANCH  15  16
ATOM     16  CG  TYR A   1     -20.863  -5.910  -5.397  1.00  0.00    -0.056 A 
ATOM     17  CD1 TYR A   1     -20.023  -5.010  -6.068  1.00  0.00     0.010 A 
ATOM     18  CE1 TYR A   1     -20.539  -4.134  -7.028  1.00  0.00     0.037 A 
ATOM     19  CZ  TYR A   1     -21.899  -4.163  -7.322  1.00  0.00     0.065 A 
ATOM     20  CE2 TYR A   1     -22.742  -5.065  -6.689  1.00  0.00     0.037 A 
ATOM     21  CD2 TYR A   1     -22.225  -5.944  -5.736  1.00  0.00     0.010 A 
BRANCH  19  22
ATOM     22  OH  TYR A   1     -22.450  -3.317  -8.238  1.00  0.00    -0.361 OA
ATOM     23  HH  TYR A   1     -21.818  -2.602  -8.425  1.00  0.00     0.217 HD
ENDBRANCH  19  22
ENDBRANCH  15  16
ENDBRANCH   1  15
BRANCH   1  24
ATOM     24  N   TYR A   1     -19.253  -9.144  -4.736  1.00  0.00    -0.346 N 
HETATM   25  C   UNK A   0     -18.298  -9.340  -3.736  1.00  0.00     0.241 C 
HETATM   26  O   UNK A   0     -18.499  -9.004  -2.575  1.00  0.00    -0.271 OA
ATOM     27  H   TYR A   1     -19.020  -9.384  -5.694  1.00  0.00     0.163 HD
BRANCH  25  28
HETATM   28  C   UNK A   0     -16.978 -10.066  -4.206  1.00  0.00     0.179 C 
HETATM   29  C   UNK A   0     -16.928  -9.990  -5.754  1.00  0.00     0.037 C 
HETATM   30  C   UNK A   0     -15.816 -10.949  -6.152  1.00  0.00     0.022 C 
HETATM   31  C   UNK A   0     -15.841 -12.016  -5.083  1.00  0.00     0.127 C 
HETATM   32  N   UNK A   0     -16.686 -11.515  -4.007  1.00  0.00    -0.337 N 
HETATM   33  C   UNK A   0     -16.605 -12.262  -2.837  1.00  0.00     0.243 C 
HETATM   34  O   UNK A   0     -15.808 -13.200  -2.739  1.00  0.00    -0.271 OA
BRANCH  33  35
HETATM   35  C   UNK A   0     -17.575 -11.958  -1.699  1.00  0.00     0.179 C 
HETATM   36  C   UNK A   0     -16.760 -11.763  -0.419  1.00  0.00     0.037 C 
HETATM   37  C   UNK A   0     -17.332 -12.726   0.620  1.00  0.00     0.022 C 
HETATM   38  C   UNK A   0     -18.593 -13.301   0.017  1.00  0.00     0.127 C 
HETATM   39  N   UNK A   0     -18.488 -13.078  -1.404  1.00  0.00    -0.339 N 
HETATM   40  C   UNK A   0     -19.471 -13.613  -2.220  1.00  0.00     0.216 C 
HETATM   41  O   UNK A   0     -20.391 -14.287  -1.756  1.00  0.00    -0.274 OA
HETATM   42  C   UNK A   0     -19.371 -13.438  -3.713  1.00  0.00     0.117 C 
ENDBRANCH  33  35
ENDBRANCH  25  28
ENDBRANCH   1  24
TORSDOF 12
ENDMDL
MODEL 4
REMARK VINA RESULT:      -7.5      3.199      6.718
REMARK  12 active torsions:
REMARK  status: ('A' for Active; 'I' for Inactive)
REMARK    1  A    between atoms: CG_2  and  CB_4 
REMARK    2  A    between atoms: CB_4  and  CA_5 
REMARK    3  A    between atoms: CA_5  and  C_6 
REMARK    4  A    between atoms: CA_5  and  N_9 
REMARK    5  A    between atoms: C_6  and  OXT_8 
REMARK       I    between atoms: N_9  and  C_10 
REMARK    6  A    between atoms: C_10  and  CA_12 
REMARK    7  A    between atoms: CA_12  and  CB_13 
REMARK    8  A    between atoms: CA_12  and  N_21 
REMARK    9  A    between atoms: CB_13  and  CG_14 
REMARK   10  A    between atoms: CZ_17  and  OH_20 
REMARK       I    between atoms: N_21  and  C_26 
REMARK   11  A    between atoms: C_26  and  C_28 
REMARK       I    between atoms: N_32  and  C_33 
REMARK   12  A    between atoms: C_33  and  C_35 
REMARK       I    between atoms: N_39  and  C_40 
ROOT
ATOM      1  CA  TYR A   1     -18.835 -11.769  -0.236  1.00  0.00     0.180 C 
ENDROOT
BRANCH   1   2
ATOM      2  C   TYR A   1     -18.995 -11.450  -1.768  1.00  0.00     0.241 C 
ATOM      3  N   TYR A   1     -18.364 -10.326  -2.288  1.00  0.00    -0.345 N 
ATOM      4  H   TYR A   1     -17.610  -9.908  -1.754  1.00  0.00     0.163 HD
ATOM      5  O   TYR A   1     -19.582 -12.220  -2.532  1.00  0.00    -0.271 OA
BRANCH   3   6
ATOM      6  CA  TYR A   1     -18.443  -9.952  -3.728  1.00  0.00     0.182 C 
BRANCH   6   7
ATOM      7  CB  TYR A   1     -19.381  -8.734  -3.934  1.00  0.00     0.040 C 
BRANCH   7   8
ATOM      8  CG  TYR A   1     -20.578  -8.574  -2.950  1.00  0.00    -0.020 A 
ATOM      9  CD1 TYR A   1     -21.106  -7.141  -2.861  1.00  0.00     0.009 A 
ATOM     10  CD2 TYR A   1     -21.735  -9.498  -3.367  1.00  0.00     0.009 A 
ENDBRANCH   7   8
ENDBRANCH   6   7
BRANCH   6  11
ATOM     11  C   TYR A   1     -17.009  -9.683  -4.253  1.00  0.00     0.163 C 
ATOM     12  O   TYR A   1     -16.062  -9.346  -3.573  1.00  0.00    -0.648 OA
BRANCH  11  13
ATOM     13  OXT TYR A   1     -16.902  -9.890  -5.591  1.00  0.00    -0.775 OA
ATOM     14  HXT TYR A   1     -17.777 -10.071  -6.018  1.00  0.00     0.167 HD
ENDBRANCH  11  13
ENDBRANCH   6  11
ENDBRANCH   3   6
ENDBRANCH   1   2
BRANCH   1  15
ATOM     15  CB  TYR A   1     -20.183 -12.027   0.472  1.00  0.00     0.073 C 
BRANCH  15  16
ATOM     16  CG  TYR A   1     -21.168 -10.877   0.455  1.00  0.00    -0.056 A 
ATOM     17  CD1 TYR A   1     -22.478 -11.072  -0.004  1.00  0.00     0.010 A 
ATOM     18  CE1 TYR A   1     -23.385 -10.008  -0.041  1.00  0.00     0.037 A 
ATOM     19  CZ  TYR A   1     -22.982  -8.748   0.386  1.00  0.00     0.065 A 
ATOM     20  CE2 TYR A   1     -21.697  -8.540   0.870  1.00  0.00     0.037 A 
ATOM     21  CD2 TYR A   1     -20.795  -9.604   0.914  1.00  0.00     0.010 A 
BRANCH  19  22
ATOM     22  OH  TYR A   1     -23.825  -7.677   0.353  1.00  0.00    -0.361 OA
ATOM     23  HH  TYR A   1     -23.901  -7.309   1.249  1.00  0.00     0.217 HD
ENDBRANCH  19  22
ENDBRANCH  15  16
ENDBRANCH   1  15
BRANCH   1  24
ATOM     24  N   TYR A   1     -17.818 -12.857  -0.064  1.00  0.00    -0.346 N 
HETATM   25  C   UNK A   0     -16.449 -12.666   0.134  1.00  0.00     0.241 C 
HETATM   26  O   UNK A   0     -15.975 -11.558   0.355  1.00  0.00    -0.271 OA
ATOM     27  H   TYR A   1     -18.158 -13.783  -0.301  1.00  0.00     0.163 HD
BRANCH  25  28
HETATM   28  C   UNK A   0     -15.580 -13.983   0.105  1.00  0.00     0.179 C 
HETATM   29  C   UNK A   0     -14.508 -13.862   1.220  1.00  0.00     0.037 C 
HETATM   30  C   UNK A   0     -13.535 -14.999   0.946  1.00  0.00     0.022 C 
HETATM   31  C   UNK A   0     -13.577 -15.175  -0.554  1.00  0.00     0.127 C 
HETATM   32  N   UNK A   0     -14.720 -14.411  -1.036  1.00  0.00    -0.337 N 
HETATM   33  C   UNK A   0     -15.053 -14.678  -2.360  1.00  0.00     0.243 C 
HETATM   34  O   UNK A   0     -14.461 -15.555  -2.998  1.00  0.00    -0.271 OA
BRANCH  33  35
HETATM   35  C   UNK A   0     -16.108 -13.813  -3.043  1.00  0.00     0.179 C 
HETATM   36  C   UNK A   0     -17.352 -14.675  -3.274  1.00  0.00     0.037 C 
HETATM   37  C   UNK A   0     -17.682 -14.583  -4.763  1.00  0.00     0.022 C 
HETATM   38  C   UNK A   0     -16.780 -13.513  -5.334  1.00  0.00     0.127 C 
HETATM   39  N   UNK A   0     -15.703 -13.360  -4.387  1.00  0.00    -0.339 N 
HETATM   40  C   UNK A   0     -14.661 -12.511  -4.720  1.00  0.00     0.216 C 
HETATM   41  O   UNK A   0     -14.632 -11.927  -5.804  1.00  0.00    -0.274 OA
HETATM   42  C   UNK A   0     -13.496 -12.360  -3.775  1.00  0.00     0.117 C 
ENDBRANCH  33  35
ENDBRANCH  25  28
ENDBRANCH   1  24
TORSDOF 12
ENDMDL
MODEL 5
REMARK VINA RESULT:      -7.2      1.409      1.626
REMARK  12 active torsions:
REMARK  status: ('A' for Active; 'I' for Inactive)
REMARK    1  A    between atoms: CG_2  and  CB_4 
REMARK    2  A    between atoms: CB_4  and  CA_5 
REMARK    3  A    between atoms: CA_5  and  C_6 
REMARK    4  A    between atoms: CA_5  and  N_9 
REMARK    5  A    between atoms: C_6  and  OXT_8 
REMARK       I    between atoms: N_9  and  C_10 
REMARK    6  A    between atoms: C_10  and  CA_12 
REMARK    7  A    between atoms: CA_12  and  CB_13 
REMARK    8  A    between atoms: CA_12  and  N_21 
REMARK    9  A    between atoms: CB_13  and  CG_14 
REMARK   10  A    between atoms: CZ_17  and  OH_20 
REMARK       I    between atoms: N_21  and  C_26 
REMARK   11  A    between atoms: C_26  and  C_28 
REMARK       I    between atoms: N_32  and  C_33 
REMARK   12  A    between atoms: C_33  and  C_35 
REMARK       I    between atoms: N_39  and  C_40 
ROOT
ATOM      1  CA  TYR A   1     -20.727  -9.693  -4.159  1.00  0.00     0.180 C 
ENDROOT
BRANCH   1   2
ATOM      2  C   TYR A   1     -20.869  -9.754  -2.593  1.00  0.00     0.241 C 
ATOM      3  N   TYR A   1     -21.978 -10.388  -2.045  1.00  0.00    -0.345 N 
ATOM      4  H   TYR A   1     -22.508 -11.023  -2.633  1.00  0.00     0.163 HD
ATOM      5  O   TYR A   1     -19.979  -9.342  -1.845  1.00  0.00    -0.271 OA
BRANCH   3   6
ATOM      6  CA  TYR A   1     -22.190 -10.513  -0.575  1.00  0.00     0.182 C 
BRANCH   6   7
ATOM      7  CB  TYR A   1     -23.212  -9.461  -0.072  1.00  0.00     0.040 C 
BRANCH   7   8
ATOM      8  CG  TYR A   1     -22.647  -8.136   0.520  1.00  0.00    -0.020 A 
ATOM      9  CD1 TYR A   1     -21.319  -8.317   1.258  1.00  0.00     0.009 A 
ATOM     10  CD2 TYR A   1     -22.450  -7.096  -0.597  1.00  0.00     0.009 A 
ENDBRANCH   7   8
ENDBRANCH   6   7
BRANCH   6  11
ATOM     11  C   TYR A   1     -22.635 -11.964  -0.257  1.00  0.00     0.163 C 
ATOM     12  O   TYR A   1     -23.700 -12.282   0.232  1.00  0.00    -0.648 OA
BRANCH  11  13
ATOM     13  OXT TYR A   1     -21.698 -12.881  -0.610  1.00  0.00    -0.775 OA
ATOM     14  HXT TYR A   1     -20.782 -12.505  -0.614  1.00  0.00     0.167 HD
ENDBRANCH  11  13
ENDBRANCH   6  11
ENDBRANCH   3   6
ENDBRANCH   1   2
BRANCH   1  15
ATOM     15  CB  TYR A   1     -19.847  -8.519  -4.640  1.00  0.00     0.073 C 
BRANCH  15  16
ATOM     16  CG  TYR A   1     -20.580  -7.373  -5.305  1.00  0.00    -0.056 A 
ATOM     17  CD1 TYR A   1     -19.936  -6.581  -6.267  1.00  0.00     0.010 A 
ATOM     18  CE1 TYR A   1     -20.602  -5.509  -6.869  1.00  0.00     0.037 A 
ATOM     19  CZ  TYR A   1     -21.917  -5.232  -6.511  1.00  0.00     0.065 A 
ATOM     20  CE2 TYR A   1     -22.581  -6.020  -5.582  1.00  0.00     0.037 A 
ATOM     21  CD2 TYR A   1     -21.919  -7.095  -4.987  1.00  0.00     0.010 A 
BRANCH  19  22
ATOM     22  OH  TYR A   1     -22.601  -4.187  -7.059  1.00  0.00    -0.361 OA
ATOM     23  HH  TYR A   1     -22.042  -3.393  -7.021  1.00  0.00     0.217 HD
ENDBRANCH  19  22
ENDBRANCH  15  16
ENDBRANCH   1  15
BRANCH   1  24
ATOM     24  N   TYR A   1     -20.310 -11.039  -4.669  1.00  0.00    -0.346 N 
HETATM   25  C   UNK A   0     -20.713 -11.611  -5.878  1.00  0.00     0.241 C 
HETATM   26  O   UNK A   0     -21.327 -10.972  -6.723  1.00  0.00    -0.271 OA
ATOM     27  H   TYR A   1     -19.855 -11.622  -3.975  1.00  0.00     0.163 HD
BRANCH  25  28
HETATM   28  C   UNK A   0     -20.271 -13.112  -6.086  1.00  0.00     0.179 C 
HETATM   29  C   UNK A   0     -21.488 -14.010  -5.743  1.00  0.00     0.037 C 
HETATM   30  C   UNK A   0     -20.919 -15.420  -5.672  1.00  0.00     0.022 C 
HETATM   31  C   UNK A   0     -19.499 -15.227  -5.196  1.00  0.00     0.127 C 
HETATM   32  N   UNK A   0     -19.208 -13.804  -5.303  1.00  0.00    -0.337 N 
HETATM   33  C   UNK A   0     -17.860 -13.495  -5.150  1.00  0.00     0.243 C 
HETATM   34  O   UNK A   0     -17.016 -14.389  -5.028  1.00  0.00    -0.271 OA
BRANCH  33  35
HETATM   35  C   UNK A   0     -17.446 -12.030  -5.053  1.00  0.00     0.179 C 
HETATM   36  C   UNK A   0     -16.443 -11.745  -6.173  1.00  0.00     0.037 C 
HETATM   37  C   UNK A   0     -15.199 -11.155  -5.513  1.00  0.00     0.022 C 
HETATM   38  C   UNK A   0     -15.565 -10.899  -4.068  1.00  0.00     0.127 C 
HETATM   39  N   UNK A   0     -16.725 -11.715  -3.806  1.00  0.00    -0.339 N 
HETATM   40  C   UNK A   0     -17.208 -11.758  -2.509  1.00  0.00     0.216 C 
HETATM   41  O   UNK A   0     -16.651 -11.146  -1.597  1.00  0.00    -0.274 OA
HETATM   42  C   UNK A   0     -18.392 -12.634  -2.188  1.00  0.00     0.117 C 
ENDBRANCH  33  35
ENDBRANCH  25  28
ENDBRANCH   1  24
TORSDOF 12
ENDMDL
MODEL 6
REMARK VINA RESULT:      -7.2      1.838      3.680
REMARK  12 active torsions:
REMARK  status: ('A' for Active; 'I' for Inactive)
REMARK    1  A    between atoms: CG_2  and  CB_4 
REMARK    2  A    between atoms: CB_4  and  CA_5 
REMARK    3  A    between atoms: CA_5  and  C_6 
REMARK    4  A    between atoms: CA_5  and  N_9 
REMARK    5  A    between atoms: C_6  and  OXT_8 
REMARK       I    between atoms: N_9  and  C_10 
REMARK    6  A    between atoms: C_10  and  CA_12 
REMARK    7  A    between atoms: CA_12  and  CB_13 
REMARK    8  A    between atoms: CA_12  and  N_21 
REMARK    9  A    between atoms: CB_13  and  CG_14 
REMARK   10  A    between atoms: CZ_17  and  OH_20 
REMARK       I    between atoms: N_21  and  C_26 
REMARK   11  A    between atoms: C_26  and  C_28 
REMARK       I    between atoms: N_32  and  C_33 
REMARK   12  A    between atoms: C_33  and  C_35 
REMARK       I    between atoms: N_39  and  C_40 
ROOT
ATOM      1  CA  TYR A   1     -20.627  -8.770  -4.760  1.00  0.00     0.180 C 
ENDROOT
BRANCH   1   2
ATOM      2  C   TYR A   1     -21.567  -9.262  -3.598  1.00  0.00     0.241 C 
ATOM      3  N   TYR A   1     -21.505  -8.620  -2.367  1.00  0.00    -0.345 N 
ATOM      4  H   TYR A   1     -21.079  -7.700  -2.327  1.00  0.00     0.163 HD
ATOM      5  O   TYR A   1     -22.421 -10.134  -3.780  1.00  0.00    -0.271 OA
BRANCH   3   6
ATOM      6  CA  TYR A   1     -22.368  -9.002  -1.214  1.00  0.00     0.182 C 
BRANCH   6   7
ATOM      7  CB  TYR A   1     -21.667 -10.063  -0.326  1.00  0.00     0.040 C 
BRANCH   7   8
ATOM      8  CG  TYR A   1     -22.209 -11.522  -0.387  1.00  0.00    -0.020 A 
ATOM      9  CD1 TYR A   1     -21.885 -12.344   0.862  1.00  0.00     0.009 A 
ATOM     10  CD2 TYR A   1     -23.735 -11.514  -0.587  1.00  0.00     0.009 A 
ENDBRANCH   7   8
ENDBRANCH   6   7
BRANCH   6  11
ATOM     11  C   TYR A   1     -22.735  -7.722  -0.420  1.00  0.00     0.163 C 
ATOM     12  O   TYR A   1     -22.441  -6.588  -0.738  1.00  0.00    -0.648 OA
BRANCH  11  13
ATOM     13  OXT TYR A   1     -23.463  -7.996   0.694  1.00  0.00    -0.775 OA
ATOM     14  HXT TYR A   1     -23.301  -8.911   1.036  1.00  0.00     0.167 HD
ENDBRANCH  11  13
ENDBRANCH   6  11
ENDBRANCH   3   6
ENDBRANCH   1   2
BRANCH   1  15
ATOM     15  CB  TYR A   1     -20.182  -7.301  -4.595  1.00  0.00     0.073 C 
BRANCH  15  16
ATOM     16  CG  TYR A   1     -20.798  -6.312  -5.562  1.00  0.00    -0.056 A 
ATOM     17  CD1 TYR A   1     -19.993  -5.616  -6.475  1.00  0.00     0.010 A 
ATOM     18  CE1 TYR A   1     -20.555  -4.687  -7.356  1.00  0.00     0.037 A 
ATOM     19  CZ  TYR A   1     -21.926  -4.457  -7.327  1.00  0.00     0.065 A 
ATOM     20  CE2 TYR A   1     -22.744  -5.155  -6.450  1.00  0.00     0.037 A 
ATOM     21  CD2 TYR A   1     -22.184  -6.088  -5.576  1.00  0.00     0.010 A 
BRANCH  19  22
ATOM     22  OH  TYR A   1     -22.516  -3.548  -8.155  1.00  0.00    -0.361 OA
ATOM     23  HH  TYR A   1     -23.392  -3.882  -8.413  1.00  0.00     0.217 HD
ENDBRANCH  19  22
ENDBRANCH  15  16
ENDBRANCH   1  15
BRANCH   1  24
ATOM     24  N   TYR A   1     -19.506  -9.750  -4.933  1.00  0.00    -0.346 N 
HETATM   25  C   UNK A   0     -18.403  -9.881  -4.086  1.00  0.00     0.241 C 
HETATM   26  O   UNK A   0     -18.342  -9.301  -3.008  1.00  0.00    -0.271 OA
ATOM     27  H   TYR A   1     -19.487 -10.202  -5.841  1.00  0.00     0.163 HD
BRANCH  25  28
HETATM   28  C   UNK A   0     -17.281 -10.865  -4.598  1.00  0.00     0.179 C 
HETATM   29  C   UNK A   0     -16.413 -10.092  -5.625  1.00  0.00     0.037 C 
HETATM   30  C   UNK A   0     -15.559 -11.161  -6.290  1.00  0.00     0.022 C 
HETATM   31  C   UNK A   0     -16.419 -12.402  -6.259  1.00  0.00     0.127 C 
HETATM   32  N   UNK A   0     -17.532 -12.120  -5.362  1.00  0.00    -0.337 N 
HETATM   33  C   UNK A   0     -18.274 -13.246  -5.021  1.00  0.00     0.243 C 
HETATM   34  O   UNK A   0     -17.928 -14.371  -5.397  1.00  0.00    -0.271 OA
BRANCH  33  35
HETATM   35  C   UNK A   0     -19.574 -13.064  -4.242  1.00  0.00     0.179 C 
HETATM   36  C   UNK A   0     -19.426 -13.783  -2.899  1.00  0.00     0.037 C 
HETATM   37  C   UNK A   0     -20.603 -14.748  -2.783  1.00  0.00     0.022 C 
HETATM   38  C   UNK A   0     -21.530 -14.430  -3.935  1.00  0.00     0.127 C 
HETATM   39  N   UNK A   0     -20.732 -13.705  -4.892  1.00  0.00    -0.339 N 
HETATM   40  C   UNK A   0     -21.311 -13.383  -6.108  1.00  0.00     0.216 C 
HETATM   41  O   UNK A   0     -22.460 -13.730  -6.383  1.00  0.00    -0.274 OA
HETATM   42  C   UNK A   0     -20.494 -12.664  -7.151  1.00  0.00     0.117 C 
ENDBRANCH  33  35
ENDBRANCH  25  28
ENDBRANCH   1  24
TORSDOF 12
ENDMDL
MODEL 7
REMARK VINA RESULT:      -7.1      2.706      6.738
REMARK  12 active torsions:
REMARK  status: ('A' for Active; 'I' for Inactive)
REMARK    1  A    between atoms: CG_2  and  CB_4 
REMARK    2  A    between atoms: CB_4  and  CA_5 
REMARK    3  A    between atoms: CA_5  and  C_6 
REMARK    4  A    between atoms: CA_5  and  N_9 
REMARK    5  A    between atoms: C_6  and  OXT_8 
REMARK       I    between atoms: N_9  and  C_10 
REMARK    6  A    between atoms: C_10  and  CA_12 
REMARK    7  A    between atoms: CA_12  and  CB_13 
REMARK    8  A    between atoms: CA_12  and  N_21 
REMARK    9  A    between atoms: CB_13  and  CG_14 
REMARK   10  A    between atoms: CZ_17  and  OH_20 
REMARK       I    between atoms: N_21  and  C_26 
REMARK   11  A    between atoms: C_26  and  C_28 
REMARK       I    between atoms: N_32  and  C_33 
REMARK   12  A    between atoms: C_33  and  C_35 
REMARK       I    between atoms: N_39  and  C_40 
ROOT
ATOM      1  CA  TYR A   1     -20.060 -12.521  -1.125  1.00  0.00     0.180 C 
ENDROOT
BRANCH   1   2
ATOM      2  C   TYR A   1     -18.674 -13.260  -1.045  1.00  0.00     0.241 C 
ATOM      3  N   TYR A   1     -17.901 -13.112   0.100  1.00  0.00    -0.345 N 
ATOM      4  H   TYR A   1     -18.352 -12.777   0.944  1.00  0.00     0.163 HD
ATOM      5  O   TYR A   1     -18.303 -14.039  -1.927  1.00  0.00    -0.271 OA
BRANCH   3   6
ATOM      6  CA  TYR A   1     -16.583 -13.787   0.275  1.00  0.00     0.182 C 
BRANCH   6   7
ATOM      7  CB  TYR A   1     -15.477 -13.061  -0.533  1.00  0.00     0.040 C 
BRANCH   7   8
ATOM      8  CG  TYR A   1     -14.584 -13.929  -1.468  1.00  0.00    -0.020 A 
ATOM      9  CD1 TYR A   1     -14.201 -13.223  -2.771  1.00  0.00     0.009 A 
ATOM     10  CD2 TYR A   1     -13.294 -14.342  -0.738  1.00  0.00     0.009 A 
ENDBRANCH   7   8
ENDBRANCH   6   7
BRANCH   6  11
ATOM     11  C   TYR A   1     -16.255 -13.855   1.789  1.00  0.00     0.163 C 
ATOM     12  O   TYR A   1     -16.369 -14.839   2.491  1.00  0.00    -0.648 OA
BRANCH  11  13
ATOM     13  OXT TYR A   1     -15.790 -12.673   2.270  1.00  0.00    -0.775 OA
ATOM     14  HXT TYR A   1     -14.875 -12.749   2.641  1.00  0.00     0.167 HD
ENDBRANCH  11  13
ENDBRANCH   6  11
ENDBRANCH   3   6
ENDBRANCH   1   2
BRANCH   1  15
ATOM     15  CB  TYR A   1     -20.645 -12.181   0.263  1.00  0.00     0.073 C 
BRANCH  15  16
ATOM     16  CG  TYR A   1     -21.494 -10.930   0.334  1.00  0.00    -0.056 A 
ATOM     17  CD1 TYR A   1     -22.831 -10.955  -0.086  1.00  0.00     0.010 A 
ATOM     18  CE1 TYR A   1     -23.614  -9.797  -0.041  1.00  0.00     0.037 A 
ATOM     19  CZ  TYR A   1     -23.058  -8.612   0.429  1.00  0.00     0.065 A 
ATOM     20  CE2 TYR A   1     -21.744  -8.573   0.876  1.00  0.00     0.037 A 
ATOM     21  CD2 TYR A   1     -20.966  -9.731   0.839  1.00  0.00     0.010 A 
BRANCH  19  22
ATOM     22  OH  TYR A   1     -23.776  -7.454   0.475  1.00  0.00    -0.361 OA
ATOM     23  HH  TYR A   1     -23.762  -7.112   1.385  1.00  0.00     0.217 HD
ENDBRANCH  19  22
ENDBRANCH  15  16
ENDBRANCH   1  15
BRANCH   1  24
ATOM     24  N   TYR A   1     -19.942 -11.353  -2.058  1.00  0.00    -0.346 N 
HETATM   25  C   UNK A   0     -18.843 -10.496  -2.153  1.00  0.00     0.241 C 
HETATM   26  O   UNK A   0     -17.787 -10.734  -1.581  1.00  0.00    -0.271 OA
ATOM     27  H   TYR A   1     -20.815 -11.087  -2.502  1.00  0.00     0.163 HD
BRANCH  25  28
HETATM   28  C   UNK A   0     -19.053  -9.243  -3.089  1.00  0.00     0.179 C 
HETATM   29  C   UNK A   0     -20.467  -8.674  -2.799  1.00  0.00     0.037 C 
HETATM   30  C   UNK A   0     -20.719  -7.678  -3.921  1.00  0.00     0.022 C 
HETATM   31  C   UNK A   0     -19.955  -8.237  -5.098  1.00  0.00     0.127 C 
HETATM   32  N   UNK A   0     -19.091  -9.288  -4.578  1.00  0.00    -0.337 N 
HETATM   33  C   UNK A   0     -18.134  -9.726  -5.488  1.00  0.00     0.243 C 
HETATM   34  O   UNK A   0     -18.011  -9.181  -6.589  1.00  0.00    -0.271 OA
BRANCH  33  35
HETATM   35  C   UNK A   0     -17.290 -10.948  -5.139  1.00  0.00     0.179 C 
HETATM   36  C   UNK A   0     -15.860 -10.476  -4.866  1.00  0.00     0.037 C 
HETATM   37  C   UNK A   0     -14.945 -11.287  -5.781  1.00  0.00     0.022 C 
HETATM   38  C   UNK A   0     -15.809 -12.360  -6.404  1.00  0.00     0.127 C 
HETATM   39  N   UNK A   0     -17.170 -11.906  -6.253  1.00  0.00    -0.339 N 
HETATM   40  C   UNK A   0     -18.174 -12.656  -6.843  1.00  0.00     0.216 C 
HETATM   41  O   UNK A   0     -17.917 -13.662  -7.504  1.00  0.00    -0.274 OA
HETATM   42  C   UNK A   0     -19.603 -12.189  -6.744  1.00  0.00     0.117 C 
ENDBRANCH  33  35
ENDBRANCH  25  28
ENDBRANCH   1  24
TORSDOF 12
ENDMDL
MODEL 8
REMARK VINA RESULT:      -7.1      1.739      2.454
REMARK  12 active torsions:
REMARK  status: ('A' for Active; 'I' for Inactive)
REMARK    1  A    between atoms: CG_2  and  CB_4 
REMARK    2  A    between atoms: CB_4  and  CA_5 
REMARK    3  A    between atoms: CA_5  and  C_6 
REMARK    4  A    between atoms: CA_5  and  N_9 
REMARK    5  A    between atoms: C_6  and  OXT_8 
REMARK       I    between atoms: N_9  and  C_10 
REMARK    6  A    between atoms: C_10  and  CA_12 
REMARK    7  A    between atoms: CA_12  and  CB_13 
REMARK    8  A    between atoms: CA_12  and  N_21 
REMARK    9  A    between atoms: CB_13  and  CG_14 
REMARK   10  A    between atoms: CZ_17  and  OH_20 
REMARK       I    between atoms: N_21  and  C_26 
REMARK   11  A    between atoms: C_26  and  C_28 
REMARK       I    between atoms: N_32  and  C_33 
REMARK   12  A    between atoms: C_33  and  C_35 
REMARK       I    between atoms: N_39  and  C_40 
ROOT
ATOM      1  CA  TYR A   1     -21.189  -9.047  -4.939  1.00  0.00     0.180 C 
ENDROOT
BRANCH   1   2
ATOM      2  C   TYR A   1     -21.617  -9.520  -3.500  1.00  0.00     0.241 C 
ATOM      3  N   TYR A   1     -21.626  -8.592  -2.465  1.00  0.00    -0.345 N 
ATOM      4  H   TYR A   1     -21.633  -7.607  -2.704  1.00  0.00     0.163 HD
ATOM      5  O   TYR A   1     -22.035 -10.661  -3.291  1.00  0.00    -0.271 OA
BRANCH   3   6
ATOM      6  CA  TYR A   1     -22.034  -8.941  -1.075  1.00  0.00     0.182 C 
BRANCH   6   7
ATOM      7  CB  TYR A   1     -20.821  -9.449  -0.253  1.00  0.00     0.040 C 
BRANCH   7   8
ATOM      8  CG  TYR A   1     -20.862 -10.921   0.254  1.00  0.00    -0.020 A 
ATOM      9  CD1 TYR A   1     -22.262 -11.538   0.217  1.00  0.00     0.009 A 
ATOM     10  CD2 TYR A   1     -19.917 -11.799  -0.585  1.00  0.00     0.009 A 
ENDBRANCH   7   8
ENDBRANCH   6   7
BRANCH   6  11
ATOM     11  C   TYR A   1     -22.704  -7.702  -0.426  1.00  0.00     0.163 C 
ATOM     12  O   TYR A   1     -22.570  -6.554  -0.797  1.00  0.00    -0.648 OA
BRANCH  11  13
ATOM     13  OXT TYR A   1     -23.504  -8.036   0.620  1.00  0.00    -0.775 OA
ATOM     14  HXT TYR A   1     -23.118  -7.769   1.492  1.00  0.00     0.167 HD
ENDBRANCH  11  13
ENDBRANCH   6  11
ENDBRANCH   3   6
ENDBRANCH   1   2
BRANCH   1  15
ATOM     15  CB  TYR A   1     -20.256  -7.817  -4.918  1.00  0.00     0.073 C 
BRANCH  15  16
ATOM     16  CG  TYR A   1     -20.747  -6.602  -5.675  1.00  0.00    -0.056 A 
ATOM     17  CD1 TYR A   1     -22.101  -6.242  -5.638  1.00  0.00     0.010 A 
ATOM     18  CE1 TYR A   1     -22.563  -5.132  -6.353  1.00  0.00     0.037 A 
ATOM     19  CZ  TYR A   1     -21.667  -4.379  -7.104  1.00  0.00     0.065 A 
ATOM     20  CE2 TYR A   1     -20.318  -4.703  -7.132  1.00  0.00     0.037 A 
ATOM     21  CD2 TYR A   1     -19.856  -5.806  -6.412  1.00  0.00     0.010 A 
BRANCH  19  22
ATOM     22  OH  TYR A   1     -22.073  -3.300  -7.831  1.00  0.00    -0.361 OA
ATOM     23  HH  TYR A   1     -22.656  -3.606  -8.546  1.00  0.00     0.217 HD
ENDBRANCH  19  22
ENDBRANCH  15  16
ENDBRANCH   1  15
BRANCH   1  24
ATOM     24  N   TYR A   1     -20.662 -10.222  -5.705  1.00  0.00    -0.346 N 
HETATM   25  C   UNK A   0     -19.377 -10.758  -5.590  1.00  0.00     0.241 C 
HETATM   26  O   UNK A   0     -18.606 -10.404  -4.707  1.00  0.00    -0.271 OA
ATOM     27  H   TYR A   1     -21.245 -10.503  -6.487  1.00  0.00     0.163 HD
BRANCH  25  28
HETATM   28  C   UNK A   0     -19.024 -11.880  -6.642  1.00  0.00     0.179 C 
HETATM   29  C   UNK A   0     -20.361 -12.470  -7.164  1.00  0.00     0.037 C 
HETATM   30  C   UNK A   0     -19.958 -13.722  -7.928  1.00  0.00     0.022 C 
HETATM   31  C   UNK A   0     -18.718 -14.212  -7.218  1.00  0.00     0.127 C 
HETATM   32  N   UNK A   0     -18.288 -13.138  -6.331  1.00  0.00    -0.337 N 
HETATM   33  C   UNK A   0     -17.017 -13.327  -5.800  1.00  0.00     0.243 C 
HETATM   34  O   UNK A   0     -16.321 -14.286  -6.148  1.00  0.00    -0.271 OA
BRANCH  33  35
HETATM   35  C   UNK A   0     -16.523 -12.375  -4.714  1.00  0.00     0.179 C 
HETATM   36  C   UNK A   0     -15.142 -11.862  -5.127  1.00  0.00     0.037 C 
HETATM   37  C   UNK A   0     -14.196 -12.159  -3.965  1.00  0.00     0.022 C 
HETATM   38  C   UNK A   0     -15.063 -12.632  -2.820  1.00  0.00     0.127 C 
HETATM   39  N   UNK A   0     -16.312 -13.039  -3.415  1.00  0.00    -0.339 N 
HETATM   40  C   UNK A   0     -17.261 -13.626  -2.595  1.00  0.00     0.216 C 
HETATM   41  O   UNK A   0     -17.039 -13.826  -1.400  1.00  0.00    -0.274 OA
HETATM   42  C   UNK A   0     -18.560 -14.105  -3.189  1.00  0.00     0.117 C 
ENDBRANCH  33  35
ENDBRANCH  25  28
ENDBRANCH   1  24
TORSDOF 12
ENDMDL
MODEL 9
REMARK VINA RESULT:      -7.0      2.547      4.065
REMARK  12 active torsions:
REMARK  status: ('A' for Active; 'I' for Inactive)
REMARK    1  A    between atoms: CG_2  and  CB_4 
REMARK    2  A    between atoms: CB_4  and  CA_5 
REMARK    3  A    between atoms: CA_5  and  C_6 
REMARK    4  A    between atoms: CA_5  and  N_9 
REMARK    5  A    between atoms: C_6  and  OXT_8 
REMARK       I    between atoms: N_9  and  C_10 
REMARK    6  A    between atoms: C_10  and  CA_12 
REMARK    7  A    between atoms: CA_12  and  CB_13 
REMARK    8  A    between atoms: CA_12  and  N_21 
REMARK    9  A    between atoms: CB_13  and  CG_14 
REMARK   10  A    between atoms: CZ_17  and  OH_20 
REMARK       I    between atoms: N_21  and  C_26 
REMARK   11  A    between atoms: C_26  and  C_28 
REMARK       I    between atoms: N_32  and  C_33 
REMARK   12  A    between atoms: C_33  and  C_35 
REMARK       I    between atoms: N_39  and  C_40 
ROOT
ATOM      1  CA  TYR A   1     -20.978  -9.375  -4.742  1.00  0.00     0.180 C 
ENDROOT
BRANCH   1   2
ATOM      2  C   TYR A   1     -21.668  -9.792  -3.390  1.00  0.00     0.241 C 
ATOM      3  N   TYR A   1     -21.443  -9.020  -2.257  1.00  0.00    -0.345 N 
ATOM      4  H   TYR A   1     -21.085  -8.079  -2.380  1.00  0.00     0.163 HD
ATOM      5  O   TYR A   1     -22.475 -10.724  -3.335  1.00  0.00    -0.271 OA
BRANCH   3   6
ATOM      6  CA  TYR A   1     -22.067  -9.324  -0.938  1.00  0.00     0.182 C 
BRANCH   6   7
ATOM      7  CB  TYR A   1     -21.045  -9.998   0.014  1.00  0.00     0.040 C 
BRANCH   7   8
ATOM      8  CG  TYR A   1     -20.808 -11.529  -0.153  1.00  0.00    -0.020 A 
ATOM      9  CD1 TYR A   1     -19.341 -11.937   0.002  1.00  0.00     0.009 A 
ATOM     10  CD2 TYR A   1     -21.646 -12.311   0.873  1.00  0.00     0.009 A 
ENDBRANCH   7   8
ENDBRANCH   6   7
BRANCH   6  11
ATOM     11  C   TYR A   1     -22.646  -8.014  -0.346  1.00  0.00     0.163 C 
ATOM     12  O   TYR A   1     -23.292  -7.930   0.679  1.00  0.00    -0.648 OA
BRANCH  11  13
ATOM     13  OXT TYR A   1     -22.333  -6.926  -1.095  1.00  0.00    -0.775 OA
ATOM     14  HXT TYR A   1     -21.355  -6.792  -1.179  1.00  0.00     0.167 HD
ENDBRANCH  11  13
ENDBRANCH   6  11
ENDBRANCH   3   6
ENDBRANCH   1   2
BRANCH   1  15
ATOM     15  CB  TYR A   1     -20.202  -8.044  -4.638  1.00  0.00     0.073 C 
BRANCH  15  16
ATOM     16  CG  TYR A   1     -20.749  -6.895  -5.459  1.00  0.00    -0.056 A 
ATOM     17  CD1 TYR A   1     -19.928  -6.223  -6.375  1.00  0.00     0.010 A 
ATOM     18  CE1 TYR A   1     -20.423  -5.148  -7.120  1.00  0.00     0.037 A 
ATOM     19  CZ  TYR A   1     -21.744  -4.747  -6.950  1.00  0.00     0.065 A 
ATOM     20  CE2 TYR A   1     -22.581  -5.417  -6.069  1.00  0.00     0.037 A 
ATOM     21  CD2 TYR A   1     -22.089  -6.495  -5.332  1.00  0.00     0.010 A 
BRANCH  19  22
ATOM     22  OH  TYR A   1     -22.266  -3.694  -7.641  1.00  0.00    -0.361 OA
ATOM     23  HH  TYR A   1     -22.999  -4.014  -8.194  1.00  0.00     0.217 HD
ENDBRANCH  19  22
ENDBRANCH  15  16
ENDBRANCH   1  15
BRANCH   1  24
ATOM     24  N   TYR A   1     -20.177 -10.530  -5.261  1.00  0.00    -0.346 N 
HETATM   25  C   UNK A   0     -20.594 -11.434  -6.241  1.00  0.00     0.241 C 
HETATM   26  O   UNK A   0     -21.615 -11.255  -6.893  1.00  0.00    -0.271 OA
ATOM     27  H   TYR A   1     -19.356 -10.748  -4.706  1.00  0.00     0.163 HD
BRANCH  25  28
HETATM   28  C   UNK A   0     -19.628 -12.661  -6.472  1.00  0.00     0.179 C 
HETATM   29  C   UNK A   0     -19.132 -12.594  -7.941  1.00  0.00     0.037 C 
HETATM   30  C   UNK A   0     -18.464 -13.939  -8.183  1.00  0.00     0.022 C 
HETATM   31  C   UNK A   0     -19.223 -14.900  -7.299  1.00  0.00     0.127 C 
HETATM   32  N   UNK A   0     -20.037 -14.093  -6.401  1.00  0.00    -0.337 N 
HETATM   33  C   UNK A   0     -20.598 -14.815  -5.353  1.00  0.00     0.243 C 
HETATM   34  O   UNK A   0     -20.327 -16.009  -5.190  1.00  0.00    -0.271 OA
BRANCH  33  35
HETATM   35  C   UNK A   0     -21.620 -14.130  -4.450  1.00  0.00     0.179 C 
HETATM   36  C   UNK A   0     -20.996 -13.974  -3.061  1.00  0.00     0.037 C 
HETATM   37  C   UNK A   0     -21.963 -14.616  -2.068  1.00  0.00     0.022 C 
HETATM   38  C   UNK A   0     -23.220 -14.937  -2.845  1.00  0.00     0.127 C 
HETATM   39  N   UNK A   0     -22.834 -14.939  -4.234  1.00  0.00    -0.339 N 
HETATM   40  C   UNK A   0     -23.781 -15.318  -5.171  1.00  0.00     0.216 C 
HETATM   41  O   UNK A   0     -24.910 -15.675  -4.832  1.00  0.00    -0.274 OA
HETATM   42  C   UNK A   0     -23.401 -15.375  -6.628  1.00  0.00     0.117 C 
ENDBRANCH  33  35
ENDBRANCH  25  28
ENDBRANCH   1  24
TORSDOF 12
ENDMDL
