MODEL 1
REMARK VINA RESULT:      -3.4      0.000      0.000
REMARK  0 active torsions:
REMARK  status: ('A' for Active; 'I' for Inactive)
REMARK       I    between atoms: C_1  and  N_3 
REMARK       I    between atoms: C_1  and  N_4 
ROOT
HETATM    1  C   UNL     1     -23.561  -1.629 -14.696  1.00  0.00     0.311 C 
HETATM    2  O   UNL     1     -22.780  -2.277 -15.373  1.00  0.00    -0.248 OA
HETATM    3  N   UNL     1     -23.914  -1.982 -13.445  1.00  0.00    -0.352 N 
HETATM    4  N   UNL     1     -24.147  -0.499 -15.133  1.00  0.00    -0.352 N 
HETATM    5  H   UNL     1     -23.502  -2.824 -13.067  1.00  0.00     0.160 HD
HETATM    6  H   UNL     1     -24.558  -1.452 -12.882  1.00  0.00     0.160 HD
HETATM    7  H   UNL     1     -23.917  -0.188 -16.067  1.00  0.00     0.160 HD
HETATM    8  H   UNL     1     -24.792   0.040 -14.581  1.00  0.00     0.160 HD
ENDROOT
TORSDOF 0
ENDMDL
MODEL 2
REMARK VINA RESULT:      -3.4      6.117      6.228
REMARK  0 active torsions:
REMARK  status: ('A' for Active; 'I' for Inactive)
REMARK       I    between atoms: C_1  and  N_3 
REMARK       I    between atoms: C_1  and  N_4 
ROOT
HETATM    1  C   UNL     1     -25.175  -7.133 -16.323  1.00  0.00     0.311 C 
HETATM    2  O   UNL     1     -25.161  -7.184 -15.103  1.00  0.00    -0.248 OA
HETATM    3  N   UNL     1     -24.212  -7.679 -17.090  1.00  0.00    -0.352 N 
HETATM    4  N   UNL     1     -26.156  -6.529 -17.019  1.00  0.00    -0.352 N 
HETATM    5  H   UNL     1     -23.451  -8.146 -16.617  1.00  0.00     0.160 HD
HETATM    6  H   UNL     1     -24.219  -7.641 -18.095  1.00  0.00     0.160 HD
HETATM    7  H   UNL     1     -26.905  -6.103 -16.492  1.00  0.00     0.160 HD
HETATM    8  H   UNL     1     -26.174  -6.484 -18.023  1.00  0.00     0.160 HD
ENDROOT
TORSDOF 0
ENDMDL
MODEL 3
REMARK VINA RESULT:      -3.3      1.701      2.216
REMARK  0 active torsions:
REMARK  status: ('A' for Active; 'I' for Inactive)
REMARK       I    between atoms: C_1  and  N_3 
REMARK       I    between atoms: C_1  and  N_4 
ROOT
HETATM    1  C   UNL     1     -23.188  -2.858 -13.841  1.00  0.00     0.311 C 
HETATM    2  O   UNL     1     -23.379  -2.857 -15.046  1.00  0.00    -0.248 OA
HETATM    3  N   UNL     1     -24.052  -2.316 -12.961  1.00  0.00    -0.352 N 
HETATM    4  N   UNL     1     -22.096  -3.401 -13.273  1.00  0.00    -0.352 N 
HETATM    5  H   UNL     1     -24.892  -1.895 -13.335  1.00  0.00     0.160 HD
HETATM    6  H   UNL     1     -23.901  -2.314 -11.967  1.00  0.00     0.160 HD
HETATM    7  H   UNL     1     -21.413  -3.822 -13.888  1.00  0.00     0.160 HD
HETATM    8  H   UNL     1     -21.932  -3.405 -12.281  1.00  0.00     0.160 HD
ENDROOT
TORSDOF 0
ENDMDL
MODEL 4
REMARK VINA RESULT:      -3.3     14.366     14.595
REMARK  0 active torsions:
REMARK  status: ('A' for Active; 'I' for Inactive)
REMARK       I    between atoms: C_1  and  N_3 
REMARK       I    between atoms: C_1  and  N_4 
ROOT
HETATM    1  C   UNL     1     -29.529 -14.181 -18.521  1.00  0.00     0.311 C 
HETATM    2  O   UNL     1     -29.250 -13.097 -19.006  1.00  0.00    -0.248 OA
HETATM    3  N   UNL     1     -30.727 -14.773 -18.691  1.00  0.00    -0.352 N 
HETATM    4  N   UNL     1     -28.667 -14.892 -17.771  1.00  0.00    -0.352 N 
HETATM    5  H   UNL     1     -31.413 -14.281 -19.248  1.00  0.00     0.160 HD
HETATM    6  H   UNL     1     -30.963 -15.666 -18.294  1.00  0.00     0.160 HD
HETATM    7  H   UNL     1     -27.753 -14.493 -17.612  1.00  0.00     0.160 HD
HETATM    8  H   UNL     1     -28.891 -15.786 -17.369  1.00  0.00     0.160 HD
ENDROOT
TORSDOF 0
ENDMDL
MODEL 5
REMARK VINA RESULT:      -3.2      9.319      9.431
REMARK  0 active torsions:
REMARK  status: ('A' for Active; 'I' for Inactive)
REMARK       I    between atoms: C_1  and  N_3 
REMARK       I    between atoms: C_1  and  N_4 
ROOT
HETATM    1  C   UNL     1     -32.199  -3.729 -17.225  1.00  0.00     0.311 C 
HETATM    2  O   UNL     1     -31.265  -3.039 -17.603  1.00  0.00    -0.248 OA
HETATM    3  N   UNL     1     -33.484  -3.337 -17.317  1.00  0.00    -0.352 N 
HETATM    4  N   UNL     1     -32.034  -4.949 -16.681  1.00  0.00    -0.352 N 
HETATM    5  H   UNL     1     -33.664  -2.428 -17.720  1.00  0.00     0.160 HD
HETATM    6  H   UNL     1     -34.257  -3.901 -17.008  1.00  0.00     0.160 HD
HETATM    7  H   UNL     1     -31.089  -5.292 -16.588  1.00  0.00     0.160 HD
HETATM    8  H   UNL     1     -32.799  -5.522 -16.368  1.00  0.00     0.160 HD
ENDROOT
TORSDOF 0
ENDMDL
MODEL 6
REMARK VINA RESULT:      -3.2     16.601     16.740
REMARK  0 active torsions:
REMARK  status: ('A' for Active; 'I' for Inactive)
REMARK       I    between atoms: C_1  and  N_3 
REMARK       I    between atoms: C_1  and  N_4 
ROOT
HETATM    1  C   UNL     1     -31.049 -14.892 -21.113  1.00  0.00     0.311 C 
HETATM    2  O   UNL     1     -30.720 -14.140 -20.210  1.00  0.00    -0.248 OA
HETATM    3  N   UNL     1     -31.438 -14.455 -22.326  1.00  0.00    -0.352 N 
HETATM    4  N   UNL     1     -31.055 -16.232 -20.985  1.00  0.00    -0.352 N 
HETATM    5  H   UNL     1     -31.451 -13.455 -22.477  1.00  0.00     0.160 HD
HETATM    6  H   UNL     1     -31.711 -15.069 -23.074  1.00  0.00     0.160 HD
HETATM    7  H   UNL     1     -30.772 -16.614 -20.094  1.00  0.00     0.160 HD
HETATM    8  H   UNL     1     -31.326 -16.857 -21.725  1.00  0.00     0.160 HD
ENDROOT
TORSDOF 0
ENDMDL
MODEL 7
REMARK VINA RESULT:      -3.2      5.149      5.569
REMARK  0 active torsions:
REMARK  status: ('A' for Active; 'I' for Inactive)
REMARK       I    between atoms: C_1  and  N_3 
REMARK       I    between atoms: C_1  and  N_4 
ROOT
HETATM    1  C   UNL     1     -24.608  -3.402  -9.722  1.00  0.00     0.311 C 
HETATM    2  O   UNL     1     -25.791  -3.151  -9.887  1.00  0.00    -0.248 OA
HETATM    3  N   UNL     1     -24.096  -3.767  -8.532  1.00  0.00    -0.352 N 
HETATM    4  N   UNL     1     -23.701  -3.338 -10.714  1.00  0.00    -0.352 N 
HETATM    5  H   UNL     1     -24.735  -3.831  -7.751  1.00  0.00     0.160 HD
HETATM    6  H   UNL     1     -23.122  -3.976  -8.390  1.00  0.00     0.160 HD
HETATM    7  H   UNL     1     -24.033  -3.069 -11.630  1.00  0.00     0.160 HD
HETATM    8  H   UNL     1     -22.725  -3.544 -10.586  1.00  0.00     0.160 HD
ENDROOT
TORSDOF 0
ENDMDL
MODEL 8
REMARK VINA RESULT:      -3.0      3.142      3.693
REMARK  0 active torsions:
REMARK  status: ('A' for Active; 'I' for Inactive)
REMARK       I    between atoms: C_1  and  N_3 
REMARK       I    between atoms: C_1  and  N_4 
ROOT
HETATM    1  C   UNL     1     -24.218  -3.267 -12.210  1.00  0.00     0.311 C 
HETATM    2  O   UNL     1     -24.951  -3.149 -11.241  1.00  0.00    -0.248 OA
HETATM    3  N   UNL     1     -23.957  -2.254 -13.058  1.00  0.00    -0.352 N 
HETATM    4  N   UNL     1     -23.598  -4.419 -12.524  1.00  0.00    -0.352 N 
HETATM    5  H   UNL     1     -24.398  -1.364 -12.868  1.00  0.00     0.160 HD
HETATM    6  H   UNL     1     -23.354  -2.344 -13.858  1.00  0.00     0.160 HD
HETATM    7  H   UNL     1     -23.759  -5.212 -11.919  1.00  0.00     0.160 HD
HETATM    8  H   UNL     1     -22.993  -4.523 -13.320  1.00  0.00     0.160 HD
ENDROOT
TORSDOF 0
ENDMDL
MODEL 9
REMARK VINA RESULT:      -3.0      1.838      2.233
REMARK  0 active torsions:
REMARK  status: ('A' for Active; 'I' for Inactive)
REMARK       I    between atoms: C_1  and  N_3 
REMARK       I    between atoms: C_1  and  N_4 
ROOT
HETATM    1  C   UNL     1     -23.730  -2.292 -13.944  1.00  0.00     0.311 C 
HETATM    2  O   UNL     1     -24.502  -2.778 -13.134  1.00  0.00    -0.248 OA
HETATM    3  N   UNL     1     -23.901  -1.066 -14.475  1.00  0.00    -0.352 N 
HETATM    4  N   UNL     1     -22.631  -2.932 -14.384  1.00  0.00    -0.352 N 
HETATM    5  H   UNL     1     -24.711  -0.540 -14.177  1.00  0.00     0.160 HD
HETATM    6  H   UNL     1     -23.268  -0.659 -15.142  1.00  0.00     0.160 HD
HETATM    7  H   UNL     1     -22.454  -3.857 -14.017  1.00  0.00     0.160 HD
HETATM    8  H   UNL     1     -21.990  -2.537 -15.050  1.00  0.00     0.160 HD
ENDROOT
TORSDOF 0
ENDMDL
