MODEL 1
REMARK VINA RESULT:      -6.4      0.000      0.000
REMARK  16 active torsions:
REMARK  status: ('A' for Active; 'I' for Inactive)
REMARK    1  A    between atoms: C_2  and  C_3 
REMARK    2  A    between atoms: C_3  and  C_4 
REMARK    3  A    between atoms: C_4  and  C_5 
REMARK    4  A    between atoms: C_5  and  C_6 
REMARK    5  A    between atoms: C_6  and  C_7 
REMARK    6  A    between atoms: C_7  and  C_8 
REMARK    7  A    between atoms: C_8  and  C_9 
REMARK    8  A    between atoms: C_9  and  C_10 
REMARK    9  A    between atoms: C_10  and  C_11 
REMARK   10  A    between atoms: C_11  and  C_12 
REMARK   11  A    between atoms: C_12  and  O_14 
REMARK   12  A    between atoms: O_14  and  C_15 
REMARK   13  A    between atoms: C_15  and  C_16 
REMARK   14  A    between atoms: C_16  and  C_17 
REMARK   15  A    between atoms: C_17  and  C_18 
REMARK   16  A    between atoms: C_18  and  C_19 
ROOT
HETATM    1  C   UNL     1     -19.925  -5.467  -6.061  1.00  0.00     0.010 C 
ENDROOT
BRANCH   1   2
HETATM    2  C   UNL     1     -20.039  -4.401  -7.141  1.00  0.00     0.000 C 
BRANCH   2   3
HETATM    3  C   UNL     1     -21.503  -4.114  -7.446  1.00  0.00     0.000 C 
BRANCH   3   4
HETATM    4  C   UNL     1     -21.713  -4.000  -8.947  1.00  0.00     0.000 C 
BRANCH   4   5
HETATM    5  C   UNL     1     -20.438  -4.366  -9.684  1.00  0.00     0.000 C 
BRANCH   5   6
HETATM    6  C   UNL     1     -20.563  -3.997 -11.151  1.00  0.00     0.000 C 
BRANCH   6   7
HETATM    7  C   UNL     1     -21.715  -3.027 -11.346  1.00  0.00     0.000 C 
BRANCH   7   8
HETATM    8  C   UNL     1     -22.374  -3.268 -12.692  1.00  0.00    -0.000 C 
BRANCH   8   9
HETATM    9  C   UNL     1     -23.784  -3.804 -12.499  1.00  0.00    -0.005 C 
HETATM   10  C   UNL     1     -24.379  -3.256 -11.219  1.00  0.00     0.005 C 
ENDBRANCH   8   9
ENDBRANCH   7   8
ENDBRANCH   6   7
ENDBRANCH   5   6
ENDBRANCH   4   5
ENDBRANCH   3   4
ENDBRANCH   2   3
ENDBRANCH   1   2
BRANCH   1  11
HETATM   11  C   UNL     1     -21.270  -5.752  -5.392  1.00  0.00     0.111 C 
BRANCH  11  12
HETATM   12  C   UNL     1     -21.397  -7.228  -5.077  1.00  0.00     0.258 C 
HETATM   13  O   UNL     1     -21.103  -8.137  -5.858  1.00  0.00    -0.265 OA
BRANCH  12  14
HETATM   14  O   UNL     1     -21.969  -7.425  -3.858  1.00  0.00    -0.321 OA
BRANCH  14  15
HETATM   15  C   UNL     1     -21.743  -6.360  -2.919  1.00  0.00     0.178 C 
BRANCH  15  16
HETATM   16  C   UNL     1     -22.036  -6.769  -1.482  1.00  0.00     0.027 C 
BRANCH  16  17
HETATM   17  C   UNL     1     -21.104  -7.896  -1.031  1.00  0.00     0.002 C 
BRANCH  17  18
HETATM   18  C   UNL     1     -21.598  -8.521   0.269  1.00  0.00    -0.000 C 
BRANCH  18  19
HETATM   19  C   UNL     1     -23.115  -8.663   0.261  1.00  0.00    -0.005 C 
HETATM   20  C   UNL     1     -23.512 -10.067  -0.154  1.00  0.00     0.005 C 
ENDBRANCH  18  19
ENDBRANCH  17  18
ENDBRANCH  16  17
ENDBRANCH  15  16
ENDBRANCH  14  15
ENDBRANCH  12  14
ENDBRANCH  11  12
ENDBRANCH   1  11
TORSDOF 16
ENDMDL
MODEL 2
REMARK VINA RESULT:      -6.1      1.583      9.660
REMARK  16 active torsions:
REMARK  status: ('A' for Active; 'I' for Inactive)
REMARK    1  A    between atoms: C_2  and  C_3 
REMARK    2  A    between atoms: C_3  and  C_4 
REMARK    3  A    between atoms: C_4  and  C_5 
REMARK    4  A    between atoms: C_5  and  C_6 
REMARK    5  A    between atoms: C_6  and  C_7 
REMARK    6  A    between atoms: C_7  and  C_8 
REMARK    7  A    between atoms: C_8  and  C_9 
REMARK    8  A    between atoms: C_9  and  C_10 
REMARK    9  A    between atoms: C_10  and  C_11 
REMARK   10  A    between atoms: C_11  and  C_12 
REMARK   11  A    between atoms: C_12  and  O_14 
REMARK   12  A    between atoms: O_14  and  C_15 
REMARK   13  A    between atoms: C_15  and  C_16 
REMARK   14  A    between atoms: C_16  and  C_17 
REMARK   15  A    between atoms: C_17  and  C_18 
REMARK   16  A    between atoms: C_18  and  C_19 
ROOT
HETATM    1  C   UNL     1     -22.145  -6.417  -4.469  1.00  0.00     0.010 C 
ENDROOT
BRANCH   1   2
HETATM    2  C   UNL     1     -21.315  -6.243  -3.206  1.00  0.00     0.000 C 
BRANCH   2   3
HETATM    3  C   UNL     1     -22.208  -6.313  -1.975  1.00  0.00     0.000 C 
BRANCH   3   4
HETATM    4  C   UNL     1     -21.703  -7.385  -1.022  1.00  0.00     0.000 C 
BRANCH   4   5
HETATM    5  C   UNL     1     -22.596  -7.459   0.203  1.00  0.00     0.000 C 
BRANCH   5   6
HETATM    6  C   UNL     1     -23.293  -8.806   0.256  1.00  0.00     0.000 C 
BRANCH   6   7
HETATM    7  C   UNL     1     -22.369  -9.890  -0.269  1.00  0.00     0.000 C 
BRANCH   7   8
HETATM    8  C   UNL     1     -23.103 -10.757  -1.275  1.00  0.00    -0.000 C 
BRANCH   8   9
HETATM    9  C   UNL     1     -24.101 -11.658  -0.565  1.00  0.00    -0.005 C 
HETATM   10  C   UNL     1     -23.392 -12.505   0.472  1.00  0.00     0.005 C 
ENDBRANCH   8   9
ENDBRANCH   7   8
ENDBRANCH   6   7
ENDBRANCH   5   6
ENDBRANCH   4   5
ENDBRANCH   3   4
ENDBRANCH   2   3
ENDBRANCH   1   2
BRANCH   1  11
HETATM   11  C   UNL     1     -21.385  -7.180  -5.556  1.00  0.00     0.111 C 
BRANCH  11  12
HETATM   12  C   UNL     1     -20.929  -6.229  -6.642  1.00  0.00     0.258 C 
HETATM   13  O   UNL     1     -19.915  -6.386  -7.328  1.00  0.00    -0.265 OA
BRANCH  12  14
HETATM   14  O   UNL     1     -21.726  -5.127  -6.701  1.00  0.00    -0.321 OA
BRANCH  14  15
HETATM   15  C   UNL     1     -21.228  -4.082  -7.554  1.00  0.00     0.178 C 
BRANCH  15  16
HETATM   16  C   UNL     1     -22.017  -3.953  -8.849  1.00  0.00     0.027 C 
BRANCH  16  17
HETATM   17  C   UNL     1     -23.520  -4.082  -8.593  1.00  0.00     0.002 C 
BRANCH  17  18
HETATM   18  C   UNL     1     -24.320  -3.599  -9.797  1.00  0.00    -0.000 C 
BRANCH  18  19
HETATM   19  C   UNL     1     -23.638  -4.002 -11.099  1.00  0.00    -0.005 C 
HETATM   20  C   UNL     1     -23.589  -2.826 -12.055  1.00  0.00     0.005 C 
ENDBRANCH  18  19
ENDBRANCH  17  18
ENDBRANCH  16  17
ENDBRANCH  15  16
ENDBRANCH  14  15
ENDBRANCH  12  14
ENDBRANCH  11  12
ENDBRANCH   1  11
TORSDOF 16
ENDMDL
MODEL 3
REMARK VINA RESULT:      -6.1      1.520      9.228
REMARK  16 active torsions:
REMARK  status: ('A' for Active; 'I' for Inactive)
REMARK    1  A    between atoms: C_2  and  C_3 
REMARK    2  A    between atoms: C_3  and  C_4 
REMARK    3  A    between atoms: C_4  and  C_5 
REMARK    4  A    between atoms: C_5  and  C_6 
REMARK    5  A    between atoms: C_6  and  C_7 
REMARK    6  A    between atoms: C_7  and  C_8 
REMARK    7  A    between atoms: C_8  and  C_9 
REMARK    8  A    between atoms: C_9  and  C_10 
REMARK    9  A    between atoms: C_10  and  C_11 
REMARK   10  A    between atoms: C_11  and  C_12 
REMARK   11  A    between atoms: C_12  and  O_14 
REMARK   12  A    between atoms: O_14  and  C_15 
REMARK   13  A    between atoms: C_15  and  C_16 
REMARK   14  A    between atoms: C_16  and  C_17 
REMARK   15  A    between atoms: C_17  and  C_18 
REMARK   16  A    between atoms: C_18  and  C_19 
ROOT
HETATM    1  C   UNL     1     -21.902  -6.701  -3.676  1.00  0.00     0.010 C 
ENDROOT
BRANCH   1   2
HETATM    2  C   UNL     1     -21.376  -7.107  -2.308  1.00  0.00     0.000 C 
BRANCH   2   3
HETATM    3  C   UNL     1     -22.207  -6.459  -1.209  1.00  0.00     0.000 C 
BRANCH   3   4
HETATM    4  C   UNL     1     -22.728  -7.519  -0.252  1.00  0.00     0.000 C 
BRANCH   4   5
HETATM    5  C   UNL     1     -21.570  -8.281   0.366  1.00  0.00     0.000 C 
BRANCH   5   6
HETATM    6  C   UNL     1     -21.847  -9.773   0.321  1.00  0.00     0.000 C 
BRANCH   6   7
HETATM    7  C   UNL     1     -23.242 -10.024  -0.227  1.00  0.00     0.000 C 
BRANCH   7   8
HETATM    8  C   UNL     1     -23.203 -11.143  -1.252  1.00  0.00    -0.000 C 
BRANCH   8   9
HETATM    9  C   UNL     1     -22.145 -10.855  -2.306  1.00  0.00    -0.005 C 
HETATM   10  C   UNL     1     -22.750 -10.955  -3.691  1.00  0.00     0.005 C 
ENDBRANCH   8   9
ENDBRANCH   7   8
ENDBRANCH   6   7
ENDBRANCH   5   6
ENDBRANCH   4   5
ENDBRANCH   3   4
ENDBRANCH   2   3
ENDBRANCH   1   2
BRANCH   1  11
HETATM   11  C   UNL     1     -21.351  -7.592  -4.791  1.00  0.00     0.111 C 
BRANCH  11  12
HETATM   12  C   UNL     1     -20.721  -6.744  -5.876  1.00  0.00     0.258 C 
HETATM   13  O   UNL     1     -19.720  -7.066  -6.522  1.00  0.00    -0.265 OA
BRANCH  12  14
HETATM   14  O   UNL     1     -21.342  -5.537  -5.982  1.00  0.00    -0.321 OA
BRANCH  14  15
HETATM   15  C   UNL     1     -20.489  -4.471  -6.435  1.00  0.00     0.178 C 
BRANCH  15  16
HETATM   16  C   UNL     1     -20.821  -4.010  -7.847  1.00  0.00     0.027 C 
BRANCH  16  17
HETATM   17  C   UNL     1     -22.302  -4.234  -8.164  1.00  0.00     0.002 C 
BRANCH  17  18
HETATM   18  C   UNL     1     -22.655  -3.671  -9.535  1.00  0.00    -0.000 C 
BRANCH  18  19
HETATM   19  C   UNL     1     -21.539  -3.938 -10.536  1.00  0.00    -0.005 C 
HETATM   20  C   UNL     1     -21.842  -3.259 -11.858  1.00  0.00     0.005 C 
ENDBRANCH  18  19
ENDBRANCH  17  18
ENDBRANCH  16  17
ENDBRANCH  15  16
ENDBRANCH  14  15
ENDBRANCH  12  14
ENDBRANCH  11  12
ENDBRANCH   1  11
TORSDOF 16
ENDMDL
MODEL 4
REMARK VINA RESULT:      -6.1      1.573     10.044
REMARK  16 active torsions:
REMARK  status: ('A' for Active; 'I' for Inactive)
REMARK    1  A    between atoms: C_2  and  C_3 
REMARK    2  A    between atoms: C_3  and  C_4 
REMARK    3  A    between atoms: C_4  and  C_5 
REMARK    4  A    between atoms: C_5  and  C_6 
REMARK    5  A    between atoms: C_6  and  C_7 
REMARK    6  A    between atoms: C_7  and  C_8 
REMARK    7  A    between atoms: C_8  and  C_9 
REMARK    8  A    between atoms: C_9  and  C_10 
REMARK    9  A    between atoms: C_10  and  C_11 
REMARK   10  A    between atoms: C_11  and  C_12 
REMARK   11  A    between atoms: C_12  and  O_14 
REMARK   12  A    between atoms: O_14  and  C_15 
REMARK   13  A    between atoms: C_15  and  C_16 
REMARK   14  A    between atoms: C_16  and  C_17 
REMARK   15  A    between atoms: C_17  and  C_18 
REMARK   16  A    between atoms: C_18  and  C_19 
ROOT
HETATM    1  C   UNL     1     -20.260  -5.009  -5.394  1.00  0.00     0.010 C 
ENDROOT
BRANCH   1   2
HETATM    2  C   UNL     1     -20.680  -6.358  -4.831  1.00  0.00     0.000 C 
BRANCH   2   3
HETATM    3  C   UNL     1     -21.817  -6.182  -3.833  1.00  0.00     0.000 C 
BRANCH   3   4
HETATM    4  C   UNL     1     -21.587  -7.064  -2.617  1.00  0.00     0.000 C 
BRANCH   4   5
HETATM    5  C   UNL     1     -22.196  -6.422  -1.383  1.00  0.00     0.000 C 
BRANCH   5   6
HETATM    6  C   UNL     1     -22.536  -7.489  -0.358  1.00  0.00     0.000 C 
BRANCH   6   7
HETATM    7  C   UNL     1     -21.374  -8.456  -0.210  1.00  0.00     0.000 C 
BRANCH   7   8
HETATM    8  C   UNL     1     -21.892  -9.844   0.122  1.00  0.00    -0.000 C 
BRANCH   8   9
HETATM    9  C   UNL     1     -23.360  -9.963  -0.258  1.00  0.00    -0.005 C 
HETATM   10  C   UNL     1     -23.839 -11.385  -0.049  1.00  0.00     0.005 C 
ENDBRANCH   8   9
ENDBRANCH   7   8
ENDBRANCH   6   7
ENDBRANCH   5   6
ENDBRANCH   4   5
ENDBRANCH   3   4
ENDBRANCH   2   3
ENDBRANCH   1   2
BRANCH   1  11
HETATM   11  C   UNL     1     -21.159  -4.563  -6.548  1.00  0.00     0.111 C 
BRANCH  11  12
HETATM   12  C   UNL     1     -20.772  -5.283  -7.823  1.00  0.00     0.258 C 
HETATM   13  O   UNL     1     -19.840  -6.086  -7.917  1.00  0.00    -0.265 OA
BRANCH  12  14
HETATM   14  O   UNL     1     -21.521  -4.858  -8.877  1.00  0.00    -0.321 OA
BRANCH  14  15
HETATM   15  C   UNL     1     -20.779  -4.142  -9.880  1.00  0.00     0.178 C 
BRANCH  15  16
HETATM   16  C   UNL     1     -21.330  -4.354 -11.283  1.00  0.00     0.027 C 
BRANCH  16  17
HETATM   17  C   UNL     1     -21.881  -3.047 -11.860  1.00  0.00     0.002 C 
BRANCH  17  18
HETATM   18  C   UNL     1     -23.389  -2.957 -11.656  1.00  0.00    -0.000 C 
BRANCH  18  19
HETATM   19  C   UNL     1     -24.109  -2.808 -12.990  1.00  0.00    -0.005 C 
HETATM   20  C   UNL     1     -23.107  -2.712 -14.124  1.00  0.00     0.005 C 
ENDBRANCH  18  19
ENDBRANCH  17  18
ENDBRANCH  16  17
ENDBRANCH  15  16
ENDBRANCH  14  15
ENDBRANCH  12  14
ENDBRANCH  11  12
ENDBRANCH   1  11
TORSDOF 16
ENDMDL
MODEL 5
REMARK VINA RESULT:      -5.9     13.915     17.109
REMARK  16 active torsions:
REMARK  status: ('A' for Active; 'I' for Inactive)
REMARK    1  A    between atoms: C_2  and  C_3 
REMARK    2  A    between atoms: C_3  and  C_4 
REMARK    3  A    between atoms: C_4  and  C_5 
REMARK    4  A    between atoms: C_5  and  C_6 
REMARK    5  A    between atoms: C_6  and  C_7 
REMARK    6  A    between atoms: C_7  and  C_8 
REMARK    7  A    between atoms: C_8  and  C_9 
REMARK    8  A    between atoms: C_9  and  C_10 
REMARK    9  A    between atoms: C_10  and  C_11 
REMARK   10  A    between atoms: C_11  and  C_12 
REMARK   11  A    between atoms: C_12  and  O_14 
REMARK   12  A    between atoms: O_14  and  C_15 
REMARK   13  A    between atoms: C_15  and  C_16 
REMARK   14  A    between atoms: C_16  and  C_17 
REMARK   15  A    between atoms: C_17  and  C_18 
REMARK   16  A    between atoms: C_18  and  C_19 
ROOT
HETATM    1  C   UNL     1     -35.993  -2.153 -10.265  1.00  0.00     0.010 C 
ENDROOT
BRANCH   1   2
HETATM    2  C   UNL     1     -34.586  -1.622 -10.034  1.00  0.00     0.000 C 
BRANCH   2   3
HETATM    3  C   UNL     1     -33.569  -2.491 -10.760  1.00  0.00     0.000 C 
BRANCH   3   4
HETATM    4  C   UNL     1     -33.967  -2.656 -12.218  1.00  0.00     0.000 C 
BRANCH   4   5
HETATM    5  C   UNL     1     -33.511  -4.009 -12.735  1.00  0.00     0.000 C 
BRANCH   5   6
HETATM    6  C   UNL     1     -33.237  -4.944 -11.571  1.00  0.00     0.000 C 
BRANCH   6   7
HETATM    7  C   UNL     1     -34.391  -5.916 -11.404  1.00  0.00     0.000 C 
BRANCH   7   8
HETATM    8  C   UNL     1     -34.498  -6.350  -9.953  1.00  0.00    -0.000 C 
BRANCH   8   9
HETATM    9  C   UNL     1     -35.006  -7.782  -9.868  1.00  0.00    -0.005 C 
HETATM   10  C   UNL     1     -33.839  -8.747  -9.835  1.00  0.00     0.005 C 
ENDBRANCH   8   9
ENDBRANCH   7   8
ENDBRANCH   6   7
ENDBRANCH   5   6
ENDBRANCH   4   5
ENDBRANCH   3   4
ENDBRANCH   2   3
ENDBRANCH   1   2
BRANCH   1  11
HETATM   11  C   UNL     1     -37.052  -1.296  -9.569  1.00  0.00     0.111 C 
BRANCH  11  12
HETATM   12  C   UNL     1     -37.547  -0.212 -10.503  1.00  0.00     0.258 C 
HETATM   13  O   UNL     1     -37.556   0.992 -10.235  1.00  0.00    -0.265 OA
BRANCH  12  14
HETATM   14  O   UNL     1     -38.075  -0.744 -11.640  1.00  0.00    -0.321 OA
BRANCH  14  15
HETATM   15  C   UNL     1     -37.678  -0.071 -12.847  1.00  0.00     0.178 C 
BRANCH  15  16
HETATM   16  C   UNL     1     -36.331  -0.548 -13.372  1.00  0.00     0.027 C 
BRANCH  16  17
HETATM   17  C   UNL     1     -35.495   0.626 -13.887  1.00  0.00     0.002 C 
BRANCH  17  18
HETATM   18  C   UNL     1     -35.186   0.461 -15.371  1.00  0.00    -0.000 C 
BRANCH  18  19
HETATM   19  C   UNL     1     -36.041  -0.639 -15.986  1.00  0.00    -0.005 C 
HETATM   20  C   UNL     1     -35.169  -1.630 -16.733  1.00  0.00     0.005 C 
ENDBRANCH  18  19
ENDBRANCH  17  18
ENDBRANCH  16  17
ENDBRANCH  15  16
ENDBRANCH  14  15
ENDBRANCH  12  14
ENDBRANCH  11  12
ENDBRANCH   1  11
TORSDOF 16
ENDMDL
MODEL 6
REMARK VINA RESULT:      -5.8      1.815      3.656
REMARK  16 active torsions:
REMARK  status: ('A' for Active; 'I' for Inactive)
REMARK    1  A    between atoms: C_2  and  C_3 
REMARK    2  A    between atoms: C_3  and  C_4 
REMARK    3  A    between atoms: C_4  and  C_5 
REMARK    4  A    between atoms: C_5  and  C_6 
REMARK    5  A    between atoms: C_6  and  C_7 
REMARK    6  A    between atoms: C_7  and  C_8 
REMARK    7  A    between atoms: C_8  and  C_9 
REMARK    8  A    between atoms: C_9  and  C_10 
REMARK    9  A    between atoms: C_10  and  C_11 
REMARK   10  A    between atoms: C_11  and  C_12 
REMARK   11  A    between atoms: C_12  and  O_14 
REMARK   12  A    between atoms: O_14  and  C_15 
REMARK   13  A    between atoms: C_15  and  C_16 
REMARK   14  A    between atoms: C_16  and  C_17 
REMARK   15  A    between atoms: C_17  and  C_18 
REMARK   16  A    between atoms: C_18  and  C_19 
ROOT
HETATM    1  C   UNL     1     -21.423  -8.102  -3.637  1.00  0.00     0.010 C 
ENDROOT
BRANCH   1   2
HETATM    2  C   UNL     1     -20.866  -7.377  -4.852  1.00  0.00     0.000 C 
BRANCH   2   3
HETATM    3  C   UNL     1     -21.303  -5.919  -4.843  1.00  0.00     0.000 C 
BRANCH   3   4
HETATM    4  C   UNL     1     -20.292  -5.064  -5.590  1.00  0.00     0.000 C 
BRANCH   4   5
HETATM    5  C   UNL     1     -20.062  -5.623  -6.983  1.00  0.00     0.000 C 
BRANCH   5   6
HETATM    6  C   UNL     1     -20.873  -4.837  -7.997  1.00  0.00     0.000 C 
BRANCH   6   7
HETATM    7  C   UNL     1     -20.100  -4.718  -9.299  1.00  0.00     0.000 C 
BRANCH   7   8
HETATM    8  C   UNL     1     -20.925  -3.962 -10.325  1.00  0.00    -0.000 C 
BRANCH   8   9
HETATM    9  C   UNL     1     -22.386  -3.929  -9.906  1.00  0.00    -0.005 C 
HETATM   10  C   UNL     1     -23.235  -4.673 -10.917  1.00  0.00     0.005 C 
ENDBRANCH   8   9
ENDBRANCH   7   8
ENDBRANCH   6   7
ENDBRANCH   5   6
ENDBRANCH   4   5
ENDBRANCH   3   4
ENDBRANCH   2   3
ENDBRANCH   1   2
BRANCH   1  11
HETATM   11  C   UNL     1     -20.754  -7.644  -2.339  1.00  0.00     0.111 C 
BRANCH  11  12
HETATM   12  C   UNL     1     -21.800  -7.195  -1.340  1.00  0.00     0.258 C 
HETATM   13  O   UNL     1     -22.620  -6.295  -1.542  1.00  0.00    -0.265 OA
BRANCH  12  14
HETATM   14  O   UNL     1     -21.659  -7.845  -0.152  1.00  0.00    -0.321 OA
BRANCH  14  15
HETATM   15  C   UNL     1     -22.806  -8.619   0.240  1.00  0.00     0.178 C 
BRANCH  15  16
HETATM   16  C   UNL     1     -22.597 -10.115   0.055  1.00  0.00     0.027 C 
BRANCH  16  17
HETATM   17  C   UNL     1     -23.849 -10.776  -0.528  1.00  0.00     0.002 C 
BRANCH  17  18
HETATM   18  C   UNL     1     -23.763 -12.294  -0.415  1.00  0.00    -0.000 C 
BRANCH  18  19
HETATM   19  C   UNL     1     -22.709 -12.704   0.605  1.00  0.00    -0.005 C 
HETATM   20  C   UNL     1     -23.336 -13.532   1.709  1.00  0.00     0.005 C 
ENDBRANCH  18  19
ENDBRANCH  17  18
ENDBRANCH  16  17
ENDBRANCH  15  16
ENDBRANCH  14  15
ENDBRANCH  12  14
ENDBRANCH  11  12
ENDBRANCH   1  11
TORSDOF 16
ENDMDL
MODEL 7
REMARK VINA RESULT:      -5.7      1.387      1.955
REMARK  16 active torsions:
REMARK  status: ('A' for Active; 'I' for Inactive)
REMARK    1  A    between atoms: C_2  and  C_3 
REMARK    2  A    between atoms: C_3  and  C_4 
REMARK    3  A    between atoms: C_4  and  C_5 
REMARK    4  A    between atoms: C_5  and  C_6 
REMARK    5  A    between atoms: C_6  and  C_7 
REMARK    6  A    between atoms: C_7  and  C_8 
REMARK    7  A    between atoms: C_8  and  C_9 
REMARK    8  A    between atoms: C_9  and  C_10 
REMARK    9  A    between atoms: C_10  and  C_11 
REMARK   10  A    between atoms: C_11  and  C_12 
REMARK   11  A    between atoms: C_12  and  O_14 
REMARK   12  A    between atoms: O_14  and  C_15 
REMARK   13  A    between atoms: C_15  and  C_16 
REMARK   14  A    between atoms: C_16  and  C_17 
REMARK   15  A    between atoms: C_17  and  C_18 
REMARK   16  A    between atoms: C_18  and  C_19 
ROOT
HETATM    1  C   UNL     1     -20.262  -4.913  -6.551  1.00  0.00     0.010 C 
ENDROOT
BRANCH   1   2
HETATM    2  C   UNL     1     -20.962  -4.936  -7.901  1.00  0.00     0.000 C 
BRANCH   2   3
HETATM    3  C   UNL     1     -21.928  -3.765  -8.014  1.00  0.00     0.000 C 
BRANCH   3   4
HETATM    4  C   UNL     1     -23.311  -4.263  -8.402  1.00  0.00     0.000 C 
BRANCH   4   5
HETATM    5  C   UNL     1     -23.733  -3.656  -9.728  1.00  0.00     0.000 C 
BRANCH   5   6
HETATM    6  C   UNL     1     -23.529  -4.661 -10.847  1.00  0.00     0.000 C 
BRANCH   6   7
HETATM    7  C   UNL     1     -22.326  -4.266 -11.687  1.00  0.00     0.000 C 
BRANCH   7   8
HETATM    8  C   UNL     1     -22.348  -2.772 -11.954  1.00  0.00    -0.000 C 
BRANCH   8   9
HETATM    9  C   UNL     1     -23.407  -2.438 -12.993  1.00  0.00    -0.005 C 
HETATM   10  C   UNL     1     -22.925  -2.835 -14.374  1.00  0.00     0.005 C 
ENDBRANCH   8   9
ENDBRANCH   7   8
ENDBRANCH   6   7
ENDBRANCH   5   6
ENDBRANCH   4   5
ENDBRANCH   3   4
ENDBRANCH   2   3
ENDBRANCH   1   2
BRANCH   1  11
HETATM   11  C   UNL     1     -20.103  -6.317  -5.963  1.00  0.00     0.111 C 
BRANCH  11  12
HETATM   12  C   UNL     1     -21.122  -6.545  -4.867  1.00  0.00     0.258 C 
HETATM   13  O   UNL     1     -22.217  -5.980  -4.801  1.00  0.00    -0.265 OA
BRANCH  12  14
HETATM   14  O   UNL     1     -20.637  -7.380  -3.908  1.00  0.00    -0.321 OA
BRANCH  14  15
HETATM   15  C   UNL     1     -21.587  -8.350  -3.433  1.00  0.00     0.178 C 
BRANCH  15  16
HETATM   16  C   UNL     1     -20.965  -9.372  -2.491  1.00  0.00     0.027 C 
BRANCH  16  17
HETATM   17  C   UNL     1     -20.792  -8.790  -1.086  1.00  0.00     0.002 C 
BRANCH  17  18
HETATM   18  C   UNL     1     -21.461  -9.679  -0.044  1.00  0.00    -0.000 C 
BRANCH  18  19
HETATM   19  C   UNL     1     -22.954  -9.387   0.042  1.00  0.00    -0.005 C 
HETATM   20  C   UNL     1     -23.187  -7.977   0.550  1.00  0.00     0.005 C 
ENDBRANCH  18  19
ENDBRANCH  17  18
ENDBRANCH  16  17
ENDBRANCH  15  16
ENDBRANCH  14  15
ENDBRANCH  12  14
ENDBRANCH  11  12
ENDBRANCH   1  11
TORSDOF 16
ENDMDL
MODEL 8
REMARK VINA RESULT:      -5.3     18.315     19.841
REMARK  16 active torsions:
REMARK  status: ('A' for Active; 'I' for Inactive)
REMARK    1  A    between atoms: C_2  and  C_3 
REMARK    2  A    between atoms: C_3  and  C_4 
REMARK    3  A    between atoms: C_4  and  C_5 
REMARK    4  A    between atoms: C_5  and  C_6 
REMARK    5  A    between atoms: C_6  and  C_7 
REMARK    6  A    between atoms: C_7  and  C_8 
REMARK    7  A    between atoms: C_8  and  C_9 
REMARK    8  A    between atoms: C_9  and  C_10 
REMARK    9  A    between atoms: C_10  and  C_11 
REMARK   10  A    between atoms: C_11  and  C_12 
REMARK   11  A    between atoms: C_12  and  O_14 
REMARK   12  A    between atoms: O_14  and  C_15 
REMARK   13  A    between atoms: C_15  and  C_16 
REMARK   14  A    between atoms: C_16  and  C_17 
REMARK   15  A    between atoms: C_17  and  C_18 
REMARK   16  A    between atoms: C_18  and  C_19 
ROOT
HETATM    1  C   UNL     1     -14.938   9.171   6.986  1.00  0.00     0.010 C 
ENDROOT
BRANCH   1   2
HETATM    2  C   UNL     1     -13.862   8.711   6.013  1.00  0.00     0.000 C 
BRANCH   2   3
HETATM    3  C   UNL     1     -14.496   8.027   4.810  1.00  0.00     0.000 C 
BRANCH   3   4
HETATM    4  C   UNL     1     -14.075   8.726   3.528  1.00  0.00     0.000 C 
BRANCH   4   5
HETATM    5  C   UNL     1     -14.612   7.975   2.322  1.00  0.00     0.000 C 
BRANCH   5   6
HETATM    6  C   UNL     1     -14.195   8.681   1.044  1.00  0.00     0.000 C 
BRANCH   6   7
HETATM    7  C   UNL     1     -13.343   9.893   1.376  1.00  0.00     0.000 C 
BRANCH   7   8
HETATM    8  C   UNL     1     -13.951  11.140   0.758  1.00  0.00    -0.000 C 
BRANCH   8   9
HETATM    9  C   UNL     1     -15.115  11.633   1.604  1.00  0.00    -0.005 C 
HETATM   10  C   UNL     1     -16.305  11.945   0.720  1.00  0.00     0.005 C 
ENDBRANCH   8   9
ENDBRANCH   7   8
ENDBRANCH   6   7
ENDBRANCH   5   6
ENDBRANCH   4   5
ENDBRANCH   3   4
ENDBRANCH   2   3
ENDBRANCH   1   2
BRANCH   1  11
HETATM   11  C   UNL     1     -15.402  10.600   6.695  1.00  0.00     0.111 C 
BRANCH  11  12
HETATM   12  C   UNL     1     -16.898  10.629   6.466  1.00  0.00     0.258 C 
HETATM   13  O   UNL     1     -17.607  11.629   6.604  1.00  0.00    -0.265 OA
BRANCH  12  14
HETATM   14  O   UNL     1     -17.378   9.387   6.183  1.00  0.00    -0.321 OA
BRANCH  14  15
HETATM   15  C   UNL     1     -18.322   9.350   5.098  1.00  0.00     0.178 C 
BRANCH  15  16
HETATM   16  C   UNL     1     -17.664   9.543   3.739  1.00  0.00     0.027 C 
BRANCH  16  17
HETATM   17  C   UNL     1     -18.695   9.450   2.611  1.00  0.00     0.002 C 
BRANCH  17  18
HETATM   18  C   UNL     1     -19.707   8.345   2.891  1.00  0.00    -0.000 C 
BRANCH  18  19
HETATM   19  C   UNL     1     -21.127   8.831   2.630  1.00  0.00    -0.005 C 
HETATM   20  C   UNL     1     -21.105  10.163   1.906  1.00  0.00     0.005 C 
ENDBRANCH  18  19
ENDBRANCH  17  18
ENDBRANCH  16  17
ENDBRANCH  15  16
ENDBRANCH  14  15
ENDBRANCH  12  14
ENDBRANCH  11  12
ENDBRANCH   1  11
TORSDOF 16
ENDMDL
MODEL 9
REMARK VINA RESULT:      -5.3      1.667      9.820
REMARK  16 active torsions:
REMARK  status: ('A' for Active; 'I' for Inactive)
REMARK    1  A    between atoms: C_2  and  C_3 
REMARK    2  A    between atoms: C_3  and  C_4 
REMARK    3  A    between atoms: C_4  and  C_5 
REMARK    4  A    between atoms: C_5  and  C_6 
REMARK    5  A    between atoms: C_6  and  C_7 
REMARK    6  A    between atoms: C_7  and  C_8 
REMARK    7  A    between atoms: C_8  and  C_9 
REMARK    8  A    between atoms: C_9  and  C_10 
REMARK    9  A    between atoms: C_10  and  C_11 
REMARK   10  A    between atoms: C_11  and  C_12 
REMARK   11  A    between atoms: C_12  and  O_14 
REMARK   12  A    between atoms: O_14  and  C_15 
REMARK   13  A    between atoms: C_15  and  C_16 
REMARK   14  A    between atoms: C_16  and  C_17 
REMARK   15  A    between atoms: C_17  and  C_18 
REMARK   16  A    between atoms: C_18  and  C_19 
ROOT
HETATM    1  C   UNL     1     -21.517  -9.530  -4.011  1.00  0.00     0.010 C 
ENDROOT
BRANCH   1   2
HETATM    2  C   UNL     1     -20.597 -10.183  -2.991  1.00  0.00     0.000 C 
BRANCH   2   3
HETATM    3  C   UNL     1     -21.407 -10.726  -1.822  1.00  0.00     0.000 C 
BRANCH   3   4
HETATM    4  C   UNL     1     -20.510 -10.930  -0.612  1.00  0.00     0.000 C 
BRANCH   4   5
HETATM    5  C   UNL     1     -21.291 -10.688   0.666  1.00  0.00     0.000 C 
BRANCH   5   6
HETATM    6  C   UNL     1     -20.574  -9.663   1.526  1.00  0.00     0.000 C 
BRANCH   6   7
HETATM    7  C   UNL     1     -21.088  -8.270   1.210  1.00  0.00     0.000 C 
BRANCH   7   8
HETATM    8  C   UNL     1     -22.605  -8.279   1.143  1.00  0.00    -0.000 C 
BRANCH   8   9
HETATM    9  C   UNL     1     -23.075  -7.766  -0.209  1.00  0.00    -0.005 C 
HETATM   10  C   UNL     1     -21.926  -7.108  -0.945  1.00  0.00     0.005 C 
ENDBRANCH   8   9
ENDBRANCH   7   8
ENDBRANCH   6   7
ENDBRANCH   5   6
ENDBRANCH   4   5
ENDBRANCH   3   4
ENDBRANCH   2   3
ENDBRANCH   1   2
BRANCH   1  11
HETATM   11  C   UNL     1     -20.735  -8.786  -5.096  1.00  0.00     0.111 C 
BRANCH  11  12
HETATM   12  C   UNL     1     -21.372  -7.440  -5.371  1.00  0.00     0.258 C 
HETATM   13  O   UNL     1     -22.038  -6.800  -4.553  1.00  0.00    -0.265 OA
BRANCH  12  14
HETATM   14  O   UNL     1     -21.200  -7.069  -6.670  1.00  0.00    -0.321 OA
BRANCH  14  15
HETATM   15  C   UNL     1     -20.692  -5.735  -6.842  1.00  0.00     0.178 C 
BRANCH  15  16
HETATM   16  C   UNL     1     -21.165  -5.087  -8.135  1.00  0.00     0.027 C 
BRANCH  16  17
HETATM   17  C   UNL     1     -19.981  -4.558  -8.950  1.00  0.00     0.002 C 
BRANCH  17  18
HETATM   18  C   UNL     1     -20.366  -4.379 -10.413  1.00  0.00    -0.000 C 
BRANCH  18  19
HETATM   19  C   UNL     1     -21.792  -3.857 -10.540  1.00  0.00    -0.005 C 
HETATM   20  C   UNL     1     -22.027  -3.296 -11.929  1.00  0.00     0.005 C 
ENDBRANCH  18  19
ENDBRANCH  17  18
ENDBRANCH  16  17
ENDBRANCH  15  16
ENDBRANCH  14  15
ENDBRANCH  12  14
ENDBRANCH  11  12
ENDBRANCH   1  11
TORSDOF 16
ENDMDL
