MODEL 1
REMARK VINA RESULT:      -6.7      0.000      0.000
REMARK WARNING: 32 MAX_TORS EXCEEDED!!!
REMARK  51 active torsions:
REMARK  status: ('A' for Active; 'I' for Inactive)
REMARK    1  A    between atoms: C_2  and  C_4 
REMARK    2  A    between atoms: C_4  and  C_5 
REMARK    3  A    between atoms: C_5  and  C_6 
REMARK    4  A    between atoms: C_6  and  C_7 
REMARK    5  A    between atoms: C_7  and  C_8 
REMARK    6  A    between atoms: C_8  and  C_9 
REMARK    7  A    between atoms: C_9  and  C_10 
REMARK    8  A    between atoms: C_10  and  C_11 
REMARK    9  A    between atoms: C_11  and  C_12 
REMARK   10  A    between atoms: C_12  and  C_13 
REMARK   11  A    between atoms: C_13  and  C_14 
REMARK   12  A    between atoms: C_14  and  C_15 
REMARK   13  A    between atoms: C_15  and  C_16 
REMARK   14  A    between atoms: C_16  and  O_17 
REMARK   15  A    between atoms: O_17  and  C_18 
REMARK   16  A    between atoms: C_18  and  C_20 
REMARK   17  A    between atoms: C_20  and  C_21 
REMARK   18  A    between atoms: C_21  and  C_22 
REMARK   19  A    between atoms: C_21  and  C_42 
REMARK   20  A    between atoms: C_21  and  O_61 
REMARK   21  A    between atoms: C_22  and  C_23 
REMARK   22  A    between atoms: C_23  and  O_25 
REMARK   23  A    between atoms: O_25  and  C_26 
REMARK   24  A    between atoms: C_26  and  C_27 
REMARK   25  A    between atoms: C_27  and  C_28 
REMARK   26  A    between atoms: C_28  and  C_29 
REMARK   27  A    between atoms: C_29  and  C_30 
REMARK   28  A    between atoms: C_30  and  C_31 
REMARK   29  A    between atoms: C_31  and  C_32 
REMARK   30  A    between atoms: C_32  and  C_33 
REMARK   31  A    between atoms: C_33  and  C_34 
REMARK   32  A    between atoms: C_34  and  C_35 
REMARK   33  A    between atoms: C_35  and  C_36 
REMARK   34  A    between atoms: C_36  and  C_37 
REMARK   35  A    between atoms: C_37  and  C_38 
REMARK   36  A    between atoms: C_38  and  C_39 
REMARK   37  A    between atoms: C_42  and  O_44 
REMARK   38  A    between atoms: O_44  and  C_45 
REMARK   39  A    between atoms: C_45  and  C_46 
REMARK   40  A    between atoms: C_46  and  C_47 
REMARK   41  A    between atoms: C_47  and  C_48 
REMARK   42  A    between atoms: C_48  and  C_49 
REMARK   43  A    between atoms: C_49  and  C_50 
REMARK   44  A    between atoms: C_50  and  C_51 
REMARK   45  A    between atoms: C_51  and  C_52 
REMARK   46  A    between atoms: C_52  and  C_53 
REMARK   47  A    between atoms: C_53  and  C_54 
REMARK   48  A    between atoms: C_54  and  C_55 
REMARK   49  A    between atoms: C_55  and  C_56 
REMARK   50  A    between atoms: C_56  and  C_57 
REMARK   51  A    between atoms: C_57  and  C_58 
ROOT
HETATM    1  C   UNL     1     -16.552 -10.866  -4.844  1.00  0.00     0.162 C 
ENDROOT
BRANCH   1   2
HETATM    2  C   UNL     1     -15.185 -10.826  -5.560  1.00  0.00     0.160 C 
BRANCH   2   3
HETATM    3  C   UNL     1     -14.332 -12.030  -5.278  1.00  0.00     0.262 C 
HETATM    4  O   UNL     1     -13.651 -12.207  -4.281  1.00  0.00    -0.265 OA
BRANCH   3   5
HETATM    5  O   UNL     1     -14.360 -12.869  -6.354  1.00  0.00    -0.321 OA
BRANCH   5   6
HETATM    6  C   UNL     1     -13.351 -13.878  -6.302  1.00  0.00     0.178 C 
BRANCH   6   7
HETATM    7  C   UNL     1     -13.908 -15.219  -5.869  1.00  0.00     0.027 C 
BRANCH   7   8
HETATM    8  C   UNL     1     -12.745 -16.135  -5.506  1.00  0.00     0.002 C 
BRANCH   8   9
HETATM    9  C   UNL     1     -12.939 -16.712  -4.119  1.00  0.00     0.000 C 
BRANCH   9  10
HETATM   10  C   UNL     1     -12.988 -15.600  -3.083  1.00  0.00     0.000 C 
BRANCH  10  11
HETATM   11  C   UNL     1     -13.469 -16.161  -1.756  1.00  0.00     0.000 C 
BRANCH  11  12
HETATM   12  C   UNL     1     -13.515 -15.063  -0.709  1.00  0.00     0.000 C 
BRANCH  12  13
HETATM   13  C   UNL     1     -12.139 -14.441  -0.549  1.00  0.00     0.000 C 
BRANCH  13  14
HETATM   14  C   UNL     1     -11.900 -14.084   0.907  1.00  0.00     0.000 C 
BRANCH  14  15
HETATM   15  C   UNL     1     -10.497 -13.537   1.087  1.00  0.00     0.000 C 
BRANCH  15  16
HETATM   16  C   UNL     1      -9.495 -14.677   1.186  1.00  0.00     0.000 C 
BRANCH  16  17
HETATM   17  C   UNL     1      -8.481 -14.366   2.274  1.00  0.00     0.000 C 
BRANCH  17  18
HETATM   18  C   UNL     1      -9.154 -13.755   3.498  1.00  0.00     0.004 C 
BRANCH  18  19
HETATM   19  C   UNL     1      -8.437 -14.125   4.805  1.00  0.00    -0.023 C 
HETATM   20  C   UNL     1      -8.995 -13.282   5.951  1.00  0.00     0.009 C 
HETATM   21  C   UNL     1      -8.571 -15.612   5.141  1.00  0.00     0.009 C 
ENDBRANCH  18  19
ENDBRANCH  17  18
ENDBRANCH  16  17
ENDBRANCH  15  16
ENDBRANCH  14  15
ENDBRANCH  13  14
ENDBRANCH  12  13
ENDBRANCH  11  12
ENDBRANCH  10  11
ENDBRANCH   9  10
ENDBRANCH   8   9
ENDBRANCH   7   8
ENDBRANCH   6   7
ENDBRANCH   5   6
ENDBRANCH   3   5
ENDBRANCH   2   3
ENDBRANCH   1   2
BRANCH   1  22
HETATM   22  C   UNL     1     -16.723  -9.871  -3.677  1.00  0.00     0.160 C 
BRANCH  22  23
HETATM   23  C   UNL     1     -16.949 -10.559  -2.355  1.00  0.00     0.262 C 
HETATM   24  O   UNL     1     -18.033 -10.717  -1.835  1.00  0.00    -0.265 OA
BRANCH  23  25
HETATM   25  O   UNL     1     -15.761 -10.842  -1.756  1.00  0.00    -0.321 OA
BRANCH  25  26
HETATM   26  C   UNL     1     -15.739 -12.120  -1.101  1.00  0.00     0.178 C 
BRANCH  26  27
HETATM   27  C   UNL     1     -15.693 -11.986   0.409  1.00  0.00     0.027 C 
BRANCH  27  28
HETATM   28  C   UNL     1     -16.348 -13.206   1.052  1.00  0.00     0.002 C 
BRANCH  28  29
HETATM   29  C   UNL     1     -17.172 -13.981   0.035  1.00  0.00     0.000 C 
BRANCH  29  30
HETATM   30  C   UNL     1     -18.613 -14.130   0.503  1.00  0.00     0.000 C 
BRANCH  30  31
HETATM   31  C   UNL     1     -19.559 -13.453  -0.476  1.00  0.00     0.000 C 
BRANCH  31  32
HETATM   32  C   UNL     1     -20.350 -12.357   0.220  1.00  0.00     0.000 C 
BRANCH  32  33
HETATM   33  C   UNL     1     -21.600 -12.019  -0.577  1.00  0.00     0.000 C 
BRANCH  33  34
HETATM   34  C   UNL     1     -22.840 -12.295   0.258  1.00  0.00     0.000 C 
BRANCH  34  35
HETATM   35  C   UNL     1     -23.863 -11.191   0.058  1.00  0.00     0.000 C 
BRANCH  35  36
HETATM   36  C   UNL     1     -23.202  -9.956  -0.536  1.00  0.00     0.000 C 
BRANCH  36  37
HETATM   37  C   UNL     1     -23.221  -8.830   0.486  1.00  0.00     0.000 C 
BRANCH  37  38
HETATM   38  C   UNL     1     -22.119  -7.814   0.209  1.00  0.00     0.004 C 
BRANCH  38  39
HETATM   39  C   UNL     1     -21.807  -7.684  -1.289  1.00  0.00    -0.023 C 
HETATM   40  C   UNL     1     -22.194  -6.312  -1.843  1.00  0.00     0.009 C 
HETATM   41  C   UNL     1     -20.320  -7.941  -1.526  1.00  0.00     0.009 C 
ENDBRANCH  38  39
ENDBRANCH  37  38
ENDBRANCH  36  37
ENDBRANCH  35  36
ENDBRANCH  34  35
ENDBRANCH  33  34
ENDBRANCH  32  33
ENDBRANCH  31  32
ENDBRANCH  30  31
ENDBRANCH  29  30
ENDBRANCH  28  29
ENDBRANCH  27  28
ENDBRANCH  26  27
ENDBRANCH  25  26
ENDBRANCH  23  25
ENDBRANCH  22  23
ENDBRANCH   1  22
BRANCH   1  42
HETATM   42  C   UNL     1     -17.667 -10.726  -5.877  1.00  0.00     0.294 C 
HETATM   43  O   UNL     1     -17.898  -9.692  -6.492  1.00  0.00    -0.262 OA
BRANCH  42  44
HETATM   44  O   UNL     1     -18.366 -11.892  -6.011  1.00  0.00    -0.319 OA
BRANCH  44  45
HETATM   45  C   UNL     1     -19.794 -11.820  -5.876  1.00  0.00     0.178 C 
BRANCH  45  46
HETATM   46  C   UNL     1     -20.196 -11.821  -4.409  1.00  0.00     0.027 C 
BRANCH  46  47
HETATM   47  C   UNL     1     -20.884 -10.509  -4.044  1.00  0.00     0.002 C 
BRANCH  47  48
HETATM   48  C   UNL     1     -21.205  -9.681  -5.282  1.00  0.00     0.000 C 
BRANCH  48  49
HETATM   49  C   UNL     1     -21.670  -8.289  -4.878  1.00  0.00     0.000 C 
BRANCH  49  50
HETATM   50  C   UNL     1     -20.707  -7.226  -5.389  1.00  0.00     0.000 C 
BRANCH  50  51
HETATM   51  C   UNL     1     -21.445  -5.915  -5.627  1.00  0.00     0.000 C 
BRANCH  51  52
HETATM   52  C   UNL     1     -20.458  -4.765  -5.740  1.00  0.00     0.000 C 
BRANCH  52  53
HETATM   53  C   UNL     1     -20.640  -4.049  -7.070  1.00  0.00     0.000 C 
BRANCH  53  54
HETATM   54  C   UNL     1     -20.172  -4.936  -8.209  1.00  0.00     0.000 C 
BRANCH  54  55
HETATM   55  C   UNL     1     -19.868  -4.101  -9.444  1.00  0.00     0.000 C 
BRANCH  55  56
HETATM   56  C   UNL     1     -20.845  -4.459 -10.553  1.00  0.00     0.000 C 
BRANCH  56  57
HETATM   57  C   UNL     1     -21.727  -3.271 -10.918  1.00  0.00     0.004 C 
BRANCH  57  58
HETATM   58  C   UNL     1     -23.223  -3.613 -10.855  1.00  0.00    -0.023 C 
HETATM   59  C   UNL     1     -23.557  -4.898 -11.618  1.00  0.00     0.009 C 
HETATM   60  C   UNL     1     -23.656  -3.749  -9.395  1.00  0.00     0.009 C 
ENDBRANCH  57  58
ENDBRANCH  56  57
ENDBRANCH  55  56
ENDBRANCH  54  55
ENDBRANCH  53  54
ENDBRANCH  52  53
ENDBRANCH  51  52
ENDBRANCH  50  51
ENDBRANCH  49  50
ENDBRANCH  48  49
ENDBRANCH  47  48
ENDBRANCH  46  47
ENDBRANCH  45  46
ENDBRANCH  44  45
ENDBRANCH  42  44
ENDBRANCH   1  42
BRANCH   1  61
HETATM   61  O   UNL     1     -16.748 -12.199  -4.351  1.00  0.00    -0.379 OA
HETATM   62  H   UNL     1     -17.013 -12.137  -3.415  1.00  0.00     0.211 HD
ENDBRANCH   1  61
TORSDOF 51
ENDMDL
MODEL 2
REMARK VINA RESULT:      -6.6      2.927     11.185
REMARK WARNING: 32 MAX_TORS EXCEEDED!!!
REMARK  51 active torsions:
REMARK  status: ('A' for Active; 'I' for Inactive)
REMARK    1  A    between atoms: C_2  and  C_4 
REMARK    2  A    between atoms: C_4  and  C_5 
REMARK    3  A    between atoms: C_5  and  C_6 
REMARK    4  A    between atoms: C_6  and  C_7 
REMARK    5  A    between atoms: C_7  and  C_8 
REMARK    6  A    between atoms: C_8  and  C_9 
REMARK    7  A    between atoms: C_9  and  C_10 
REMARK    8  A    between atoms: C_10  and  C_11 
REMARK    9  A    between atoms: C_11  and  C_12 
REMARK   10  A    between atoms: C_12  and  C_13 
REMARK   11  A    between atoms: C_13  and  C_14 
REMARK   12  A    between atoms: C_14  and  C_15 
REMARK   13  A    between atoms: C_15  and  C_16 
REMARK   14  A    between atoms: C_16  and  O_17 
REMARK   15  A    between atoms: O_17  and  C_18 
REMARK   16  A    between atoms: C_18  and  C_20 
REMARK   17  A    between atoms: C_20  and  C_21 
REMARK   18  A    between atoms: C_21  and  C_22 
REMARK   19  A    between atoms: C_21  and  C_42 
REMARK   20  A    between atoms: C_21  and  O_61 
REMARK   21  A    between atoms: C_22  and  C_23 
REMARK   22  A    between atoms: C_23  and  O_25 
REMARK   23  A    between atoms: O_25  and  C_26 
REMARK   24  A    between atoms: C_26  and  C_27 
REMARK   25  A    between atoms: C_27  and  C_28 
REMARK   26  A    between atoms: C_28  and  C_29 
REMARK   27  A    between atoms: C_29  and  C_30 
REMARK   28  A    between atoms: C_30  and  C_31 
REMARK   29  A    between atoms: C_31  and  C_32 
REMARK   30  A    between atoms: C_32  and  C_33 
REMARK   31  A    between atoms: C_33  and  C_34 
REMARK   32  A    between atoms: C_34  and  C_35 
REMARK   33  A    between atoms: C_35  and  C_36 
REMARK   34  A    between atoms: C_36  and  C_37 
REMARK   35  A    between atoms: C_37  and  C_38 
REMARK   36  A    between atoms: C_38  and  C_39 
REMARK   37  A    between atoms: C_42  and  O_44 
REMARK   38  A    between atoms: O_44  and  C_45 
REMARK   39  A    between atoms: C_45  and  C_46 
REMARK   40  A    between atoms: C_46  and  C_47 
REMARK   41  A    between atoms: C_47  and  C_48 
REMARK   42  A    between atoms: C_48  and  C_49 
REMARK   43  A    between atoms: C_49  and  C_50 
REMARK   44  A    between atoms: C_50  and  C_51 
REMARK   45  A    between atoms: C_51  and  C_52 
REMARK   46  A    between atoms: C_52  and  C_53 
REMARK   47  A    between atoms: C_53  and  C_54 
REMARK   48  A    between atoms: C_54  and  C_55 
REMARK   49  A    between atoms: C_55  and  C_56 
REMARK   50  A    between atoms: C_56  and  C_57 
REMARK   51  A    between atoms: C_57  and  C_58 
ROOT
HETATM    1  C   UNL     1     -22.136 -12.520  -3.319  1.00  0.00     0.162 C 
ENDROOT
BRANCH   1   2
HETATM    2  C   UNL     1     -22.705 -11.125  -2.981  1.00  0.00     0.160 C 
BRANCH   2   3
HETATM    3  C   UNL     1     -22.922 -10.913  -1.510  1.00  0.00     0.262 C 
HETATM    4  O   UNL     1     -24.003 -10.827  -0.950  1.00  0.00    -0.265 OA
BRANCH   3   5
HETATM    5  O   UNL     1     -21.716 -10.738  -0.893  1.00  0.00    -0.321 OA
BRANCH   5   6
HETATM    6  C   UNL     1     -21.818 -10.025   0.340  1.00  0.00     0.178 C 
BRANCH   6   7
HETATM    7  C   UNL     1     -21.376  -8.582   0.200  1.00  0.00     0.027 C 
BRANCH   7   8
HETATM    8  C   UNL     1     -22.617  -7.701   0.099  1.00  0.00     0.002 C 
BRANCH   8   9
HETATM    9  C   UNL     1     -22.472  -6.714  -1.041  1.00  0.00     0.000 C 
BRANCH   9  10
HETATM   10  C   UNL     1     -21.343  -7.134  -1.969  1.00  0.00     0.000 C 
BRANCH  10  11
HETATM   11  C   UNL     1     -21.248  -6.159  -3.129  1.00  0.00     0.000 C 
BRANCH  11  12
HETATM   12  C   UNL     1     -22.063  -6.663  -4.306  1.00  0.00     0.000 C 
BRANCH  12  13
HETATM   13  C   UNL     1     -21.536  -6.062  -5.597  1.00  0.00     0.000 C 
BRANCH  13  14
HETATM   14  C   UNL     1     -20.433  -5.065  -5.289  1.00  0.00     0.000 C 
BRANCH  14  15
HETATM   15  C   UNL     1     -19.684  -4.707  -6.559  1.00  0.00     0.000 C 
BRANCH  15  16
HETATM   16  C   UNL     1     -20.161  -5.574  -7.714  1.00  0.00     0.000 C 
BRANCH  16  17
HETATM   17  C   UNL     1     -20.352  -4.711  -8.949  1.00  0.00     0.000 C 
BRANCH  17  18
HETATM   18  C   UNL     1     -21.830  -4.506  -9.256  1.00  0.00     0.004 C 
BRANCH  18  19
HETATM   19  C   UNL     1     -22.055  -3.756 -10.578  1.00  0.00    -0.023 C 
HETATM   20  C   UNL     1     -20.712  -3.510 -11.261  1.00  0.00     0.009 C 
HETATM   21  C   UNL     1     -22.989  -4.513 -11.524  1.00  0.00     0.009 C 
ENDBRANCH  18  19
ENDBRANCH  17  18
ENDBRANCH  16  17
ENDBRANCH  15  16
ENDBRANCH  14  15
ENDBRANCH  13  14
ENDBRANCH  12  13
ENDBRANCH  11  12
ENDBRANCH  10  11
ENDBRANCH   9  10
ENDBRANCH   8   9
ENDBRANCH   7   8
ENDBRANCH   6   7
ENDBRANCH   5   6
ENDBRANCH   3   5
ENDBRANCH   2   3
ENDBRANCH   1   2
BRANCH   1  22
HETATM   22  C   UNL     1     -22.940 -13.718  -2.773  1.00  0.00     0.160 C 
BRANCH  22  23
HETATM   23  C   UNL     1     -22.103 -14.643  -1.927  1.00  0.00     0.262 C 
HETATM   24  O   UNL     1     -21.624 -15.687  -2.313  1.00  0.00    -0.265 OA
BRANCH  23  25
HETATM   25  O   UNL     1     -22.086 -14.222  -0.633  1.00  0.00    -0.321 OA
BRANCH  25  26
HETATM   26  C   UNL     1     -23.388 -14.172  -0.030  1.00  0.00     0.178 C 
BRANCH  26  27
HETATM   27  C   UNL     1     -23.336 -13.664   1.397  1.00  0.00     0.027 C 
BRANCH  27  28
HETATM   28  C   UNL     1     -21.921 -13.827   1.948  1.00  0.00     0.002 C 
BRANCH  28  29
HETATM   29  C   UNL     1     -21.857 -14.963   2.958  1.00  0.00     0.000 C 
BRANCH  29  30
HETATM   30  C   UNL     1     -20.821 -15.999   2.544  1.00  0.00     0.000 C 
BRANCH  30  31
HETATM   31  C   UNL     1     -19.744 -15.355   1.684  1.00  0.00     0.000 C 
BRANCH  31  32
HETATM   32  C   UNL     1     -18.486 -16.209   1.679  1.00  0.00     0.000 C 
BRANCH  32  33
HETATM   33  C   UNL     1     -17.355 -15.486   2.393  1.00  0.00     0.000 C 
BRANCH  33  34
HETATM   34  C   UNL     1     -16.027 -15.816   1.731  1.00  0.00     0.000 C 
BRANCH  34  35
HETATM   35  C   UNL     1     -15.057 -14.659   1.898  1.00  0.00     0.000 C 
BRANCH  35  36
HETATM   36  C   UNL     1     -15.811 -13.339   1.967  1.00  0.00     0.000 C 
BRANCH  36  37
HETATM   37  C   UNL     1     -15.195 -12.352   0.989  1.00  0.00     0.000 C 
BRANCH  37  38
HETATM   38  C   UNL     1     -16.212 -11.900  -0.053  1.00  0.00     0.004 C 
BRANCH  38  39
HETATM   39  C   UNL     1     -17.447 -12.811  -0.098  1.00  0.00    -0.023 C 
HETATM   40  C   UNL     1     -18.747 -12.033   0.115  1.00  0.00     0.009 C 
HETATM   41  C   UNL     1     -17.494 -13.545  -1.436  1.00  0.00     0.009 C 
ENDBRANCH  38  39
ENDBRANCH  37  38
ENDBRANCH  36  37
ENDBRANCH  35  36
ENDBRANCH  34  35
ENDBRANCH  33  34
ENDBRANCH  32  33
ENDBRANCH  31  32
ENDBRANCH  30  31
ENDBRANCH  29  30
ENDBRANCH  28  29
ENDBRANCH  27  28
ENDBRANCH  26  27
ENDBRANCH  25  26
ENDBRANCH  23  25
ENDBRANCH  22  23
ENDBRANCH   1  22
BRANCH   1  42
HETATM   42  C   UNL     1     -21.915 -12.623  -4.826  1.00  0.00     0.294 C 
HETATM   43  O   UNL     1     -22.825 -12.680  -5.644  1.00  0.00    -0.262 OA
BRANCH  42  44
HETATM   44  O   UNL     1     -20.583 -12.655  -5.129  1.00  0.00    -0.319 OA
BRANCH  44  45
HETATM   45  C   UNL     1     -20.124 -11.769  -6.161  1.00  0.00     0.178 C 
BRANCH  45  46
HETATM   46  C   UNL     1     -19.109 -10.780  -5.607  1.00  0.00     0.027 C 
BRANCH  46  47
HETATM   47  C   UNL     1     -19.818  -9.570  -5.007  1.00  0.00     0.002 C 
BRANCH  47  48
HETATM   48  C   UNL     1     -19.355  -9.300  -3.580  1.00  0.00     0.000 C 
BRANCH  48  49
HETATM   49  C   UNL     1     -18.258 -10.282  -3.189  1.00  0.00     0.000 C 
BRANCH  49  50
HETATM   50  C   UNL     1     -16.982  -9.545  -2.805  1.00  0.00     0.000 C 
BRANCH  50  51
HETATM   51  C   UNL     1     -15.771 -10.229  -3.425  1.00  0.00     0.000 C 
BRANCH  51  52
HETATM   52  C   UNL     1     -15.626  -9.828  -4.884  1.00  0.00     0.000 C 
BRANCH  52  53
HETATM   53  C   UNL     1     -15.326 -11.053  -5.735  1.00  0.00     0.000 C 
BRANCH  53  54
HETATM   54  C   UNL     1     -14.723 -12.150  -4.877  1.00  0.00     0.000 C 
BRANCH  54  55
HETATM   55  C   UNL     1     -15.489 -13.452  -5.061  1.00  0.00     0.000 C 
BRANCH  55  56
HETATM   56  C   UNL     1     -15.027 -14.464  -4.025  1.00  0.00     0.000 C 
BRANCH  56  57
HETATM   57  C   UNL     1     -13.879 -13.914  -3.189  1.00  0.00     0.004 C 
BRANCH  57  58
HETATM   58  C   UNL     1     -13.914 -14.423  -1.740  1.00  0.00    -0.023 C 
HETATM   59  C   UNL     1     -14.484 -15.840  -1.637  1.00  0.00     0.009 C 
HETATM   60  C   UNL     1     -12.505 -14.386  -1.149  1.00  0.00     0.009 C 
ENDBRANCH  57  58
ENDBRANCH  56  57
ENDBRANCH  55  56
ENDBRANCH  54  55
ENDBRANCH  53  54
ENDBRANCH  52  53
ENDBRANCH  51  52
ENDBRANCH  50  51
ENDBRANCH  49  50
ENDBRANCH  48  49
ENDBRANCH  47  48
ENDBRANCH  46  47
ENDBRANCH  45  46
ENDBRANCH  44  45
ENDBRANCH  42  44
ENDBRANCH   1  42
BRANCH   1  61
HETATM   61  O   UNL     1     -20.799 -12.582  -2.802  1.00  0.00    -0.379 OA
HETATM   62  H   UNL     1     -20.184 -12.575  -3.558  1.00  0.00     0.211 HD
ENDBRANCH   1  61
TORSDOF 51
ENDMDL
MODEL 3
REMARK VINA RESULT:      -6.3      3.339     10.546
REMARK WARNING: 32 MAX_TORS EXCEEDED!!!
REMARK  51 active torsions:
REMARK  status: ('A' for Active; 'I' for Inactive)
REMARK    1  A    between atoms: C_2  and  C_4 
REMARK    2  A    between atoms: C_4  and  C_5 
REMARK    3  A    between atoms: C_5  and  C_6 
REMARK    4  A    between atoms: C_6  and  C_7 
REMARK    5  A    between atoms: C_7  and  C_8 
REMARK    6  A    between atoms: C_8  and  C_9 
REMARK    7  A    between atoms: C_9  and  C_10 
REMARK    8  A    between atoms: C_10  and  C_11 
REMARK    9  A    between atoms: C_11  and  C_12 
REMARK   10  A    between atoms: C_12  and  C_13 
REMARK   11  A    between atoms: C_13  and  C_14 
REMARK   12  A    between atoms: C_14  and  C_15 
REMARK   13  A    between atoms: C_15  and  C_16 
REMARK   14  A    between atoms: C_16  and  O_17 
REMARK   15  A    between atoms: O_17  and  C_18 
REMARK   16  A    between atoms: C_18  and  C_20 
REMARK   17  A    between atoms: C_20  and  C_21 
REMARK   18  A    between atoms: C_21  and  C_22 
REMARK   19  A    between atoms: C_21  and  C_42 
REMARK   20  A    between atoms: C_21  and  O_61 
REMARK   21  A    between atoms: C_22  and  C_23 
REMARK   22  A    between atoms: C_23  and  O_25 
REMARK   23  A    between atoms: O_25  and  C_26 
REMARK   24  A    between atoms: C_26  and  C_27 
REMARK   25  A    between atoms: C_27  and  C_28 
REMARK   26  A    between atoms: C_28  and  C_29 
REMARK   27  A    between atoms: C_29  and  C_30 
REMARK   28  A    between atoms: C_30  and  C_31 
REMARK   29  A    between atoms: C_31  and  C_32 
REMARK   30  A    between atoms: C_32  and  C_33 
REMARK   31  A    between atoms: C_33  and  C_34 
REMARK   32  A    between atoms: C_34  and  C_35 
REMARK   33  A    between atoms: C_35  and  C_36 
REMARK   34  A    between atoms: C_36  and  C_37 
REMARK   35  A    between atoms: C_37  and  C_38 
REMARK   36  A    between atoms: C_38  and  C_39 
REMARK   37  A    between atoms: C_42  and  O_44 
REMARK   38  A    between atoms: O_44  and  C_45 
REMARK   39  A    between atoms: C_45  and  C_46 
REMARK   40  A    between atoms: C_46  and  C_47 
REMARK   41  A    between atoms: C_47  and  C_48 
REMARK   42  A    between atoms: C_48  and  C_49 
REMARK   43  A    between atoms: C_49  and  C_50 
REMARK   44  A    between atoms: C_50  and  C_51 
REMARK   45  A    between atoms: C_51  and  C_52 
REMARK   46  A    between atoms: C_52  and  C_53 
REMARK   47  A    between atoms: C_53  and  C_54 
REMARK   48  A    between atoms: C_54  and  C_55 
REMARK   49  A    between atoms: C_55  and  C_56 
REMARK   50  A    between atoms: C_56  and  C_57 
REMARK   51  A    between atoms: C_57  and  C_58 
ROOT
HETATM    1  C   UNL     1     -16.063 -12.171  -2.366  1.00  0.00     0.162 C 
ENDROOT
BRANCH   1   2
HETATM    2  C   UNL     1     -17.497 -12.141  -2.937  1.00  0.00     0.160 C 
BRANCH   2   3
HETATM    3  C   UNL     1     -18.228 -10.863  -2.637  1.00  0.00     0.262 C 
HETATM    4  O   UNL     1     -18.913 -10.645  -1.651  1.00  0.00    -0.265 OA
BRANCH   3   5
HETATM    5  O   UNL     1     -18.086 -10.000  -3.686  1.00  0.00    -0.321 OA
BRANCH   5   6
HETATM    6  C   UNL     1     -19.056  -8.953  -3.682  1.00  0.00     0.178 C 
BRANCH   6   7
HETATM    7  C   UNL     1     -19.770  -8.833  -5.014  1.00  0.00     0.027 C 
BRANCH   7   8
HETATM    8  C   UNL     1     -21.220  -8.440  -4.754  1.00  0.00     0.002 C 
BRANCH   8   9
HETATM    9  C   UNL     1     -21.590  -7.218  -5.570  1.00  0.00     0.000 C 
BRANCH   9  10
HETATM   10  C   UNL     1     -21.415  -5.954  -4.744  1.00  0.00     0.000 C 
BRANCH  10  11
HETATM   11  C   UNL     1     -20.290  -5.117  -5.325  1.00  0.00     0.000 C 
BRANCH  11  12
HETATM   12  C   UNL     1     -20.123  -5.417  -6.803  1.00  0.00     0.000 C 
BRANCH  12  13
HETATM   13  C   UNL     1     -20.185  -4.129  -7.604  1.00  0.00     0.000 C 
BRANCH  13  14
HETATM   14  C   UNL     1     -21.589  -3.553  -7.547  1.00  0.00     0.000 C 
BRANCH  14  15
HETATM   15  C   UNL     1     -22.571  -4.507  -8.200  1.00  0.00     0.000 C 
BRANCH  15  16
HETATM   16  C   UNL     1     -23.776  -3.744  -8.727  1.00  0.00     0.000 C 
BRANCH  16  17
HETATM   17  C   UNL     1     -23.887  -3.948 -10.228  1.00  0.00     0.000 C 
BRANCH  17  18
HETATM   18  C   UNL     1     -22.711  -4.756 -10.765  1.00  0.00     0.004 C 
BRANCH  18  19
HETATM   19  C   UNL     1     -21.861  -3.959 -11.766  1.00  0.00    -0.023 C 
HETATM   20  C   UNL     1     -22.541  -2.624 -12.066  1.00  0.00     0.009 C 
HETATM   21  C   UNL     1     -20.439  -3.714 -11.255  1.00  0.00     0.009 C 
ENDBRANCH  18  19
ENDBRANCH  17  18
ENDBRANCH  16  17
ENDBRANCH  15  16
ENDBRANCH  14  15
ENDBRANCH  13  14
ENDBRANCH  12  13
ENDBRANCH  11  12
ENDBRANCH  10  11
ENDBRANCH   9  10
ENDBRANCH   8   9
ENDBRANCH   7   8
ENDBRANCH   6   7
ENDBRANCH   5   6
ENDBRANCH   3   5
ENDBRANCH   2   3
ENDBRANCH   1   2
BRANCH   1  22
HETATM   22  C   UNL     1     -15.869 -13.027  -1.098  1.00  0.00     0.160 C 
BRANCH  22  23
HETATM   23  C   UNL     1     -16.146 -12.259   0.170  1.00  0.00     0.262 C 
HETATM   24  O   UNL     1     -15.332 -11.580   0.757  1.00  0.00    -0.265 OA
BRANCH  23  25
HETATM   25  O   UNL     1     -17.387 -12.554   0.645  1.00  0.00    -0.321 OA
BRANCH  25  26
HETATM   26  C   UNL     1     -17.794 -13.906   0.382  1.00  0.00     0.178 C 
BRANCH  26  27
HETATM   27  C   UNL     1     -19.301 -14.037   0.281  1.00  0.00     0.027 C 
BRANCH  27  28
HETATM   28  C   UNL     1     -19.701 -15.500   0.455  1.00  0.00     0.002 C 
BRANCH  28  29
HETATM   29  C   UNL     1     -19.979 -15.818   1.917  1.00  0.00     0.000 C 
BRANCH  29  30
HETATM   30  C   UNL     1     -21.409 -16.307   2.104  1.00  0.00     0.000 C 
BRANCH  30  31
HETATM   31  C   UNL     1     -22.134 -15.442   3.125  1.00  0.00     0.000 C 
BRANCH  31  32
HETATM   32  C   UNL     1     -22.334 -14.035   2.584  1.00  0.00     0.000 C 
BRANCH  32  33
HETATM   33  C   UNL     1     -23.217 -14.066   1.346  1.00  0.00     0.000 C 
BRANCH  33  34
HETATM   34  C   UNL     1     -22.768 -12.999   0.360  1.00  0.00     0.000 C 
BRANCH  34  35
HETATM   35  C   UNL     1     -23.958 -12.479  -0.427  1.00  0.00     0.000 C 
BRANCH  35  36
HETATM   36  C   UNL     1     -23.950 -10.957  -0.457  1.00  0.00     0.000 C 
BRANCH  36  37
HETATM   37  C   UNL     1     -22.520 -10.455  -0.331  1.00  0.00     0.000 C 
BRANCH  37  38
HETATM   38  C   UNL     1     -22.238  -9.338  -1.329  1.00  0.00     0.004 C 
BRANCH  38  39
HETATM   39  C   UNL     1     -21.627  -8.098  -0.659  1.00  0.00    -0.023 C 
HETATM   40  C   UNL     1     -22.220  -6.796  -1.202  1.00  0.00     0.009 C 
HETATM   41  C   UNL     1     -21.837  -8.176   0.852  1.00  0.00     0.009 C 
ENDBRANCH  38  39
ENDBRANCH  37  38
ENDBRANCH  36  37
ENDBRANCH  35  36
ENDBRANCH  34  35
ENDBRANCH  33  34
ENDBRANCH  32  33
ENDBRANCH  31  32
ENDBRANCH  30  31
ENDBRANCH  29  30
ENDBRANCH  28  29
ENDBRANCH  27  28
ENDBRANCH  26  27
ENDBRANCH  25  26
ENDBRANCH  23  25
ENDBRANCH  22  23
ENDBRANCH   1  22
BRANCH   1  42
HETATM   42  C   UNL     1     -15.088 -12.566  -3.472  1.00  0.00     0.294 C 
HETATM   43  O   UNL     1     -13.877 -12.395  -3.404  1.00  0.00    -0.262 OA
BRANCH  42  44
HETATM   44  O   UNL     1     -15.745 -13.116  -4.536  1.00  0.00    -0.319 OA
BRANCH  44  45
HETATM   45  C   UNL     1     -15.447 -14.485  -4.855  1.00  0.00     0.178 C 
BRANCH  45  46
HETATM   46  C   UNL     1     -15.389 -14.683  -6.362  1.00  0.00     0.027 C 
BRANCH  46  47
HETATM   47  C   UNL     1     -16.443 -15.693  -6.807  1.00  0.00     0.002 C 
BRANCH  47  48
HETATM   48  C   UNL     1     -17.848 -15.110  -6.723  1.00  0.00     0.000 C 
BRANCH  48  49
HETATM   49  C   UNL     1     -18.496 -15.098  -8.101  1.00  0.00     0.000 C 
BRANCH  49  50
HETATM   50  C   UNL     1     -19.023 -13.711  -8.441  1.00  0.00     0.000 C 
BRANCH  50  51
HETATM   51  C   UNL     1     -20.368 -13.476  -7.767  1.00  0.00     0.000 C 
BRANCH  51  52
HETATM   52  C   UNL     1     -20.263 -12.344  -6.757  1.00  0.00     0.000 C 
BRANCH  52  53
HETATM   53  C   UNL     1     -21.597 -11.623  -6.641  1.00  0.00     0.000 C 
BRANCH  53  54
HETATM   54  C   UNL     1     -22.504 -12.355  -5.670  1.00  0.00     0.000 C 
BRANCH  54  55
HETATM   55  C   UNL     1     -22.042 -12.130  -4.237  1.00  0.00     0.000 C 
BRANCH  55  56
HETATM   56  C   UNL     1     -22.150 -13.432  -3.458  1.00  0.00     0.000 C 
BRANCH  56  57
HETATM   57  C   UNL     1     -20.792 -13.870  -2.924  1.00  0.00     0.004 C 
BRANCH  57  58
HETATM   58  C   UNL     1     -20.152 -14.968  -3.786  1.00  0.00    -0.023 C 
HETATM   59  C   UNL     1     -18.829 -15.468  -3.198  1.00  0.00     0.009 C 
HETATM   60  C   UNL     1     -21.127 -16.135  -3.936  1.00  0.00     0.009 C 
ENDBRANCH  57  58
ENDBRANCH  56  57
ENDBRANCH  55  56
ENDBRANCH  54  55
ENDBRANCH  53  54
ENDBRANCH  52  53
ENDBRANCH  51  52
ENDBRANCH  50  51
ENDBRANCH  49  50
ENDBRANCH  48  49
ENDBRANCH  47  48
ENDBRANCH  46  47
ENDBRANCH  45  46
ENDBRANCH  44  45
ENDBRANCH  42  44
ENDBRANCH   1  42
BRANCH   1  61
HETATM   61  O   UNL     1     -15.679 -10.819  -2.078  1.00  0.00    -0.379 OA
HETATM   62  H   UNL     1     -16.298 -10.467  -1.412  1.00  0.00     0.211 HD
ENDBRANCH   1  61
TORSDOF 51
ENDMDL
MODEL 4
REMARK VINA RESULT:      -6.3      3.293     10.469
REMARK WARNING: 32 MAX_TORS EXCEEDED!!!
REMARK  51 active torsions:
REMARK  status: ('A' for Active; 'I' for Inactive)
REMARK    1  A    between atoms: C_2  and  C_4 
REMARK    2  A    between atoms: C_4  and  C_5 
REMARK    3  A    between atoms: C_5  and  C_6 
REMARK    4  A    between atoms: C_6  and  C_7 
REMARK    5  A    between atoms: C_7  and  C_8 
REMARK    6  A    between atoms: C_8  and  C_9 
REMARK    7  A    between atoms: C_9  and  C_10 
REMARK    8  A    between atoms: C_10  and  C_11 
REMARK    9  A    between atoms: C_11  and  C_12 
REMARK   10  A    between atoms: C_12  and  C_13 
REMARK   11  A    between atoms: C_13  and  C_14 
REMARK   12  A    between atoms: C_14  and  C_15 
REMARK   13  A    between atoms: C_15  and  C_16 
REMARK   14  A    between atoms: C_16  and  O_17 
REMARK   15  A    between atoms: O_17  and  C_18 
REMARK   16  A    between atoms: C_18  and  C_20 
REMARK   17  A    between atoms: C_20  and  C_21 
REMARK   18  A    between atoms: C_21  and  C_22 
REMARK   19  A    between atoms: C_21  and  C_42 
REMARK   20  A    between atoms: C_21  and  O_61 
REMARK   21  A    between atoms: C_22  and  C_23 
REMARK   22  A    between atoms: C_23  and  O_25 
REMARK   23  A    between atoms: O_25  and  C_26 
REMARK   24  A    between atoms: C_26  and  C_27 
REMARK   25  A    between atoms: C_27  and  C_28 
REMARK   26  A    between atoms: C_28  and  C_29 
REMARK   27  A    between atoms: C_29  and  C_30 
REMARK   28  A    between atoms: C_30  and  C_31 
REMARK   29  A    between atoms: C_31  and  C_32 
REMARK   30  A    between atoms: C_32  and  C_33 
REMARK   31  A    between atoms: C_33  and  C_34 
REMARK   32  A    between atoms: C_34  and  C_35 
REMARK   33  A    between atoms: C_35  and  C_36 
REMARK   34  A    between atoms: C_36  and  C_37 
REMARK   35  A    between atoms: C_37  and  C_38 
REMARK   36  A    between atoms: C_38  and  C_39 
REMARK   37  A    between atoms: C_42  and  O_44 
REMARK   38  A    between atoms: O_44  and  C_45 
REMARK   39  A    between atoms: C_45  and  C_46 
REMARK   40  A    between atoms: C_46  and  C_47 
REMARK   41  A    between atoms: C_47  and  C_48 
REMARK   42  A    between atoms: C_48  and  C_49 
REMARK   43  A    between atoms: C_49  and  C_50 
REMARK   44  A    between atoms: C_50  and  C_51 
REMARK   45  A    between atoms: C_51  and  C_52 
REMARK   46  A    between atoms: C_52  and  C_53 
REMARK   47  A    between atoms: C_53  and  C_54 
REMARK   48  A    between atoms: C_54  and  C_55 
REMARK   49  A    between atoms: C_55  and  C_56 
REMARK   50  A    between atoms: C_56  and  C_57 
REMARK   51  A    between atoms: C_57  and  C_58 
ROOT
HETATM    1  C   UNL     1     -16.226 -12.739  -2.201  1.00  0.00     0.162 C 
ENDROOT
BRANCH   1   2
HETATM    2  C   UNL     1     -17.207 -11.554  -2.335  1.00  0.00     0.160 C 
BRANCH   2   3
HETATM    3  C   UNL     1     -16.549 -10.290  -2.809  1.00  0.00     0.262 C 
HETATM    4  O   UNL     1     -15.629  -9.710  -2.255  1.00  0.00    -0.265 OA
BRANCH   3   5
HETATM    5  O   UNL     1     -17.198  -9.826  -3.918  1.00  0.00    -0.321 OA
BRANCH   5   6
HETATM    6  C   UNL     1     -18.565  -9.499  -3.670  1.00  0.00     0.178 C 
BRANCH   6   7
HETATM    7  C   UNL     1     -19.291  -9.088  -4.934  1.00  0.00     0.027 C 
BRANCH   7   8
HETATM    8  C   UNL     1     -20.770  -8.910  -4.611  1.00  0.00     0.002 C 
BRANCH   8   9
HETATM    9  C   UNL     1     -21.237  -7.527  -5.015  1.00  0.00     0.000 C 
BRANCH   9  10
HETATM   10  C   UNL     1     -20.228  -6.876  -5.948  1.00  0.00     0.000 C 
BRANCH  10  11
HETATM   11  C   UNL     1     -20.229  -5.373  -5.732  1.00  0.00     0.000 C 
BRANCH  11  12
HETATM   12  C   UNL     1     -21.461  -4.753  -6.367  1.00  0.00     0.000 C 
BRANCH  12  13
HETATM   13  C   UNL     1     -21.493  -5.068  -7.852  1.00  0.00     0.000 C 
BRANCH  13  14
HETATM   14  C   UNL     1     -20.895  -3.913  -8.636  1.00  0.00     0.000 C 
BRANCH  14  15
HETATM   15  C   UNL     1     -20.400  -4.401  -9.985  1.00  0.00     0.000 C 
BRANCH  15  16
HETATM   16  C   UNL     1     -20.774  -3.408 -11.074  1.00  0.00     0.000 C 
BRANCH  16  17
HETATM   17  C   UNL     1     -21.739  -4.063 -12.047  1.00  0.00     0.000 C 
BRANCH  17  18
HETATM   18  C   UNL     1     -22.870  -4.771 -11.311  1.00  0.00     0.004 C 
BRANCH  18  19
HETATM   19  C   UNL     1     -24.158  -3.934 -11.273  1.00  0.00    -0.023 C 
HETATM   20  C   UNL     1     -24.322  -3.310  -9.888  1.00  0.00     0.009 C 
HETATM   21  C   UNL     1     -24.171  -2.838 -12.341  1.00  0.00     0.009 C 
ENDBRANCH  18  19
ENDBRANCH  17  18
ENDBRANCH  16  17
ENDBRANCH  15  16
ENDBRANCH  14  15
ENDBRANCH  13  14
ENDBRANCH  12  13
ENDBRANCH  11  12
ENDBRANCH  10  11
ENDBRANCH   9  10
ENDBRANCH   8   9
ENDBRANCH   7   8
ENDBRANCH   6   7
ENDBRANCH   5   6
ENDBRANCH   3   5
ENDBRANCH   2   3
ENDBRANCH   1   2
BRANCH   1  22
HETATM   22  C   UNL     1     -16.103 -13.345  -0.788  1.00  0.00     0.160 C 
BRANCH  22  23
HETATM   23  C   UNL     1     -16.374 -12.338   0.302  1.00  0.00     0.262 C 
HETATM   24  O   UNL     1     -15.547 -11.581   0.762  1.00  0.00    -0.265 OA
BRANCH  23  25
HETATM   25  O   UNL     1     -17.629 -12.500   0.800  1.00  0.00    -0.321 OA
BRANCH  25  26
HETATM   26  C   UNL     1     -18.128 -13.841   0.672  1.00  0.00     0.178 C 
BRANCH  26  27
HETATM   27  C   UNL     1     -19.612 -13.870   0.364  1.00  0.00     0.027 C 
BRANCH  27  28
HETATM   28  C   UNL     1     -20.256 -15.068   1.057  1.00  0.00     0.002 C 
BRANCH  28  29
HETATM   29  C   UNL     1     -21.709 -14.779   1.405  1.00  0.00     0.000 C 
BRANCH  29  30
HETATM   30  C   UNL     1     -21.951 -13.281   1.524  1.00  0.00     0.000 C 
BRANCH  30  31
HETATM   31  C   UNL     1     -23.315 -12.919   0.956  1.00  0.00     0.000 C 
BRANCH  31  32
HETATM   32  C   UNL     1     -23.701 -13.883  -0.155  1.00  0.00     0.000 C 
BRANCH  32  33
HETATM   33  C   UNL     1     -23.619 -13.191  -1.506  1.00  0.00     0.000 C 
BRANCH  33  34
HETATM   34  C   UNL     1     -23.740 -11.686  -1.328  1.00  0.00     0.000 C 
BRANCH  34  35
HETATM   35  C   UNL     1     -22.751 -10.970  -2.231  1.00  0.00     0.000 C 
BRANCH  35  36
HETATM   36  C   UNL     1     -21.326 -11.220  -1.760  1.00  0.00     0.000 C 
BRANCH  36  37
HETATM   37  C   UNL     1     -21.024 -10.328  -0.565  1.00  0.00     0.000 C 
BRANCH  37  38
HETATM   38  C   UNL     1     -20.970  -8.860  -0.972  1.00  0.00     0.004 C 
BRANCH  38  39
HETATM   39  C   UNL     1     -22.222  -8.086  -0.531  1.00  0.00    -0.023 C 
HETATM   40  C   UNL     1     -22.262  -7.866   0.983  1.00  0.00     0.009 C 
HETATM   41  C   UNL     1     -22.272  -6.742  -1.254  1.00  0.00     0.009 C 
ENDBRANCH  38  39
ENDBRANCH  37  38
ENDBRANCH  36  37
ENDBRANCH  35  36
ENDBRANCH  34  35
ENDBRANCH  33  34
ENDBRANCH  32  33
ENDBRANCH  31  32
ENDBRANCH  30  31
ENDBRANCH  29  30
ENDBRANCH  28  29
ENDBRANCH  27  28
ENDBRANCH  26  27
ENDBRANCH  25  26
ENDBRANCH  23  25
ENDBRANCH  22  23
ENDBRANCH   1  22
BRANCH   1  42
HETATM   42  C   UNL     1     -16.569 -13.798  -3.245  1.00  0.00     0.294 C 
HETATM   43  O   UNL     1     -17.713 -14.108  -3.549  1.00  0.00    -0.262 OA
BRANCH  42  44
HETATM   44  O   UNL     1     -15.438 -14.351  -3.776  1.00  0.00    -0.319 OA
BRANCH  44  45
HETATM   45  C   UNL     1     -15.601 -15.522  -4.594  1.00  0.00     0.178 C 
BRANCH  45  46
HETATM   46  C   UNL     1     -14.640 -15.491  -5.772  1.00  0.00     0.027 C 
BRANCH  46  47
HETATM   47  C   UNL     1     -13.400 -14.669  -5.427  1.00  0.00     0.002 C 
BRANCH  47  48
HETATM   48  C   UNL     1     -13.239 -13.479  -6.365  1.00  0.00     0.000 C 
BRANCH  48  49
HETATM   49  C   UNL     1     -13.298 -12.177  -5.578  1.00  0.00     0.000 C 
BRANCH  49  50
HETATM   50  C   UNL     1     -14.657 -11.509  -5.734  1.00  0.00     0.000 C 
BRANCH  50  51
HETATM   51  C   UNL     1     -15.344 -12.000  -7.001  1.00  0.00     0.000 C 
BRANCH  51  52
HETATM   52  C   UNL     1     -16.772 -12.425  -6.698  1.00  0.00     0.000 C 
BRANCH  52  53
HETATM   53  C   UNL     1     -17.348 -13.196  -7.875  1.00  0.00     0.000 C 
BRANCH  53  54
HETATM   54  C   UNL     1     -18.593 -12.500  -8.396  1.00  0.00     0.000 C 
BRANCH  54  55
HETATM   55  C   UNL     1     -19.714 -13.506  -8.614  1.00  0.00     0.000 C 
BRANCH  55  56
HETATM   56  C   UNL     1     -19.988 -14.250  -7.316  1.00  0.00     0.000 C 
BRANCH  56  57
HETATM   57  C   UNL     1     -21.432 -14.064  -6.867  1.00  0.00     0.004 C 
BRANCH  57  58
HETATM   58  C   UNL     1     -21.596 -12.882  -5.900  1.00  0.00    -0.023 C 
HETATM   59  C   UNL     1     -20.381 -12.709  -4.986  1.00  0.00     0.009 C 
HETATM   60  C   UNL     1     -21.833 -11.599  -6.696  1.00  0.00     0.009 C 
ENDBRANCH  57  58
ENDBRANCH  56  57
ENDBRANCH  55  56
ENDBRANCH  54  55
ENDBRANCH  53  54
ENDBRANCH  52  53
ENDBRANCH  51  52
ENDBRANCH  50  51
ENDBRANCH  49  50
ENDBRANCH  48  49
ENDBRANCH  47  48
ENDBRANCH  46  47
ENDBRANCH  45  46
ENDBRANCH  44  45
ENDBRANCH  42  44
ENDBRANCH   1  42
BRANCH   1  61
HETATM   61  O   UNL     1     -14.934 -12.285  -2.627  1.00  0.00    -0.379 OA
HETATM   62  H   UNL     1     -14.741 -11.450  -2.163  1.00  0.00     0.211 HD
ENDBRANCH   1  61
TORSDOF 51
ENDMDL
MODEL 5
REMARK VINA RESULT:      -6.2      2.328     12.282
REMARK WARNING: 32 MAX_TORS EXCEEDED!!!
REMARK  51 active torsions:
REMARK  status: ('A' for Active; 'I' for Inactive)
REMARK    1  A    between atoms: C_2  and  C_4 
REMARK    2  A    between atoms: C_4  and  C_5 
REMARK    3  A    between atoms: C_5  and  C_6 
REMARK    4  A    between atoms: C_6  and  C_7 
REMARK    5  A    between atoms: C_7  and  C_8 
REMARK    6  A    between atoms: C_8  and  C_9 
REMARK    7  A    between atoms: C_9  and  C_10 
REMARK    8  A    between atoms: C_10  and  C_11 
REMARK    9  A    between atoms: C_11  and  C_12 
REMARK   10  A    between atoms: C_12  and  C_13 
REMARK   11  A    between atoms: C_13  and  C_14 
REMARK   12  A    between atoms: C_14  and  C_15 
REMARK   13  A    between atoms: C_15  and  C_16 
REMARK   14  A    between atoms: C_16  and  O_17 
REMARK   15  A    between atoms: O_17  and  C_18 
REMARK   16  A    between atoms: C_18  and  C_20 
REMARK   17  A    between atoms: C_20  and  C_21 
REMARK   18  A    between atoms: C_21  and  C_22 
REMARK   19  A    between atoms: C_21  and  C_42 
REMARK   20  A    between atoms: C_21  and  O_61 
REMARK   21  A    between atoms: C_22  and  C_23 
REMARK   22  A    between atoms: C_23  and  O_25 
REMARK   23  A    between atoms: O_25  and  C_26 
REMARK   24  A    between atoms: C_26  and  C_27 
REMARK   25  A    between atoms: C_27  and  C_28 
REMARK   26  A    between atoms: C_28  and  C_29 
REMARK   27  A    between atoms: C_29  and  C_30 
REMARK   28  A    between atoms: C_30  and  C_31 
REMARK   29  A    between atoms: C_31  and  C_32 
REMARK   30  A    between atoms: C_32  and  C_33 
REMARK   31  A    between atoms: C_33  and  C_34 
REMARK   32  A    between atoms: C_34  and  C_35 
REMARK   33  A    between atoms: C_35  and  C_36 
REMARK   34  A    between atoms: C_36  and  C_37 
REMARK   35  A    between atoms: C_37  and  C_38 
REMARK   36  A    between atoms: C_38  and  C_39 
REMARK   37  A    between atoms: C_42  and  O_44 
REMARK   38  A    between atoms: O_44  and  C_45 
REMARK   39  A    between atoms: C_45  and  C_46 
REMARK   40  A    between atoms: C_46  and  C_47 
REMARK   41  A    between atoms: C_47  and  C_48 
REMARK   42  A    between atoms: C_48  and  C_49 
REMARK   43  A    between atoms: C_49  and  C_50 
REMARK   44  A    between atoms: C_50  and  C_51 
REMARK   45  A    between atoms: C_51  and  C_52 
REMARK   46  A    between atoms: C_52  and  C_53 
REMARK   47  A    between atoms: C_53  and  C_54 
REMARK   48  A    between atoms: C_54  and  C_55 
REMARK   49  A    between atoms: C_55  and  C_56 
REMARK   50  A    between atoms: C_56  and  C_57 
REMARK   51  A    between atoms: C_57  and  C_58 
ROOT
HETATM    1  C   UNL     1     -16.568 -11.919  -1.630  1.00  0.00     0.162 C 
ENDROOT
BRANCH   1   2
HETATM    2  C   UNL     1     -17.861 -12.012  -0.791  1.00  0.00     0.160 C 
BRANCH   2   3
HETATM    3  C   UNL     1     -18.741 -13.164  -1.182  1.00  0.00     0.262 C 
HETATM    4  O   UNL     1     -19.729 -13.100  -1.897  1.00  0.00    -0.265 OA
BRANCH   3   5
HETATM    5  O   UNL     1     -18.323 -14.295  -0.541  1.00  0.00    -0.321 OA
BRANCH   5   6
HETATM    6  C   UNL     1     -19.261 -14.768   0.426  1.00  0.00     0.178 C 
BRANCH   6   7
HETATM    7  C   UNL     1     -19.876 -16.092   0.021  1.00  0.00     0.027 C 
BRANCH   7   8
HETATM    8  C   UNL     1     -20.935 -16.471   1.051  1.00  0.00     0.002 C 
BRANCH   8   9
HETATM    9  C   UNL     1     -20.390 -16.307   2.455  1.00  0.00     0.000 C 
BRANCH   9  10
HETATM   10  C   UNL     1     -21.527 -16.225   3.461  1.00  0.00     0.000 C 
BRANCH  10  11
HETATM   11  C   UNL     1     -22.840 -16.008   2.730  1.00  0.00     0.000 C 
BRANCH  11  12
HETATM   12  C   UNL     1     -23.462 -14.688   3.151  1.00  0.00     0.000 C 
BRANCH  12  13
HETATM   13  C   UNL     1     -23.589 -13.769   1.949  1.00  0.00     0.000 C 
BRANCH  13  14
HETATM   14  C   UNL     1     -22.259 -13.090   1.676  1.00  0.00     0.000 C 
BRANCH  14  15
HETATM   15  C   UNL     1     -22.302 -12.378   0.337  1.00  0.00     0.000 C 
BRANCH  15  16
HETATM   16  C   UNL     1     -23.691 -11.814   0.084  1.00  0.00     0.000 C 
BRANCH  16  17
HETATM   17  C   UNL     1     -23.593 -10.639  -0.874  1.00  0.00     0.000 C 
BRANCH  17  18
HETATM   18  C   UNL     1     -22.271  -9.900  -0.709  1.00  0.00     0.004 C 
BRANCH  18  19
HETATM   19  C   UNL     1     -22.384  -8.705   0.250  1.00  0.00    -0.023 C 
HETATM   20  C   UNL     1     -21.148  -8.648   1.146  1.00  0.00     0.009 C 
HETATM   21  C   UNL     1     -22.549  -7.377  -0.493  1.00  0.00     0.009 C 
ENDBRANCH  18  19
ENDBRANCH  17  18
ENDBRANCH  16  17
ENDBRANCH  15  16
ENDBRANCH  14  15
ENDBRANCH  13  14
ENDBRANCH  12  13
ENDBRANCH  11  12
ENDBRANCH  10  11
ENDBRANCH   9  10
ENDBRANCH   8   9
ENDBRANCH   7   8
ENDBRANCH   6   7
ENDBRANCH   5   6
ENDBRANCH   3   5
ENDBRANCH   2   3
ENDBRANCH   1   2
BRANCH   1  22
HETATM   22  C   UNL     1     -16.189 -10.505  -2.116  1.00  0.00     0.160 C 
BRANCH  22  23
HETATM   23  C   UNL     1     -16.687 -10.216  -3.509  1.00  0.00     0.262 C 
HETATM   24  O   UNL     1     -16.183 -10.643  -4.525  1.00  0.00    -0.265 OA
BRANCH  23  25
HETATM   25  O   UNL     1     -17.685  -9.291  -3.476  1.00  0.00    -0.321 OA
BRANCH  25  26
HETATM   26  C   UNL     1     -19.000  -9.868  -3.468  1.00  0.00     0.178 C 
BRANCH  26  27
HETATM   27  C   UNL     1     -19.815  -9.445  -4.675  1.00  0.00     0.027 C 
BRANCH  27  28
HETATM   28  C   UNL     1     -21.191  -8.962  -4.221  1.00  0.00     0.002 C 
BRANCH  28  29
HETATM   29  C   UNL     1     -21.230  -7.444  -4.123  1.00  0.00     0.000 C 
BRANCH  29  30
HETATM   30  C   UNL     1     -22.426  -6.881  -4.877  1.00  0.00     0.000 C 
BRANCH  30  31
HETATM   31  C   UNL     1     -22.002  -5.699  -5.734  1.00  0.00     0.000 C 
BRANCH  31  32
HETATM   32  C   UNL     1     -20.514  -5.430  -5.571  1.00  0.00     0.000 C 
BRANCH  32  33
HETATM   33  C   UNL     1     -19.779  -5.724  -6.869  1.00  0.00     0.000 C 
BRANCH  33  34
HETATM   34  C   UNL     1     -18.959  -4.515  -7.288  1.00  0.00     0.000 C 
BRANCH  34  35
HETATM   35  C   UNL     1     -19.610  -3.824  -8.473  1.00  0.00     0.000 C 
BRANCH  35  36
HETATM   36  C   UNL     1     -20.205  -4.852  -9.424  1.00  0.00     0.000 C 
BRANCH  36  37
HETATM   37  C   UNL     1     -20.541  -4.182 -10.748  1.00  0.00     0.000 C 
BRANCH  37  38
HETATM   38  C   UNL     1     -21.907  -3.507 -10.694  1.00  0.00     0.004 C 
BRANCH  38  39
HETATM   39  C   UNL     1     -23.010  -4.371 -11.323  1.00  0.00    -0.023 C 
HETATM   40  C   UNL     1     -23.994  -4.903 -10.279  1.00  0.00     0.009 C 
HETATM   41  C   UNL     1     -23.759  -3.556 -12.376  1.00  0.00     0.009 C 
ENDBRANCH  38  39
ENDBRANCH  37  38
ENDBRANCH  36  37
ENDBRANCH  35  36
ENDBRANCH  34  35
ENDBRANCH  33  34
ENDBRANCH  32  33
ENDBRANCH  31  32
ENDBRANCH  30  31
ENDBRANCH  29  30
ENDBRANCH  28  29
ENDBRANCH  27  28
ENDBRANCH  26  27
ENDBRANCH  25  26
ENDBRANCH  23  25
ENDBRANCH  22  23
ENDBRANCH   1  22
BRANCH   1  42
HETATM   42  C   UNL     1     -15.424 -12.585  -0.869  1.00  0.00     0.294 C 
HETATM   43  O   UNL     1     -14.755 -13.507  -1.318  1.00  0.00    -0.262 OA
BRANCH  42  44
HETATM   44  O   UNL     1     -15.261 -12.024   0.366  1.00  0.00    -0.319 OA
BRANCH  44  45
HETATM   45  C   UNL     1     -14.830 -12.890   1.428  1.00  0.00     0.178 C 
BRANCH  45  46
HETATM   46  C   UNL     1     -16.027 -13.473   2.164  1.00  0.00     0.027 C 
BRANCH  46  47
HETATM   47  C   UNL     1     -15.771 -14.933   2.527  1.00  0.00     0.002 C 
BRANCH  47  48
HETATM   48  C   UNL     1     -15.137 -15.064   3.907  1.00  0.00     0.000 C 
BRANCH  48  49
HETATM   49  C   UNL     1     -14.032 -16.111   3.881  1.00  0.00     0.000 C 
BRANCH  49  50
HETATM   50  C   UNL     1     -13.612 -16.422   2.451  1.00  0.00     0.000 C 
BRANCH  50  51
HETATM   51  C   UNL     1     -12.157 -16.868   2.412  1.00  0.00     0.000 C 
BRANCH  51  52
HETATM   52  C   UNL     1     -11.436 -16.221   1.241  1.00  0.00     0.000 C 
BRANCH  52  53
HETATM   53  C   UNL     1     -11.525 -14.706   1.344  1.00  0.00     0.000 C 
BRANCH  53  54
HETATM   54  C   UNL     1     -10.202 -14.076   0.949  1.00  0.00     0.000 C 
BRANCH  54  55
HETATM   55  C   UNL     1      -9.515 -13.475   2.167  1.00  0.00     0.000 C 
BRANCH  55  56
HETATM   56  C   UNL     1      -8.250 -14.260   2.476  1.00  0.00     0.000 C 
BRANCH  56  57
HETATM   57  C   UNL     1      -8.144 -14.574   3.963  1.00  0.00     0.004 C 
BRANCH  57  58
HETATM   58  C   UNL     1      -9.390 -14.131   4.745  1.00  0.00    -0.023 C 
HETATM   59  C   UNL     1     -10.283 -15.313   5.129  1.00  0.00     0.009 C 
HETATM   60  C   UNL     1      -8.963 -13.373   6.001  1.00  0.00     0.009 C 
ENDBRANCH  57  58
ENDBRANCH  56  57
ENDBRANCH  55  56
ENDBRANCH  54  55
ENDBRANCH  53  54
ENDBRANCH  52  53
ENDBRANCH  51  52
ENDBRANCH  50  51
ENDBRANCH  49  50
ENDBRANCH  48  49
ENDBRANCH  47  48
ENDBRANCH  46  47
ENDBRANCH  45  46
ENDBRANCH  44  45
ENDBRANCH  42  44
ENDBRANCH   1  42
BRANCH   1  61
HETATM   61  O   UNL     1     -16.726 -12.776  -2.770  1.00  0.00    -0.379 OA
HETATM   62  H   UNL     1     -17.407 -13.440  -2.554  1.00  0.00     0.211 HD
ENDBRANCH   1  61
TORSDOF 51
ENDMDL
MODEL 6
REMARK VINA RESULT:      -6.2      1.283      2.058
REMARK WARNING: 32 MAX_TORS EXCEEDED!!!
REMARK  51 active torsions:
REMARK  status: ('A' for Active; 'I' for Inactive)
REMARK    1  A    between atoms: C_2  and  C_4 
REMARK    2  A    between atoms: C_4  and  C_5 
REMARK    3  A    between atoms: C_5  and  C_6 
REMARK    4  A    between atoms: C_6  and  C_7 
REMARK    5  A    between atoms: C_7  and  C_8 
REMARK    6  A    between atoms: C_8  and  C_9 
REMARK    7  A    between atoms: C_9  and  C_10 
REMARK    8  A    between atoms: C_10  and  C_11 
REMARK    9  A    between atoms: C_11  and  C_12 
REMARK   10  A    between atoms: C_12  and  C_13 
REMARK   11  A    between atoms: C_13  and  C_14 
REMARK   12  A    between atoms: C_14  and  C_15 
REMARK   13  A    between atoms: C_15  and  C_16 
REMARK   14  A    between atoms: C_16  and  O_17 
REMARK   15  A    between atoms: O_17  and  C_18 
REMARK   16  A    between atoms: C_18  and  C_20 
REMARK   17  A    between atoms: C_20  and  C_21 
REMARK   18  A    between atoms: C_21  and  C_22 
REMARK   19  A    between atoms: C_21  and  C_42 
REMARK   20  A    between atoms: C_21  and  O_61 
REMARK   21  A    between atoms: C_22  and  C_23 
REMARK   22  A    between atoms: C_23  and  O_25 
REMARK   23  A    between atoms: O_25  and  C_26 
REMARK   24  A    between atoms: C_26  and  C_27 
REMARK   25  A    between atoms: C_27  and  C_28 
REMARK   26  A    between atoms: C_28  and  C_29 
REMARK   27  A    between atoms: C_29  and  C_30 
REMARK   28  A    between atoms: C_30  and  C_31 
REMARK   29  A    between atoms: C_31  and  C_32 
REMARK   30  A    between atoms: C_32  and  C_33 
REMARK   31  A    between atoms: C_33  and  C_34 
REMARK   32  A    between atoms: C_34  and  C_35 
REMARK   33  A    between atoms: C_35  and  C_36 
REMARK   34  A    between atoms: C_36  and  C_37 
REMARK   35  A    between atoms: C_37  and  C_38 
REMARK   36  A    between atoms: C_38  and  C_39 
REMARK   37  A    between atoms: C_42  and  O_44 
REMARK   38  A    between atoms: O_44  and  C_45 
REMARK   39  A    between atoms: C_45  and  C_46 
REMARK   40  A    between atoms: C_46  and  C_47 
REMARK   41  A    between atoms: C_47  and  C_48 
REMARK   42  A    between atoms: C_48  and  C_49 
REMARK   43  A    between atoms: C_49  and  C_50 
REMARK   44  A    between atoms: C_50  and  C_51 
REMARK   45  A    between atoms: C_51  and  C_52 
REMARK   46  A    between atoms: C_52  and  C_53 
REMARK   47  A    between atoms: C_53  and  C_54 
REMARK   48  A    between atoms: C_54  and  C_55 
REMARK   49  A    between atoms: C_55  and  C_56 
REMARK   50  A    between atoms: C_56  and  C_57 
REMARK   51  A    between atoms: C_57  and  C_58 
ROOT
HETATM    1  C   UNL     1     -16.593 -11.100  -5.067  1.00  0.00     0.162 C 
ENDROOT
BRANCH   1   2
HETATM    2  C   UNL     1     -15.597 -11.535  -6.164  1.00  0.00     0.160 C 
BRANCH   2   3
HETATM    3  C   UNL     1     -14.443 -12.337  -5.634  1.00  0.00     0.262 C 
HETATM    4  O   UNL     1     -13.301 -11.933  -5.481  1.00  0.00    -0.265 OA
BRANCH   3   5
HETATM    5  O   UNL     1     -14.841 -13.627  -5.429  1.00  0.00    -0.321 OA
BRANCH   5   6
HETATM    6  C   UNL     1     -13.831 -14.433  -4.821  1.00  0.00     0.178 C 
BRANCH   6   7
HETATM    7  C   UNL     1     -13.993 -14.508  -3.316  1.00  0.00     0.027 C 
BRANCH   7   8
HETATM    8  C   UNL     1     -12.679 -14.092  -2.664  1.00  0.00     0.002 C 
BRANCH   8   9
HETATM    9  C   UNL     1     -12.644 -14.536  -1.216  1.00  0.00     0.000 C 
BRANCH   9  10
HETATM   10  C   UNL     1     -13.993 -15.099  -0.799  1.00  0.00     0.000 C 
BRANCH  10  11
HETATM   11  C   UNL     1     -13.809 -16.049   0.371  1.00  0.00     0.000 C 
BRANCH  11  12
HETATM   12  C   UNL     1     -13.037 -15.365   1.485  1.00  0.00     0.000 C 
BRANCH  12  13
HETATM   13  C   UNL     1     -13.811 -15.462   2.787  1.00  0.00     0.000 C 
BRANCH  13  14
HETATM   14  C   UNL     1     -12.943 -16.100   3.857  1.00  0.00     0.000 C 
BRANCH  14  15
HETATM   15  C   UNL     1     -11.490 -16.096   3.421  1.00  0.00     0.000 C 
BRANCH  15  16
HETATM   16  C   UNL     1     -10.590 -15.733   4.592  1.00  0.00     0.000 C 
BRANCH  16  17
HETATM   17  C   UNL     1      -9.209 -15.370   4.074  1.00  0.00     0.000 C 
BRANCH  17  18
HETATM   18  C   UNL     1      -9.170 -13.934   3.563  1.00  0.00     0.004 C 
BRANCH  18  19
HETATM   19  C   UNL     1      -8.801 -13.852   2.074  1.00  0.00    -0.023 C 
HETATM   20  C   UNL     1      -8.353 -15.227   1.582  1.00  0.00     0.009 C 
HETATM   21  C   UNL     1      -9.961 -13.346   1.215  1.00  0.00     0.009 C 
ENDBRANCH  18  19
ENDBRANCH  17  18
ENDBRANCH  16  17
ENDBRANCH  15  16
ENDBRANCH  14  15
ENDBRANCH  13  14
ENDBRANCH  12  13
ENDBRANCH  11  12
ENDBRANCH  10  11
ENDBRANCH   9  10
ENDBRANCH   8   9
ENDBRANCH   7   8
ENDBRANCH   6   7
ENDBRANCH   5   6
ENDBRANCH   3   5
ENDBRANCH   2   3
ENDBRANCH   1   2
BRANCH   1  22
HETATM   22  C   UNL     1     -16.063 -10.058  -4.061  1.00  0.00     0.160 C 
BRANCH  22  23
HETATM   23  C   UNL     1     -16.557 -10.302  -2.657  1.00  0.00     0.262 C 
HETATM   24  O   UNL     1     -17.679 -10.060  -2.269  1.00  0.00    -0.265 OA
BRANCH  23  25
HETATM   25  O   UNL     1     -15.530 -10.687  -1.850  1.00  0.00    -0.321 OA
BRANCH  25  26
HETATM   26  C   UNL     1     -15.726 -11.977  -1.250  1.00  0.00     0.178 C 
BRANCH  26  27
HETATM   27  C   UNL     1     -15.850 -11.890   0.258  1.00  0.00     0.027 C 
BRANCH  27  28
HETATM   28  C   UNL     1     -17.154 -12.549   0.704  1.00  0.00     0.002 C 
BRANCH  28  29
HETATM   29  C   UNL     1     -17.791 -13.323  -0.440  1.00  0.00     0.000 C 
BRANCH  29  30
HETATM   30  C   UNL     1     -19.230 -12.877  -0.662  1.00  0.00     0.000 C 
BRANCH  30  31
HETATM   31  C   UNL     1     -20.181 -13.738   0.156  1.00  0.00     0.000 C 
BRANCH  31  32
HETATM   32  C   UNL     1     -21.042 -12.868   1.059  1.00  0.00     0.000 C 
BRANCH  32  33
HETATM   33  C   UNL     1     -22.213 -13.670   1.605  1.00  0.00     0.000 C 
BRANCH  33  34
HETATM   34  C   UNL     1     -23.525 -13.052   1.148  1.00  0.00     0.000 C 
BRANCH  34  35
HETATM   35  C   UNL     1     -23.362 -12.435  -0.229  1.00  0.00     0.000 C 
BRANCH  35  36
HETATM   36  C   UNL     1     -23.918 -11.018  -0.245  1.00  0.00     0.000 C 
BRANCH  36  37
HETATM   37  C   UNL     1     -23.067 -10.151  -1.160  1.00  0.00     0.000 C 
BRANCH  37  38
HETATM   38  C   UNL     1     -21.649 -10.004  -0.620  1.00  0.00     0.004 C 
BRANCH  38  39
HETATM   39  C   UNL     1     -21.367  -8.589  -0.093  1.00  0.00    -0.023 C 
HETATM   40  C   UNL     1     -22.556  -7.648  -0.301  1.00  0.00     0.009 C 
HETATM   41  C   UNL     1     -21.011  -8.658   1.391  1.00  0.00     0.009 C 
ENDBRANCH  38  39
ENDBRANCH  37  38
ENDBRANCH  36  37
ENDBRANCH  35  36
ENDBRANCH  34  35
ENDBRANCH  33  34
ENDBRANCH  32  33
ENDBRANCH  31  32
ENDBRANCH  30  31
ENDBRANCH  29  30
ENDBRANCH  28  29
ENDBRANCH  27  28
ENDBRANCH  26  27
ENDBRANCH  25  26
ENDBRANCH  23  25
ENDBRANCH  22  23
ENDBRANCH   1  22
BRANCH   1  42
HETATM   42  C   UNL     1     -17.897 -10.647  -5.719  1.00  0.00     0.294 C 
HETATM   43  O   UNL     1     -17.970  -9.729  -6.526  1.00  0.00    -0.262 OA
BRANCH  42  44
HETATM   44  O   UNL     1     -18.955 -11.389  -5.276  1.00  0.00    -0.319 OA
BRANCH  44  45
HETATM   45  C   UNL     1     -20.209 -11.215  -5.954  1.00  0.00     0.178 C 
BRANCH  45  46
HETATM   46  C   UNL     1     -21.271 -10.704  -4.992  1.00  0.00     0.027 C 
BRANCH  46  47
HETATM   47  C   UNL     1     -20.845  -9.369  -4.388  1.00  0.00     0.002 C 
BRANCH  47  48
HETATM   48  C   UNL     1     -21.251  -8.198  -5.275  1.00  0.00     0.000 C 
BRANCH  48  49
HETATM   49  C   UNL     1     -21.749  -7.040  -4.421  1.00  0.00     0.000 C 
BRANCH  49  50
HETATM   50  C   UNL     1     -21.273  -5.707  -4.982  1.00  0.00     0.000 C 
BRANCH  50  51
HETATM   51  C   UNL     1     -20.471  -5.927  -6.257  1.00  0.00     0.000 C 
BRANCH  51  52
HETATM   52  C   UNL     1     -19.427  -4.833  -6.421  1.00  0.00     0.000 C 
BRANCH  52  53
HETATM   53  C   UNL     1     -19.442  -4.307  -7.848  1.00  0.00     0.000 C 
BRANCH  53  54
HETATM   54  C   UNL     1     -20.645  -4.856  -8.595  1.00  0.00     0.000 C 
BRANCH  54  55
HETATM   55  C   UNL     1     -20.508  -4.596 -10.088  1.00  0.00     0.000 C 
BRANCH  55  56
HETATM   56  C   UNL     1     -21.540  -3.566 -10.521  1.00  0.00     0.000 C 
BRANCH  56  57
HETATM   57  C   UNL     1     -22.304  -4.034 -11.753  1.00  0.00     0.004 C 
BRANCH  57  58
HETATM   58  C   UNL     1     -23.826  -3.939 -11.569  1.00  0.00    -0.023 C 
HETATM   59  C   UNL     1     -24.213  -3.532 -10.145  1.00  0.00     0.009 C 
HETATM   60  C   UNL     1     -24.402  -2.938 -12.570  1.00  0.00     0.009 C 
ENDBRANCH  57  58
ENDBRANCH  56  57
ENDBRANCH  55  56
ENDBRANCH  54  55
ENDBRANCH  53  54
ENDBRANCH  52  53
ENDBRANCH  51  52
ENDBRANCH  50  51
ENDBRANCH  49  50
ENDBRANCH  48  49
ENDBRANCH  47  48
ENDBRANCH  46  47
ENDBRANCH  45  46
ENDBRANCH  44  45
ENDBRANCH  42  44
ENDBRANCH   1  42
BRANCH   1  61
HETATM   61  O   UNL     1     -16.994 -12.277  -4.351  1.00  0.00    -0.379 OA
HETATM   62  H   UNL     1     -17.584 -12.794  -4.929  1.00  0.00     0.211 HD
ENDBRANCH   1  61
TORSDOF 51
ENDMDL
MODEL 7
REMARK VINA RESULT:      -6.2      1.849     11.406
REMARK WARNING: 32 MAX_TORS EXCEEDED!!!
REMARK  51 active torsions:
REMARK  status: ('A' for Active; 'I' for Inactive)
REMARK    1  A    between atoms: C_2  and  C_4 
REMARK    2  A    between atoms: C_4  and  C_5 
REMARK    3  A    between atoms: C_5  and  C_6 
REMARK    4  A    between atoms: C_6  and  C_7 
REMARK    5  A    between atoms: C_7  and  C_8 
REMARK    6  A    between atoms: C_8  and  C_9 
REMARK    7  A    between atoms: C_9  and  C_10 
REMARK    8  A    between atoms: C_10  and  C_11 
REMARK    9  A    between atoms: C_11  and  C_12 
REMARK   10  A    between atoms: C_12  and  C_13 
REMARK   11  A    between atoms: C_13  and  C_14 
REMARK   12  A    between atoms: C_14  and  C_15 
REMARK   13  A    between atoms: C_15  and  C_16 
REMARK   14  A    between atoms: C_16  and  O_17 
REMARK   15  A    between atoms: O_17  and  C_18 
REMARK   16  A    between atoms: C_18  and  C_20 
REMARK   17  A    between atoms: C_20  and  C_21 
REMARK   18  A    between atoms: C_21  and  C_22 
REMARK   19  A    between atoms: C_21  and  C_42 
REMARK   20  A    between atoms: C_21  and  O_61 
REMARK   21  A    between atoms: C_22  and  C_23 
REMARK   22  A    between atoms: C_23  and  O_25 
REMARK   23  A    between atoms: O_25  and  C_26 
REMARK   24  A    between atoms: C_26  and  C_27 
REMARK   25  A    between atoms: C_27  and  C_28 
REMARK   26  A    between atoms: C_28  and  C_29 
REMARK   27  A    between atoms: C_29  and  C_30 
REMARK   28  A    between atoms: C_30  and  C_31 
REMARK   29  A    between atoms: C_31  and  C_32 
REMARK   30  A    between atoms: C_32  and  C_33 
REMARK   31  A    between atoms: C_33  and  C_34 
REMARK   32  A    between atoms: C_34  and  C_35 
REMARK   33  A    between atoms: C_35  and  C_36 
REMARK   34  A    between atoms: C_36  and  C_37 
REMARK   35  A    between atoms: C_37  and  C_38 
REMARK   36  A    between atoms: C_38  and  C_39 
REMARK   37  A    between atoms: C_42  and  O_44 
REMARK   38  A    between atoms: O_44  and  C_45 
REMARK   39  A    between atoms: C_45  and  C_46 
REMARK   40  A    between atoms: C_46  and  C_47 
REMARK   41  A    between atoms: C_47  and  C_48 
REMARK   42  A    between atoms: C_48  and  C_49 
REMARK   43  A    between atoms: C_49  and  C_50 
REMARK   44  A    between atoms: C_50  and  C_51 
REMARK   45  A    between atoms: C_51  and  C_52 
REMARK   46  A    between atoms: C_52  and  C_53 
REMARK   47  A    between atoms: C_53  and  C_54 
REMARK   48  A    between atoms: C_54  and  C_55 
REMARK   49  A    between atoms: C_55  and  C_56 
REMARK   50  A    between atoms: C_56  and  C_57 
REMARK   51  A    between atoms: C_57  and  C_58 
ROOT
HETATM    1  C   UNL     1     -20.134  -9.074  -2.828  1.00  0.00     0.162 C 
ENDROOT
BRANCH   1   2
HETATM    2  C   UNL     1     -20.085  -7.839  -1.902  1.00  0.00     0.160 C 
BRANCH   2   3
HETATM    3  C   UNL     1     -21.433  -7.441  -1.372  1.00  0.00     0.262 C 
HETATM    4  O   UNL     1     -22.145  -6.556  -1.819  1.00  0.00    -0.265 OA
BRANCH   3   5
HETATM    5  O   UNL     1     -21.712  -8.163  -0.247  1.00  0.00    -0.321 OA
BRANCH   5   6
HETATM    6  C   UNL     1     -23.034  -7.944   0.244  1.00  0.00     0.178 C 
BRANCH   6   7
HETATM    7  C   UNL     1     -23.770  -9.244   0.499  1.00  0.00     0.027 C 
BRANCH   7   8
HETATM    8  C   UNL     1     -23.062 -10.360  -0.262  1.00  0.00     0.002 C 
BRANCH   8   9
HETATM    9  C   UNL     1     -24.040 -11.463  -0.613  1.00  0.00     0.000 C 
BRANCH   9  10
HETATM   10  C   UNL     1     -23.563 -12.794  -0.056  1.00  0.00     0.000 C 
BRANCH  10  11
HETATM   11  C   UNL     1     -22.399 -12.563   0.892  1.00  0.00     0.000 C 
BRANCH  11  12
HETATM   12  C   UNL     1     -21.308 -13.589   0.642  1.00  0.00     0.000 C 
BRANCH  12  13
HETATM   13  C   UNL     1     -21.071 -13.740  -0.850  1.00  0.00     0.000 C 
BRANCH  13  14
HETATM   14  C   UNL     1     -20.531 -15.128  -1.148  1.00  0.00     0.000 C 
BRANCH  14  15
HETATM   15  C   UNL     1     -19.187 -15.322  -0.472  1.00  0.00     0.000 C 
BRANCH  15  16
HETATM   16  C   UNL     1     -18.105 -15.570  -1.512  1.00  0.00     0.000 C 
BRANCH  16  17
HETATM   17  C   UNL     1     -16.802 -14.945  -1.045  1.00  0.00     0.000 C 
BRANCH  17  18
HETATM   18  C   UNL     1     -16.977 -14.236   0.293  1.00  0.00     0.004 C 
BRANCH  18  19
HETATM   19  C   UNL     1     -15.877 -13.196   0.553  1.00  0.00    -0.023 C 
HETATM   20  C   UNL     1     -16.256 -11.873  -0.111  1.00  0.00     0.009 C 
HETATM   21  C   UNL     1     -15.627 -12.975   2.047  1.00  0.00     0.009 C 
ENDBRANCH  18  19
ENDBRANCH  17  18
ENDBRANCH  16  17
ENDBRANCH  15  16
ENDBRANCH  14  15
ENDBRANCH  13  14
ENDBRANCH  12  13
ENDBRANCH  11  12
ENDBRANCH  10  11
ENDBRANCH   9  10
ENDBRANCH   8   9
ENDBRANCH   7   8
ENDBRANCH   6   7
ENDBRANCH   5   6
ENDBRANCH   3   5
ENDBRANCH   2   3
ENDBRANCH   1   2
BRANCH   1  22
HETATM   22  C   UNL     1     -19.708  -8.829  -4.290  1.00  0.00     0.160 C 
BRANCH  22  23
HETATM   23  C   UNL     1     -20.714  -9.352  -5.284  1.00  0.00     0.262 C 
HETATM   24  O   UNL     1     -20.935 -10.525  -5.490  1.00  0.00    -0.265 OA
BRANCH  23  25
HETATM   25  O   UNL     1     -21.229  -8.331  -6.023  1.00  0.00    -0.321 OA
BRANCH  25  26
HETATM   26  C   UNL     1     -21.931  -7.354  -5.240  1.00  0.00     0.178 C 
BRANCH  26  27
HETATM   27  C   UNL     1     -21.760  -5.952  -5.791  1.00  0.00     0.027 C 
BRANCH  27  28
HETATM   28  C   UNL     1     -20.625  -5.246  -5.052  1.00  0.00     0.002 C 
BRANCH  28  29
HETATM   29  C   UNL     1     -19.717  -4.509  -6.025  1.00  0.00     0.000 C 
BRANCH  29  30
HETATM   30  C   UNL     1     -19.689  -5.209  -7.377  1.00  0.00     0.000 C 
BRANCH  30  31
HETATM   31  C   UNL     1     -19.786  -4.189  -8.501  1.00  0.00     0.000 C 
BRANCH  31  32
HETATM   32  C   UNL     1     -20.551  -4.769  -9.680  1.00  0.00     0.000 C 
BRANCH  32  33
HETATM   33  C   UNL     1     -20.129  -4.085 -10.971  1.00  0.00     0.000 C 
BRANCH  33  34
HETATM   34  C   UNL     1     -21.075  -2.936 -11.283  1.00  0.00     0.000 C 
BRANCH  34  35
HETATM   35  C   UNL     1     -21.925  -3.271 -12.495  1.00  0.00     0.000 C 
BRANCH  35  36
HETATM   36  C   UNL     1     -23.214  -2.462 -12.480  1.00  0.00     0.000 C 
BRANCH  36  37
HETATM   37  C   UNL     1     -24.347  -3.325 -11.948  1.00  0.00     0.000 C 
BRANCH  37  38
HETATM   38  C   UNL     1     -24.588  -3.067 -10.465  1.00  0.00     0.004 C 
BRANCH  38  39
HETATM   39  C   UNL     1     -24.490  -4.349  -9.625  1.00  0.00    -0.023 C 
HETATM   40  C   UNL     1     -23.940  -5.527 -10.431  1.00  0.00     0.009 C 
HETATM   41  C   UNL     1     -23.607  -4.095  -8.405  1.00  0.00     0.009 C 
ENDBRANCH  38  39
ENDBRANCH  37  38
ENDBRANCH  36  37
ENDBRANCH  35  36
ENDBRANCH  34  35
ENDBRANCH  33  34
ENDBRANCH  32  33
ENDBRANCH  31  32
ENDBRANCH  30  31
ENDBRANCH  29  30
ENDBRANCH  28  29
ENDBRANCH  27  28
ENDBRANCH  26  27
ENDBRANCH  25  26
ENDBRANCH  23  25
ENDBRANCH  22  23
ENDBRANCH   1  22
BRANCH   1  42
HETATM   42  C   UNL     1     -19.344 -10.214  -2.190  1.00  0.00     0.294 C 
HETATM   43  O   UNL     1     -19.559 -10.643  -1.063  1.00  0.00    -0.262 OA
BRANCH  42  44
HETATM   44  O   UNL     1     -18.372 -10.673  -3.033  1.00  0.00    -0.319 OA
BRANCH  44  45
HETATM   45  C   UNL     1     -18.339 -12.086  -3.290  1.00  0.00     0.178 C 
BRANCH  45  46
HETATM   46  C   UNL     1     -16.980 -12.500  -3.833  1.00  0.00     0.027 C 
BRANCH  46  47
HETATM   47  C   UNL     1     -16.386 -11.386  -4.690  1.00  0.00     0.002 C 
BRANCH  47  48
HETATM   48  C   UNL     1     -15.561 -11.944  -5.843  1.00  0.00     0.000 C 
BRANCH  48  49
HETATM   49  C   UNL     1     -14.075 -11.826  -5.532  1.00  0.00     0.000 C 
BRANCH  49  50
HETATM   50  C   UNL     1     -13.522 -13.147  -5.015  1.00  0.00     0.000 C 
BRANCH  50  51
HETATM   51  C   UNL     1     -13.236 -13.052  -3.523  1.00  0.00     0.000 C 
BRANCH  51  52
HETATM   52  C   UNL     1     -13.712 -14.309  -2.812  1.00  0.00     0.000 C 
BRANCH  52  53
HETATM   53  C   UNL     1     -12.572 -14.919  -2.011  1.00  0.00     0.000 C 
BRANCH  53  54
HETATM   54  C   UNL     1     -12.605 -14.407  -0.582  1.00  0.00     0.000 C 
BRANCH  54  55
HETATM   55  C   UNL     1     -11.262 -14.638   0.096  1.00  0.00     0.000 C 
BRANCH  55  56
HETATM   56  C   UNL     1     -11.160 -13.758   1.333  1.00  0.00     0.000 C 
BRANCH  56  57
HETATM   57  C   UNL     1      -9.780 -13.123   1.447  1.00  0.00     0.004 C 
BRANCH  57  58
HETATM   58  C   UNL     1      -8.840 -13.928   2.357  1.00  0.00    -0.023 C 
HETATM   59  C   UNL     1      -9.591 -14.632   3.489  1.00  0.00     0.009 C 
HETATM   60  C   UNL     1      -8.076 -14.956   1.523  1.00  0.00     0.009 C 
ENDBRANCH  57  58
ENDBRANCH  56  57
ENDBRANCH  55  56
ENDBRANCH  54  55
ENDBRANCH  53  54
ENDBRANCH  52  53
ENDBRANCH  51  52
ENDBRANCH  50  51
ENDBRANCH  49  50
ENDBRANCH  48  49
ENDBRANCH  47  48
ENDBRANCH  46  47
ENDBRANCH  45  46
ENDBRANCH  44  45
ENDBRANCH  42  44
ENDBRANCH   1  42
BRANCH   1  61
HETATM   61  O   UNL     1     -21.478  -9.577  -2.813  1.00  0.00    -0.379 OA
HETATM   62  H   UNL     1     -21.514 -10.353  -3.401  1.00  0.00     0.211 HD
ENDBRANCH   1  61
TORSDOF 51
ENDMDL
MODEL 8
REMARK VINA RESULT:      -6.0      3.501     10.699
REMARK WARNING: 32 MAX_TORS EXCEEDED!!!
REMARK  51 active torsions:
REMARK  status: ('A' for Active; 'I' for Inactive)
REMARK    1  A    between atoms: C_2  and  C_4 
REMARK    2  A    between atoms: C_4  and  C_5 
REMARK    3  A    between atoms: C_5  and  C_6 
REMARK    4  A    between atoms: C_6  and  C_7 
REMARK    5  A    between atoms: C_7  and  C_8 
REMARK    6  A    between atoms: C_8  and  C_9 
REMARK    7  A    between atoms: C_9  and  C_10 
REMARK    8  A    between atoms: C_10  and  C_11 
REMARK    9  A    between atoms: C_11  and  C_12 
REMARK   10  A    between atoms: C_12  and  C_13 
REMARK   11  A    between atoms: C_13  and  C_14 
REMARK   12  A    between atoms: C_14  and  C_15 
REMARK   13  A    between atoms: C_15  and  C_16 
REMARK   14  A    between atoms: C_16  and  O_17 
REMARK   15  A    between atoms: O_17  and  C_18 
REMARK   16  A    between atoms: C_18  and  C_20 
REMARK   17  A    between atoms: C_20  and  C_21 
REMARK   18  A    between atoms: C_21  and  C_22 
REMARK   19  A    between atoms: C_21  and  C_42 
REMARK   20  A    between atoms: C_21  and  O_61 
REMARK   21  A    between atoms: C_22  and  C_23 
REMARK   22  A    between atoms: C_23  and  O_25 
REMARK   23  A    between atoms: O_25  and  C_26 
REMARK   24  A    between atoms: C_26  and  C_27 
REMARK   25  A    between atoms: C_27  and  C_28 
REMARK   26  A    between atoms: C_28  and  C_29 
REMARK   27  A    between atoms: C_29  and  C_30 
REMARK   28  A    between atoms: C_30  and  C_31 
REMARK   29  A    between atoms: C_31  and  C_32 
REMARK   30  A    between atoms: C_32  and  C_33 
REMARK   31  A    between atoms: C_33  and  C_34 
REMARK   32  A    between atoms: C_34  and  C_35 
REMARK   33  A    between atoms: C_35  and  C_36 
REMARK   34  A    between atoms: C_36  and  C_37 
REMARK   35  A    between atoms: C_37  and  C_38 
REMARK   36  A    between atoms: C_38  and  C_39 
REMARK   37  A    between atoms: C_42  and  O_44 
REMARK   38  A    between atoms: O_44  and  C_45 
REMARK   39  A    between atoms: C_45  and  C_46 
REMARK   40  A    between atoms: C_46  and  C_47 
REMARK   41  A    between atoms: C_47  and  C_48 
REMARK   42  A    between atoms: C_48  and  C_49 
REMARK   43  A    between atoms: C_49  and  C_50 
REMARK   44  A    between atoms: C_50  and  C_51 
REMARK   45  A    between atoms: C_51  and  C_52 
REMARK   46  A    between atoms: C_52  and  C_53 
REMARK   47  A    between atoms: C_53  and  C_54 
REMARK   48  A    between atoms: C_54  and  C_55 
REMARK   49  A    between atoms: C_55  and  C_56 
REMARK   50  A    between atoms: C_56  and  C_57 
REMARK   51  A    between atoms: C_57  and  C_58 
ROOT
HETATM    1  C   UNL     1     -16.706 -12.691  -2.307  1.00  0.00     0.162 C 
ENDROOT
BRANCH   1   2
HETATM    2  C   UNL     1     -17.571 -11.502  -2.778  1.00  0.00     0.160 C 
BRANCH   2   3
HETATM    3  C   UNL     1     -16.772 -10.263  -3.062  1.00  0.00     0.262 C 
HETATM    4  O   UNL     1     -15.852  -9.832  -2.385  1.00  0.00    -0.265 OA
BRANCH   3   5
HETATM    5  O   UNL     1     -17.287  -9.629  -4.157  1.00  0.00    -0.321 OA
BRANCH   5   6
HETATM    6  C   UNL     1     -18.714  -9.653  -4.195  1.00  0.00     0.178 C 
BRANCH   6   7
HETATM    7  C   UNL     1     -19.273  -8.643  -5.177  1.00  0.00     0.027 C 
BRANCH   7   8
HETATM    8  C   UNL     1     -20.781  -8.850  -5.282  1.00  0.00     0.002 C 
BRANCH   8   9
HETATM    9  C   UNL     1     -21.491  -8.150  -4.142  1.00  0.00     0.000 C 
BRANCH   9  10
HETATM   10  C   UNL     1     -21.116  -6.677  -4.105  1.00  0.00     0.000 C 
BRANCH  10  11
HETATM   11  C   UNL     1     -21.630  -5.989  -5.358  1.00  0.00     0.000 C 
BRANCH  11  12
HETATM   12  C   UNL     1     -20.672  -4.891  -5.783  1.00  0.00     0.000 C 
BRANCH  12  13
HETATM   13  C   UNL     1     -19.690  -5.429  -6.809  1.00  0.00     0.000 C 
BRANCH  13  14
HETATM   14  C   UNL     1     -19.443  -4.385  -7.884  1.00  0.00     0.000 C 
BRANCH  14  15
HETATM   15  C   UNL     1     -20.753  -3.739  -8.294  1.00  0.00     0.000 C 
BRANCH  15  16
HETATM   16  C   UNL     1     -21.310  -4.419  -9.535  1.00  0.00     0.000 C 
BRANCH  16  17
HETATM   17  C   UNL     1     -20.960  -3.595 -10.762  1.00  0.00     0.000 C 
BRANCH  17  18
HETATM   18  C   UNL     1     -21.810  -4.000 -11.961  1.00  0.00     0.004 C 
BRANCH  18  19
HETATM   19  C   UNL     1     -22.827  -2.917 -12.351  1.00  0.00    -0.023 C 
HETATM   20  C   UNL     1     -22.930  -2.836 -13.873  1.00  0.00     0.009 C 
HETATM   21  C   UNL     1     -24.210  -3.174 -11.749  1.00  0.00     0.009 C 
ENDBRANCH  18  19
ENDBRANCH  17  18
ENDBRANCH  16  17
ENDBRANCH  15  16
ENDBRANCH  14  15
ENDBRANCH  13  14
ENDBRANCH  12  13
ENDBRANCH  11  12
ENDBRANCH  10  11
ENDBRANCH   9  10
ENDBRANCH   8   9
ENDBRANCH   7   8
ENDBRANCH   6   7
ENDBRANCH   5   6
ENDBRANCH   3   5
ENDBRANCH   2   3
ENDBRANCH   1   2
BRANCH   1  22
HETATM   22  C   UNL     1     -16.951 -13.162  -0.859  1.00  0.00     0.160 C 
BRANCH  22  23
HETATM   23  C   UNL     1     -16.807 -12.046   0.146  1.00  0.00     0.262 C 
HETATM   24  O   UNL     1     -15.750 -11.605   0.541  1.00  0.00    -0.265 OA
BRANCH  23  25
HETATM   25  O   UNL     1     -18.021 -11.709   0.661  1.00  0.00    -0.321 OA
BRANCH  25  26
HETATM   26  C   UNL     1     -19.047 -12.676   0.390  1.00  0.00     0.178 C 
BRANCH  26  27
HETATM   27  C   UNL     1     -20.329 -12.026  -0.093  1.00  0.00     0.027 C 
BRANCH  27  28
HETATM   28  C   UNL     1     -20.464 -10.636   0.525  1.00  0.00     0.002 C 
BRANCH  28  29
HETATM   29  C   UNL     1     -20.816  -9.601  -0.533  1.00  0.00     0.000 C 
BRANCH  29  30
HETATM   30  C   UNL     1     -22.191  -9.877  -1.125  1.00  0.00     0.000 C 
BRANCH  30  31
HETATM   31  C   UNL     1     -23.257  -9.804  -0.042  1.00  0.00     0.000 C 
BRANCH  31  32
HETATM   32  C   UNL     1     -24.135 -11.045  -0.075  1.00  0.00     0.000 C 
BRANCH  32  33
HETATM   33  C   UNL     1     -23.877 -11.842  -1.344  1.00  0.00     0.000 C 
BRANCH  33  34
HETATM   34  C   UNL     1     -24.175 -13.313  -1.105  1.00  0.00     0.000 C 
BRANCH  34  35
HETATM   35  C   UNL     1     -22.881 -14.100  -0.998  1.00  0.00     0.000 C 
BRANCH  35  36
HETATM   36  C   UNL     1     -23.175 -15.580  -0.796  1.00  0.00     0.000 C 
BRANCH  36  37
HETATM   37  C   UNL     1     -22.860 -15.966   0.640  1.00  0.00     0.000 C 
BRANCH  37  38
HETATM   38  C   UNL     1     -21.869 -14.994   1.270  1.00  0.00     0.004 C 
BRANCH  38  39
HETATM   39  C   UNL     1     -22.369 -14.437   2.611  1.00  0.00    -0.023 C 
HETATM   40  C   UNL     1     -23.860 -14.093   2.575  1.00  0.00     0.009 C 
HETATM   41  C   UNL     1     -22.096 -15.452   3.720  1.00  0.00     0.009 C 
ENDBRANCH  38  39
ENDBRANCH  37  38
ENDBRANCH  36  37
ENDBRANCH  35  36
ENDBRANCH  34  35
ENDBRANCH  33  34
ENDBRANCH  32  33
ENDBRANCH  31  32
ENDBRANCH  30  31
ENDBRANCH  29  30
ENDBRANCH  28  29
ENDBRANCH  27  28
ENDBRANCH  26  27
ENDBRANCH  25  26
ENDBRANCH  23  25
ENDBRANCH  22  23
ENDBRANCH   1  22
BRANCH   1  42
HETATM   42  C   UNL     1     -16.838 -13.838  -3.306  1.00  0.00     0.294 C 
HETATM   43  O   UNL     1     -17.833 -14.029  -3.994  1.00  0.00    -0.262 OA
BRANCH  42  44
HETATM   44  O   UNL     1     -15.714 -14.615  -3.318  1.00  0.00    -0.319 OA
BRANCH  44  45
HETATM   45  C   UNL     1     -15.485 -15.420  -4.485  1.00  0.00     0.178 C 
BRANCH  45  46
HETATM   46  C   UNL     1     -14.097 -16.041  -4.444  1.00  0.00     0.027 C 
BRANCH  46  47
HETATM   47  C   UNL     1     -13.086 -15.129  -5.134  1.00  0.00     0.002 C 
BRANCH  47  48
HETATM   48  C   UNL     1     -13.712 -14.384  -6.306  1.00  0.00     0.000 C 
BRANCH  48  49
HETATM   49  C   UNL     1     -13.318 -12.913  -6.266  1.00  0.00     0.000 C 
BRANCH  49  50
HETATM   50  C   UNL     1     -14.408 -12.077  -5.610  1.00  0.00     0.000 C 
BRANCH  50  51
HETATM   51  C   UNL     1     -15.359 -11.529  -6.665  1.00  0.00     0.000 C 
BRANCH  51  52
HETATM   52  C   UNL     1     -16.730 -12.172  -6.528  1.00  0.00     0.000 C 
BRANCH  52  53
HETATM   53  C   UNL     1     -17.002 -13.082  -7.716  1.00  0.00     0.000 C 
BRANCH  53  54
HETATM   54  C   UNL     1     -18.354 -13.754  -7.561  1.00  0.00     0.000 C 
BRANCH  54  55
HETATM   55  C   UNL     1     -19.405 -13.032  -8.392  1.00  0.00     0.000 C 
BRANCH  55  56
HETATM   56  C   UNL     1     -20.684 -12.892  -7.581  1.00  0.00     0.000 C 
BRANCH  56  57
HETATM   57  C   UNL     1     -20.395 -12.374  -6.178  1.00  0.00     0.004 C 
BRANCH  57  58
HETATM   58  C   UNL     1     -21.351 -12.963  -5.130  1.00  0.00    -0.023 C 
HETATM   59  C   UNL     1     -21.236 -12.253  -3.778  1.00  0.00     0.009 C 
HETATM   60  C   UNL     1     -22.789 -12.875  -5.641  1.00  0.00     0.009 C 
ENDBRANCH  57  58
ENDBRANCH  56  57
ENDBRANCH  55  56
ENDBRANCH  54  55
ENDBRANCH  53  54
ENDBRANCH  52  53
ENDBRANCH  51  52
ENDBRANCH  50  51
ENDBRANCH  49  50
ENDBRANCH  48  49
ENDBRANCH  47  48
ENDBRANCH  46  47
ENDBRANCH  45  46
ENDBRANCH  44  45
ENDBRANCH  42  44
ENDBRANCH   1  42
BRANCH   1  61
HETATM   61  O   UNL     1     -15.330 -12.311  -2.446  1.00  0.00    -0.379 OA
HETATM   62  H   UNL     1     -15.297 -11.490  -2.971  1.00  0.00     0.211 HD
ENDBRANCH   1  61
TORSDOF 51
ENDMDL
MODEL 9
REMARK VINA RESULT:      -6.0      3.086     11.296
REMARK WARNING: 32 MAX_TORS EXCEEDED!!!
REMARK  51 active torsions:
REMARK  status: ('A' for Active; 'I' for Inactive)
REMARK    1  A    between atoms: C_2  and  C_4 
REMARK    2  A    between atoms: C_4  and  C_5 
REMARK    3  A    between atoms: C_5  and  C_6 
REMARK    4  A    between atoms: C_6  and  C_7 
REMARK    5  A    between atoms: C_7  and  C_8 
REMARK    6  A    between atoms: C_8  and  C_9 
REMARK    7  A    between atoms: C_9  and  C_10 
REMARK    8  A    between atoms: C_10  and  C_11 
REMARK    9  A    between atoms: C_11  and  C_12 
REMARK   10  A    between atoms: C_12  and  C_13 
REMARK   11  A    between atoms: C_13  and  C_14 
REMARK   12  A    between atoms: C_14  and  C_15 
REMARK   13  A    between atoms: C_15  and  C_16 
REMARK   14  A    between atoms: C_16  and  O_17 
REMARK   15  A    between atoms: O_17  and  C_18 
REMARK   16  A    between atoms: C_18  and  C_20 
REMARK   17  A    between atoms: C_20  and  C_21 
REMARK   18  A    between atoms: C_21  and  C_22 
REMARK   19  A    between atoms: C_21  and  C_42 
REMARK   20  A    between atoms: C_21  and  O_61 
REMARK   21  A    between atoms: C_22  and  C_23 
REMARK   22  A    between atoms: C_23  and  O_25 
REMARK   23  A    between atoms: O_25  and  C_26 
REMARK   24  A    between atoms: C_26  and  C_27 
REMARK   25  A    between atoms: C_27  and  C_28 
REMARK   26  A    between atoms: C_28  and  C_29 
REMARK   27  A    between atoms: C_29  and  C_30 
REMARK   28  A    between atoms: C_30  and  C_31 
REMARK   29  A    between atoms: C_31  and  C_32 
REMARK   30  A    between atoms: C_32  and  C_33 
REMARK   31  A    between atoms: C_33  and  C_34 
REMARK   32  A    between atoms: C_34  and  C_35 
REMARK   33  A    between atoms: C_35  and  C_36 
REMARK   34  A    between atoms: C_36  and  C_37 
REMARK   35  A    between atoms: C_37  and  C_38 
REMARK   36  A    between atoms: C_38  and  C_39 
REMARK   37  A    between atoms: C_42  and  O_44 
REMARK   38  A    between atoms: O_44  and  C_45 
REMARK   39  A    between atoms: C_45  and  C_46 
REMARK   40  A    between atoms: C_46  and  C_47 
REMARK   41  A    between atoms: C_47  and  C_48 
REMARK   42  A    between atoms: C_48  and  C_49 
REMARK   43  A    between atoms: C_49  and  C_50 
REMARK   44  A    between atoms: C_50  and  C_51 
REMARK   45  A    between atoms: C_51  and  C_52 
REMARK   46  A    between atoms: C_52  and  C_53 
REMARK   47  A    between atoms: C_53  and  C_54 
REMARK   48  A    between atoms: C_54  and  C_55 
REMARK   49  A    between atoms: C_55  and  C_56 
REMARK   50  A    between atoms: C_56  and  C_57 
REMARK   51  A    between atoms: C_57  and  C_58 
ROOT
HETATM    1  C   UNL     1     -22.400 -12.567  -2.673  1.00  0.00     0.162 C 
ENDROOT
BRANCH   1   2
HETATM    2  C   UNL     1     -23.024 -11.181  -2.399  1.00  0.00     0.160 C 
BRANCH   2   3
HETATM    3  C   UNL     1     -23.118 -10.852  -0.936  1.00  0.00     0.262 C 
HETATM    4  O   UNL     1     -24.146 -10.794  -0.280  1.00  0.00    -0.265 OA
BRANCH   3   5
HETATM    5  O   UNL     1     -21.878 -10.535  -0.460  1.00  0.00    -0.321 OA
BRANCH   5   6
HETATM    6  C   UNL     1     -21.856  -9.307   0.267  1.00  0.00     0.178 C 
BRANCH   6   7
HETATM    7  C   UNL     1     -21.287  -8.169  -0.555  1.00  0.00     0.027 C 
BRANCH   7   8
HETATM    8  C   UNL     1     -22.355  -7.090  -0.697  1.00  0.00     0.002 C 
BRANCH   8   9
HETATM    9  C   UNL     1     -22.149  -6.307  -1.977  1.00  0.00     0.000 C 
BRANCH   9  10
HETATM   10  C   UNL     1     -21.471  -7.173  -3.027  1.00  0.00     0.000 C 
BRANCH  10  11
HETATM   11  C   UNL     1     -21.897  -6.720  -4.413  1.00  0.00     0.000 C 
BRANCH  11  12
HETATM   12  C   UNL     1     -20.695  -6.668  -5.339  1.00  0.00     0.000 C 
BRANCH  12  13
HETATM   13  C   UNL     1     -20.438  -5.236  -5.775  1.00  0.00     0.000 C 
BRANCH  13  14
HETATM   14  C   UNL     1     -21.570  -4.758  -6.667  1.00  0.00     0.000 C 
BRANCH  14  15
HETATM   15  C   UNL     1     -21.133  -3.537  -7.454  1.00  0.00     0.000 C 
BRANCH  15  16
HETATM   16  C   UNL     1     -19.909  -3.862  -8.296  1.00  0.00     0.000 C 
BRANCH  16  17
HETATM   17  C   UNL     1     -20.330  -4.680  -9.505  1.00  0.00     0.000 C 
BRANCH  17  18
HETATM   18  C   UNL     1     -20.601  -3.786 -10.709  1.00  0.00     0.004 C 
BRANCH  18  19
HETATM   19  C   UNL     1     -22.096  -3.484 -10.889  1.00  0.00    -0.023 C 
HETATM   20  C   UNL     1     -22.359  -3.038 -12.327  1.00  0.00     0.009 C 
HETATM   21  C   UNL     1     -22.978  -4.688 -10.549  1.00  0.00     0.009 C 
ENDBRANCH  18  19
ENDBRANCH  17  18
ENDBRANCH  16  17
ENDBRANCH  15  16
ENDBRANCH  14  15
ENDBRANCH  13  14
ENDBRANCH  12  13
ENDBRANCH  11  12
ENDBRANCH  10  11
ENDBRANCH   9  10
ENDBRANCH   8   9
ENDBRANCH   7   8
ENDBRANCH   6   7
ENDBRANCH   5   6
ENDBRANCH   3   5
ENDBRANCH   2   3
ENDBRANCH   1   2
BRANCH   1  22
HETATM   22  C   UNL     1     -23.043 -13.748  -1.917  1.00  0.00     0.160 C 
BRANCH  22  23
HETATM   23  C   UNL     1     -22.080 -14.429  -0.977  1.00  0.00     0.262 C 
HETATM   24  O   UNL     1     -21.373 -15.367  -1.274  1.00  0.00    -0.265 OA
BRANCH  23  25
HETATM   25  O   UNL     1     -22.226 -13.945   0.287  1.00  0.00    -0.321 OA
BRANCH  25  26
HETATM   26  C   UNL     1     -23.469 -14.317   0.902  1.00  0.00     0.178 C 
BRANCH  26  27
HETATM   27  C   UNL     1     -23.428 -14.157   2.409  1.00  0.00     0.027 C 
BRANCH  27  28
HETATM   28  C   UNL     1     -22.037 -14.517   2.926  1.00  0.00     0.002 C 
BRANCH  28  29
HETATM   29  C   UNL     1     -22.011 -15.934   3.479  1.00  0.00     0.000 C 
BRANCH  29  30
HETATM   30  C   UNL     1     -20.765 -16.675   3.014  1.00  0.00     0.000 C 
BRANCH  30  31
HETATM   31  C   UNL     1     -19.908 -15.772   2.140  1.00  0.00     0.000 C 
BRANCH  31  32
HETATM   32  C   UNL     1     -18.432 -16.051   2.374  1.00  0.00     0.000 C 
BRANCH  32  33
HETATM   33  C   UNL     1     -17.580 -14.995   1.687  1.00  0.00     0.000 C 
BRANCH  33  34
HETATM   34  C   UNL     1     -16.315 -14.742   2.492  1.00  0.00     0.000 C 
BRANCH  34  35
HETATM   35  C   UNL     1     -15.826 -13.322   2.267  1.00  0.00     0.000 C 
BRANCH  35  36
HETATM   36  C   UNL     1     -15.144 -13.204   0.912  1.00  0.00     0.000 C 
BRANCH  36  37
HETATM   37  C   UNL     1     -14.084 -14.286   0.782  1.00  0.00     0.000 C 
BRANCH  37  38
HETATM   38  C   UNL     1     -14.413 -15.249  -0.353  1.00  0.00     0.004 C 
BRANCH  38  39
HETATM   39  C   UNL     1     -13.708 -14.870  -1.664  1.00  0.00    -0.023 C 
HETATM   40  C   UNL     1     -12.229 -14.540  -1.450  1.00  0.00     0.009 C 
HETATM   41  C   UNL     1     -13.847 -16.012  -2.668  1.00  0.00     0.009 C 
ENDBRANCH  38  39
ENDBRANCH  37  38
ENDBRANCH  36  37
ENDBRANCH  35  36
ENDBRANCH  34  35
ENDBRANCH  33  34
ENDBRANCH  32  33
ENDBRANCH  31  32
ENDBRANCH  30  31
ENDBRANCH  29  30
ENDBRANCH  28  29
ENDBRANCH  27  28
ENDBRANCH  26  27
ENDBRANCH  25  26
ENDBRANCH  23  25
ENDBRANCH  22  23
ENDBRANCH   1  22
BRANCH   1  42
HETATM   42  C   UNL     1     -22.358 -12.812  -4.179  1.00  0.00     0.294 C 
HETATM   43  O   UNL     1     -22.689 -11.979  -5.013  1.00  0.00    -0.262 OA
BRANCH  42  44
HETATM   44  O   UNL     1     -21.917 -14.074  -4.462  1.00  0.00    -0.319 OA
BRANCH  44  45
HETATM   45  C   UNL     1     -21.112 -14.240  -5.640  1.00  0.00     0.178 C 
BRANCH  45  46
HETATM   46  C   UNL     1     -19.685 -13.778  -5.384  1.00  0.00     0.027 C 
BRANCH  46  47
HETATM   47  C   UNL     1     -18.999 -13.416  -6.698  1.00  0.00     0.002 C 
BRANCH  47  48
HETATM   48  C   UNL     1     -19.001 -11.911  -6.935  1.00  0.00     0.000 C 
BRANCH  48  49
HETATM   49  C   UNL     1     -19.321 -11.175  -5.641  1.00  0.00     0.000 C 
BRANCH  49  50
HETATM   50  C   UNL     1     -18.247 -10.144  -5.323  1.00  0.00     0.000 C 
BRANCH  50  51
HETATM   51  C   UNL     1     -18.688  -9.263  -4.162  1.00  0.00     0.000 C 
BRANCH  51  52
HETATM   52  C   UNL     1     -17.711  -9.386  -3.003  1.00  0.00     0.000 C 
BRANCH  52  53
HETATM   53  C   UNL     1     -18.065 -10.593  -2.148  1.00  0.00     0.000 C 
BRANCH  53  54
HETATM   54  C   UNL     1     -16.800 -11.269  -1.650  1.00  0.00     0.000 C 
BRANCH  54  55
HETATM   55  C   UNL     1     -15.592 -10.784  -2.437  1.00  0.00     0.000 C 
BRANCH  55  56
HETATM   56  C   UNL     1     -14.918 -11.968  -3.114  1.00  0.00     0.000 C 
BRANCH  56  57
HETATM   57  C   UNL     1     -15.931 -12.831  -3.856  1.00  0.00     0.004 C 
BRANCH  57  58
HETATM   58  C   UNL     1     -15.701 -12.827  -5.374  1.00  0.00    -0.023 C 
HETATM   59  C   UNL     1     -14.822 -11.658  -5.825  1.00  0.00     0.009 C 
HETATM   60  C   UNL     1     -15.064 -14.150  -5.799  1.00  0.00     0.009 C 
ENDBRANCH  57  58
ENDBRANCH  56  57
ENDBRANCH  55  56
ENDBRANCH  54  55
ENDBRANCH  53  54
ENDBRANCH  52  53
ENDBRANCH  51  52
ENDBRANCH  50  51
ENDBRANCH  49  50
ENDBRANCH  48  49
ENDBRANCH  47  48
ENDBRANCH  46  47
ENDBRANCH  45  46
ENDBRANCH  44  45
ENDBRANCH  42  44
ENDBRANCH   1  42
BRANCH   1  61
HETATM   61  O   UNL     1     -21.009 -12.495  -2.328  1.00  0.00    -0.379 OA
HETATM   62  H   UNL     1     -20.720 -11.571  -2.439  1.00  0.00     0.211 HD
ENDBRANCH   1  61
TORSDOF 51
ENDMDL
