MODEL 1
REMARK VINA RESULT:      -7.1      0.000      0.000
REMARK  7 active torsions:
REMARK  status: ('A' for Active; 'I' for Inactive)
REMARK    1  A    between atoms: C_3  and  N_11 
REMARK    2  A    between atoms: C_4  and  N_8 
REMARK    3  A    between atoms: C_6  and  O_7 
REMARK    4  A    between atoms: N_11  and  C_12 
REMARK    5  A    between atoms: C_12  and  C_13 
REMARK    6  A    between atoms: C_13  and  C_14 
REMARK    7  A    between atoms: C_14  and  O_15 
ROOT
HETATM    1  C   UNL     1     -20.528  -4.423  -9.738  1.00  0.00     0.039 A 
HETATM    2  C   UNL     1     -20.962  -4.157 -11.039  1.00  0.00     0.034 A 
HETATM    3  C   UNL     1     -22.276  -3.763 -11.333  1.00  0.00     0.061 A 
HETATM    4  C   UNL     1     -23.154  -3.619 -10.228  1.00  0.00     0.131 A 
HETATM    5  C   UNL     1     -22.723  -3.896  -8.910  1.00  0.00     0.075 A 
HETATM    6  C   UNL     1     -21.412  -4.295  -8.686  1.00  0.00     0.068 A 
ENDROOT
BRANCH   3   7
HETATM    7  N   UNL     1     -22.675  -3.593 -12.664  1.00  0.00    -0.388 N 
HETATM    8  H   UNL     1     -23.408  -4.250 -12.944  1.00  0.00     0.159 HD
BRANCH   7   9
HETATM    9  C   UNL     1     -22.755  -2.265 -13.261  1.00  0.00     0.122 C 
BRANCH   9  10
HETATM   10  C   UNL     1     -23.181  -2.331 -14.722  1.00  0.00     0.045 C 
BRANCH  10  11
HETATM   11  C   UNL     1     -23.711  -1.000 -15.234  1.00  0.00     0.165 C 
BRANCH  11  12
HETATM   12  O   UNL     1     -24.915  -0.675 -14.546  1.00  0.00    -0.401 OA
HETATM   13  H   UNL     1     -25.654  -0.908 -15.137  1.00  0.00     0.209 HD
ENDBRANCH  11  12
ENDBRANCH  10  11
ENDBRANCH   9  10
ENDBRANCH   7   9
ENDBRANCH   3   7
BRANCH   4  14
HETATM   14  N   UNL     1     -24.571  -3.214 -10.390  1.00  0.00    -0.113 N 
HETATM   15  O   UNL     1     -25.087  -3.272 -11.513  1.00  0.00    -0.532 OA
HETATM   16  O   UNL     1     -25.161  -2.800  -9.379  1.00  0.00    -0.532 OA
ENDBRANCH   4  14
BRANCH   6  17
HETATM   17  O   UNL     1     -20.949  -4.581  -7.438  1.00  0.00    -0.361 OA
HETATM   18  H   UNL     1     -21.588  -5.156  -6.979  1.00  0.00     0.217 HD
ENDBRANCH   6  17
TORSDOF 7
ENDMDL
MODEL 2
REMARK VINA RESULT:      -6.6     11.891     13.221
REMARK  7 active torsions:
REMARK  status: ('A' for Active; 'I' for Inactive)
REMARK    1  A    between atoms: C_3  and  N_11 
REMARK    2  A    between atoms: C_4  and  N_8 
REMARK    3  A    between atoms: C_6  and  O_7 
REMARK    4  A    between atoms: N_11  and  C_12 
REMARK    5  A    between atoms: C_12  and  C_13 
REMARK    6  A    between atoms: C_13  and  C_14 
REMARK    7  A    between atoms: C_14  and  O_15 
ROOT
HETATM    1  C   UNL     1     -33.522  -3.553 -10.775  1.00  0.00     0.039 A 
HETATM    2  C   UNL     1     -34.305  -2.493 -10.314  1.00  0.00     0.034 A 
HETATM    3  C   UNL     1     -35.038  -1.664 -11.177  1.00  0.00     0.061 A 
HETATM    4  C   UNL     1     -34.967  -1.970 -12.560  1.00  0.00     0.131 A 
HETATM    5  C   UNL     1     -34.166  -3.036 -13.032  1.00  0.00     0.075 A 
HETATM    6  C   UNL     1     -33.454  -3.813 -12.129  1.00  0.00     0.068 A 
ENDROOT
BRANCH   3   7
HETATM    7  N   UNL     1     -35.738  -0.565 -10.664  1.00  0.00    -0.388 N 
HETATM    8  H   UNL     1     -35.730   0.239 -11.297  1.00  0.00     0.159 HD
BRANCH   7   9
HETATM    9  C   UNL     1     -36.960  -0.747  -9.889  1.00  0.00     0.122 C 
BRANCH   9  10
HETATM   10  C   UNL     1     -36.885  -0.033  -8.547  1.00  0.00     0.045 C 
BRANCH  10  11
HETATM   11  C   UNL     1     -37.431   1.386  -8.612  1.00  0.00     0.165 C 
BRANCH  11  12
HETATM   12  O   UNL     1     -36.962   2.124  -7.488  1.00  0.00    -0.401 OA
HETATM   13  H   UNL     1     -37.600   2.844  -7.331  1.00  0.00     0.209 HD
ENDBRANCH  11  12
ENDBRANCH  10  11
ENDBRANCH   9  10
ENDBRANCH   7   9
ENDBRANCH   3   7
BRANCH   4  14
HETATM   14  N   UNL     1     -35.685  -1.176 -13.585  1.00  0.00    -0.113 N 
HETATM   15  O   UNL     1     -36.891  -0.949 -13.432  1.00  0.00    -0.532 OA
HETATM   16  O   UNL     1     -35.031  -0.806 -14.574  1.00  0.00    -0.532 OA
ENDBRANCH   4  14
BRANCH   6  17
HETATM   17  O   UNL     1     -32.663  -4.845 -12.532  1.00  0.00    -0.361 OA
HETATM   18  H   UNL     1     -32.640  -5.526 -11.836  1.00  0.00     0.217 HD
ENDBRANCH   6  17
TORSDOF 7
ENDMDL
MODEL 3
REMARK VINA RESULT:      -6.5      7.844      9.408
REMARK  7 active torsions:
REMARK  status: ('A' for Active; 'I' for Inactive)
REMARK    1  A    between atoms: C_3  and  N_11 
REMARK    2  A    between atoms: C_4  and  N_8 
REMARK    3  A    between atoms: C_6  and  O_7 
REMARK    4  A    between atoms: N_11  and  C_12 
REMARK    5  A    between atoms: C_12  and  C_13 
REMARK    6  A    between atoms: C_13  and  C_14 
REMARK    7  A    between atoms: C_14  and  O_15 
ROOT
HETATM    1  C   UNL     1     -25.504  -6.811 -20.208  1.00  0.00     0.039 A 
HETATM    2  C   UNL     1     -26.835  -6.527 -19.894  1.00  0.00     0.034 A 
HETATM    3  C   UNL     1     -27.300  -6.444 -18.573  1.00  0.00     0.061 A 
HETATM    4  C   UNL     1     -26.338  -6.641 -17.551  1.00  0.00     0.131 A 
HETATM    5  C   UNL     1     -24.991  -6.940 -17.863  1.00  0.00     0.075 A 
HETATM    6  C   UNL     1     -24.594  -7.020 -19.191  1.00  0.00     0.068 A 
ENDROOT
BRANCH   3   7
HETATM    7  N   UNL     1     -28.663  -6.240 -18.322  1.00  0.00    -0.388 N 
HETATM    8  H   UNL     1     -29.008  -5.358 -18.708  1.00  0.00     0.159 HD
BRANCH   7   9
HETATM    9  C   UNL     1     -29.606  -7.352 -18.344  1.00  0.00     0.122 C 
BRANCH   9  10
HETATM   10  C   UNL     1     -30.878  -7.024 -17.574  1.00  0.00     0.045 C 
BRANCH  10  11
HETATM   11  C   UNL     1     -30.917  -5.577 -17.103  1.00  0.00     0.165 C 
BRANCH  11  12
HETATM   12  O   UNL     1     -30.329  -5.486 -15.809  1.00  0.00    -0.401 OA
HETATM   13  H   UNL     1     -29.749  -6.261 -15.703  1.00  0.00     0.209 HD
ENDBRANCH  11  12
ENDBRANCH  10  11
ENDBRANCH   9  10
ENDBRANCH   7   9
ENDBRANCH   3   7
BRANCH   4  14
HETATM   14  N   UNL     1     -26.688  -6.588 -16.112  1.00  0.00    -0.113 N 
HETATM   15  O   UNL     1     -27.593  -5.831 -15.742  1.00  0.00    -0.532 OA
HETATM   16  O   UNL     1     -26.018  -7.293 -15.340  1.00  0.00    -0.532 OA
ENDBRANCH   4  14
BRANCH   6  17
HETATM   17  O   UNL     1     -23.313  -7.311 -19.545  1.00  0.00    -0.361 OA
HETATM   18  H   UNL     1     -22.704  -6.705 -19.087  1.00  0.00     0.217 HD
ENDBRANCH   6  17
TORSDOF 7
ENDMDL
MODEL 4
REMARK VINA RESULT:      -6.5      2.299      3.282
REMARK  7 active torsions:
REMARK  status: ('A' for Active; 'I' for Inactive)
REMARK    1  A    between atoms: C_3  and  N_11 
REMARK    2  A    between atoms: C_4  and  N_8 
REMARK    3  A    between atoms: C_6  and  O_7 
REMARK    4  A    between atoms: N_11  and  C_12 
REMARK    5  A    between atoms: C_12  and  C_13 
REMARK    6  A    between atoms: C_13  and  C_14 
REMARK    7  A    between atoms: C_14  and  O_15 
ROOT
HETATM    1  C   UNL     1     -22.838  -4.566  -7.110  1.00  0.00     0.039 A 
HETATM    2  C   UNL     1     -23.403  -4.043  -8.275  1.00  0.00     0.034 A 
HETATM    3  C   UNL     1     -22.662  -3.835  -9.448  1.00  0.00     0.061 A 
HETATM    4  C   UNL     1     -21.294  -4.208  -9.406  1.00  0.00     0.131 A 
HETATM    5  C   UNL     1     -20.715  -4.729  -8.225  1.00  0.00     0.075 A 
HETATM    6  C   UNL     1     -21.499  -4.900  -7.093  1.00  0.00     0.068 A 
ENDROOT
BRANCH   3   7
HETATM    7  N   UNL     1     -23.263  -3.228 -10.558  1.00  0.00    -0.388 N 
HETATM    8  H   UNL     1     -22.784  -2.372 -10.848  1.00  0.00     0.159 HD
BRANCH   7   9
HETATM    9  C   UNL     1     -23.833  -4.029 -11.635  1.00  0.00     0.122 C 
BRANCH   9  10
HETATM   10  C   UNL     1     -24.383  -3.155 -12.754  1.00  0.00     0.045 C 
BRANCH  10  11
HETATM   11  C   UNL     1     -23.289  -2.638 -13.678  1.00  0.00     0.165 C 
BRANCH  11  12
HETATM   12  O   UNL     1     -22.102  -3.397 -13.475  1.00  0.00    -0.401 OA
HETATM   13  H   UNL     1     -21.557  -3.296 -14.277  1.00  0.00     0.209 HD
ENDBRANCH  11  12
ENDBRANCH  10  11
ENDBRANCH   9  10
ENDBRANCH   7   9
ENDBRANCH   3   7
BRANCH   4  14
HETATM   14  N   UNL     1     -20.391  -4.040 -10.568  1.00  0.00    -0.113 N 
HETATM   15  O   UNL     1     -19.619  -4.959 -10.867  1.00  0.00    -0.532 OA
HETATM   16  O   UNL     1     -20.435  -2.953 -11.167  1.00  0.00    -0.532 OA
ENDBRANCH   4  14
BRANCH   6  17
HETATM   17  O   UNL     1     -20.989  -5.390  -5.929  1.00  0.00    -0.361 OA
HETATM   18  H   UNL     1     -21.396  -6.252  -5.735  1.00  0.00     0.217 HD
ENDBRANCH   6  17
TORSDOF 7
ENDMDL
MODEL 5
REMARK VINA RESULT:      -6.2      7.488      9.301
REMARK  7 active torsions:
REMARK  status: ('A' for Active; 'I' for Inactive)
REMARK    1  A    between atoms: C_3  and  N_11 
REMARK    2  A    between atoms: C_4  and  N_8 
REMARK    3  A    between atoms: C_6  and  O_7 
REMARK    4  A    between atoms: N_11  and  C_12 
REMARK    5  A    between atoms: C_12  and  C_13 
REMARK    6  A    between atoms: C_13  and  C_14 
REMARK    7  A    between atoms: C_14  and  O_15 
ROOT
HETATM    1  C   UNL     1     -29.400  -6.232 -17.960  1.00  0.00     0.039 A 
HETATM    2  C   UNL     1     -28.227  -6.428 -18.692  1.00  0.00     0.034 A 
HETATM    3  C   UNL     1     -26.969  -6.555 -18.086  1.00  0.00     0.061 A 
HETATM    4  C   UNL     1     -26.942  -6.500 -16.669  1.00  0.00     0.131 A 
HETATM    5  C   UNL     1     -28.125  -6.291 -15.923  1.00  0.00     0.075 A 
HETATM    6  C   UNL     1     -29.339  -6.160 -16.582  1.00  0.00     0.068 A 
ENDROOT
BRANCH   3   7
HETATM    7  N   UNL     1     -25.819  -6.665 -18.877  1.00  0.00    -0.388 N 
HETATM    8  H   UNL     1     -25.152  -7.349 -18.511  1.00  0.00     0.159 HD
BRANCH   7   9
HETATM    9  C   UNL     1     -25.893  -6.568 -20.330  1.00  0.00     0.122 C 
BRANCH   9  10
HETATM   10  C   UNL     1     -25.597  -7.904 -20.998  1.00  0.00     0.045 C 
BRANCH  10  11
HETATM   11  C   UNL     1     -24.126  -8.062 -21.355  1.00  0.00     0.165 C 
BRANCH  11  12
HETATM   12  O   UNL     1     -23.352  -8.103 -20.160  1.00  0.00    -0.401 OA
HETATM   13  H   UNL     1     -22.950  -8.989 -20.109  1.00  0.00     0.209 HD
ENDBRANCH  11  12
ENDBRANCH  10  11
ENDBRANCH   9  10
ENDBRANCH   7   9
ENDBRANCH   3   7
BRANCH   4  14
HETATM   14  N   UNL     1     -25.683  -6.615 -15.896  1.00  0.00    -0.113 N 
HETATM   15  O   UNL     1     -25.185  -7.733 -15.722  1.00  0.00    -0.532 OA
HETATM   16  O   UNL     1     -25.208  -5.567 -15.428  1.00  0.00    -0.532 OA
ENDBRANCH   4  14
BRANCH   6  17
HETATM   17  O   UNL     1     -30.506  -5.951 -15.912  1.00  0.00    -0.361 OA
HETATM   18  H   UNL     1     -31.145  -5.515 -16.503  1.00  0.00     0.217 HD
ENDBRANCH   6  17
TORSDOF 7
ENDMDL
MODEL 6
REMARK VINA RESULT:      -6.1     12.108     14.089
REMARK  7 active torsions:
REMARK  status: ('A' for Active; 'I' for Inactive)
REMARK    1  A    between atoms: C_3  and  N_11 
REMARK    2  A    between atoms: C_4  and  N_8 
REMARK    3  A    between atoms: C_6  and  O_7 
REMARK    4  A    between atoms: N_11  and  C_12 
REMARK    5  A    between atoms: C_12  and  C_13 
REMARK    6  A    between atoms: C_13  and  C_14 
REMARK    7  A    between atoms: C_14  and  O_15 
ROOT
HETATM    1  C   UNL     1     -35.847  -0.256 -15.155  1.00  0.00     0.039 A 
HETATM    2  C   UNL     1     -35.059  -0.604 -14.056  1.00  0.00     0.034 A 
HETATM    3  C   UNL     1     -35.564  -0.657 -12.748  1.00  0.00     0.061 A 
HETATM    4  C   UNL     1     -36.942  -0.359 -12.591  1.00  0.00     0.131 A 
HETATM    5  C   UNL     1     -37.742   0.005 -13.699  1.00  0.00     0.075 A 
HETATM    6  C   UNL     1     -37.180   0.051 -14.967  1.00  0.00     0.068 A 
ENDROOT
BRANCH   3   7
HETATM    7  N   UNL     1     -34.706  -0.930 -11.676  1.00  0.00    -0.388 N 
HETATM    8  H   UNL     1     -34.687  -0.178 -10.984  1.00  0.00     0.159 HD
BRANCH   7   9
HETATM    9  C   UNL     1     -34.574  -2.282 -11.145  1.00  0.00     0.122 C 
BRANCH   9  10
HETATM   10  C   UNL     1     -33.143  -2.791 -11.255  1.00  0.00     0.045 C 
BRANCH  10  11
HETATM   11  C   UNL     1     -33.060  -4.152 -11.932  1.00  0.00     0.165 C 
BRANCH  11  12
HETATM   12  O   UNL     1     -33.368  -4.010 -13.315  1.00  0.00    -0.401 OA
HETATM   13  H   UNL     1     -32.542  -3.764 -13.769  1.00  0.00     0.209 HD
ENDBRANCH  11  12
ENDBRANCH  10  11
ENDBRANCH   9  10
ENDBRANCH   7   9
ENDBRANCH   3   7
BRANCH   4  14
HETATM   14  N   UNL     1     -37.609  -0.371 -11.268  1.00  0.00    -0.113 N 
HETATM   15  O   UNL     1     -37.997   0.699 -10.782  1.00  0.00    -0.532 OA
HETATM   16  O   UNL     1     -37.713  -1.468 -10.695  1.00  0.00    -0.532 OA
ENDBRANCH   4  14
BRANCH   6  17
HETATM   17  O   UNL     1     -37.904   0.402 -16.065  1.00  0.00    -0.361 OA
HETATM   18  H   UNL     1     -38.725   0.843 -15.784  1.00  0.00     0.217 HD
ENDBRANCH   6  17
TORSDOF 7
ENDMDL
MODEL 7
REMARK VINA RESULT:      -5.9     16.433     18.271
REMARK  7 active torsions:
REMARK  status: ('A' for Active; 'I' for Inactive)
REMARK    1  A    between atoms: C_3  and  N_11 
REMARK    2  A    between atoms: C_4  and  N_8 
REMARK    3  A    between atoms: C_6  and  O_7 
REMARK    4  A    between atoms: N_11  and  C_12 
REMARK    5  A    between atoms: C_12  and  C_13 
REMARK    6  A    between atoms: C_13  and  C_14 
REMARK    7  A    between atoms: C_14  and  O_15 
ROOT
HETATM    1  C   UNL     1     -12.752   4.344 -22.441  1.00  0.00     0.039 A 
HETATM    2  C   UNL     1     -12.198   5.607 -22.660  1.00  0.00     0.034 A 
HETATM    3  C   UNL     1     -11.227   6.164 -21.815  1.00  0.00     0.061 A 
HETATM    4  C   UNL     1     -10.807   5.364 -20.721  1.00  0.00     0.131 A 
HETATM    5  C   UNL     1     -11.373   4.089 -20.488  1.00  0.00     0.075 A 
HETATM    6  C   UNL     1     -12.339   3.597 -21.355  1.00  0.00     0.068 A 
ENDROOT
BRANCH   3   7
HETATM    7  N   UNL     1     -10.770   7.469 -22.037  1.00  0.00    -0.388 N 
HETATM    8  H   UNL     1     -10.324   7.581 -22.951  1.00  0.00     0.159 HD
BRANCH   7   9
HETATM    9  C   UNL     1     -11.523   8.621 -21.555  1.00  0.00     0.122 C 
BRANCH   9  10
HETATM   10  C   UNL     1     -10.758   9.382 -20.481  1.00  0.00     0.045 C 
BRANCH  10  11
HETATM   11  C   UNL     1     -11.242   9.049 -19.077  1.00  0.00     0.165 C 
BRANCH  11  12
HETATM   12  O   UNL     1     -10.134   8.646 -18.279  1.00  0.00    -0.401 OA
HETATM   13  H   UNL     1      -9.352   9.122 -18.613  1.00  0.00     0.209 HD
ENDBRANCH  11  12
ENDBRANCH  10  11
ENDBRANCH   9  10
ENDBRANCH   7   9
ENDBRANCH   3   7
BRANCH   4  14
HETATM   14  N   UNL     1      -9.794   5.827 -19.744  1.00  0.00    -0.113 N 
HETATM   15  O   UNL     1     -10.016   5.685 -18.536  1.00  0.00    -0.532 OA
HETATM   16  O   UNL     1      -8.775   6.372 -20.200  1.00  0.00    -0.532 OA
ENDBRANCH   4  14
BRANCH   6  17
HETATM   17  O   UNL     1     -12.921   2.380 -21.173  1.00  0.00    -0.361 OA
HETATM   18  H   UNL     1     -12.696   2.044 -20.287  1.00  0.00     0.217 HD
ENDBRANCH   6  17
TORSDOF 7
ENDMDL
MODEL 8
REMARK VINA RESULT:      -5.9     12.388     13.588
REMARK  7 active torsions:
REMARK  status: ('A' for Active; 'I' for Inactive)
REMARK    1  A    between atoms: C_3  and  N_11 
REMARK    2  A    between atoms: C_4  and  N_8 
REMARK    3  A    between atoms: C_6  and  O_7 
REMARK    4  A    between atoms: N_11  and  C_12 
REMARK    5  A    between atoms: C_12  and  C_13 
REMARK    6  A    between atoms: C_13  and  C_14 
REMARK    7  A    between atoms: C_14  and  O_15 
ROOT
HETATM    1  C   UNL     1     -34.480  -2.548 -12.412  1.00  0.00     0.039 A 
HETATM    2  C   UNL     1     -35.142  -1.568 -13.155  1.00  0.00     0.034 A 
HETATM    3  C   UNL     1     -35.959  -0.594 -12.563  1.00  0.00     0.061 A 
HETATM    4  C   UNL     1     -36.066  -0.633 -11.149  1.00  0.00     0.131 A 
HETATM    5  C   UNL     1     -35.407  -1.631 -10.394  1.00  0.00     0.075 A 
HETATM    6  C   UNL     1     -34.621  -2.575 -11.039  1.00  0.00     0.068 A 
ENDROOT
BRANCH   3   7
HETATM    7  N   UNL     1     -36.664   0.311 -13.366  1.00  0.00    -0.388 N 
HETATM    8  H   UNL     1     -36.052   0.986 -13.832  1.00  0.00     0.159 HD
BRANCH   7   9
HETATM    9  C   UNL     1     -37.834  -0.113 -14.127  1.00  0.00     0.122 C 
BRANCH   9  10
HETATM   10  C   UNL     1     -37.581  -0.048 -15.627  1.00  0.00     0.045 C 
BRANCH  10  11
HETATM   11  C   UNL     1     -36.239   0.585 -15.964  1.00  0.00     0.165 C 
BRANCH  11  12
HETATM   12  O   UNL     1     -36.398   1.995 -16.077  1.00  0.00    -0.401 OA
HETATM   13  H   UNL     1     -36.185   2.235 -16.997  1.00  0.00     0.209 HD
ENDBRANCH  11  12
ENDBRANCH  10  11
ENDBRANCH   9  10
ENDBRANCH   7   9
ENDBRANCH   3   7
BRANCH   4  14
HETATM   14  N   UNL     1     -36.899   0.330 -10.391  1.00  0.00    -0.113 N 
HETATM   15  O   UNL     1     -38.074   0.506 -10.732  1.00  0.00    -0.532 OA
HETATM   16  O   UNL     1     -36.351   0.942  -9.460  1.00  0.00    -0.532 OA
ENDBRANCH   4  14
BRANCH   6  17
HETATM   17  O   UNL     1     -33.971  -3.560 -10.360  1.00  0.00    -0.361 OA
HETATM   18  H   UNL     1     -34.587  -4.293 -10.184  1.00  0.00     0.217 HD
ENDBRANCH   6  17
TORSDOF 7
ENDMDL
MODEL 9
REMARK VINA RESULT:      -5.8      6.212      8.703
REMARK  7 active torsions:
REMARK  status: ('A' for Active; 'I' for Inactive)
REMARK    1  A    between atoms: C_3  and  N_11 
REMARK    2  A    between atoms: C_4  and  N_8 
REMARK    3  A    between atoms: C_6  and  O_7 
REMARK    4  A    between atoms: N_11  and  C_12 
REMARK    5  A    between atoms: C_12  and  C_13 
REMARK    6  A    between atoms: C_13  and  C_14 
REMARK    7  A    between atoms: C_14  and  O_15 
ROOT
HETATM    1  C   UNL     1     -22.125  -6.710  -1.218  1.00  0.00     0.039 A 
HETATM    2  C   UNL     1     -22.225  -6.083  -2.462  1.00  0.00     0.034 A 
HETATM    3  C   UNL     1     -21.602  -6.586  -3.614  1.00  0.00     0.061 A 
HETATM    4  C   UNL     1     -20.873  -7.793  -3.463  1.00  0.00     0.131 A 
HETATM    5  C   UNL     1     -20.760  -8.425  -2.202  1.00  0.00     0.075 A 
HETATM    6  C   UNL     1     -21.390  -7.872  -1.096  1.00  0.00     0.068 A 
ENDROOT
BRANCH   3   7
HETATM    7  N   UNL     1     -21.668  -5.869  -4.815  1.00  0.00    -0.388 N 
HETATM    8  H   UNL     1     -22.596  -5.476  -4.990  1.00  0.00     0.159 HD
BRANCH   7   9
HETATM    9  C   UNL     1     -20.542  -5.061  -5.271  1.00  0.00     0.122 C 
BRANCH   9  10
HETATM   10  C   UNL     1     -20.553  -4.885  -6.783  1.00  0.00     0.045 C 
BRANCH  10  11
HETATM   11  C   UNL     1     -21.442  -3.733  -7.228  1.00  0.00     0.165 C 
BRANCH  11  12
HETATM   12  O   UNL     1     -22.800  -4.161  -7.241  1.00  0.00    -0.401 OA
HETATM   13  H   UNL     1     -22.854  -4.923  -7.845  1.00  0.00     0.209 HD
ENDBRANCH  11  12
ENDBRANCH  10  11
ENDBRANCH   9  10
ENDBRANCH   7   9
ENDBRANCH   3   7
BRANCH   4  14
HETATM   14  N   UNL     1     -20.160  -8.435  -4.592  1.00  0.00    -0.113 N 
HETATM   15  O   UNL     1     -20.760  -8.612  -5.658  1.00  0.00    -0.532 OA
HETATM   16  O   UNL     1     -18.989  -8.797  -4.390  1.00  0.00    -0.532 OA
ENDBRANCH   4  14
BRANCH   6  17
HETATM   17  O   UNL     1     -21.307  -8.436   0.139  1.00  0.00    -0.361 OA
HETATM   18  H   UNL     1     -21.153  -7.741   0.803  1.00  0.00     0.217 HD
ENDBRANCH   6  17
TORSDOF 7
ENDMDL
