MODEL 1
REMARK VINA RESULT:      -6.7      0.000      0.000
REMARK  1 active torsions:
REMARK  status: ('A' for Active; 'I' for Inactive)
REMARK    1  A    between atoms: C_4  and  O_10 
ROOT
HETATM    1  C   UNL     1     -21.514  -4.768  -8.185  1.00  0.00     0.050 C 
HETATM    2  C   UNL     1     -22.433  -4.230  -9.249  1.00  0.00    -0.037 A 
HETATM    3  C   UNL     1     -23.777  -3.984  -8.930  1.00  0.00     0.045 A 
HETATM    4  C   UNL     1     -24.642  -3.492  -9.901  1.00  0.00     0.066 A 
HETATM    5  C   UNL     1     -24.198  -3.237 -11.192  1.00  0.00     0.045 A 
HETATM    6  C   UNL     1     -22.859  -3.467 -11.539  1.00  0.00    -0.037 A 
HETATM    7  C   UNL     1     -21.979  -3.968 -10.559  1.00  0.00     0.046 A 
HETATM    8 CL   UNL     1     -20.317  -4.265 -10.967  1.00  0.00    -0.083 Cl
HETATM    9  C   UNL     1     -22.403  -3.164 -12.939  1.00  0.00     0.050 C 
ENDROOT
BRANCH   4  10
HETATM   10  O   UNL     1     -25.954  -3.245  -9.622  1.00  0.00    -0.361 OA
HETATM   11  H   UNL     1     -26.114  -2.289  -9.682  1.00  0.00     0.217 HD
ENDBRANCH   4  10
TORSDOF 1
ENDMDL
MODEL 2
REMARK VINA RESULT:      -6.7      0.271      2.760
REMARK  1 active torsions:
REMARK  status: ('A' for Active; 'I' for Inactive)
REMARK    1  A    between atoms: C_4  and  O_10 
ROOT
HETATM    1  C   UNL     1     -22.601  -3.078 -13.138  1.00  0.00     0.050 C 
HETATM    2  C   UNL     1     -22.990  -3.350 -11.709  1.00  0.00    -0.037 A 
HETATM    3  C   UNL     1     -24.332  -3.202 -11.326  1.00  0.00     0.045 A 
HETATM    4  C   UNL     1     -24.709  -3.441 -10.009  1.00  0.00     0.066 A 
HETATM    5  C   UNL     1     -23.775  -3.830  -9.057  1.00  0.00     0.045 A 
HETATM    6  C   UNL     1     -22.429  -3.992  -9.411  1.00  0.00    -0.037 A 
HETATM    7  C   UNL     1     -22.041  -3.747 -10.743  1.00  0.00     0.046 A 
HETATM    8 CL   UNL     1     -20.377  -3.938 -11.203  1.00  0.00    -0.083 Cl
HETATM    9  C   UNL     1     -21.444  -4.431  -8.363  1.00  0.00     0.050 C 
ENDROOT
BRANCH   4  10
HETATM   10  O   UNL     1     -26.005  -3.305  -9.607  1.00  0.00    -0.361 OA
HETATM   11  H   UNL     1     -26.418  -4.182  -9.572  1.00  0.00     0.217 HD
ENDBRANCH   4  10
TORSDOF 1
ENDMDL
MODEL 3
REMARK VINA RESULT:      -6.4      2.350      3.508
REMARK  1 active torsions:
REMARK  status: ('A' for Active; 'I' for Inactive)
REMARK    1  A    between atoms: C_4  and  O_10 
ROOT
HETATM    1  C   UNL     1     -24.954  -3.295  -9.578  1.00  0.00     0.050 C 
HETATM    2  C   UNL     1     -23.600  -3.536 -10.190  1.00  0.00    -0.037 A 
HETATM    3  C   UNL     1     -23.425  -3.325 -11.566  1.00  0.00     0.045 A 
HETATM    4  C   UNL     1     -22.184  -3.549 -12.151  1.00  0.00     0.066 A 
HETATM    5  C   UNL     1     -21.102  -3.978 -11.392  1.00  0.00     0.045 A 
HETATM    6  C   UNL     1     -21.245  -4.191 -10.013  1.00  0.00    -0.037 A 
HETATM    7  C   UNL     1     -22.502  -3.969  -9.417  1.00  0.00     0.046 A 
HETATM    8 CL   UNL     1     -22.703  -4.231  -7.712  1.00  0.00    -0.083 Cl
HETATM    9  C   UNL     1     -20.053  -4.639  -9.214  1.00  0.00     0.050 C 
ENDROOT
BRANCH   4  10
HETATM   10  O   UNL     1     -21.983  -3.354 -13.485  1.00  0.00    -0.361 OA
HETATM   11  H   UNL     1     -21.572  -2.486 -13.619  1.00  0.00     0.217 HD
ENDBRANCH   4  10
TORSDOF 1
ENDMDL
MODEL 4
REMARK VINA RESULT:      -6.4      2.369      3.164
REMARK  1 active torsions:
REMARK  status: ('A' for Active; 'I' for Inactive)
REMARK    1  A    between atoms: C_4  and  O_10 
ROOT
HETATM    1  C   UNL     1     -19.948  -4.575  -9.069  1.00  0.00     0.050 C 
HETATM    2  C   UNL     1     -21.132  -4.164  -9.904  1.00  0.00    -0.037 A 
HETATM    3  C   UNL     1     -20.965  -3.988 -11.286  1.00  0.00     0.045 A 
HETATM    4  C   UNL     1     -22.045  -3.602 -12.073  1.00  0.00     0.066 A 
HETATM    5  C   UNL     1     -23.298  -3.387 -11.511  1.00  0.00     0.045 A 
HETATM    6  C   UNL     1     -23.496  -3.560 -10.134  1.00  0.00    -0.037 A 
HETATM    7  C   UNL     1     -22.404  -3.948  -9.333  1.00  0.00     0.046 A 
HETATM    8 CL   UNL     1     -22.626  -4.164  -7.624  1.00  0.00    -0.083 Cl
HETATM    9  C   UNL     1     -24.867  -3.336  -9.558  1.00  0.00     0.050 C 
ENDROOT
BRANCH   4  10
HETATM   10  O   UNL     1     -21.914  -3.423 -13.418  1.00  0.00    -0.361 OA
HETATM   11  H   UNL     1     -21.341  -4.120 -13.774  1.00  0.00     0.217 HD
ENDBRANCH   4  10
TORSDOF 1
ENDMDL
MODEL 5
REMARK VINA RESULT:      -6.1      1.581      2.258
REMARK  1 active torsions:
REMARK  status: ('A' for Active; 'I' for Inactive)
REMARK    1  A    between atoms: C_4  and  O_10 
ROOT
HETATM    1  C   UNL     1     -19.363  -4.354  -8.114  1.00  0.00     0.050 C 
HETATM    2  C   UNL     1     -20.835  -4.295  -8.422  1.00  0.00    -0.037 A 
HETATM    3  C   UNL     1     -21.758  -4.391  -7.369  1.00  0.00     0.045 A 
HETATM    4  C   UNL     1     -23.122  -4.345  -7.634  1.00  0.00     0.066 A 
HETATM    5  C   UNL     1     -23.594  -4.204  -8.933  1.00  0.00     0.045 A 
HETATM    6  C   UNL     1     -22.696  -4.100 -10.005  1.00  0.00    -0.037 A 
HETATM    7  C   UNL     1     -21.313  -4.149  -9.741  1.00  0.00     0.046 A 
HETATM    8 CL   UNL     1     -20.183  -4.025 -11.054  1.00  0.00    -0.083 Cl
HETATM    9  C   UNL     1     -23.236  -3.930 -11.398  1.00  0.00     0.050 C 
ENDROOT
BRANCH   4  10
HETATM   10  O   UNL     1     -24.043  -4.437  -6.632  1.00  0.00    -0.361 OA
HETATM   11  H   UNL     1     -24.933  -4.386  -7.016  1.00  0.00     0.217 HD
ENDBRANCH   4  10
TORSDOF 1
ENDMDL
MODEL 6
REMARK VINA RESULT:      -6.1      1.545      3.242
REMARK  1 active torsions:
REMARK  status: ('A' for Active; 'I' for Inactive)
REMARK    1  A    between atoms: C_4  and  O_10 
ROOT
HETATM    1  C   UNL     1     -23.316  -3.565 -11.449  1.00  0.00     0.050 C 
HETATM    2  C   UNL     1     -22.774  -3.859 -10.075  1.00  0.00    -0.037 A 
HETATM    3  C   UNL     1     -23.669  -4.011  -9.005  1.00  0.00     0.045 A 
HETATM    4  C   UNL     1     -23.187  -4.277  -7.728  1.00  0.00     0.066 A 
HETATM    5  C   UNL     1     -21.823  -4.396  -7.489  1.00  0.00     0.045 A 
HETATM    6  C   UNL     1     -20.905  -4.255  -8.539  1.00  0.00    -0.037 A 
HETATM    7  C   UNL     1     -21.389  -3.983  -9.834  1.00  0.00     0.046 A 
HETATM    8 CL   UNL     1     -20.269  -3.801 -11.149  1.00  0.00    -0.083 Cl
HETATM    9  C   UNL     1     -19.437  -4.408  -8.253  1.00  0.00     0.050 C 
ENDROOT
BRANCH   4  10
HETATM   10  O   UNL     1     -24.031  -4.428  -6.669  1.00  0.00    -0.361 OA
HETATM   11  H   UNL     1     -24.090  -5.371  -6.445  1.00  0.00     0.217 HD
ENDBRANCH   4  10
TORSDOF 1
ENDMDL
MODEL 7
REMARK VINA RESULT:      -6.1      1.316      1.621
REMARK  1 active torsions:
REMARK  status: ('A' for Active; 'I' for Inactive)
REMARK    1  A    between atoms: C_4  and  O_10 
ROOT
HETATM    1  C   UNL     1     -22.613  -4.756  -6.949  1.00  0.00     0.050 C 
HETATM    2  C   UNL     1     -22.668  -4.289  -8.379  1.00  0.00    -0.037 A 
HETATM    3  C   UNL     1     -23.909  -3.950  -8.940  1.00  0.00     0.045 A 
HETATM    4  C   UNL     1     -23.981  -3.523 -10.262  1.00  0.00     0.066 A 
HETATM    5  C   UNL     1     -22.837  -3.424 -11.044  1.00  0.00     0.045 A 
HETATM    6  C   UNL     1     -21.583  -3.750 -10.510  1.00  0.00    -0.037 A 
HETATM    7  C   UNL     1     -21.506  -4.185  -9.172  1.00  0.00     0.046 A 
HETATM    8 CL   UNL     1     -19.962  -4.598  -8.490  1.00  0.00    -0.083 Cl
HETATM    9  C   UNL     1     -20.361  -3.615 -11.375  1.00  0.00     0.050 C 
ENDROOT
BRANCH   4  10
HETATM   10  O   UNL     1     -25.172  -3.189 -10.835  1.00  0.00    -0.361 OA
HETATM   11  H   UNL     1     -25.219  -2.223 -10.921  1.00  0.00     0.217 HD
ENDBRANCH   4  10
TORSDOF 1
ENDMDL
MODEL 8
REMARK VINA RESULT:      -5.9      2.774      4.284
REMARK  1 active torsions:
REMARK  status: ('A' for Active; 'I' for Inactive)
REMARK    1  A    between atoms: C_4  and  O_10 
ROOT
HETATM    1  C   UNL     1     -24.304  -3.810  -9.553  1.00  0.00     0.050 C 
HETATM    2  C   UNL     1     -22.812  -4.010  -9.535  1.00  0.00    -0.037 A 
HETATM    3  C   UNL     1     -22.079  -3.793 -10.711  1.00  0.00     0.045 A 
HETATM    4  C   UNL     1     -20.701  -3.979 -10.716  1.00  0.00     0.066 A 
HETATM    5  C   UNL     1     -20.030  -4.379  -9.567  1.00  0.00     0.045 A 
HETATM    6  C   UNL     1     -20.734  -4.598  -8.375  1.00  0.00    -0.037 A 
HETATM    7  C   UNL     1     -22.131  -4.413  -8.367  1.00  0.00     0.046 A 
HETATM    8 CL   UNL     1     -23.025  -4.684  -6.902  1.00  0.00    -0.083 Cl
HETATM    9  C   UNL     1     -19.978  -5.013  -7.144  1.00  0.00     0.050 C 
ENDROOT
BRANCH   4  10
HETATM   10  O   UNL     1     -19.962  -3.777 -11.844  1.00  0.00    -0.361 OA
HETATM   11  H   UNL     1     -19.058  -3.532 -11.588  1.00  0.00     0.217 HD
ENDBRANCH   4  10
TORSDOF 1
ENDMDL
MODEL 9
REMARK VINA RESULT:      -5.2      9.222     10.507
REMARK  1 active torsions:
REMARK  status: ('A' for Active; 'I' for Inactive)
REMARK    1  A    between atoms: C_4  and  O_10 
ROOT
HETATM    1  C   UNL     1     -22.870  -7.830   1.064  1.00  0.00     0.050 C 
HETATM    2  C   UNL     1     -22.110  -7.850  -0.235  1.00  0.00    -0.037 A 
HETATM    3  C   UNL     1     -22.353  -6.847  -1.185  1.00  0.00     0.045 A 
HETATM    4  C   UNL     1     -21.665  -6.853  -2.394  1.00  0.00     0.066 A 
HETATM    5  C   UNL     1     -20.731  -7.841  -2.680  1.00  0.00     0.045 A 
HETATM    6  C   UNL     1     -20.462  -8.853  -1.747  1.00  0.00    -0.037 A 
HETATM    7  C   UNL     1     -21.160  -8.852  -0.523  1.00  0.00     0.046 A 
HETATM    8 CL   UNL     1     -20.845 -10.099   0.645  1.00  0.00    -0.083 Cl
HETATM    9  C   UNL     1     -19.434  -9.898  -2.078  1.00  0.00     0.050 C 
ENDROOT
BRANCH   4  10
HETATM   10  O   UNL     1     -21.881  -5.893  -3.337  1.00  0.00    -0.361 OA
HETATM   11  H   UNL     1     -21.181  -5.947  -4.008  1.00  0.00     0.217 HD
ENDBRANCH   4  10
TORSDOF 1
ENDMDL
