MODEL 1
REMARK VINA RESULT:      -8.7      0.000      0.000
REMARK  11 active torsions:
REMARK  status: ('A' for Active; 'I' for Inactive)
REMARK    1  A    between atoms: C_2  and  C_4 
REMARK    2  A    between atoms: C_4  and  C_5 
REMARK    3  A    between atoms: C_5  and  C_6 
REMARK    4  A    between atoms: C_6  and  C_7 
REMARK    5  A    between atoms: C_7  and  C_9 
REMARK    6  A    between atoms: C_24  and  O_26 
REMARK    7  A    between atoms: O_26  and  C_27 
REMARK    8  A    between atoms: C_27  and  C_29 
REMARK    9  A    between atoms: C_29  and  C_30 
REMARK   10  A    between atoms: C_30  and  C_31 
REMARK   11  A    between atoms: C_31  and  O_33 
ROOT
HETATM    1  C   UNL     1     -18.331 -11.534  -1.818  1.00  0.00    -0.002 C 
HETATM    2  C   UNL     1     -17.837 -13.039  -2.493  1.00  0.00     0.006 C 
HETATM    3  C   UNL     1     -18.875 -14.076  -1.918  1.00  0.00     0.006 C 
HETATM    4  C   UNL     1     -19.915 -13.139  -1.306  1.00  0.00    -0.001 C 
HETATM    5  C   UNL     1     -19.038 -12.170  -0.507  1.00  0.00    -0.036 C 
HETATM    6  C   UNL     1     -20.003 -11.443   0.434  1.00  0.00     0.010 C 
HETATM    7  C   UNL     1     -20.084 -10.087  -0.109  1.00  0.00     0.007 C 
HETATM    8  C   UNL     1     -20.723 -10.324  -1.476  1.00  0.00     0.003 C 
HETATM    9  C   UNL     1     -20.528 -12.134  -2.403  1.00  0.00    -0.001 C 
HETATM   10  C   UNL     1     -20.422 -12.019  -4.411  1.00  0.00     0.033 C 
HETATM   11  C   UNL     1     -20.347 -10.251  -5.146  1.00  0.00    -0.023 C 
HETATM   12  C   UNL     1     -20.561  -8.976  -4.406  1.00  0.00    -0.072 C 
HETATM   13  C   UNL     1     -20.636  -8.694  -2.530  1.00  0.00    -0.017 C 
HETATM   14  C   UNL     1     -21.868  -7.709  -2.363  1.00  0.00     0.016 C 
HETATM   15  C   UNL     1     -21.654  -6.467  -3.263  1.00  0.00     0.034 C 
HETATM   16  C   UNL     1     -22.009  -6.851  -4.685  1.00  0.00     0.136 C 
HETATM   17  C   UNL     1     -21.042  -7.858  -5.306  1.00  0.00     0.067 C 
HETATM   18  C   UNL     1     -19.580  -7.732  -1.699  1.00  0.00     0.020 C 
HETATM   19  C   UNL     1     -17.916 -12.666   0.420  1.00  0.00     0.016 C 
ENDROOT
BRANCH  16  20
HETATM   20  O   UNL     1     -22.216  -5.694  -5.511  1.00  0.00    -0.316 OA
BRANCH  20  21
HETATM   21  C   UNL     1     -21.153  -5.113  -6.115  1.00  0.00     0.259 C 
HETATM   22  O   UNL     1     -20.213  -4.556  -5.566  1.00  0.00    -0.265 OA
BRANCH  21  23
HETATM   23  C   UNL     1     -21.287  -5.266  -7.595  1.00  0.00     0.121 C 
BRANCH  23  24
HETATM   24  C   UNL     1     -21.706  -3.934  -8.191  1.00  0.00     0.119 C 
BRANCH  24  25
HETATM   25  C   UNL     1     -23.133  -3.987  -8.651  1.00  0.00     0.139 C 
HETATM   26  O   UNL     1     -23.506  -3.855  -9.805  1.00  0.00    -0.650 OA
BRANCH  25  27
HETATM   27  O   UNL     1     -23.990  -4.194  -7.625  1.00  0.00    -0.776 OA
HETATM   28  H   UNL     1     -23.625  -4.769  -6.925  1.00  0.00     0.167 HD
ENDBRANCH  25  27
ENDBRANCH  24  25
ENDBRANCH  23  24
ENDBRANCH  21  23
ENDBRANCH  20  21
ENDBRANCH  16  20
BRANCH   1  29
HETATM   29  C   UNL     1     -19.394 -10.549  -3.064  1.00  0.00    -0.014 C 
HETATM   30  C   UNL     1     -18.140  -9.637  -3.853  1.00  0.00     0.010 C 
BRANCH  29  31
HETATM   31  C   UNL     1     -21.545 -10.415  -3.050  1.00  0.00     0.005 C 
BRANCH  31  32
HETATM   32  C   UNL     1     -22.863 -11.760  -2.873  1.00  0.00     0.001 C 
BRANCH  32  33
HETATM   33  C   UNL     1     -24.147 -11.602  -1.901  1.00  0.00     0.004 C 
BRANCH  33  34
HETATM   34  C   UNL     1     -24.122 -11.364  -0.344  1.00  0.00    -0.023 C 
HETATM   35  C   UNL     1     -23.443 -12.415   0.532  1.00  0.00     0.009 C 
HETATM   36  C   UNL     1     -23.716  -9.965   0.115  1.00  0.00     0.009 C 
ENDBRANCH  33  34
ENDBRANCH  32  33
ENDBRANCH  31  32
ENDBRANCH  29  31
ENDBRANCH   1  29
TORSDOF 11
ENDMDL
MODEL 2
REMARK VINA RESULT:      -8.4      1.392      2.487
REMARK  11 active torsions:
REMARK  status: ('A' for Active; 'I' for Inactive)
REMARK    1  A    between atoms: C_2  and  C_4 
REMARK    2  A    between atoms: C_4  and  C_5 
REMARK    3  A    between atoms: C_5  and  C_6 
REMARK    4  A    between atoms: C_6  and  C_7 
REMARK    5  A    between atoms: C_7  and  C_9 
REMARK    6  A    between atoms: C_24  and  O_26 
REMARK    7  A    between atoms: O_26  and  C_27 
REMARK    8  A    between atoms: C_27  and  C_29 
REMARK    9  A    between atoms: C_29  and  C_30 
REMARK   10  A    between atoms: C_30  and  C_31 
REMARK   11  A    between atoms: C_31  and  O_33 
ROOT
HETATM    1  C   UNL     1     -19.306 -14.045  -1.808  1.00  0.00    -0.002 C 
HETATM    2  C   UNL     1     -20.305 -15.420  -1.529  1.00  0.00     0.006 C 
HETATM    3  C   UNL     1     -20.822 -15.225  -0.053  1.00  0.00     0.006 C 
HETATM    4  C   UNL     1     -20.383 -13.789   0.223  1.00  0.00    -0.001 C 
HETATM    5  C   UNL     1     -18.926 -13.805  -0.252  1.00  0.00    -0.036 C 
HETATM    6  C   UNL     1     -18.302 -12.535   0.333  1.00  0.00     0.010 C 
HETATM    7  C   UNL     1     -18.113 -11.659  -0.823  1.00  0.00     0.007 C 
HETATM    8  C   UNL     1     -19.550 -11.407  -1.275  1.00  0.00     0.003 C 
HETATM    9  C   UNL     1     -21.018 -12.759  -0.838  1.00  0.00    -0.001 C 
HETATM   10  C   UNL     1     -22.443 -12.909  -2.255  1.00  0.00     0.033 C 
HETATM   11  C   UNL     1     -22.136 -11.909  -3.860  1.00  0.00    -0.023 C 
HETATM   12  C   UNL     1     -21.069 -10.892  -4.077  1.00  0.00    -0.072 C 
HETATM   13  C   UNL     1     -19.545 -10.525  -3.007  1.00  0.00    -0.017 C 
HETATM   14  C   UNL     1     -19.508  -8.941  -2.963  1.00  0.00     0.016 C 
HETATM   15  C   UNL     1     -19.511  -8.389  -4.410  1.00  0.00     0.034 C 
HETATM   16  C   UNL     1     -20.932  -8.454  -4.933  1.00  0.00     0.136 C 
HETATM   17  C   UNL     1     -21.444  -9.880  -5.139  1.00  0.00     0.067 C 
HETATM   18  C   UNL     1     -17.987 -10.684  -3.536  1.00  0.00     0.020 C 
HETATM   19  C   UNL     1     -17.952 -14.922   0.156  1.00  0.00     0.016 C 
ENDROOT
BRANCH  16  20
HETATM   20  O   UNL     1     -21.109  -7.626  -6.094  1.00  0.00    -0.316 OA
BRANCH  20  21
HETATM   21  C   UNL     1     -21.609  -6.377  -5.946  1.00  0.00     0.259 C 
HETATM   22  O   UNL     1     -22.094  -5.897  -4.932  1.00  0.00    -0.265 OA
BRANCH  21  23
HETATM   23  C   UNL     1     -21.467  -5.638  -7.237  1.00  0.00     0.121 C 
BRANCH  23  24
HETATM   24  C   UNL     1     -22.447  -4.479  -7.251  1.00  0.00     0.119 C 
BRANCH  24  25
HETATM   25  C   UNL     1     -23.061  -4.322  -8.611  1.00  0.00     0.139 C 
HETATM   26  O   UNL     1     -22.590  -4.757  -9.650  1.00  0.00    -0.650 OA
BRANCH  25  27
HETATM   27  O   UNL     1     -24.218  -3.624  -8.569  1.00  0.00    -0.776 OA
HETATM   28  H   UNL     1     -24.837  -3.940  -7.884  1.00  0.00     0.167 HD
ENDBRANCH  25  27
ENDBRANCH  24  25
ENDBRANCH  23  24
ENDBRANCH  21  23
ENDBRANCH  20  21
ENDBRANCH  16  20
BRANCH   1  29
HETATM   29  C   UNL     1     -20.266 -12.690  -2.752  1.00  0.00    -0.014 C 
HETATM   30  C   UNL     1     -19.861 -13.136  -4.385  1.00  0.00     0.010 C 
BRANCH  29  31
HETATM   31  C   UNL     1     -21.172 -10.944  -1.869  1.00  0.00     0.005 C 
BRANCH  31  32
HETATM   32  C   UNL     1     -22.938 -10.647  -1.261  1.00  0.00     0.001 C 
BRANCH  32  33
HETATM   33  C   UNL     1     -23.281  -9.666  -0.021  1.00  0.00     0.004 C 
BRANCH  33  34
HETATM   34  C   UNL     1     -22.478  -8.381   0.409  1.00  0.00    -0.023 C 
HETATM   35  C   UNL     1     -21.187  -8.573   1.202  1.00  0.00     0.009 C 
HETATM   36  C   UNL     1     -22.268  -7.325  -0.676  1.00  0.00     0.009 C 
ENDBRANCH  33  34
ENDBRANCH  32  33
ENDBRANCH  31  32
ENDBRANCH  29  31
ENDBRANCH   1  29
TORSDOF 11
ENDMDL
MODEL 3
REMARK VINA RESULT:      -8.4      1.632      3.236
REMARK  11 active torsions:
REMARK  status: ('A' for Active; 'I' for Inactive)
REMARK    1  A    between atoms: C_2  and  C_4 
REMARK    2  A    between atoms: C_4  and  C_5 
REMARK    3  A    between atoms: C_5  and  C_6 
REMARK    4  A    between atoms: C_6  and  C_7 
REMARK    5  A    between atoms: C_7  and  C_9 
REMARK    6  A    between atoms: C_24  and  O_26 
REMARK    7  A    between atoms: O_26  and  C_27 
REMARK    8  A    between atoms: C_27  and  C_29 
REMARK    9  A    between atoms: C_29  and  C_30 
REMARK   10  A    between atoms: C_30  and  C_31 
REMARK   11  A    between atoms: C_31  and  O_33 
ROOT
HETATM    1  C   UNL     1     -19.961 -10.896  -1.046  1.00  0.00    -0.002 C 
HETATM    2  C   UNL     1     -19.079 -12.375  -0.997  1.00  0.00     0.006 C 
HETATM    3  C   UNL     1     -20.172 -13.481  -1.253  1.00  0.00     0.006 C 
HETATM    4  C   UNL     1     -21.360 -12.623  -1.683  1.00  0.00    -0.001 C 
HETATM    5  C   UNL     1     -21.378 -11.540  -0.600  1.00  0.00    -0.036 C 
HETATM    6  C   UNL     1     -22.749 -10.868  -0.729  1.00  0.00     0.010 C 
HETATM    7  C   UNL     1     -22.454  -9.551  -1.295  1.00  0.00     0.007 C 
HETATM    8  C   UNL     1     -21.884  -9.908  -2.666  1.00  0.00     0.003 C 
HETATM    9  C   UNL     1     -21.013 -11.730  -2.976  1.00  0.00    -0.001 C 
HETATM   10  C   UNL     1     -19.478 -11.693  -4.280  1.00  0.00     0.033 C 
HETATM   11  C   UNL     1     -18.950  -9.960  -4.904  1.00  0.00    -0.023 C 
HETATM   12  C   UNL     1     -19.681  -8.680  -4.682  1.00  0.00    -0.072 C 
HETATM   13  C   UNL     1     -21.111  -8.325  -3.485  1.00  0.00    -0.017 C 
HETATM   14  C   UNL     1     -22.107  -7.457  -4.363  1.00  0.00     0.016 C 
HETATM   15  C   UNL     1     -21.347  -6.240  -4.946  1.00  0.00     0.034 C 
HETATM   16  C   UNL     1     -20.538  -6.719  -6.134  1.00  0.00     0.136 C 
HETATM   17  C   UNL     1     -19.390  -7.655  -5.757  1.00  0.00     0.067 C 
HETATM   18  C   UNL     1     -21.029  -7.231  -2.250  1.00  0.00     0.020 C 
HETATM   19  C   UNL     1     -21.272 -11.884   0.895  1.00  0.00     0.016 C 
ENDROOT
BRANCH  16  20
HETATM   20  O   UNL     1     -20.115  -5.625  -6.964  1.00  0.00    -0.316 OA
BRANCH  20  21
HETATM   21  C   UNL     1     -21.038  -4.751  -7.429  1.00  0.00     0.259 C 
HETATM   22  O   UNL     1     -21.405  -3.717  -6.889  1.00  0.00    -0.265 OA
BRANCH  21  23
HETATM   23  C   UNL     1     -21.551  -5.236  -8.745  1.00  0.00     0.121 C 
BRANCH  23  24
HETATM   24  C   UNL     1     -22.265  -4.095  -9.446  1.00  0.00     0.119 C 
BRANCH  24  25
HETATM   25  C   UNL     1     -23.752  -4.277  -9.373  1.00  0.00     0.139 C 
HETATM   26  O   UNL     1     -24.433  -4.850 -10.208  1.00  0.00    -0.650 OA
BRANCH  25  27
HETATM   27  O   UNL     1     -24.278  -3.721  -8.258  1.00  0.00    -0.776 OA
HETATM   28  H   UNL     1     -23.679  -3.085  -7.822  1.00  0.00     0.167 HD
ENDBRANCH  25  27
ENDBRANCH  24  25
ENDBRANCH  23  24
ENDBRANCH  21  23
ENDBRANCH  20  21
ENDBRANCH  16  20
BRANCH   1  29
HETATM   29  C   UNL     1     -19.810 -10.073  -2.764  1.00  0.00    -0.014 C 
HETATM   30  C   UNL     1     -18.421  -9.065  -2.479  1.00  0.00     0.010 C 
BRANCH  29  31
HETATM   31  C   UNL     1     -21.284 -10.164  -4.334  1.00  0.00     0.005 C 
BRANCH  31  32
HETATM   32  C   UNL     1     -21.934 -11.634  -5.331  1.00  0.00     0.001 C 
BRANCH  32  33
HETATM   33  C   UNL     1     -21.629 -11.824  -6.908  1.00  0.00     0.004 C 
BRANCH  33  34
HETATM   34  C   UNL     1     -20.795 -12.985  -7.570  1.00  0.00    -0.023 C 
HETATM   35  C   UNL     1     -19.335 -12.709  -7.924  1.00  0.00     0.009 C 
HETATM   36  C   UNL     1     -20.919 -14.359  -6.914  1.00  0.00     0.009 C 
ENDBRANCH  33  34
ENDBRANCH  32  33
ENDBRANCH  31  32
ENDBRANCH  29  31
ENDBRANCH   1  29
TORSDOF 11
ENDMDL
MODEL 4
REMARK VINA RESULT:      -8.3      1.697      4.553
REMARK  11 active torsions:
REMARK  status: ('A' for Active; 'I' for Inactive)
REMARK    1  A    between atoms: C_2  and  C_4 
REMARK    2  A    between atoms: C_4  and  C_5 
REMARK    3  A    between atoms: C_5  and  C_6 
REMARK    4  A    between atoms: C_6  and  C_7 
REMARK    5  A    between atoms: C_7  and  C_9 
REMARK    6  A    between atoms: C_24  and  O_26 
REMARK    7  A    between atoms: O_26  and  C_27 
REMARK    8  A    between atoms: C_27  and  C_29 
REMARK    9  A    between atoms: C_29  and  C_30 
REMARK   10  A    between atoms: C_30  and  C_31 
REMARK   11  A    between atoms: C_31  and  O_33 
ROOT
HETATM    1  C   UNL     1     -23.066 -13.093   0.062  1.00  0.00    -0.002 C 
HETATM    2  C   UNL     1     -22.984 -13.449   1.745  1.00  0.00     0.006 C 
HETATM    3  C   UNL     1     -21.693 -14.342   1.886  1.00  0.00     0.006 C 
HETATM    4  C   UNL     1     -21.067 -14.169   0.503  1.00  0.00    -0.001 C 
HETATM    5  C   UNL     1     -22.264 -14.415  -0.420  1.00  0.00    -0.036 C 
HETATM    6  C   UNL     1     -21.658 -14.640  -1.808  1.00  0.00     0.010 C 
HETATM    7  C   UNL     1     -22.006 -13.430  -2.555  1.00  0.00     0.007 C 
HETATM    8  C   UNL     1     -21.245 -12.349  -1.791  1.00  0.00     0.003 C 
HETATM    9  C   UNL     1     -20.764 -12.624   0.176  1.00  0.00    -0.001 C 
HETATM   10  C   UNL     1     -20.785 -10.931   1.268  1.00  0.00     0.033 C 
HETATM   11  C   UNL     1     -21.407  -9.359   0.367  1.00  0.00    -0.023 C 
HETATM   12  C   UNL     1     -21.678  -9.226  -1.092  1.00  0.00    -0.072 C 
HETATM   13  C   UNL     1     -21.813 -10.594  -2.402  1.00  0.00    -0.017 C 
HETATM   14  C   UNL     1     -20.996 -10.003  -3.626  1.00  0.00     0.016 C 
HETATM   15  C   UNL     1     -21.562  -8.608  -3.992  1.00  0.00     0.034 C 
HETATM   16  C   UNL     1     -21.015  -7.605  -2.996  1.00  0.00     0.136 C 
HETATM   17  C   UNL     1     -21.549  -7.798  -1.577  1.00  0.00     0.067 C 
HETATM   18  C   UNL     1     -23.178 -10.897  -3.283  1.00  0.00     0.020 C 
HETATM   19  C   UNL     1     -23.207 -15.614  -0.227  1.00  0.00     0.016 C 
ENDROOT
BRANCH  16  20
HETATM   20  O   UNL     1     -21.162  -6.256  -3.468  1.00  0.00    -0.316 OA
BRANCH  20  21
HETATM   21  C   UNL     1     -21.579  -6.039  -4.737  1.00  0.00     0.259 C 
HETATM   22  O   UNL     1     -22.731  -6.067  -5.144  1.00  0.00    -0.265 OA
BRANCH  21  23
HETATM   23  C   UNL     1     -20.394  -5.738  -5.596  1.00  0.00     0.121 C 
BRANCH  23  24
HETATM   24  C   UNL     1     -20.830  -5.729  -7.050  1.00  0.00     0.119 C 
BRANCH  24  25
HETATM   25  C   UNL     1     -20.894  -4.324  -7.574  1.00  0.00     0.139 C 
HETATM   26  O   UNL     1     -20.016  -3.773  -8.217  1.00  0.00    -0.650 OA
BRANCH  25  27
HETATM   27  O   UNL     1     -22.054  -3.712  -7.246  1.00  0.00    -0.776 OA
HETATM   28  H   UNL     1     -22.010  -2.739  -7.307  1.00  0.00     0.167 HD
ENDBRANCH  25  27
ENDBRANCH  24  25
ENDBRANCH  23  24
ENDBRANCH  21  23
ENDBRANCH  20  21
ENDBRANCH  16  20
BRANCH   1  29
HETATM   29  C   UNL     1     -22.325 -11.370  -0.303  1.00  0.00    -0.014 C 
HETATM   30  C   UNL     1     -23.794 -10.447  -0.433  1.00  0.00     0.010 C 
BRANCH  29  31
HETATM   31  C   UNL     1     -20.267 -10.967  -0.804  1.00  0.00     0.005 C 
BRANCH  31  32
HETATM   32  C   UNL     1     -18.835 -12.147  -1.170  1.00  0.00     0.001 C 
BRANCH  32  33
HETATM   33  C   UNL     1     -17.350 -11.627  -1.547  1.00  0.00     0.004 C 
BRANCH  33  34
HETATM   34  C   UNL     1     -16.941 -10.799  -2.824  1.00  0.00    -0.023 C 
HETATM   35  C   UNL     1     -17.465  -9.369  -2.949  1.00  0.00     0.009 C 
HETATM   36  C   UNL     1     -15.464 -10.847  -3.211  1.00  0.00     0.009 C 
ENDBRANCH  33  34
ENDBRANCH  32  33
ENDBRANCH  31  32
ENDBRANCH  29  31
ENDBRANCH   1  29
TORSDOF 11
ENDMDL
MODEL 5
REMARK VINA RESULT:      -8.3      4.324      7.010
REMARK  11 active torsions:
REMARK  status: ('A' for Active; 'I' for Inactive)
REMARK    1  A    between atoms: C_2  and  C_4 
REMARK    2  A    between atoms: C_4  and  C_5 
REMARK    3  A    between atoms: C_5  and  C_6 
REMARK    4  A    between atoms: C_6  and  C_7 
REMARK    5  A    between atoms: C_7  and  C_9 
REMARK    6  A    between atoms: C_24  and  O_26 
REMARK    7  A    between atoms: O_26  and  C_27 
REMARK    8  A    between atoms: C_27  and  C_29 
REMARK    9  A    between atoms: C_29  and  C_30 
REMARK   10  A    between atoms: C_30  and  C_31 
REMARK   11  A    between atoms: C_31  and  O_33 
ROOT
HETATM    1  C   UNL     1     -20.559 -10.397  -0.447  1.00  0.00    -0.002 C 
HETATM    2  C   UNL     1     -21.673 -11.434   0.359  1.00  0.00     0.006 C 
HETATM    3  C   UNL     1     -23.086 -10.901  -0.091  1.00  0.00     0.006 C 
HETATM    4  C   UNL     1     -22.693  -9.941  -1.212  1.00  0.00    -0.001 C 
HETATM    5  C   UNL     1     -21.567  -9.134  -0.558  1.00  0.00    -0.036 C 
HETATM    6  C   UNL     1     -21.377  -7.911  -1.460  1.00  0.00     0.010 C 
HETATM    7  C   UNL     1     -20.099  -8.151  -2.130  1.00  0.00     0.007 C 
HETATM    8  C   UNL     1     -20.395  -9.401  -2.954  1.00  0.00     0.003 C 
HETATM    9  C   UNL     1     -21.873 -10.689  -2.376  1.00  0.00    -0.001 C 
HETATM   10  C   UNL     1     -21.487 -12.621  -2.797  1.00  0.00     0.033 C 
HETATM   11  C   UNL     1     -19.749 -12.992  -3.512  1.00  0.00    -0.023 C 
HETATM   12  C   UNL     1     -18.748 -11.987  -3.968  1.00  0.00    -0.072 C 
HETATM   13  C   UNL     1     -18.740 -10.109  -3.687  1.00  0.00    -0.017 C 
HETATM   14  C   UNL     1     -18.324  -9.535  -5.105  1.00  0.00     0.016 C 
HETATM   15  C   UNL     1     -16.995 -10.193  -5.552  1.00  0.00     0.034 C 
HETATM   16  C   UNL     1     -17.313 -11.577  -6.081  1.00  0.00     0.136 C 
HETATM   17  C   UNL     1     -17.797 -12.548  -5.005  1.00  0.00     0.067 C 
HETATM   18  C   UNL     1     -17.557  -9.305  -2.860  1.00  0.00     0.020 C 
HETATM   19  C   UNL     1     -21.707  -8.538   0.852  1.00  0.00     0.016 C 
ENDROOT
BRANCH  16  20
HETATM   20  O   UNL     1     -16.231 -12.107  -6.864  1.00  0.00    -0.316 OA
BRANCH  20  21
HETATM   21  C   UNL     1     -15.317 -12.911  -6.271  1.00  0.00     0.259 C 
HETATM   22  O   UNL     1     -15.373 -14.126  -6.159  1.00  0.00    -0.265 OA
BRANCH  21  23
HETATM   23  C   UNL     1     -14.184 -12.075  -5.769  1.00  0.00     0.121 C 
BRANCH  23  24
HETATM   24  C   UNL     1     -13.637 -12.700  -4.499  1.00  0.00     0.119 C 
BRANCH  24  25
HETATM   25  C   UNL     1     -14.621 -12.559  -3.375  1.00  0.00     0.139 C 
HETATM   26  O   UNL     1     -14.963 -11.503  -2.868  1.00  0.00    -0.650 OA
BRANCH  25  27
HETATM   27  O   UNL     1     -15.099 -13.755  -2.964  1.00  0.00    -0.776 OA
HETATM   28  H   UNL     1     -14.514 -14.504  -3.188  1.00  0.00     0.167 HD
ENDBRANCH  25  27
ENDBRANCH  24  25
ENDBRANCH  23  24
ENDBRANCH  21  23
ENDBRANCH  20  21
ENDBRANCH  16  20
BRANCH   1  29
HETATM   29  C   UNL     1     -19.909 -11.213  -2.048  1.00  0.00    -0.014 C 
HETATM   30  C   UNL     1     -18.516 -12.034  -1.406  1.00  0.00     0.010 C 
BRANCH  29  31
HETATM   31  C   UNL     1     -20.586 -10.774  -4.047  1.00  0.00     0.005 C 
BRANCH  31  32
HETATM   32  C   UNL     1     -21.778 -11.712  -5.178  1.00  0.00     0.001 C 
BRANCH  32  33
HETATM   33  C   UNL     1     -21.500 -11.922  -6.758  1.00  0.00     0.004 C 
BRANCH  33  34
HETATM   34  C   UNL     1     -20.987 -13.239  -7.453  1.00  0.00    -0.023 C 
HETATM   35  C   UNL     1     -19.687 -13.168  -8.252  1.00  0.00     0.009 C 
HETATM   36  C   UNL     1     -21.000 -14.502  -6.594  1.00  0.00     0.009 C 
ENDBRANCH  33  34
ENDBRANCH  32  33
ENDBRANCH  31  32
ENDBRANCH  29  31
ENDBRANCH   1  29
TORSDOF 11
ENDMDL
MODEL 6
REMARK VINA RESULT:      -8.2      1.957      4.262
REMARK  11 active torsions:
REMARK  status: ('A' for Active; 'I' for Inactive)
REMARK    1  A    between atoms: C_2  and  C_4 
REMARK    2  A    between atoms: C_4  and  C_5 
REMARK    3  A    between atoms: C_5  and  C_6 
REMARK    4  A    between atoms: C_6  and  C_7 
REMARK    5  A    between atoms: C_7  and  C_9 
REMARK    6  A    between atoms: C_24  and  O_26 
REMARK    7  A    between atoms: O_26  and  C_27 
REMARK    8  A    between atoms: C_27  and  C_29 
REMARK    9  A    between atoms: C_29  and  C_30 
REMARK   10  A    between atoms: C_30  and  C_31 
REMARK   11  A    between atoms: C_31  and  O_33 
ROOT
HETATM    1  C   UNL     1     -22.423 -14.757  -0.182  1.00  0.00    -0.002 C 
HETATM    2  C   UNL     1     -23.814 -14.967   0.811  1.00  0.00     0.006 C 
HETATM    3  C   UNL     1     -23.351 -14.464   2.231  1.00  0.00     0.006 C 
HETATM    4  C   UNL     1     -22.017 -13.805   1.886  1.00  0.00    -0.001 C 
HETATM    5  C   UNL     1     -21.347 -14.879   1.023  1.00  0.00    -0.036 C 
HETATM    6  C   UNL     1     -19.873 -14.471   0.953  1.00  0.00     0.010 C 
HETATM    7  C   UNL     1     -19.692 -14.005  -0.422  1.00  0.00     0.007 C 
HETATM    8  C   UNL     1     -20.603 -12.781  -0.472  1.00  0.00     0.003 C 
HETATM    9  C   UNL     1     -22.196 -12.632   0.799  1.00  0.00    -0.001 C 
HETATM   10  C   UNL     1     -23.790 -11.687   0.009  1.00  0.00     0.033 C 
HETATM   11  C   UNL     1     -23.653 -11.221  -1.844  1.00  0.00    -0.023 C 
HETATM   12  C   UNL     1     -22.428 -11.305  -2.689  1.00  0.00    -0.072 C 
HETATM   13  C   UNL     1     -20.784 -12.174  -2.309  1.00  0.00    -0.017 C 
HETATM   14  C   UNL     1     -19.701 -11.119  -2.787  1.00  0.00     0.016 C 
HETATM   15  C   UNL     1     -19.978 -10.734  -4.261  1.00  0.00     0.034 C 
HETATM   16  C   UNL     1     -21.120  -9.737  -4.277  1.00  0.00     0.136 C 
HETATM   17  C   UNL     1     -22.461 -10.335  -3.851  1.00  0.00     0.067 C 
HETATM   18  C   UNL     1     -20.169 -13.418  -3.207  1.00  0.00     0.020 C 
HETATM   19  C   UNL     1     -21.306 -16.355   1.449  1.00  0.00     0.016 C 
ENDROOT
BRANCH  16  20
HETATM   20  O   UNL     1     -21.195  -9.037  -5.530  1.00  0.00    -0.316 OA
BRANCH  20  21
HETATM   21  C   UNL     1     -20.472  -7.905  -5.700  1.00  0.00     0.259 C 
HETATM   22  O   UNL     1     -19.277  -7.829  -5.942  1.00  0.00    -0.265 OA
BRANCH  21  23
HETATM   23  C   UNL     1     -21.376  -6.723  -5.560  1.00  0.00     0.121 C 
BRANCH  23  24
HETATM   24  C   UNL     1     -21.279  -5.879  -6.818  1.00  0.00     0.119 C 
BRANCH  24  25
HETATM   25  C   UNL     1     -22.263  -4.747  -6.770  1.00  0.00     0.139 C 
HETATM   26  O   UNL     1     -23.448  -4.855  -6.496  1.00  0.00    -0.650 OA
BRANCH  25  27
HETATM   27  O   UNL     1     -21.689  -3.561  -7.077  1.00  0.00    -0.776 OA
HETATM   28  H   UNL     1     -21.683  -3.369  -8.034  1.00  0.00     0.167 HD
ENDBRANCH  25  27
ENDBRANCH  24  25
ENDBRANCH  23  24
ENDBRANCH  21  23
ENDBRANCH  20  21
ENDBRANCH  16  20
BRANCH   1  29
HETATM   29  C   UNL     1     -22.536 -13.126  -1.170  1.00  0.00    -0.014 C 
HETATM   30  C   UNL     1     -23.304 -13.717  -2.614  1.00  0.00     0.010 C 
BRANCH  29  31
HETATM   31  C   UNL     1     -21.549 -11.278  -0.661  1.00  0.00     0.005 C 
BRANCH  31  32
HETATM   32  C   UNL     1     -22.136  -9.815   0.384  1.00  0.00     0.001 C 
BRANCH  32  33
HETATM   33  C   UNL     1     -22.578  -8.400  -0.265  1.00  0.00     0.004 C 
BRANCH  33  34
HETATM   34  C   UNL     1     -21.632  -7.349  -0.959  1.00  0.00    -0.023 C 
HETATM   35  C   UNL     1     -20.333  -7.857  -1.583  1.00  0.00     0.009 C 
HETATM   36  C   UNL     1     -22.308  -6.357  -1.903  1.00  0.00     0.009 C 
ENDBRANCH  33  34
ENDBRANCH  32  33
ENDBRANCH  31  32
ENDBRANCH  29  31
ENDBRANCH   1  29
TORSDOF 11
ENDMDL
MODEL 7
REMARK VINA RESULT:      -8.0      3.955      6.881
REMARK  11 active torsions:
REMARK  status: ('A' for Active; 'I' for Inactive)
REMARK    1  A    between atoms: C_2  and  C_4 
REMARK    2  A    between atoms: C_4  and  C_5 
REMARK    3  A    between atoms: C_5  and  C_6 
REMARK    4  A    between atoms: C_6  and  C_7 
REMARK    5  A    between atoms: C_7  and  C_9 
REMARK    6  A    between atoms: C_24  and  O_26 
REMARK    7  A    between atoms: O_26  and  C_27 
REMARK    8  A    between atoms: C_27  and  C_29 
REMARK    9  A    between atoms: C_29  and  C_30 
REMARK   10  A    between atoms: C_30  and  C_31 
REMARK   11  A    between atoms: C_31  and  O_33 
ROOT
HETATM    1  C   UNL     1     -21.922 -12.545  -1.235  1.00  0.00    -0.002 C 
HETATM    2  C   UNL     1     -23.593 -12.573  -1.650  1.00  0.00     0.006 C 
HETATM    3  C   UNL     1     -24.202 -11.345  -0.873  1.00  0.00     0.006 C 
HETATM    4  C   UNL     1     -22.932 -10.637  -0.406  1.00  0.00    -0.001 C 
HETATM    5  C   UNL     1     -22.123 -11.795   0.187  1.00  0.00    -0.036 C 
HETATM    6  C   UNL     1     -21.019 -11.129   1.013  1.00  0.00     0.010 C 
HETATM    7  C   UNL     1     -19.798 -11.367   0.244  1.00  0.00     0.007 C 
HETATM    8  C   UNL     1     -20.068 -10.588  -1.042  1.00  0.00     0.003 C 
HETATM    9  C   UNL     1     -21.988 -10.230  -1.643  1.00  0.00    -0.001 C 
HETATM   10  C   UNL     1     -22.230 -10.213  -3.643  1.00  0.00     0.033 C 
HETATM   11  C   UNL     1     -20.692 -10.695  -4.678  1.00  0.00    -0.023 C 
HETATM   12  C   UNL     1     -19.305 -10.881  -4.165  1.00  0.00    -0.072 C 
HETATM   13  C   UNL     1     -18.715 -11.023  -2.367  1.00  0.00    -0.017 C 
HETATM   14  C   UNL     1     -17.419 -10.109  -2.340  1.00  0.00     0.016 C 
HETATM   15  C   UNL     1     -16.443 -10.575  -3.448  1.00  0.00     0.034 C 
HETATM   16  C   UNL     1     -16.939 -10.026  -4.770  1.00  0.00     0.136 C 
HETATM   17  C   UNL     1     -18.258 -10.645  -5.234  1.00  0.00     0.067 C 
HETATM   18  C   UNL     1     -17.957 -12.354  -1.747  1.00  0.00     0.020 C 
HETATM   19  C   UNL     1     -22.750 -12.813   1.153  1.00  0.00     0.016 C 
ENDROOT
BRANCH  16  20
HETATM   20  O   UNL     1     -15.918 -10.070  -5.781  1.00  0.00    -0.316 OA
BRANCH  20  21
HETATM   21  C   UNL     1     -15.558 -11.264  -6.307  1.00  0.00     0.259 C 
HETATM   22  O   UNL     1     -16.061 -11.821  -7.271  1.00  0.00    -0.265 OA
BRANCH  21  23
HETATM   23  C   UNL     1     -14.412 -11.817  -5.523  1.00  0.00     0.121 C 
BRANCH  23  24
HETATM   24  C   UNL     1     -14.494 -13.333  -5.537  1.00  0.00     0.119 C 
BRANCH  24  25
HETATM   25  C   UNL     1     -13.267 -13.922  -6.169  1.00  0.00     0.139 C 
HETATM   26  O   UNL     1     -12.864 -15.061  -5.995  1.00  0.00    -0.650 OA
BRANCH  25  27
HETATM   27  O   UNL     1     -12.632 -13.037  -6.969  1.00  0.00    -0.776 OA
HETATM   28  H   UNL     1     -13.238 -12.520  -7.534  1.00  0.00     0.167 HD
ENDBRANCH  25  27
ENDBRANCH  24  25
ENDBRANCH  23  24
ENDBRANCH  21  23
ENDBRANCH  20  21
ENDBRANCH  16  20
BRANCH   1  29
HETATM   29  C   UNL     1     -20.899 -11.689  -2.603  1.00  0.00    -0.014 C 
HETATM   30  C   UNL     1     -20.442 -13.085  -3.535  1.00  0.00     0.010 C 
BRANCH  29  31
HETATM   31  C   UNL     1     -20.247  -9.634  -2.585  1.00  0.00     0.005 C 
BRANCH  31  32
HETATM   32  C   UNL     1     -21.169  -8.053  -2.110  1.00  0.00     0.001 C 
BRANCH  32  33
HETATM   33  C   UNL     1     -21.007  -6.667  -2.929  1.00  0.00     0.004 C 
BRANCH  33  34
HETATM   34  C   UNL     1     -21.192  -6.467  -4.480  1.00  0.00    -0.023 C 
HETATM   35  C   UNL     1     -20.178  -7.126  -5.414  1.00  0.00     0.009 C 
HETATM   36  C   UNL     1     -22.606  -6.675  -5.021  1.00  0.00     0.009 C 
ENDBRANCH  33  34
ENDBRANCH  32  33
ENDBRANCH  31  32
ENDBRANCH  29  31
ENDBRANCH   1  29
TORSDOF 11
ENDMDL
MODEL 8
REMARK VINA RESULT:      -8.0      4.351      6.782
REMARK  11 active torsions:
REMARK  status: ('A' for Active; 'I' for Inactive)
REMARK    1  A    between atoms: C_2  and  C_4 
REMARK    2  A    between atoms: C_4  and  C_5 
REMARK    3  A    between atoms: C_5  and  C_6 
REMARK    4  A    between atoms: C_6  and  C_7 
REMARK    5  A    between atoms: C_7  and  C_9 
REMARK    6  A    between atoms: C_24  and  O_26 
REMARK    7  A    between atoms: O_26  and  C_27 
REMARK    8  A    between atoms: C_27  and  C_29 
REMARK    9  A    between atoms: C_29  and  C_30 
REMARK   10  A    between atoms: C_30  and  C_31 
REMARK   11  A    between atoms: C_31  and  O_33 
ROOT
HETATM    1  C   UNL     1     -20.609 -10.434  -0.343  1.00  0.00    -0.002 C 
HETATM    2  C   UNL     1     -21.884 -11.345   0.373  1.00  0.00     0.006 C 
HETATM    3  C   UNL     1     -23.184 -10.525   0.023  1.00  0.00     0.006 C 
HETATM    4  C   UNL     1     -22.634  -9.528  -0.995  1.00  0.00    -0.001 C 
HETATM    5  C   UNL     1     -21.379  -9.010  -0.286  1.00  0.00    -0.036 C 
HETATM    6  C   UNL     1     -20.981  -7.745  -1.052  1.00  0.00     0.010 C 
HETATM    7  C   UNL     1     -19.770  -8.127  -1.778  1.00  0.00     0.007 C 
HETATM    8  C   UNL     1     -20.289  -9.204  -2.728  1.00  0.00     0.003 C 
HETATM    9  C   UNL     1     -21.967 -10.271  -2.256  1.00  0.00    -0.001 C 
HETATM   10  C   UNL     1     -21.932 -12.180  -2.899  1.00  0.00     0.033 C 
HETATM   11  C   UNL     1     -20.291 -12.766  -3.697  1.00  0.00    -0.023 C 
HETATM   12  C   UNL     1     -19.131 -11.906  -4.065  1.00  0.00    -0.072 C 
HETATM   13  C   UNL     1     -18.790 -10.103  -3.578  1.00  0.00    -0.017 C 
HETATM   14  C   UNL     1     -18.288  -9.453  -4.934  1.00  0.00     0.016 C 
HETATM   15  C   UNL     1     -17.099 -10.278  -5.487  1.00  0.00     0.034 C 
HETATM   16  C   UNL     1     -17.661 -11.516  -6.157  1.00  0.00     0.136 C 
HETATM   17  C   UNL     1     -18.301 -12.503  -5.182  1.00  0.00     0.067 C 
HETATM   18  C   UNL     1     -17.478  -9.618  -2.699  1.00  0.00     0.020 C 
HETATM   19  C   UNL     1     -21.402  -8.564   1.185  1.00  0.00     0.016 C 
ENDROOT
BRANCH  16  20
HETATM   20  O   UNL     1     -16.695 -12.135  -7.022  1.00  0.00    -0.316 OA
BRANCH  20  21
HETATM   21  C   UNL     1     -16.920 -13.390  -7.476  1.00  0.00     0.259 C 
HETATM   22  O   UNL     1     -16.551 -14.434  -6.957  1.00  0.00    -0.265 OA
BRANCH  21  23
HETATM   23  C   UNL     1     -17.722 -13.319  -8.734  1.00  0.00     0.121 C 
BRANCH  23  24
HETATM   24  C   UNL     1     -18.634 -14.529  -8.806  1.00  0.00     0.119 C 
BRANCH  24  25
HETATM   25  C   UNL     1     -18.059 -15.571  -9.721  1.00  0.00     0.139 C 
HETATM   26  O   UNL     1     -18.281 -15.656 -10.918  1.00  0.00    -0.650 OA
BRANCH  25  27
HETATM   27  O   UNL     1     -17.251 -16.434  -9.064  1.00  0.00    -0.776 OA
HETATM   28  H   UNL     1     -16.988 -16.121  -8.178  1.00  0.00     0.167 HD
ENDBRANCH  25  27
ENDBRANCH  24  25
ENDBRANCH  23  24
ENDBRANCH  21  23
ENDBRANCH  20  21
ENDBRANCH  16  20
BRANCH   1  29
HETATM   29  C   UNL     1     -20.125 -11.165  -2.041  1.00  0.00    -0.014 C 
HETATM   30  C   UNL     1     -18.706 -12.057  -1.575  1.00  0.00     0.010 C 
BRANCH  29  31
HETATM   31  C   UNL     1     -20.959 -10.585  -3.942  1.00  0.00     0.005 C 
BRANCH  31  32
HETATM   32  C   UNL     1     -21.894  -9.022  -4.452  1.00  0.00     0.001 C 
BRANCH  32  33
HETATM   33  C   UNL     1     -21.447  -8.108  -5.710  1.00  0.00     0.004 C 
BRANCH  33  34
HETATM   34  C   UNL     1     -21.135  -6.564  -5.684  1.00  0.00    -0.023 C 
HETATM   35  C   UNL     1     -21.143  -5.853  -4.332  1.00  0.00     0.009 C 
HETATM   36  C   UNL     1     -19.927  -6.109  -6.502  1.00  0.00     0.009 C 
ENDBRANCH  33  34
ENDBRANCH  32  33
ENDBRANCH  31  32
ENDBRANCH  29  31
ENDBRANCH   1  29
TORSDOF 11
ENDMDL
MODEL 9
REMARK VINA RESULT:      -8.0     17.248     20.308
REMARK  11 active torsions:
REMARK  status: ('A' for Active; 'I' for Inactive)
REMARK    1  A    between atoms: C_2  and  C_4 
REMARK    2  A    between atoms: C_4  and  C_5 
REMARK    3  A    between atoms: C_5  and  C_6 
REMARK    4  A    between atoms: C_6  and  C_7 
REMARK    5  A    between atoms: C_7  and  C_9 
REMARK    6  A    between atoms: C_24  and  O_26 
REMARK    7  A    between atoms: O_26  and  C_27 
REMARK    8  A    between atoms: C_27  and  C_29 
REMARK    9  A    between atoms: C_29  and  C_30 
REMARK   10  A    between atoms: C_30  and  C_31 
REMARK   11  A    between atoms: C_31  and  O_33 
ROOT
HETATM    1  C   UNL     1     -26.477   8.470  -3.073  1.00  0.00    -0.002 C 
HETATM    2  C   UNL     1     -26.770   6.929  -3.782  1.00  0.00     0.006 C 
HETATM    3  C   UNL     1     -26.015   6.993  -5.164  1.00  0.00     0.006 C 
HETATM    4  C   UNL     1     -25.205   8.278  -4.995  1.00  0.00    -0.001 C 
HETATM    5  C   UNL     1     -26.265   9.254  -4.474  1.00  0.00    -0.036 C 
HETATM    6  C   UNL     1     -25.643  10.644  -4.640  1.00  0.00     0.010 C 
HETATM    7  C   UNL     1     -25.342  11.070  -3.273  1.00  0.00     0.007 C 
HETATM    8  C   UNL     1     -24.295  10.047  -2.838  1.00  0.00     0.003 C 
HETATM    9  C   UNL     1     -24.231   8.203  -3.716  1.00  0.00    -0.001 C 
HETATM   10  C   UNL     1     -23.664   6.722  -2.473  1.00  0.00     0.033 C 
HETATM   11  C   UNL     1     -23.433   7.213  -0.636  1.00  0.00    -0.023 C 
HETATM   12  C   UNL     1     -23.435   8.597  -0.084  1.00  0.00    -0.072 C 
HETATM   13  C   UNL     1     -23.975  10.209  -0.928  1.00  0.00    -0.017 C 
HETATM   14  C   UNL     1     -22.836  11.232  -0.514  1.00  0.00     0.016 C 
HETATM   15  C   UNL     1     -22.699  11.247   1.029  1.00  0.00     0.034 C 
HETATM   16  C   UNL     1     -21.907  10.023   1.440  1.00  0.00     0.136 C 
HETATM   17  C   UNL     1     -22.647   8.706   1.204  1.00  0.00     0.067 C 
HETATM   18  C   UNL     1     -25.215  11.161  -0.392  1.00  0.00     0.020 C 
HETATM   19  C   UNL     1     -27.646   9.383  -5.137  1.00  0.00     0.016 C 
ENDROOT
BRANCH  16  20
HETATM   20  O   UNL     1     -21.401  10.145   2.780  1.00  0.00    -0.316 OA
BRANCH  20  21
HETATM   21  C   UNL     1     -20.471   9.264   3.219  1.00  0.00     0.259 C 
HETATM   22  O   UNL     1     -20.612   8.431   4.103  1.00  0.00    -0.265 OA
BRANCH  21  23
HETATM   23  C   UNL     1     -19.212   9.451   2.436  1.00  0.00     0.121 C 
BRANCH  23  24
HETATM   24  C   UNL     1     -18.243  10.285   3.255  1.00  0.00     0.119 C 
BRANCH  24  25
HETATM   25  C   UNL     1     -17.211   9.410   3.904  1.00  0.00     0.139 C 
HETATM   26  O   UNL     1     -16.096   9.190   3.460  1.00  0.00    -0.650 OA
BRANCH  25  27
HETATM   27  O   UNL     1     -17.657   8.870   5.060  1.00  0.00    -0.776 OA
HETATM   28  H   UNL     1     -17.275   7.992   5.252  1.00  0.00     0.167 HD
ENDBRANCH  25  27
ENDBRANCH  24  25
ENDBRANCH  23  24
ENDBRANCH  21  23
ENDBRANCH  20  21
ENDBRANCH  16  20
BRANCH   1  29
HETATM   29  C   UNL     1     -25.031   8.380  -1.828  1.00  0.00    -0.014 C 
HETATM   30  C   UNL     1     -25.930   8.113  -0.362  1.00  0.00     0.010 C 
BRANCH  29  31
HETATM   31  C   UNL     1     -22.983   8.913  -2.240  1.00  0.00     0.005 C 
BRANCH  31  32
HETATM   32  C   UNL     1     -21.815   8.344  -3.614  1.00  0.00     0.001 C 
BRANCH  32  33
HETATM   33  C   UNL     1     -20.641   9.287  -4.208  1.00  0.00     0.004 C 
BRANCH  33  34
HETATM   34  C   UNL     1     -20.621  10.862  -4.227  1.00  0.00    -0.023 C 
HETATM   35  C   UNL     1     -21.800  11.586  -4.875  1.00  0.00     0.009 C 
HETATM   36  C   UNL     1     -20.253  11.545  -2.911  1.00  0.00     0.009 C 
ENDBRANCH  33  34
ENDBRANCH  32  33
ENDBRANCH  31  32
ENDBRANCH  29  31
ENDBRANCH   1  29
TORSDOF 11
ENDMDL
