MODEL 1
REMARK VINA RESULT:      -6.7      0.000      0.000
REMARK  31 active torsions:
REMARK  status: ('A' for Active; 'I' for Inactive)
REMARK    1  A    between atoms: C_2  and  C_3 
REMARK    2  A    between atoms: C_3  and  C_4 
REMARK    3  A    between atoms: C_4  and  C_5 
REMARK    4  A    between atoms: C_5  and  C_6 
REMARK    5  A    between atoms: C_6  and  C_7 
REMARK    6  A    between atoms: C_10  and  C_34 
REMARK    7  A    between atoms: C_11  and  C_19 
REMARK    8  A    between atoms: C_12  and  C_13 
REMARK    9  A    between atoms: C_13  and  C_14 
REMARK   10  A    between atoms: C_14  and  C_15 
REMARK   11  A    between atoms: C_15  and  C_16 
REMARK   12  A    between atoms: C_16  and  C_17 
REMARK   13  A    between atoms: C_20  and  C_21 
REMARK   14  A    between atoms: C_21  and  C_22 
REMARK   15  A    between atoms: C_22  and  C_23 
REMARK   16  A    between atoms: C_23  and  C_24 
REMARK   17  A    between atoms: C_24  and  C_25 
REMARK   18  A    between atoms: C_25  and  C_26 
REMARK   19  A    between atoms: C_26  and  C_27 
REMARK   20  A    between atoms: C_27  and  C_28 
REMARK   21  A    between atoms: C_28  and  O_30 
REMARK   22  A    between atoms: O_30  and  C_31 
REMARK   23  A    between atoms: C_34  and  C_35 
REMARK   24  A    between atoms: C_35  and  C_36 
REMARK   25  A    between atoms: C_36  and  C_37 
REMARK   26  A    between atoms: C_37  and  C_38 
REMARK   27  A    between atoms: C_38  and  C_39 
REMARK   28  A    between atoms: C_39  and  C_40 
REMARK   29  A    between atoms: C_40  and  C_41 
REMARK   30  A    between atoms: C_41  and  O_43 
REMARK   31  A    between atoms: O_43  and  C_44 
ROOT
HETATM    1  C   UNL     1     -20.566 -11.616  -2.127  1.00  0.00     0.012 C 
HETATM    2  C   UNL     1     -20.321 -12.865  -2.944  1.00  0.00    -0.025 C 
HETATM    3  C   UNL     1     -21.101 -13.259  -3.962  1.00  0.00    -0.025 C 
HETATM    4  C   UNL     1     -22.309 -12.489  -4.456  1.00  0.00     0.016 C 
HETATM    5  C   UNL     1     -22.329 -11.038  -3.888  1.00  0.00     0.020 C 
HETATM    6  C   UNL     1     -22.028 -11.083  -2.343  1.00  0.00     0.001 C 
ENDROOT
BRANCH   5   7
HETATM    7  C   UNL     1     -21.367 -10.127  -4.624  1.00  0.00    -0.025 C 
HETATM    8  C   UNL     1     -21.257  -8.806  -4.432  1.00  0.00    -0.030 C 
BRANCH   8   9
HETATM    9  C   UNL     1     -20.305  -7.968  -5.227  1.00  0.00     0.027 C 
BRANCH   9  10
HETATM   10  C   UNL     1     -20.913  -6.607  -5.537  1.00  0.00     0.004 C 
BRANCH  10  11
HETATM   11  C   UNL     1     -20.102  -5.903  -6.620  1.00  0.00     0.000 C 
BRANCH  11  12
HETATM   12  C   UNL     1     -20.974  -5.587  -7.826  1.00  0.00     0.000 C 
BRANCH  12  13
HETATM   13  C   UNL     1     -21.420  -4.127  -7.812  1.00  0.00     0.000 C 
BRANCH  13  14
HETATM   14  C   UNL     1     -22.939  -4.056  -7.835  1.00  0.00     0.010 C 
BRANCH  14  15
HETATM   15  C   UNL     1     -23.530  -4.661  -9.103  1.00  0.00     0.111 C 
BRANCH  15  16
HETATM   16  C   UNL     1     -24.028  -3.558 -10.008  1.00  0.00     0.259 C 
HETATM   17  O   UNL     1     -25.202  -3.258 -10.169  1.00  0.00    -0.265 OA
BRANCH  16  18
HETATM   18  O   UNL     1     -22.975  -2.948 -10.618  1.00  0.00    -0.317 OA
BRANCH  18  19
HETATM   19  C   UNL     1     -22.355  -3.721 -11.660  1.00  0.00     0.123 C 
HETATM   20  C   UNL     1     -22.658  -3.089 -13.017  1.00  0.00     0.040 C 
HETATM   21  C   UNL     1     -20.854  -3.738 -11.394  1.00  0.00     0.040 C 
ENDBRANCH  18  19
ENDBRANCH  16  18
ENDBRANCH  15  16
ENDBRANCH  14  15
ENDBRANCH  13  14
ENDBRANCH  12  13
ENDBRANCH  11  12
ENDBRANCH  10  11
ENDBRANCH   9  10
ENDBRANCH   8   9
ENDBRANCH   5   7
BRANCH   4  22
HETATM   22  C   UNL     1     -22.466 -12.540  -5.985  1.00  0.00     0.009 C 
BRANCH  22  23
HETATM   23  C   UNL     1     -21.395 -13.433  -6.614  1.00  0.00     0.001 C 
BRANCH  23  24
HETATM   24  C   UNL     1     -20.742 -12.770  -7.814  1.00  0.00     0.000 C 
BRANCH  24  25
HETATM   25  C   UNL     1     -19.235 -12.714  -7.602  1.00  0.00     0.000 C 
BRANCH  25  26
HETATM   26  C   UNL     1     -18.900 -12.038  -6.280  1.00  0.00     0.000 C 
BRANCH  26  27
HETATM   27  C   UNL     1     -17.721 -11.094  -6.461  1.00  0.00     0.010 C 
BRANCH  27  28
HETATM   28  C   UNL     1     -16.490 -11.574  -5.703  1.00  0.00     0.111 C 
BRANCH  28  29
HETATM   29  C   UNL     1     -15.846 -10.416  -4.984  1.00  0.00     0.259 C 
HETATM   30  O   UNL     1     -15.541  -9.353  -5.499  1.00  0.00    -0.265 OA
BRANCH  29  31
HETATM   31  O   UNL     1     -15.657 -10.732  -3.670  1.00  0.00    -0.317 OA
BRANCH  31  32
HETATM   32  C   UNL     1     -16.869 -10.884  -2.912  1.00  0.00     0.123 C 
HETATM   33  C   UNL     1     -16.535 -11.351  -1.498  1.00  0.00     0.040 C 
HETATM   34  C   UNL     1     -17.566  -9.532  -2.887  1.00  0.00     0.040 C 
ENDBRANCH  31  32
ENDBRANCH  29  31
ENDBRANCH  28  29
ENDBRANCH  27  28
ENDBRANCH  26  27
ENDBRANCH  25  26
ENDBRANCH  24  25
ENDBRANCH  23  24
ENDBRANCH  22  23
ENDBRANCH   4  22
BRANCH   6  35
HETATM   35  C   UNL     1     -23.181 -11.897  -1.672  1.00  0.00     0.006 C 
BRANCH  35  36
HETATM   36  C   UNL     1     -23.803 -11.382  -0.376  1.00  0.00     0.000 C 
BRANCH  36  37
HETATM   37  C   UNL     1     -23.727 -12.354   0.790  1.00  0.00     0.000 C 
BRANCH  37  38
HETATM   38  C   UNL     1     -22.897 -13.578   0.429  1.00  0.00    -0.000 C 
BRANCH  38  39
HETATM   39  C   UNL     1     -22.015 -14.018   1.590  1.00  0.00    -0.005 C 
HETATM   40  C   UNL     1     -22.868 -14.352   2.799  1.00  0.00     0.005 C 
ENDBRANCH  38  39
ENDBRANCH  37  38
ENDBRANCH  36  37
ENDBRANCH  35  36
ENDBRANCH   6  35
BRANCH   1  41
HETATM   41  C   UNL     1     -20.135 -11.794  -0.661  1.00  0.00     0.009 C 
BRANCH  41  42
HETATM   42  C   UNL     1     -19.847 -10.516   0.135  1.00  0.00     0.001 C 
BRANCH  42  43
HETATM   43  C   UNL     1     -20.716 -10.235   1.364  1.00  0.00     0.000 C 
BRANCH  43  44
HETATM   44  C   UNL     1     -21.059  -8.741   1.359  1.00  0.00    -0.000 C 
BRANCH  44  45
HETATM   45  C   UNL     1     -21.559  -8.222   0.017  1.00  0.00    -0.005 C 
HETATM   46  C   UNL     1     -23.033  -7.848   0.114  1.00  0.00     0.005 C 
ENDBRANCH  44  45
ENDBRANCH  43  44
ENDBRANCH  42  43
ENDBRANCH  41  42
ENDBRANCH   1  41
TORSDOF 31
ENDMDL
MODEL 2
REMARK VINA RESULT:      -6.7      1.889      9.453
REMARK  31 active torsions:
REMARK  status: ('A' for Active; 'I' for Inactive)
REMARK    1  A    between atoms: C_2  and  C_3 
REMARK    2  A    between atoms: C_3  and  C_4 
REMARK    3  A    between atoms: C_4  and  C_5 
REMARK    4  A    between atoms: C_5  and  C_6 
REMARK    5  A    between atoms: C_6  and  C_7 
REMARK    6  A    between atoms: C_10  and  C_34 
REMARK    7  A    between atoms: C_11  and  C_19 
REMARK    8  A    between atoms: C_12  and  C_13 
REMARK    9  A    between atoms: C_13  and  C_14 
REMARK   10  A    between atoms: C_14  and  C_15 
REMARK   11  A    between atoms: C_15  and  C_16 
REMARK   12  A    between atoms: C_16  and  C_17 
REMARK   13  A    between atoms: C_20  and  C_21 
REMARK   14  A    between atoms: C_21  and  C_22 
REMARK   15  A    between atoms: C_22  and  C_23 
REMARK   16  A    between atoms: C_23  and  C_24 
REMARK   17  A    between atoms: C_24  and  C_25 
REMARK   18  A    between atoms: C_25  and  C_26 
REMARK   19  A    between atoms: C_26  and  C_27 
REMARK   20  A    between atoms: C_27  and  C_28 
REMARK   21  A    between atoms: C_28  and  O_30 
REMARK   22  A    between atoms: O_30  and  C_31 
REMARK   23  A    between atoms: C_34  and  C_35 
REMARK   24  A    between atoms: C_35  and  C_36 
REMARK   25  A    between atoms: C_36  and  C_37 
REMARK   26  A    between atoms: C_37  and  C_38 
REMARK   27  A    between atoms: C_38  and  C_39 
REMARK   28  A    between atoms: C_39  and  C_40 
REMARK   29  A    between atoms: C_40  and  C_41 
REMARK   30  A    between atoms: C_41  and  O_43 
REMARK   31  A    between atoms: O_43  and  C_44 
ROOT
HETATM    1  C   UNL     1     -20.537 -11.819  -2.619  1.00  0.00     0.012 C 
HETATM    2  C   UNL     1     -21.341 -11.419  -3.836  1.00  0.00    -0.025 C 
HETATM    3  C   UNL     1     -21.421 -10.164  -4.302  1.00  0.00    -0.025 C 
HETATM    4  C   UNL     1     -20.689  -8.983  -3.698  1.00  0.00     0.016 C 
HETATM    5  C   UNL     1     -19.576  -9.450  -2.712  1.00  0.00     0.020 C 
HETATM    6  C   UNL     1     -20.160 -10.558  -1.759  1.00  0.00     0.001 C 
ENDROOT
BRANCH   5   7
HETATM    7  C   UNL     1     -18.336  -9.928  -3.441  1.00  0.00    -0.025 C 
HETATM    8  C   UNL     1     -17.102  -9.437  -3.266  1.00  0.00    -0.030 C 
BRANCH   8   9
HETATM    9  C   UNL     1     -15.931  -9.940  -4.053  1.00  0.00     0.027 C 
BRANCH   9  10
HETATM   10  C   UNL     1     -16.217  -9.873  -5.547  1.00  0.00     0.004 C 
BRANCH  10  11
HETATM   11  C   UNL     1     -15.402 -10.930  -6.286  1.00  0.00     0.000 C 
BRANCH  11  12
HETATM   12  C   UNL     1     -15.159 -12.140  -5.396  1.00  0.00     0.000 C 
BRANCH  12  13
HETATM   13  C   UNL     1     -13.669 -12.444  -5.280  1.00  0.00     0.000 C 
BRANCH  13  14
HETATM   14  C   UNL     1     -13.307 -12.681  -3.821  1.00  0.00     0.010 C 
BRANCH  14  15
HETATM   15  C   UNL     1     -13.555 -14.121  -3.388  1.00  0.00     0.111 C 
BRANCH  15  16
HETATM   16  C   UNL     1     -14.298 -14.136  -2.073  1.00  0.00     0.259 C 
HETATM   17  O   UNL     1     -14.267 -15.046  -1.257  1.00  0.00    -0.265 OA
BRANCH  16  18
HETATM   18  O   UNL     1     -15.011 -12.984  -1.931  1.00  0.00    -0.317 OA
BRANCH  18  19
HETATM   19  C   UNL     1     -16.371 -13.168  -1.503  1.00  0.00     0.123 C 
HETATM   20  C   UNL     1     -16.839 -11.937  -0.731  1.00  0.00     0.040 C 
HETATM   21  C   UNL     1     -17.223 -13.382  -2.749  1.00  0.00     0.040 C 
ENDBRANCH  18  19
ENDBRANCH  16  18
ENDBRANCH  15  16
ENDBRANCH  14  15
ENDBRANCH  13  14
ENDBRANCH  12  13
ENDBRANCH  11  12
ENDBRANCH  10  11
ENDBRANCH   9  10
ENDBRANCH   8   9
ENDBRANCH   5   7
BRANCH   4  22
HETATM   22  C   UNL     1     -20.179  -7.990  -4.756  1.00  0.00     0.009 C 
BRANCH  22  23
HETATM   23  C   UNL     1     -21.290  -7.626  -5.742  1.00  0.00     0.001 C 
BRANCH  23  24
HETATM   24  C   UNL     1     -21.481  -6.123  -5.845  1.00  0.00     0.000 C 
BRANCH  24  25
HETATM   25  C   UNL     1     -21.096  -5.660  -7.244  1.00  0.00     0.000 C 
BRANCH  25  26
HETATM   26  C   UNL     1     -21.472  -4.200  -7.453  1.00  0.00     0.000 C 
BRANCH  26  27
HETATM   27  C   UNL     1     -22.237  -4.041  -8.758  1.00  0.00     0.010 C 
BRANCH  27  28
HETATM   28  C   UNL     1     -23.743  -4.020  -8.530  1.00  0.00     0.111 C 
BRANCH  28  29
HETATM   29  C   UNL     1     -24.432  -3.379  -9.709  1.00  0.00     0.259 C 
HETATM   30  O   UNL     1     -25.636  -3.220  -9.816  1.00  0.00    -0.265 OA
BRANCH  29  31
HETATM   31  O   UNL     1     -23.506  -3.001 -10.638  1.00  0.00    -0.317 OA
BRANCH  31  32
HETATM   32  C   UNL     1     -23.740  -3.519 -11.959  1.00  0.00     0.123 C 
HETATM   33  C   UNL     1     -22.708  -2.943 -12.926  1.00  0.00     0.040 C 
HETATM   34  C   UNL     1     -23.627  -5.034 -11.884  1.00  0.00     0.040 C 
ENDBRANCH  31  32
ENDBRANCH  29  31
ENDBRANCH  28  29
ENDBRANCH  27  28
ENDBRANCH  26  27
ENDBRANCH  25  26
ENDBRANCH  24  25
ENDBRANCH  23  24
ENDBRANCH  22  23
ENDBRANCH   4  22
BRANCH   6  35
HETATM   35  C   UNL     1     -21.312  -9.898  -0.934  1.00  0.00     0.006 C 
BRANCH  35  36
HETATM   36  C   UNL     1     -20.986  -9.222   0.395  1.00  0.00     0.000 C 
BRANCH  36  37
HETATM   37  C   UNL     1     -22.010  -8.196   0.850  1.00  0.00     0.000 C 
BRANCH  37  38
HETATM   38  C   UNL     1     -22.727  -7.574  -0.341  1.00  0.00    -0.000 C 
BRANCH  38  39
HETATM   39  C   UNL     1     -21.911  -6.443  -0.956  1.00  0.00    -0.005 C 
HETATM   40  C   UNL     1     -22.359  -6.189  -2.382  1.00  0.00     0.005 C 
ENDBRANCH  38  39
ENDBRANCH  37  38
ENDBRANCH  36  37
ENDBRANCH  35  36
ENDBRANCH   6  35
BRANCH   1  41
HETATM   41  C   UNL     1     -21.196 -12.975  -1.848  1.00  0.00     0.009 C 
BRANCH  41  42
HETATM   42  C   UNL     1     -20.319 -13.716  -0.832  1.00  0.00     0.001 C 
BRANCH  42  43
HETATM   43  C   UNL     1     -20.949 -14.082   0.515  1.00  0.00     0.000 C 
BRANCH  43  44
HETATM   44  C   UNL     1     -21.693 -12.844   1.030  1.00  0.00    -0.000 C 
BRANCH  44  45
HETATM   45  C   UNL     1     -23.208 -13.002   1.075  1.00  0.00    -0.005 C 
HETATM   46  C   UNL     1     -23.874 -11.927   0.224  1.00  0.00     0.005 C 
ENDBRANCH  44  45
ENDBRANCH  43  44
ENDBRANCH  42  43
ENDBRANCH  41  42
ENDBRANCH   1  41
TORSDOF 31
ENDMDL
MODEL 3
REMARK VINA RESULT:      -6.7      1.301      2.808
REMARK  31 active torsions:
REMARK  status: ('A' for Active; 'I' for Inactive)
REMARK    1  A    between atoms: C_2  and  C_3 
REMARK    2  A    between atoms: C_3  and  C_4 
REMARK    3  A    between atoms: C_4  and  C_5 
REMARK    4  A    between atoms: C_5  and  C_6 
REMARK    5  A    between atoms: C_6  and  C_7 
REMARK    6  A    between atoms: C_10  and  C_34 
REMARK    7  A    between atoms: C_11  and  C_19 
REMARK    8  A    between atoms: C_12  and  C_13 
REMARK    9  A    between atoms: C_13  and  C_14 
REMARK   10  A    between atoms: C_14  and  C_15 
REMARK   11  A    between atoms: C_15  and  C_16 
REMARK   12  A    between atoms: C_16  and  C_17 
REMARK   13  A    between atoms: C_20  and  C_21 
REMARK   14  A    between atoms: C_21  and  C_22 
REMARK   15  A    between atoms: C_22  and  C_23 
REMARK   16  A    between atoms: C_23  and  C_24 
REMARK   17  A    between atoms: C_24  and  C_25 
REMARK   18  A    between atoms: C_25  and  C_26 
REMARK   19  A    between atoms: C_26  and  C_27 
REMARK   20  A    between atoms: C_27  and  C_28 
REMARK   21  A    between atoms: C_28  and  O_30 
REMARK   22  A    between atoms: O_30  and  C_31 
REMARK   23  A    between atoms: C_34  and  C_35 
REMARK   24  A    between atoms: C_35  and  C_36 
REMARK   25  A    between atoms: C_36  and  C_37 
REMARK   26  A    between atoms: C_37  and  C_38 
REMARK   27  A    between atoms: C_38  and  C_39 
REMARK   28  A    between atoms: C_39  and  C_40 
REMARK   29  A    between atoms: C_40  and  C_41 
REMARK   30  A    between atoms: C_41  and  O_43 
REMARK   31  A    between atoms: O_43  and  C_44 
ROOT
HETATM    1  C   UNL     1     -20.166 -10.765  -2.444  1.00  0.00     0.012 C 
HETATM    2  C   UNL     1     -19.592 -11.907  -3.253  1.00  0.00    -0.025 C 
HETATM    3  C   UNL     1     -20.167 -12.406  -4.357  1.00  0.00    -0.025 C 
HETATM    4  C   UNL     1     -21.448 -11.871  -4.966  1.00  0.00     0.016 C 
HETATM    5  C   UNL     1     -21.817 -10.477  -4.377  1.00  0.00     0.020 C 
HETATM    6  C   UNL     1     -21.675 -10.523  -2.810  1.00  0.00     0.001 C 
ENDROOT
BRANCH   5   7
HETATM    7  C   UNL     1     -20.987  -9.365  -4.987  1.00  0.00    -0.025 C 
HETATM    8  C   UNL     1     -21.210  -8.055  -4.817  1.00  0.00    -0.030 C 
BRANCH   8   9
HETATM    9  C   UNL     1     -20.364  -7.016  -5.485  1.00  0.00     0.027 C 
BRANCH   9  10
HETATM   10  C   UNL     1     -20.768  -5.619  -5.033  1.00  0.00     0.004 C 
BRANCH  10  11
HETATM   11  C   UNL     1     -20.803  -4.670  -6.227  1.00  0.00     0.000 C 
BRANCH  11  12
HETATM   12  C   UNL     1     -20.620  -5.437  -7.528  1.00  0.00     0.000 C 
BRANCH  12  13
HETATM   13  C   UNL     1     -21.102  -4.614  -8.720  1.00  0.00     0.000 C 
BRANCH  13  14
HETATM   14  C   UNL     1     -22.573  -4.904  -8.981  1.00  0.00     0.010 C 
BRANCH  14  15
HETATM   15  C   UNL     1     -23.453  -3.680  -8.761  1.00  0.00     0.111 C 
BRANCH  15  16
HETATM   16  C   UNL     1     -24.422  -3.538  -9.911  1.00  0.00     0.259 C 
HETATM   17  O   UNL     1     -25.571  -3.130  -9.816  1.00  0.00    -0.265 OA
BRANCH  16  18
HETATM   18  O   UNL     1     -23.827  -3.932 -11.070  1.00  0.00    -0.317 OA
BRANCH  18  19
HETATM   19  C   UNL     1     -23.240  -2.865 -11.837  1.00  0.00     0.123 C 
HETATM   20  C   UNL     1     -21.783  -3.198 -12.148  1.00  0.00     0.040 C 
HETATM   21  C   UNL     1     -24.048  -2.719 -13.121  1.00  0.00     0.040 C 
ENDBRANCH  18  19
ENDBRANCH  16  18
ENDBRANCH  15  16
ENDBRANCH  14  15
ENDBRANCH  13  14
ENDBRANCH  12  13
ENDBRANCH  11  12
ENDBRANCH  10  11
ENDBRANCH   9  10
ENDBRANCH   8   9
ENDBRANCH   5   7
BRANCH   4  22
HETATM   22  C   UNL     1     -21.432 -11.891  -6.504  1.00  0.00     0.009 C 
BRANCH  22  23
HETATM   23  C   UNL     1     -20.457 -12.948  -7.025  1.00  0.00     0.001 C 
BRANCH  23  24
HETATM   24  C   UNL     1     -19.445 -12.354  -7.989  1.00  0.00     0.000 C 
BRANCH  24  25
HETATM   25  C   UNL     1     -18.197 -13.227  -8.013  1.00  0.00     0.000 C 
BRANCH  25  26
HETATM   26  C   UNL     1     -17.895 -13.777  -6.626  1.00  0.00     0.000 C 
BRANCH  26  27
HETATM   27  C   UNL     1     -16.401 -14.022  -6.478  1.00  0.00     0.010 C 
BRANCH  27  28
HETATM   28  C   UNL     1     -15.777 -13.094  -5.443  1.00  0.00     0.111 C 
BRANCH  28  29
HETATM   29  C   UNL     1     -15.256 -11.850  -6.118  1.00  0.00     0.259 C 
HETATM   30  O   UNL     1     -14.804 -11.804  -7.250  1.00  0.00    -0.265 OA
BRANCH  29  31
HETATM   31  O   UNL     1     -15.367 -10.782  -5.276  1.00  0.00    -0.317 OA
BRANCH  31  32
HETATM   32  C   UNL     1     -16.696 -10.547  -4.781  1.00  0.00     0.123 C 
HETATM   33  C   UNL     1     -16.631  -9.684  -3.524  1.00  0.00     0.040 C 
HETATM   34  C   UNL     1     -17.476  -9.844  -5.883  1.00  0.00     0.040 C 
ENDBRANCH  31  32
ENDBRANCH  29  31
ENDBRANCH  28  29
ENDBRANCH  27  28
ENDBRANCH  26  27
ENDBRANCH  25  26
ENDBRANCH  24  25
ENDBRANCH  23  24
ENDBRANCH  22  23
ENDBRANCH   4  22
BRANCH   6  35
HETATM   35  C   UNL     1     -22.704 -11.575  -2.284  1.00  0.00     0.006 C 
BRANCH  35  36
HETATM   36  C   UNL     1     -23.803 -11.129  -1.323  1.00  0.00     0.000 C 
BRANCH  36  37
HETATM   37  C   UNL     1     -23.300 -10.576   0.000  1.00  0.00     0.000 C 
BRANCH  37  38
HETATM   38  C   UNL     1     -23.501  -9.068   0.075  1.00  0.00    -0.000 C 
BRANCH  38  39
HETATM   39  C   UNL     1     -22.179  -8.321  -0.044  1.00  0.00    -0.005 C 
HETATM   40  C   UNL     1     -22.381  -7.011  -0.779  1.00  0.00     0.005 C 
ENDBRANCH  38  39
ENDBRANCH  37  38
ENDBRANCH  36  37
ENDBRANCH  35  36
ENDBRANCH   6  35
BRANCH   1  41
HETATM   41  C   UNL     1     -19.862 -10.912  -0.944  1.00  0.00     0.009 C 
BRANCH  41  42
HETATM   42  C   UNL     1     -18.814 -11.960  -0.551  1.00  0.00     0.001 C 
BRANCH  42  43
HETATM   43  C   UNL     1     -19.313 -13.244   0.120  1.00  0.00     0.000 C 
BRANCH  43  44
HETATM   44  C   UNL     1     -20.829 -13.112   0.304  1.00  0.00    -0.000 C 
BRANCH  44  45
HETATM   45  C   UNL     1     -21.421 -14.093   1.308  1.00  0.00    -0.005 C 
HETATM   46  C   UNL     1     -20.529 -15.323   1.431  1.00  0.00     0.005 C 
ENDBRANCH  44  45
ENDBRANCH  43  44
ENDBRANCH  42  43
ENDBRANCH  41  42
ENDBRANCH   1  41
TORSDOF 31
ENDMDL
MODEL 4
REMARK VINA RESULT:      -6.6      1.792      4.182
REMARK  31 active torsions:
REMARK  status: ('A' for Active; 'I' for Inactive)
REMARK    1  A    between atoms: C_2  and  C_3 
REMARK    2  A    between atoms: C_3  and  C_4 
REMARK    3  A    between atoms: C_4  and  C_5 
REMARK    4  A    between atoms: C_5  and  C_6 
REMARK    5  A    between atoms: C_6  and  C_7 
REMARK    6  A    between atoms: C_10  and  C_34 
REMARK    7  A    between atoms: C_11  and  C_19 
REMARK    8  A    between atoms: C_12  and  C_13 
REMARK    9  A    between atoms: C_13  and  C_14 
REMARK   10  A    between atoms: C_14  and  C_15 
REMARK   11  A    between atoms: C_15  and  C_16 
REMARK   12  A    between atoms: C_16  and  C_17 
REMARK   13  A    between atoms: C_20  and  C_21 
REMARK   14  A    between atoms: C_21  and  C_22 
REMARK   15  A    between atoms: C_22  and  C_23 
REMARK   16  A    between atoms: C_23  and  C_24 
REMARK   17  A    between atoms: C_24  and  C_25 
REMARK   18  A    between atoms: C_25  and  C_26 
REMARK   19  A    between atoms: C_26  and  C_27 
REMARK   20  A    between atoms: C_27  and  C_28 
REMARK   21  A    between atoms: C_28  and  O_30 
REMARK   22  A    between atoms: O_30  and  C_31 
REMARK   23  A    between atoms: C_34  and  C_35 
REMARK   24  A    between atoms: C_35  and  C_36 
REMARK   25  A    between atoms: C_36  and  C_37 
REMARK   26  A    between atoms: C_37  and  C_38 
REMARK   27  A    between atoms: C_38  and  C_39 
REMARK   28  A    between atoms: C_39  and  C_40 
REMARK   29  A    between atoms: C_40  and  C_41 
REMARK   30  A    between atoms: C_41  and  O_43 
REMARK   31  A    between atoms: O_43  and  C_44 
ROOT
HETATM    1  C   UNL     1     -22.396 -10.375  -2.373  1.00  0.00     0.012 C 
HETATM    2  C   UNL     1     -21.045 -10.499  -1.704  1.00  0.00    -0.025 C 
HETATM    3  C   UNL     1     -19.878 -10.488  -2.365  1.00  0.00    -0.025 C 
HETATM    4  C   UNL     1     -19.750 -10.314  -3.865  1.00  0.00     0.016 C 
HETATM    5  C   UNL     1     -21.082  -9.801  -4.492  1.00  0.00     0.020 C 
HETATM    6  C   UNL     1     -22.282 -10.643  -3.918  1.00  0.00     0.001 C 
ENDROOT
BRANCH   5   7
HETATM    7  C   UNL     1     -21.278  -8.314  -4.270  1.00  0.00    -0.025 C 
HETATM    8  C   UNL     1     -21.353  -7.394  -5.240  1.00  0.00    -0.030 C 
BRANCH   8   9
HETATM    9  C   UNL     1     -21.511  -5.936  -4.938  1.00  0.00     0.027 C 
BRANCH   9  10
HETATM   10  C   UNL     1     -20.360  -5.134  -5.530  1.00  0.00     0.004 C 
BRANCH  10  11
HETATM   11  C   UNL     1     -20.064  -5.610  -6.949  1.00  0.00     0.000 C 
BRANCH  11  12
HETATM   12  C   UNL     1     -19.517  -4.470  -7.795  1.00  0.00     0.000 C 
BRANCH  12  13
HETATM   13  C   UNL     1     -20.550  -4.000  -8.815  1.00  0.00     0.000 C 
BRANCH  13  14
HETATM   14  C   UNL     1     -21.772  -4.906  -8.761  1.00  0.00     0.010 C 
BRANCH  14  15
HETATM   15  C   UNL     1     -23.065  -4.126  -8.554  1.00  0.00     0.111 C 
BRANCH  15  16
HETATM   16  C   UNL     1     -24.012  -4.401  -9.698  1.00  0.00     0.259 C 
HETATM   17  O   UNL     1     -25.203  -4.650  -9.580  1.00  0.00    -0.265 OA
BRANCH  16  18
HETATM   18  O   UNL     1     -23.343  -4.332 -10.882  1.00  0.00    -0.317 OA
BRANCH  18  19
HETATM   19  C   UNL     1     -23.345  -3.031 -11.497  1.00  0.00     0.123 C 
HETATM   20  C   UNL     1     -21.937  -2.688 -11.976  1.00  0.00     0.040 C 
HETATM   21  C   UNL     1     -24.320  -3.074 -12.667  1.00  0.00     0.040 C 
ENDBRANCH  18  19
ENDBRANCH  16  18
ENDBRANCH  15  16
ENDBRANCH  14  15
ENDBRANCH  13  14
ENDBRANCH  12  13
ENDBRANCH  11  12
ENDBRANCH  10  11
ENDBRANCH   9  10
ENDBRANCH   8   9
ENDBRANCH   5   7
BRANCH   4  22
HETATM   22  C   UNL     1     -18.530  -9.468  -4.266  1.00  0.00     0.009 C 
BRANCH  22  23
HETATM   23  C   UNL     1     -18.068  -9.815  -5.682  1.00  0.00     0.001 C 
BRANCH  23  24
HETATM   24  C   UNL     1     -16.556  -9.755  -5.812  1.00  0.00     0.000 C 
BRANCH  24  25
HETATM   25  C   UNL     1     -16.020 -11.146  -6.123  1.00  0.00     0.000 C 
BRANCH  25  26
HETATM   26  C   UNL     1     -14.891 -11.516  -5.172  1.00  0.00     0.000 C 
BRANCH  26  27
HETATM   27  C   UNL     1     -15.310 -11.243  -3.735  1.00  0.00     0.010 C 
BRANCH  27  28
HETATM   28  C   UNL     1     -16.237 -12.329  -3.203  1.00  0.00     0.111 C 
BRANCH  28  29
HETATM   29  C   UNL     1     -15.529 -13.133  -2.141  1.00  0.00     0.259 C 
HETATM   30  O   UNL     1     -14.388 -13.555  -2.228  1.00  0.00    -0.265 OA
BRANCH  29  31
HETATM   31  O   UNL     1     -16.353 -13.317  -1.069  1.00  0.00    -0.317 OA
BRANCH  31  32
HETATM   32  C   UNL     1     -16.604 -12.129  -0.298  1.00  0.00     0.123 C 
HETATM   33  C   UNL     1     -18.000 -12.200   0.313  1.00  0.00     0.040 C 
HETATM   34  C   UNL     1     -15.539 -12.054   0.786  1.00  0.00     0.040 C 
ENDBRANCH  31  32
ENDBRANCH  29  31
ENDBRANCH  28  29
ENDBRANCH  27  28
ENDBRANCH  26  27
ENDBRANCH  25  26
ENDBRANCH  24  25
ENDBRANCH  23  24
ENDBRANCH  22  23
ENDBRANCH   4  22
BRANCH   6  35
HETATM   35  C   UNL     1     -22.060 -12.125  -4.361  1.00  0.00     0.006 C 
BRANCH  35  36
HETATM   36  C   UNL     1     -22.620 -12.595  -5.702  1.00  0.00     0.000 C 
BRANCH  36  37
HETATM   37  C   UNL     1     -21.618 -13.321  -6.585  1.00  0.00     0.000 C 
BRANCH  37  38
HETATM   38  C   UNL     1     -20.501 -12.386  -7.026  1.00  0.00    -0.000 C 
BRANCH  38  39
HETATM   39  C   UNL     1     -19.148 -13.088  -7.016  1.00  0.00    -0.005 C 
HETATM   40  C   UNL     1     -18.793 -13.519  -5.606  1.00  0.00     0.005 C 
ENDBRANCH  38  39
ENDBRANCH  37  38
ENDBRANCH  36  37
ENDBRANCH  35  36
ENDBRANCH   6  35
BRANCH   1  41
HETATM   41  C   UNL     1     -23.478 -11.183  -1.638  1.00  0.00     0.009 C 
BRANCH  41  42
HETATM   42  C   UNL     1     -23.407 -11.201  -0.106  1.00  0.00     0.001 C 
BRANCH  42  43
HETATM   43  C   UNL     1     -23.357 -12.567   0.585  1.00  0.00     0.000 C 
BRANCH  43  44
HETATM   44  C   UNL     1     -22.816 -13.581  -0.430  1.00  0.00    -0.000 C 
BRANCH  44  45
HETATM   45  C   UNL     1     -21.343 -13.924  -0.242  1.00  0.00    -0.005 C 
HETATM   46  C   UNL     1     -20.676 -14.134  -1.596  1.00  0.00     0.005 C 
ENDBRANCH  44  45
ENDBRANCH  43  44
ENDBRANCH  42  43
ENDBRANCH  41  42
ENDBRANCH   1  41
TORSDOF 31
ENDMDL
MODEL 5
REMARK VINA RESULT:      -6.6      2.532      5.177
REMARK  31 active torsions:
REMARK  status: ('A' for Active; 'I' for Inactive)
REMARK    1  A    between atoms: C_2  and  C_3 
REMARK    2  A    between atoms: C_3  and  C_4 
REMARK    3  A    between atoms: C_4  and  C_5 
REMARK    4  A    between atoms: C_5  and  C_6 
REMARK    5  A    between atoms: C_6  and  C_7 
REMARK    6  A    between atoms: C_10  and  C_34 
REMARK    7  A    between atoms: C_11  and  C_19 
REMARK    8  A    between atoms: C_12  and  C_13 
REMARK    9  A    between atoms: C_13  and  C_14 
REMARK   10  A    between atoms: C_14  and  C_15 
REMARK   11  A    between atoms: C_15  and  C_16 
REMARK   12  A    between atoms: C_16  and  C_17 
REMARK   13  A    between atoms: C_20  and  C_21 
REMARK   14  A    between atoms: C_21  and  C_22 
REMARK   15  A    between atoms: C_22  and  C_23 
REMARK   16  A    between atoms: C_23  and  C_24 
REMARK   17  A    between atoms: C_24  and  C_25 
REMARK   18  A    between atoms: C_25  and  C_26 
REMARK   19  A    between atoms: C_26  and  C_27 
REMARK   20  A    between atoms: C_27  and  C_28 
REMARK   21  A    between atoms: C_28  and  O_30 
REMARK   22  A    between atoms: O_30  and  C_31 
REMARK   23  A    between atoms: C_34  and  C_35 
REMARK   24  A    between atoms: C_35  and  C_36 
REMARK   25  A    between atoms: C_36  and  C_37 
REMARK   26  A    between atoms: C_37  and  C_38 
REMARK   27  A    between atoms: C_38  and  C_39 
REMARK   28  A    between atoms: C_39  and  C_40 
REMARK   29  A    between atoms: C_40  and  C_41 
REMARK   30  A    between atoms: C_41  and  O_43 
REMARK   31  A    between atoms: O_43  and  C_44 
ROOT
HETATM    1  C   UNL     1     -17.457  -9.494  -3.294  1.00  0.00     0.012 C 
HETATM    2  C   UNL     1     -17.498 -10.057  -4.698  1.00  0.00    -0.025 C 
HETATM    3  C   UNL     1     -18.595 -10.584  -5.261  1.00  0.00    -0.025 C 
HETATM    4  C   UNL     1     -19.950 -10.653  -4.586  1.00  0.00     0.016 C 
HETATM    5  C   UNL     1     -20.003  -9.737  -3.326  1.00  0.00     0.020 C 
HETATM    6  C   UNL     1     -18.705  -9.966  -2.465  1.00  0.00     0.001 C 
ENDROOT
BRANCH   5   7
HETATM    7  C   UNL     1     -20.188  -8.278  -3.692  1.00  0.00    -0.025 C 
HETATM    8  C   UNL     1     -21.185  -7.496  -3.261  1.00  0.00    -0.030 C 
BRANCH   8   9
HETATM    9  C   UNL     1     -21.319  -6.070  -3.698  1.00  0.00     0.027 C 
BRANCH   9  10
HETATM   10  C   UNL     1     -21.365  -5.974  -5.217  1.00  0.00     0.004 C 
BRANCH  10  11
HETATM   11  C   UNL     1     -20.385  -4.912  -5.706  1.00  0.00     0.000 C 
BRANCH  11  12
HETATM   12  C   UNL     1     -20.811  -4.370  -7.062  1.00  0.00     0.000 C 
BRANCH  12  13
HETATM   13  C   UNL     1     -22.312  -4.547  -7.276  1.00  0.00     0.000 C 
BRANCH  13  14
HETATM   14  C   UNL     1     -22.729  -3.862  -8.569  1.00  0.00     0.010 C 
BRANCH  14  15
HETATM   15  C   UNL     1     -23.788  -4.651  -9.328  1.00  0.00     0.111 C 
BRANCH  15  16
HETATM   16  C   UNL     1     -24.479  -3.747 -10.323  1.00  0.00     0.259 C 
HETATM   17  O   UNL     1     -25.411  -3.000 -10.064  1.00  0.00    -0.265 OA
BRANCH  16  18
HETATM   18  O   UNL     1     -23.908  -3.887 -11.551  1.00  0.00    -0.317 OA
BRANCH  18  19
HETATM   19  C   UNL     1     -23.235  -2.713 -12.038  1.00  0.00     0.123 C 
HETATM   20  C   UNL     1     -21.726  -2.888 -11.889  1.00  0.00     0.040 C 
HETATM   21  C   UNL     1     -23.618  -2.533 -13.502  1.00  0.00     0.040 C 
ENDBRANCH  18  19
ENDBRANCH  16  18
ENDBRANCH  15  16
ENDBRANCH  14  15
ENDBRANCH  13  14
ENDBRANCH  12  13
ENDBRANCH  11  12
ENDBRANCH  10  11
ENDBRANCH   9  10
ENDBRANCH   8   9
ENDBRANCH   5   7
BRANCH   4  22
HETATM   22  C   UNL     1     -21.116 -10.408  -5.558  1.00  0.00     0.009 C 
BRANCH  22  23
HETATM   23  C   UNL     1     -21.849 -11.714  -5.871  1.00  0.00     0.001 C 
BRANCH  23  24
HETATM   24  C   UNL     1     -21.209 -12.900  -5.171  1.00  0.00     0.000 C 
BRANCH  24  25
HETATM   25  C   UNL     1     -22.219 -13.532  -4.222  1.00  0.00     0.000 C 
BRANCH  25  26
HETATM   26  C   UNL     1     -21.938 -13.124  -2.783  1.00  0.00     0.000 C 
BRANCH  26  27
HETATM   27  C   UNL     1     -23.198 -12.556  -2.147  1.00  0.00     0.010 C 
BRANCH  27  28
HETATM   28  C   UNL     1     -22.996 -11.120  -1.680  1.00  0.00     0.111 C 
BRANCH  28  29
HETATM   29  C   UNL     1     -23.427 -10.983  -0.241  1.00  0.00     0.259 C 
HETATM   30  O   UNL     1     -23.669 -11.914   0.509  1.00  0.00    -0.265 OA
BRANCH  29  31
HETATM   31  O   UNL     1     -23.502  -9.664   0.098  1.00  0.00    -0.317 OA
BRANCH  31  32
HETATM   32  C   UNL     1     -22.321  -8.900  -0.204  1.00  0.00     0.123 C 
HETATM   33  C   UNL     1     -22.656  -7.411  -0.191  1.00  0.00     0.040 C 
HETATM   34  C   UNL     1     -21.279  -9.233   0.854  1.00  0.00     0.040 C 
ENDBRANCH  31  32
ENDBRANCH  29  31
ENDBRANCH  28  29
ENDBRANCH  27  28
ENDBRANCH  26  27
ENDBRANCH  25  26
ENDBRANCH  24  25
ENDBRANCH  23  24
ENDBRANCH  22  23
ENDBRANCH   4  22
BRANCH   6  35
HETATM   35  C   UNL     1     -18.717 -11.457  -1.998  1.00  0.00     0.006 C 
BRANCH  35  36
HETATM   36  C   UNL     1     -19.206 -11.796  -0.592  1.00  0.00     0.000 C 
BRANCH  36  37
HETATM   37  C   UNL     1     -18.843 -13.193  -0.116  1.00  0.00     0.000 C 
BRANCH  37  38
HETATM   38  C   UNL     1     -17.333 -13.365  -0.026  1.00  0.00    -0.000 C 
BRANCH  38  39
HETATM   39  C   UNL     1     -16.710 -12.344   0.917  1.00  0.00    -0.005 C 
HETATM   40  C   UNL     1     -15.200 -12.483   0.916  1.00  0.00     0.005 C 
ENDBRANCH  38  39
ENDBRANCH  37  38
ENDBRANCH  36  37
ENDBRANCH  35  36
ENDBRANCH   6  35
BRANCH   1  41
HETATM   41  C   UNL     1     -16.091  -9.719  -2.624  1.00  0.00     0.009 C 
BRANCH  41  42
HETATM   42  C   UNL     1     -15.650 -11.174  -2.426  1.00  0.00     0.001 C 
BRANCH  42  43
HETATM   43  C   UNL     1     -14.753 -11.796  -3.500  1.00  0.00     0.000 C 
BRANCH  43  44
HETATM   44  C   UNL     1     -15.118 -13.281  -3.607  1.00  0.00    -0.000 C 
BRANCH  44  45
HETATM   45  C   UNL     1     -16.617 -13.554  -3.619  1.00  0.00    -0.005 C 
HETATM   46  C   UNL     1     -17.079 -13.888  -5.032  1.00  0.00     0.005 C 
ENDBRANCH  44  45
ENDBRANCH  43  44
ENDBRANCH  42  43
ENDBRANCH  41  42
ENDBRANCH   1  41
TORSDOF 31
ENDMDL
MODEL 6
REMARK VINA RESULT:      -6.5      2.120      4.201
REMARK  31 active torsions:
REMARK  status: ('A' for Active; 'I' for Inactive)
REMARK    1  A    between atoms: C_2  and  C_3 
REMARK    2  A    between atoms: C_3  and  C_4 
REMARK    3  A    between atoms: C_4  and  C_5 
REMARK    4  A    between atoms: C_5  and  C_6 
REMARK    5  A    between atoms: C_6  and  C_7 
REMARK    6  A    between atoms: C_10  and  C_34 
REMARK    7  A    between atoms: C_11  and  C_19 
REMARK    8  A    between atoms: C_12  and  C_13 
REMARK    9  A    between atoms: C_13  and  C_14 
REMARK   10  A    between atoms: C_14  and  C_15 
REMARK   11  A    between atoms: C_15  and  C_16 
REMARK   12  A    between atoms: C_16  and  C_17 
REMARK   13  A    between atoms: C_20  and  C_21 
REMARK   14  A    between atoms: C_21  and  C_22 
REMARK   15  A    between atoms: C_22  and  C_23 
REMARK   16  A    between atoms: C_23  and  C_24 
REMARK   17  A    between atoms: C_24  and  C_25 
REMARK   18  A    between atoms: C_25  and  C_26 
REMARK   19  A    between atoms: C_26  and  C_27 
REMARK   20  A    between atoms: C_27  and  C_28 
REMARK   21  A    between atoms: C_28  and  O_30 
REMARK   22  A    between atoms: O_30  and  C_31 
REMARK   23  A    between atoms: C_34  and  C_35 
REMARK   24  A    between atoms: C_35  and  C_36 
REMARK   25  A    between atoms: C_36  and  C_37 
REMARK   26  A    between atoms: C_37  and  C_38 
REMARK   27  A    between atoms: C_38  and  C_39 
REMARK   28  A    between atoms: C_39  and  C_40 
REMARK   29  A    between atoms: C_40  and  C_41 
REMARK   30  A    between atoms: C_41  and  O_43 
REMARK   31  A    between atoms: O_43  and  C_44 
ROOT
HETATM    1  C   UNL     1     -21.686  -9.887  -2.501  1.00  0.00     0.012 C 
HETATM    2  C   UNL     1     -20.276 -10.154  -2.021  1.00  0.00    -0.025 C 
HETATM    3  C   UNL     1     -19.218 -10.275  -2.835  1.00  0.00    -0.025 C 
HETATM    4  C   UNL     1     -19.281 -10.123  -4.342  1.00  0.00     0.016 C 
HETATM    5  C   UNL     1     -20.623  -9.470  -4.790  1.00  0.00     0.020 C 
HETATM    6  C   UNL     1     -21.816 -10.173  -4.041  1.00  0.00     0.001 C 
ENDROOT
BRANCH   5   7
HETATM    7  C   UNL     1     -20.626  -7.970  -4.574  1.00  0.00    -0.025 C 
HETATM    8  C   UNL     1     -20.924  -7.057  -5.507  1.00  0.00    -0.030 C 
BRANCH   8   9
HETATM    9  C   UNL     1     -20.868  -5.588  -5.224  1.00  0.00     0.027 C 
BRANCH   9  10
HETATM   10  C   UNL     1     -20.158  -4.848  -6.350  1.00  0.00     0.004 C 
BRANCH  10  11
HETATM   11  C   UNL     1     -20.415  -5.548  -7.681  1.00  0.00     0.000 C 
BRANCH  11  12
HETATM   12  C   UNL     1     -20.840  -4.544  -8.743  1.00  0.00     0.000 C 
BRANCH  12  13
HETATM   13  C   UNL     1     -21.928  -3.614  -8.214  1.00  0.00     0.000 C 
BRANCH  13  14
HETATM   14  C   UNL     1     -23.268  -4.334  -8.230  1.00  0.00     0.010 C 
BRANCH  14  15
HETATM   15  C   UNL     1     -23.757  -4.621  -9.645  1.00  0.00     0.111 C 
BRANCH  15  16
HETATM   16  C   UNL     1     -24.559  -3.447 -10.153  1.00  0.00     0.259 C 
HETATM   17  O   UNL     1     -25.735  -3.234  -9.894  1.00  0.00    -0.265 OA
BRANCH  16  18
HETATM   18  O   UNL     1     -23.779  -2.659 -10.943  1.00  0.00    -0.317 OA
BRANCH  18  19
HETATM   19  C   UNL     1     -23.220  -3.325 -12.089  1.00  0.00     0.123 C 
HETATM   20  C   UNL     1     -23.754  -2.681 -13.367  1.00  0.00     0.040 C 
HETATM   21  C   UNL     1     -21.704  -3.193 -12.008  1.00  0.00     0.040 C 
ENDBRANCH  18  19
ENDBRANCH  16  18
ENDBRANCH  15  16
ENDBRANCH  14  15
ENDBRANCH  13  14
ENDBRANCH  12  13
ENDBRANCH  11  12
ENDBRANCH  10  11
ENDBRANCH   9  10
ENDBRANCH   8   9
ENDBRANCH   5   7
BRANCH   4  22
HETATM   22  C   UNL     1     -18.044  -9.418  -4.923  1.00  0.00     0.009 C 
BRANCH  22  23
HETATM   23  C   UNL     1     -17.631 -10.050  -6.253  1.00  0.00     0.001 C 
BRANCH  23  24
HETATM   24  C   UNL     1     -17.561 -11.564  -6.160  1.00  0.00     0.000 C 
BRANCH  24  25
HETATM   25  C   UNL     1     -16.382 -11.962  -5.282  1.00  0.00     0.000 C 
BRANCH  25  26
HETATM   26  C   UNL     1     -15.085 -11.376  -5.820  1.00  0.00     0.000 C 
BRANCH  26  27
HETATM   27  C   UNL     1     -14.464 -12.328  -6.830  1.00  0.00     0.010 C 
BRANCH  27  28
HETATM   28  C   UNL     1     -13.139 -12.892  -6.332  1.00  0.00     0.111 C 
BRANCH  28  29
HETATM   29  C   UNL     1     -13.302 -14.349  -5.977  1.00  0.00     0.259 C 
HETATM   30  O   UNL     1     -12.904 -15.284  -6.652  1.00  0.00    -0.265 OA
BRANCH  29  31
HETATM   31  O   UNL     1     -13.959 -14.466  -4.787  1.00  0.00    -0.317 OA
BRANCH  31  32
HETATM   32  C   UNL     1     -13.251 -13.926  -3.658  1.00  0.00     0.123 C 
HETATM   33  C   UNL     1     -14.246 -13.319  -2.672  1.00  0.00     0.040 C 
HETATM   34  C   UNL     1     -12.476 -15.067  -3.015  1.00  0.00     0.040 C 
ENDBRANCH  31  32
ENDBRANCH  29  31
ENDBRANCH  28  29
ENDBRANCH  27  28
ENDBRANCH  26  27
ENDBRANCH  25  26
ENDBRANCH  24  25
ENDBRANCH  23  24
ENDBRANCH  22  23
ENDBRANCH   4  22
BRANCH   6  35
HETATM   35  C   UNL     1     -21.819 -11.673  -4.481  1.00  0.00     0.006 C 
BRANCH  35  36
HETATM   36  C   UNL     1     -22.247 -12.033  -5.901  1.00  0.00     0.000 C 
BRANCH  36  37
HETATM   37  C   UNL     1     -22.007 -13.484  -6.284  1.00  0.00     0.000 C 
BRANCH  37  38
HETATM   38  C   UNL     1     -20.565 -13.703  -6.721  1.00  0.00    -0.000 C 
BRANCH  38  39
HETATM   39  C   UNL     1     -20.232 -12.895  -7.969  1.00  0.00    -0.005 C 
HETATM   40  C   UNL     1     -19.176 -13.610  -8.790  1.00  0.00     0.005 C 
ENDBRANCH  38  39
ENDBRANCH  37  38
ENDBRANCH  36  37
ENDBRANCH  35  36
ENDBRANCH   6  35
BRANCH   1  41
HETATM   41  C   UNL     1     -22.737 -10.569  -1.608  1.00  0.00     0.009 C 
BRANCH  41  42
HETATM   42  C   UNL     1     -22.395 -10.705  -0.119  1.00  0.00     0.001 C 
BRANCH  42  43
HETATM   43  C   UNL     1     -22.318  -9.421   0.711  1.00  0.00     0.000 C 
BRANCH  43  44
HETATM   44  C   UNL     1     -22.990  -8.305  -0.098  1.00  0.00    -0.000 C 
BRANCH  44  45
HETATM   45  C   UNL     1     -22.112  -7.077  -0.312  1.00  0.00    -0.005 C 
HETATM   46  C   UNL     1     -22.383  -6.470  -1.683  1.00  0.00     0.005 C 
ENDBRANCH  44  45
ENDBRANCH  43  44
ENDBRANCH  42  43
ENDBRANCH  41  42
ENDBRANCH   1  41
TORSDOF 31
ENDMDL
MODEL 7
REMARK VINA RESULT:      -6.5      1.920      3.693
REMARK  31 active torsions:
REMARK  status: ('A' for Active; 'I' for Inactive)
REMARK    1  A    between atoms: C_2  and  C_3 
REMARK    2  A    between atoms: C_3  and  C_4 
REMARK    3  A    between atoms: C_4  and  C_5 
REMARK    4  A    between atoms: C_5  and  C_6 
REMARK    5  A    between atoms: C_6  and  C_7 
REMARK    6  A    between atoms: C_10  and  C_34 
REMARK    7  A    between atoms: C_11  and  C_19 
REMARK    8  A    between atoms: C_12  and  C_13 
REMARK    9  A    between atoms: C_13  and  C_14 
REMARK   10  A    between atoms: C_14  and  C_15 
REMARK   11  A    between atoms: C_15  and  C_16 
REMARK   12  A    between atoms: C_16  and  C_17 
REMARK   13  A    between atoms: C_20  and  C_21 
REMARK   14  A    between atoms: C_21  and  C_22 
REMARK   15  A    between atoms: C_22  and  C_23 
REMARK   16  A    between atoms: C_23  and  C_24 
REMARK   17  A    between atoms: C_24  and  C_25 
REMARK   18  A    between atoms: C_25  and  C_26 
REMARK   19  A    between atoms: C_26  and  C_27 
REMARK   20  A    between atoms: C_27  and  C_28 
REMARK   21  A    between atoms: C_28  and  O_30 
REMARK   22  A    between atoms: O_30  and  C_31 
REMARK   23  A    between atoms: C_34  and  C_35 
REMARK   24  A    between atoms: C_35  and  C_36 
REMARK   25  A    between atoms: C_36  and  C_37 
REMARK   26  A    between atoms: C_37  and  C_38 
REMARK   27  A    between atoms: C_38  and  C_39 
REMARK   28  A    between atoms: C_39  and  C_40 
REMARK   29  A    between atoms: C_40  and  C_41 
REMARK   30  A    between atoms: C_41  and  O_43 
REMARK   31  A    between atoms: O_43  and  C_44 
ROOT
HETATM    1  C   UNL     1     -18.549  -9.811  -3.238  1.00  0.00     0.012 C 
HETATM    2  C   UNL     1     -18.660 -11.095  -4.031  1.00  0.00    -0.025 C 
HETATM    3  C   UNL     1     -19.803 -11.775  -4.197  1.00  0.00    -0.025 C 
HETATM    4  C   UNL     1     -21.145 -11.334  -3.647  1.00  0.00     0.016 C 
HETATM    5  C   UNL     1     -21.106  -9.847  -3.183  1.00  0.00     0.020 C 
HETATM    6  C   UNL     1     -19.809  -9.607  -2.322  1.00  0.00     0.001 C 
ENDROOT
BRANCH   5   7
HETATM    7  C   UNL     1     -21.195  -8.885  -4.350  1.00  0.00    -0.025 C 
HETATM    8  C   UNL     1     -20.362  -7.858  -4.568  1.00  0.00    -0.030 C 
BRANCH   8   9
HETATM    9  C   UNL     1     -20.539  -6.928  -5.728  1.00  0.00     0.027 C 
BRANCH   9  10
HETATM   10  C   UNL     1     -20.983  -5.551  -5.253  1.00  0.00     0.004 C 
BRANCH  10  11
HETATM   11  C   UNL     1     -20.379  -4.469  -6.143  1.00  0.00     0.000 C 
BRANCH  11  12
HETATM   12  C   UNL     1     -19.929  -5.055  -7.473  1.00  0.00     0.000 C 
BRANCH  12  13
HETATM   13  C   UNL     1     -20.607  -4.346  -8.642  1.00  0.00     0.000 C 
BRANCH  13  14
HETATM   14  C   UNL     1     -22.020  -4.884  -8.816  1.00  0.00     0.010 C 
BRANCH  14  15
HETATM   15  C   UNL     1     -23.079  -3.804  -8.634  1.00  0.00     0.111 C 
BRANCH  15  16
HETATM   16  C   UNL     1     -24.128  -3.934  -9.714  1.00  0.00     0.259 C 
HETATM   17  O   UNL     1     -24.976  -4.812  -9.768  1.00  0.00    -0.265 OA
BRANCH  16  18
HETATM   18  O   UNL     1     -23.988  -2.926 -10.619  1.00  0.00    -0.317 OA
BRANCH  18  19
HETATM   19  C   UNL     1     -23.486  -3.337 -11.902  1.00  0.00     0.123 C 
HETATM   20  C   UNL     1     -24.324  -2.701 -13.009  1.00  0.00     0.040 C 
HETATM   21  C   UNL     1     -22.033  -2.887 -11.997  1.00  0.00     0.040 C 
ENDBRANCH  18  19
ENDBRANCH  16  18
ENDBRANCH  15  16
ENDBRANCH  14  15
ENDBRANCH  13  14
ENDBRANCH  12  13
ENDBRANCH  11  12
ENDBRANCH  10  11
ENDBRANCH   9  10
ENDBRANCH   8   9
ENDBRANCH   5   7
BRANCH   4  22
HETATM   22  C   UNL     1     -22.311 -11.636  -4.603  1.00  0.00     0.009 C 
BRANCH  22  23
HETATM   23  C   UNL     1     -21.976 -12.817  -5.515  1.00  0.00     0.001 C 
BRANCH  23  24
HETATM   24  C   UNL     1     -21.684 -12.367  -6.936  1.00  0.00     0.000 C 
BRANCH  24  25
HETATM   25  C   UNL     1     -20.751 -13.370  -7.602  1.00  0.00     0.000 C 
BRANCH  25  26
HETATM   26  C   UNL     1     -19.553 -12.664  -8.221  1.00  0.00     0.000 C 
BRANCH  26  27
HETATM   27  C   UNL     1     -18.268 -13.377  -7.827  1.00  0.00     0.010 C 
BRANCH  27  28
HETATM   28  C   UNL     1     -17.370 -12.490  -6.974  1.00  0.00     0.111 C 
BRANCH  28  29
HETATM   29  C   UNL     1     -16.501 -13.344  -6.084  1.00  0.00     0.259 C 
HETATM   30  O   UNL     1     -16.892 -13.958  -5.106  1.00  0.00    -0.265 OA
BRANCH  29  31
HETATM   31  O   UNL     1     -15.214 -13.330  -6.539  1.00  0.00    -0.317 OA
BRANCH  31  32
HETATM   32  C   UNL     1     -14.219 -13.532  -5.521  1.00  0.00     0.123 C 
HETATM   33  C   UNL     1     -13.261 -14.639  -5.953  1.00  0.00     0.040 C 
HETATM   34  C   UNL     1     -13.479 -12.215  -5.337  1.00  0.00     0.040 C 
ENDBRANCH  31  32
ENDBRANCH  29  31
ENDBRANCH  28  29
ENDBRANCH  27  28
ENDBRANCH  26  27
ENDBRANCH  25  26
ENDBRANCH  24  25
ENDBRANCH  23  24
ENDBRANCH  22  23
ENDBRANCH   4  22
BRANCH   6  35
HETATM   35  C   UNL     1     -19.917 -10.522  -1.060  1.00  0.00     0.006 C 
BRANCH  35  36
HETATM   36  C   UNL     1     -21.128 -10.385  -0.140  1.00  0.00     0.000 C 
BRANCH  36  37
HETATM   37  C   UNL     1     -20.880  -9.561   1.113  1.00  0.00     0.000 C 
BRANCH  37  38
HETATM   38  C   UNL     1     -21.614  -8.229   1.045  1.00  0.00    -0.000 C 
BRANCH  38  39
HETATM   39  C   UNL     1     -22.581  -8.184  -0.131  1.00  0.00    -0.005 C 
HETATM   40  C   UNL     1     -22.289  -6.978  -1.003  1.00  0.00     0.005 C 
ENDBRANCH  38  39
ENDBRANCH  37  38
ENDBRANCH  36  37
ENDBRANCH  35  36
ENDBRANCH   6  35
BRANCH   1  41
HETATM   41  C   UNL     1     -17.188  -9.687  -2.532  1.00  0.00     0.009 C 
BRANCH  41  42
HETATM   42  C   UNL     1     -16.035 -10.521  -3.101  1.00  0.00     0.001 C 
BRANCH  42  43
HETATM   43  C   UNL     1     -15.597 -11.758  -2.311  1.00  0.00     0.000 C 
BRANCH  43  44
HETATM   44  C   UNL     1     -16.085 -11.583  -0.868  1.00  0.00    -0.000 C 
BRANCH  44  45
HETATM   45  C   UNL     1     -17.011 -12.693  -0.386  1.00  0.00    -0.005 C 
HETATM   46  C   UNL     1     -17.445 -13.562  -1.559  1.00  0.00     0.005 C 
ENDBRANCH  44  45
ENDBRANCH  43  44
ENDBRANCH  42  43
ENDBRANCH  41  42
ENDBRANCH   1  41
TORSDOF 31
ENDMDL
MODEL 8
REMARK VINA RESULT:      -6.4      1.359      2.006
REMARK  31 active torsions:
REMARK  status: ('A' for Active; 'I' for Inactive)
REMARK    1  A    between atoms: C_2  and  C_3 
REMARK    2  A    between atoms: C_3  and  C_4 
REMARK    3  A    between atoms: C_4  and  C_5 
REMARK    4  A    between atoms: C_5  and  C_6 
REMARK    5  A    between atoms: C_6  and  C_7 
REMARK    6  A    between atoms: C_10  and  C_34 
REMARK    7  A    between atoms: C_11  and  C_19 
REMARK    8  A    between atoms: C_12  and  C_13 
REMARK    9  A    between atoms: C_13  and  C_14 
REMARK   10  A    between atoms: C_14  and  C_15 
REMARK   11  A    between atoms: C_15  and  C_16 
REMARK   12  A    between atoms: C_16  and  C_17 
REMARK   13  A    between atoms: C_20  and  C_21 
REMARK   14  A    between atoms: C_21  and  C_22 
REMARK   15  A    between atoms: C_22  and  C_23 
REMARK   16  A    between atoms: C_23  and  C_24 
REMARK   17  A    between atoms: C_24  and  C_25 
REMARK   18  A    between atoms: C_25  and  C_26 
REMARK   19  A    between atoms: C_26  and  C_27 
REMARK   20  A    between atoms: C_27  and  C_28 
REMARK   21  A    between atoms: C_28  and  O_30 
REMARK   22  A    between atoms: O_30  and  C_31 
REMARK   23  A    between atoms: C_34  and  C_35 
REMARK   24  A    between atoms: C_35  and  C_36 
REMARK   25  A    between atoms: C_36  and  C_37 
REMARK   26  A    between atoms: C_37  and  C_38 
REMARK   27  A    between atoms: C_38  and  C_39 
REMARK   28  A    between atoms: C_39  and  C_40 
REMARK   29  A    between atoms: C_40  and  C_41 
REMARK   30  A    between atoms: C_41  and  O_43 
REMARK   31  A    between atoms: O_43  and  C_44 
ROOT
HETATM    1  C   UNL     1     -20.548 -10.488  -1.737  1.00  0.00     0.012 C 
HETATM    2  C   UNL     1     -19.530 -11.164  -2.629  1.00  0.00    -0.025 C 
HETATM    3  C   UNL     1     -19.796 -11.609  -3.865  1.00  0.00    -0.025 C 
HETATM    4  C   UNL     1     -21.138 -11.463  -4.553  1.00  0.00     0.016 C 
HETATM    5  C   UNL     1     -22.048 -10.439  -3.809  1.00  0.00     0.020 C 
HETATM    6  C   UNL     1     -22.007 -10.739  -2.264  1.00  0.00     0.001 C 
ENDROOT
BRANCH   5   7
HETATM    7  C   UNL     1     -21.661  -9.007  -4.117  1.00  0.00    -0.025 C 
HETATM    8  C   UNL     1     -20.826  -8.627  -5.093  1.00  0.00    -0.030 C 
BRANCH   8   9
HETATM    9  C   UNL     1     -20.464  -7.190  -5.310  1.00  0.00     0.027 C 
BRANCH   9  10
HETATM   10  C   UNL     1     -21.697  -6.302  -5.212  1.00  0.00     0.004 C 
BRANCH  10  11
HETATM   11  C   UNL     1     -21.701  -5.282  -6.346  1.00  0.00     0.000 C 
BRANCH  11  12
HETATM   12  C   UNL     1     -20.405  -4.486  -6.359  1.00  0.00     0.000 C 
BRANCH  12  13
HETATM   13  C   UNL     1     -19.844  -4.377  -7.774  1.00  0.00     0.000 C 
BRANCH  13  14
HETATM   14  C   UNL     1     -20.970  -4.530  -8.784  1.00  0.00     0.010 C 
BRANCH  14  15
HETATM   15  C   UNL     1     -20.469  -4.491 -10.223  1.00  0.00     0.111 C 
BRANCH  15  16
HETATM   16  C   UNL     1     -21.361  -3.591 -11.047  1.00  0.00     0.259 C 
HETATM   17  O   UNL     1     -21.007  -2.552 -11.584  1.00  0.00    -0.265 OA
BRANCH  16  18
HETATM   18  O   UNL     1     -22.619  -4.110 -11.102  1.00  0.00    -0.317 OA
BRANCH  18  19
HETATM   19  C   UNL     1     -23.674  -3.138 -10.996  1.00  0.00     0.123 C 
HETATM   20  C   UNL     1     -24.518  -3.157 -12.269  1.00  0.00     0.040 C 
HETATM   21  C   UNL     1     -24.518  -3.502  -9.781  1.00  0.00     0.040 C 
ENDBRANCH  18  19
ENDBRANCH  16  18
ENDBRANCH  15  16
ENDBRANCH  14  15
ENDBRANCH  13  14
ENDBRANCH  12  13
ENDBRANCH  11  12
ENDBRANCH  10  11
ENDBRANCH   9  10
ENDBRANCH   8   9
ENDBRANCH   5   7
BRANCH   4  22
HETATM   22  C   UNL     1     -21.010 -11.172  -6.058  1.00  0.00     0.009 C 
BRANCH  22  23
HETATM   23  C   UNL     1     -21.063 -12.467  -6.870  1.00  0.00     0.001 C 
BRANCH  23  24
HETATM   24  C   UNL     1     -19.818 -12.651  -7.719  1.00  0.00     0.000 C 
BRANCH  24  25
HETATM   25  C   UNL     1     -18.807 -13.497  -6.957  1.00  0.00     0.000 C 
BRANCH  25  26
HETATM   26  C   UNL     1     -17.438 -13.431  -7.620  1.00  0.00     0.000 C 
BRANCH  26  27
HETATM   27  C   UNL     1     -16.346 -13.616  -6.578  1.00  0.00     0.010 C 
BRANCH  27  28
HETATM   28  C   UNL     1     -16.864 -13.370  -5.167  1.00  0.00     0.111 C 
BRANCH  28  29
HETATM   29  C   UNL     1     -15.797 -12.699  -4.338  1.00  0.00     0.259 C 
HETATM   30  O   UNL     1     -15.291 -13.170  -3.334  1.00  0.00    -0.265 OA
BRANCH  29  31
HETATM   31  O   UNL     1     -15.481 -11.487  -4.880  1.00  0.00    -0.317 OA
BRANCH  31  32
HETATM   32  C   UNL     1     -16.471 -10.464  -4.676  1.00  0.00     0.123 C 
HETATM   33  C   UNL     1     -16.099  -9.626  -3.457  1.00  0.00     0.040 C 
HETATM   34  C   UNL     1     -16.509  -9.608  -5.934  1.00  0.00     0.040 C 
ENDBRANCH  31  32
ENDBRANCH  29  31
ENDBRANCH  28  29
ENDBRANCH  27  28
ENDBRANCH  26  27
ENDBRANCH  25  26
ENDBRANCH  24  25
ENDBRANCH  23  24
ENDBRANCH  22  23
ENDBRANCH   4  22
BRANCH   6  35
HETATM   35  C   UNL     1     -22.595 -12.172  -2.056  1.00  0.00     0.006 C 
BRANCH  35  36
HETATM   36  C   UNL     1     -23.813 -12.356  -1.155  1.00  0.00     0.000 C 
BRANCH  36  37
HETATM   37  C   UNL     1     -23.737 -13.557  -0.226  1.00  0.00     0.000 C 
BRANCH  37  38
HETATM   38  C   UNL     1     -23.387 -13.129   1.192  1.00  0.00    -0.000 C 
BRANCH  38  39
HETATM   39  C   UNL     1     -22.049 -13.709   1.636  1.00  0.00    -0.005 C 
HETATM   40  C   UNL     1     -22.237 -14.575   2.867  1.00  0.00     0.005 C 
ENDBRANCH  38  39
ENDBRANCH  37  38
ENDBRANCH  36  37
ENDBRANCH  35  36
ENDBRANCH   6  35
BRANCH   1  41
HETATM   41  C   UNL     1     -20.315 -10.809  -0.251  1.00  0.00     0.009 C 
BRANCH  41  42
HETATM   42  C   UNL     1     -21.287 -10.178   0.752  1.00  0.00     0.001 C 
BRANCH  42  43
HETATM   43  C   UNL     1     -20.915  -8.814   1.340  1.00  0.00     0.000 C 
BRANCH  43  44
HETATM   44  C   UNL     1     -22.110  -7.877   1.132  1.00  0.00    -0.000 C 
BRANCH  44  45
HETATM   45  C   UNL     1     -22.732  -7.960  -0.257  1.00  0.00    -0.005 C 
HETATM   46  C   UNL     1     -22.286  -6.774  -1.104  1.00  0.00     0.005 C 
ENDBRANCH  44  45
ENDBRANCH  43  44
ENDBRANCH  42  43
ENDBRANCH  41  42
ENDBRANCH   1  41
TORSDOF 31
ENDMDL
MODEL 9
REMARK VINA RESULT:      -6.3      3.087      8.250
REMARK  31 active torsions:
REMARK  status: ('A' for Active; 'I' for Inactive)
REMARK    1  A    between atoms: C_2  and  C_3 
REMARK    2  A    between atoms: C_3  and  C_4 
REMARK    3  A    between atoms: C_4  and  C_5 
REMARK    4  A    between atoms: C_5  and  C_6 
REMARK    5  A    between atoms: C_6  and  C_7 
REMARK    6  A    between atoms: C_10  and  C_34 
REMARK    7  A    between atoms: C_11  and  C_19 
REMARK    8  A    between atoms: C_12  and  C_13 
REMARK    9  A    between atoms: C_13  and  C_14 
REMARK   10  A    between atoms: C_14  and  C_15 
REMARK   11  A    between atoms: C_15  and  C_16 
REMARK   12  A    between atoms: C_16  and  C_17 
REMARK   13  A    between atoms: C_20  and  C_21 
REMARK   14  A    between atoms: C_21  and  C_22 
REMARK   15  A    between atoms: C_22  and  C_23 
REMARK   16  A    between atoms: C_23  and  C_24 
REMARK   17  A    between atoms: C_24  and  C_25 
REMARK   18  A    between atoms: C_25  and  C_26 
REMARK   19  A    between atoms: C_26  and  C_27 
REMARK   20  A    between atoms: C_27  and  C_28 
REMARK   21  A    between atoms: C_28  and  O_30 
REMARK   22  A    between atoms: O_30  and  C_31 
REMARK   23  A    between atoms: C_34  and  C_35 
REMARK   24  A    between atoms: C_35  and  C_36 
REMARK   25  A    between atoms: C_36  and  C_37 
REMARK   26  A    between atoms: C_37  and  C_38 
REMARK   27  A    between atoms: C_38  and  C_39 
REMARK   28  A    between atoms: C_39  and  C_40 
REMARK   29  A    between atoms: C_40  and  C_41 
REMARK   30  A    between atoms: C_41  and  O_43 
REMARK   31  A    between atoms: O_43  and  C_44 
ROOT
HETATM    1  C   UNL     1     -21.154  -7.675  -5.178  1.00  0.00     0.012 C 
HETATM    2  C   UNL     1     -19.695  -8.037  -5.342  1.00  0.00    -0.025 C 
HETATM    3  C   UNL     1     -19.021  -8.833  -4.499  1.00  0.00    -0.025 C 
HETATM    4  C   UNL     1     -19.637  -9.508  -3.290  1.00  0.00     0.016 C 
HETATM    5  C   UNL     1     -21.193  -9.457  -3.343  1.00  0.00     0.020 C 
HETATM    6  C   UNL     1     -21.651  -7.999  -3.722  1.00  0.00     0.001 C 
ENDROOT
BRANCH   5   7
HETATM    7  C   UNL     1     -21.763 -10.493  -4.292  1.00  0.00    -0.025 C 
HETATM    8  C   UNL     1     -22.385 -11.619  -3.920  1.00  0.00    -0.030 C 
BRANCH   8   9
HETATM    9  C   UNL     1     -22.889 -12.612  -4.921  1.00  0.00     0.027 C 
BRANCH   9  10
HETATM   10  C   UNL     1     -22.171 -12.448  -6.254  1.00  0.00     0.004 C 
BRANCH  10  11
HETATM   11  C   UNL     1     -20.915 -13.314  -6.283  1.00  0.00     0.000 C 
BRANCH  11  12
HETATM   12  C   UNL     1     -19.671 -12.452  -6.443  1.00  0.00     0.000 C 
BRANCH  12  13
HETATM   13  C   UNL     1     -19.080 -12.597  -7.842  1.00  0.00     0.000 C 
BRANCH  13  14
HETATM   14  C   UNL     1     -17.576 -12.801  -7.743  1.00  0.00     0.010 C 
BRANCH  14  15
HETATM   15  C   UNL     1     -17.196 -13.816  -6.672  1.00  0.00     0.111 C 
BRANCH  15  16
HETATM   16  C   UNL     1     -16.036 -13.290  -5.861  1.00  0.00     0.259 C 
HETATM   17  O   UNL     1     -14.895 -13.726  -5.901  1.00  0.00    -0.265 OA
BRANCH  16  18
HETATM   18  O   UNL     1     -16.449 -12.255  -5.078  1.00  0.00    -0.317 OA
BRANCH  18  19
HETATM   19  C   UNL     1     -15.405 -11.352  -4.675  1.00  0.00     0.123 C 
HETATM   20  C   UNL     1     -15.660  -9.972  -5.275  1.00  0.00     0.040 C 
HETATM   21  C   UNL     1     -15.408 -11.290  -3.152  1.00  0.00     0.040 C 
ENDBRANCH  18  19
ENDBRANCH  16  18
ENDBRANCH  15  16
ENDBRANCH  14  15
ENDBRANCH  13  14
ENDBRANCH  12  13
ENDBRANCH  11  12
ENDBRANCH  10  11
ENDBRANCH   9  10
ENDBRANCH   8   9
ENDBRANCH   5   7
BRANCH   4  22
HETATM   22  C   UNL     1     -19.088 -10.925  -3.052  1.00  0.00     0.009 C 
BRANCH  22  23
HETATM   23  C   UNL     1     -19.255 -11.337  -1.589  1.00  0.00     0.001 C 
BRANCH  23  24
HETATM   24  C   UNL     1     -19.779 -12.756  -1.459  1.00  0.00     0.000 C 
BRANCH  24  25
HETATM   25  C   UNL     1     -19.535 -13.505  -2.762  1.00  0.00     0.000 C 
BRANCH  25  26
HETATM   26  C   UNL     1     -20.472 -14.698  -2.884  1.00  0.00     0.000 C 
BRANCH  26  27
HETATM   27  C   UNL     1     -21.314 -14.829  -1.623  1.00  0.00     0.010 C 
BRANCH  27  28
HETATM   28  C   UNL     1     -22.802 -14.899  -1.943  1.00  0.00     0.111 C 
BRANCH  28  29
HETATM   29  C   UNL     1     -23.582 -14.093  -0.935  1.00  0.00     0.259 C 
HETATM   30  O   UNL     1     -24.240 -13.099  -1.192  1.00  0.00    -0.265 OA
BRANCH  29  31
HETATM   31  O   UNL     1     -23.445 -14.643   0.306  1.00  0.00    -0.317 OA
BRANCH  31  32
HETATM   32  C   UNL     1     -23.374 -13.688   1.379  1.00  0.00     0.123 C 
HETATM   33  C   UNL     1     -23.717 -14.373   2.699  1.00  0.00     0.040 C 
HETATM   34  C   UNL     1     -21.957 -13.134   1.405  1.00  0.00     0.040 C 
ENDBRANCH  31  32
ENDBRANCH  29  31
ENDBRANCH  28  29
ENDBRANCH  27  28
ENDBRANCH  26  27
ENDBRANCH  25  26
ENDBRANCH  24  25
ENDBRANCH  23  24
ENDBRANCH  22  23
ENDBRANCH   4  22
BRANCH   6  35
HETATM   35  C   UNL     1     -21.159  -7.050  -2.583  1.00  0.00     0.006 C 
BRANCH  35  36
HETATM   36  C   UNL     1     -22.182  -6.432  -1.633  1.00  0.00     0.000 C 
BRANCH  36  37
HETATM   37  C   UNL     1     -22.546  -7.303  -0.442  1.00  0.00     0.000 C 
BRANCH  37  38
HETATM   38  C   UNL     1     -21.358  -8.146   0.002  1.00  0.00    -0.000 C 
BRANCH  38  39
HETATM   39  C   UNL     1     -21.790  -9.547   0.413  1.00  0.00    -0.005 C 
HETATM   40  C   UNL     1     -23.098  -9.911  -0.262  1.00  0.00     0.005 C 
ENDBRANCH  38  39
ENDBRANCH  37  38
ENDBRANCH  36  37
ENDBRANCH  35  36
ENDBRANCH   6  35
BRANCH   1  41
HETATM   41  C   UNL     1     -21.454  -6.252  -5.679  1.00  0.00     0.009 C 
BRANCH  41  42
HETATM   42  C   UNL     1     -20.726  -5.800  -6.951  1.00  0.00     0.001 C 
BRANCH  42  43
HETATM   43  C   UNL     1     -20.799  -4.316  -7.319  1.00  0.00     0.000 C 
BRANCH  43  44
HETATM   44  C   UNL     1     -22.213  -4.036  -7.840  1.00  0.00    -0.000 C 
BRANCH  44  45
HETATM   45  C   UNL     1     -22.369  -4.217  -9.345  1.00  0.00    -0.005 C 
HETATM   46  C   UNL     1     -21.040  -3.962 -10.046  1.00  0.00     0.005 C 
ENDBRANCH  44  45
ENDBRANCH  43  44
ENDBRANCH  42  43
ENDBRANCH  41  42
ENDBRANCH   1  41
TORSDOF 31
ENDMDL
