MODEL 1
REMARK VINA RESULT:      -5.2      0.000      0.000
REMARK  6 active torsions:
REMARK  status: ('A' for Active; 'I' for Inactive)
REMARK    1  A    between atoms: N_2  and  C_5 
REMARK    2  A    between atoms: C_5  and  C_6 
REMARK    3  A    between atoms: C_6  and  C_7 
REMARK    4  A    between atoms: C_6  and  O_11 
REMARK    5  A    between atoms: C_7  and  C_8 
REMARK    6  A    between atoms: C_8  and  O_10 
ROOT
HETATM    1  C   UNL     1     -22.632  -3.481 -12.233  1.00  0.00     0.154 C 
ENDROOT
BRANCH   1   2
HETATM    2  C   UNL     1     -22.555  -3.105 -10.725  1.00  0.00     0.268 C 
BRANCH   2   3
HETATM    3  N   UNL     1     -23.531  -3.919  -9.802  1.00  0.00    -0.076 N 
HETATM    4  C   UNL     1     -22.939  -4.192  -8.426  1.00  0.00     0.271 C 
HETATM    5  C   UNL     1     -23.791  -5.277 -10.467  1.00  0.00     0.271 C 
HETATM    6  C   UNL     1     -24.862  -3.177  -9.611  1.00  0.00     0.271 C 
ENDBRANCH   2   3
ENDBRANCH   1   2
BRANCH   1   7
HETATM    7  C   UNL     1     -23.144  -2.360 -13.163  1.00  0.00     0.143 C 
BRANCH   7   8
HETATM    8  C   UNL     1     -23.137  -2.759 -14.617  1.00  0.00     0.141 C 
HETATM    9  O   UNL     1     -22.567  -2.089 -15.476  1.00  0.00    -0.650 OA
BRANCH   8  10
HETATM   10  O   UNL     1     -23.784  -3.898 -14.879  1.00  0.00    -0.776 OA
HETATM   11  H   UNL     1     -23.231  -4.698 -14.977  1.00  0.00     0.167 HD
ENDBRANCH   8  10
ENDBRANCH   7   8
ENDBRANCH   1   7
BRANCH   1  12
HETATM   12  O   UNL     1     -21.370  -3.954 -12.714  1.00  0.00    -0.393 OA
HETATM   13  H   UNL     1     -21.530  -4.459 -13.543  1.00  0.00     0.210 HD
ENDBRANCH   1  12
TORSDOF 6
ENDMDL
MODEL 2
REMARK VINA RESULT:      -4.6     10.940     12.359
REMARK  6 active torsions:
REMARK  status: ('A' for Active; 'I' for Inactive)
REMARK    1  A    between atoms: N_2  and  C_5 
REMARK    2  A    between atoms: C_5  and  C_6 
REMARK    3  A    between atoms: C_6  and  C_7 
REMARK    4  A    between atoms: C_6  and  O_11 
REMARK    5  A    between atoms: C_7  and  C_8 
REMARK    6  A    between atoms: C_8  and  O_10 
ROOT
HETATM    1  C   UNL     1     -34.351  -2.326 -12.301  1.00  0.00     0.154 C 
ENDROOT
BRANCH   1   2
HETATM    2  C   UNL     1     -35.751  -1.886 -11.781  1.00  0.00     0.268 C 
BRANCH   2   3
HETATM    3  N   UNL     1     -36.143  -0.408 -12.142  1.00  0.00    -0.076 N 
HETATM    4  C   UNL     1     -34.965   0.392 -12.680  1.00  0.00     0.271 C 
HETATM    5  C   UNL     1     -36.620   0.283 -10.858  1.00  0.00     0.271 C 
HETATM    6  C   UNL     1     -37.264  -0.373 -13.191  1.00  0.00     0.271 C 
ENDBRANCH   2   3
ENDBRANCH   1   2
BRANCH   1   7
HETATM    7  C   UNL     1     -33.468  -3.055 -11.265  1.00  0.00     0.143 C 
BRANCH   7   8
HETATM    8  C   UNL     1     -33.237  -4.504 -11.613  1.00  0.00     0.141 C 
HETATM    9  O   UNL     1     -34.043  -5.384 -11.318  1.00  0.00    -0.650 OA
BRANCH   8  10
HETATM   10  O   UNL     1     -32.099  -4.737 -12.274  1.00  0.00    -0.776 OA
HETATM   11  H   UNL     1     -31.376  -5.147 -11.759  1.00  0.00     0.167 HD
ENDBRANCH   8  10
ENDBRANCH   7   8
ENDBRANCH   1   7
BRANCH   1  12
HETATM   12  O   UNL     1     -34.466  -3.134 -13.476  1.00  0.00    -0.393 OA
HETATM   13  H   UNL     1     -34.540  -2.533 -14.252  1.00  0.00     0.210 HD
ENDBRANCH   1  12
TORSDOF 6
ENDMDL
MODEL 3
REMARK VINA RESULT:      -4.6      3.965      5.346
REMARK  6 active torsions:
REMARK  status: ('A' for Active; 'I' for Inactive)
REMARK    1  A    between atoms: N_2  and  C_5 
REMARK    2  A    between atoms: C_5  and  C_6 
REMARK    3  A    between atoms: C_6  and  C_7 
REMARK    4  A    between atoms: C_6  and  O_11 
REMARK    5  A    between atoms: C_7  and  C_8 
REMARK    6  A    between atoms: C_8  and  O_10 
ROOT
HETATM    1  C   UNL     1     -22.554  -4.174  -7.630  1.00  0.00     0.154 C 
ENDROOT
BRANCH   1   2
HETATM    2  C   UNL     1     -21.688  -5.467  -7.569  1.00  0.00     0.268 C 
BRANCH   2   3
HETATM    3  N   UNL     1     -20.268  -5.267  -6.927  1.00  0.00    -0.076 N 
HETATM    4  C   UNL     1     -19.546  -6.586  -6.690  1.00  0.00     0.271 C 
HETATM    5  C   UNL     1     -20.455  -4.593  -5.561  1.00  0.00     0.271 C 
HETATM    6  C   UNL     1     -19.378  -4.386  -7.816  1.00  0.00     0.271 C 
ENDBRANCH   2   3
ENDBRANCH   1   2
BRANCH   1   7
HETATM    7  C   UNL     1     -22.843  -3.647  -9.053  1.00  0.00     0.143 C 
BRANCH   7   8
HETATM    8  C   UNL     1     -24.287  -3.808  -9.452  1.00  0.00     0.141 C 
HETATM    9  O   UNL     1     -24.711  -4.838  -9.974  1.00  0.00    -0.650 OA
BRANCH   8  10
HETATM   10  O   UNL     1     -25.056  -2.750  -9.178  1.00  0.00    -0.776 OA
HETATM   11  H   UNL     1     -25.447  -2.719  -8.283  1.00  0.00     0.167 HD
ENDBRANCH   8  10
ENDBRANCH   7   8
ENDBRANCH   1   7
BRANCH   1  12
HETATM   12  O   UNL     1     -23.790  -4.345  -6.930  1.00  0.00    -0.393 OA
HETATM   13  H   UNL     1     -24.522  -4.113  -7.546  1.00  0.00     0.210 HD
ENDBRANCH   1  12
TORSDOF 6
ENDMDL
MODEL 4
REMARK VINA RESULT:      -4.5      2.192      3.032
REMARK  6 active torsions:
REMARK  status: ('A' for Active; 'I' for Inactive)
REMARK    1  A    between atoms: N_2  and  C_5 
REMARK    2  A    between atoms: C_5  and  C_6 
REMARK    3  A    between atoms: C_6  and  C_7 
REMARK    4  A    between atoms: C_6  and  O_11 
REMARK    5  A    between atoms: C_7  and  C_8 
REMARK    6  A    between atoms: C_8  and  O_10 
ROOT
HETATM    1  C   UNL     1     -23.274  -3.744 -10.242  1.00  0.00     0.154 C 
ENDROOT
BRANCH   1   2
HETATM    2  C   UNL     1     -22.949  -4.694  -9.052  1.00  0.00     0.268 C 
BRANCH   2   3
HETATM    3  N   UNL     1     -21.530  -4.474  -8.415  1.00  0.00    -0.076 N 
HETATM    4  C   UNL     1     -21.503  -3.301  -7.444  1.00  0.00     0.271 C 
HETATM    5  C   UNL     1     -20.545  -4.156  -9.547  1.00  0.00     0.271 C 
HETATM    6  C   UNL     1     -21.060  -5.728  -7.663  1.00  0.00     0.271 C 
ENDBRANCH   2   3
ENDBRANCH   1   2
BRANCH   1   7
HETATM    7  C   UNL     1     -23.412  -4.439 -11.614  1.00  0.00     0.143 C 
BRANCH   7   8
HETATM    8  C   UNL     1     -23.504  -3.459 -12.756  1.00  0.00     0.141 C 
HETATM    9  O   UNL     1     -24.539  -2.845 -13.010  1.00  0.00    -0.650 OA
BRANCH   8  10
HETATM   10  O   UNL     1     -22.370  -3.311 -13.448  1.00  0.00    -0.776 OA
HETATM   11  H   UNL     1     -22.444  -3.384 -14.421  1.00  0.00     0.167 HD
ENDBRANCH   8  10
ENDBRANCH   7   8
ENDBRANCH   1   7
BRANCH   1  12
HETATM   12  O   UNL     1     -24.451  -2.973  -9.982  1.00  0.00    -0.393 OA
HETATM   13  H   UNL     1     -25.058  -3.077 -10.750  1.00  0.00     0.210 HD
ENDBRANCH   1  12
TORSDOF 6
ENDMDL
MODEL 5
REMARK VINA RESULT:      -4.4      3.886      5.592
REMARK  6 active torsions:
REMARK  status: ('A' for Active; 'I' for Inactive)
REMARK    1  A    between atoms: N_2  and  C_5 
REMARK    2  A    between atoms: C_5  and  C_6 
REMARK    3  A    between atoms: C_6  and  C_7 
REMARK    4  A    between atoms: C_6  and  O_11 
REMARK    5  A    between atoms: C_7  and  C_8 
REMARK    6  A    between atoms: C_8  and  O_10 
ROOT
HETATM    1  C   UNL     1     -21.896  -4.217  -8.607  1.00  0.00     0.154 C 
ENDROOT
BRANCH   1   2
HETATM    2  C   UNL     1     -22.153  -3.492  -9.960  1.00  0.00     0.268 C 
BRANCH   2   3
HETATM    3  N   UNL     1     -23.592  -3.710 -10.551  1.00  0.00    -0.076 N 
HETATM    4  C   UNL     1     -24.689  -3.275  -9.590  1.00  0.00     0.271 C 
HETATM    5  C   UNL     1     -23.776  -5.211 -10.810  1.00  0.00     0.271 C 
HETATM    6  C   UNL     1     -23.774  -2.937 -11.866  1.00  0.00     0.271 C 
ENDBRANCH   2   3
ENDBRANCH   1   2
BRANCH   1   7
HETATM    7  C   UNL     1     -20.561  -4.988  -8.520  1.00  0.00     0.143 C 
BRANCH   7   8
HETATM    8  C   UNL     1     -20.236  -5.435  -7.117  1.00  0.00     0.141 C 
HETATM    9  O   UNL     1     -19.676  -4.696  -6.309  1.00  0.00    -0.650 OA
BRANCH   8  10
HETATM   10  O   UNL     1     -20.620  -6.683  -6.833  1.00  0.00    -0.776 OA
HETATM   11  H   UNL     1     -19.978  -7.391  -7.039  1.00  0.00     0.167 HD
ENDBRANCH   8  10
ENDBRANCH   7   8
ENDBRANCH   1   7
BRANCH   1  12
HETATM   12  O   UNL     1     -21.989  -3.307  -7.506  1.00  0.00    -0.393 OA
HETATM   13  H   UNL     1     -22.477  -3.758  -6.780  1.00  0.00     0.210 HD
ENDBRANCH   1  12
TORSDOF 6
ENDMDL
MODEL 6
REMARK VINA RESULT:      -4.2      8.220      9.622
REMARK  6 active torsions:
REMARK  status: ('A' for Active; 'I' for Inactive)
REMARK    1  A    between atoms: N_2  and  C_5 
REMARK    2  A    between atoms: C_5  and  C_6 
REMARK    3  A    between atoms: C_6  and  C_7 
REMARK    4  A    between atoms: C_6  and  O_11 
REMARK    5  A    between atoms: C_7  and  C_8 
REMARK    6  A    between atoms: C_8  and  O_10 
ROOT
HETATM    1  C   UNL     1     -26.954  -6.814 -19.075  1.00  0.00     0.154 C 
ENDROOT
BRANCH   1   2
HETATM    2  C   UNL     1     -28.175  -5.935 -18.677  1.00  0.00     0.268 C 
BRANCH   2   3
HETATM    3  N   UNL     1     -29.285  -6.695 -17.865  1.00  0.00    -0.076 N 
HETATM    4  C   UNL     1     -30.491  -5.817 -17.565  1.00  0.00     0.271 C 
HETATM    5  C   UNL     1     -28.682  -7.123 -16.521  1.00  0.00     0.271 C 
HETATM    6  C   UNL     1     -29.775  -7.936 -18.626  1.00  0.00     0.271 C 
ENDBRANCH   2   3
ENDBRANCH   1   2
BRANCH   1   7
HETATM    7  C   UNL     1     -26.571  -6.765 -20.570  1.00  0.00     0.143 C 
BRANCH   7   8
HETATM    8  C   UNL     1     -26.472  -8.135 -21.192  1.00  0.00     0.141 C 
HETATM    9  O   UNL     1     -27.467  -8.812 -21.443  1.00  0.00    -0.650 OA
BRANCH   8  10
HETATM   10  O   UNL     1     -25.223  -8.532 -21.453  1.00  0.00    -0.776 OA
HETATM   11  H   UNL     1     -24.794  -9.087 -20.772  1.00  0.00     0.167 HD
ENDBRANCH   8  10
ENDBRANCH   7   8
ENDBRANCH   1   7
BRANCH   1  12
HETATM   12  O   UNL     1     -25.806  -6.493 -18.283  1.00  0.00    -0.393 OA
HETATM   13  H   UNL     1     -25.507  -5.590 -18.533  1.00  0.00     0.210 HD
ENDBRANCH   1  12
TORSDOF 6
ENDMDL
MODEL 7
REMARK VINA RESULT:      -4.2      7.014      8.487
REMARK  6 active torsions:
REMARK  status: ('A' for Active; 'I' for Inactive)
REMARK    1  A    between atoms: N_2  and  C_5 
REMARK    2  A    between atoms: C_5  and  C_6 
REMARK    3  A    between atoms: C_6  and  C_7 
REMARK    4  A    between atoms: C_6  and  O_11 
REMARK    5  A    between atoms: C_7  and  C_8 
REMARK    6  A    between atoms: C_8  and  O_10 
ROOT
HETATM    1  C   UNL     1     -27.504  -6.456 -16.798  1.00  0.00     0.154 C 
ENDROOT
BRANCH   1   2
HETATM    2  C   UNL     1     -28.829  -7.259 -16.942  1.00  0.00     0.268 C 
BRANCH   2   3
HETATM    3  N   UNL     1     -29.930  -6.546 -17.806  1.00  0.00    -0.076 N 
HETATM    4  C   UNL     1     -30.948  -5.801 -16.954  1.00  0.00     0.271 C 
HETATM    5  C   UNL     1     -30.689  -7.624 -18.591  1.00  0.00     0.271 C 
HETATM    6  C   UNL     1     -29.302  -5.544 -18.787  1.00  0.00     0.271 C 
ENDBRANCH   2   3
ENDBRANCH   1   2
BRANCH   1   7
HETATM    7  C   UNL     1     -26.699  -6.745 -15.512  1.00  0.00     0.143 C 
BRANCH   7   8
HETATM    8  C   UNL     1     -25.212  -6.795 -15.754  1.00  0.00     0.141 C 
HETATM    9  O   UNL     1     -24.623  -7.848 -15.993  1.00  0.00    -0.650 OA
BRANCH   8  10
HETATM   10  O   UNL     1     -24.604  -5.606 -15.700  1.00  0.00    -0.776 OA
HETATM   11  H   UNL     1     -23.844  -5.481 -16.302  1.00  0.00     0.167 HD
ENDBRANCH   8  10
ENDBRANCH   7   8
ENDBRANCH   1   7
BRANCH   1  12
HETATM   12  O   UNL     1     -26.658  -6.644 -17.937  1.00  0.00    -0.393 OA
HETATM   13  H   UNL     1     -27.232  -6.842 -18.711  1.00  0.00     0.210 HD
ENDBRANCH   1  12
TORSDOF 6
ENDMDL
MODEL 8
REMARK VINA RESULT:      -4.0      4.512      6.295
REMARK  6 active torsions:
REMARK  status: ('A' for Active; 'I' for Inactive)
REMARK    1  A    between atoms: N_2  and  C_5 
REMARK    2  A    between atoms: C_5  and  C_6 
REMARK    3  A    between atoms: C_6  and  C_7 
REMARK    4  A    between atoms: C_6  and  O_11 
REMARK    5  A    between atoms: C_7  and  C_8 
REMARK    6  A    between atoms: C_8  and  O_10 
ROOT
HETATM    1  C   UNL     1     -21.149  -5.422  -6.860  1.00  0.00     0.154 C 
ENDROOT
BRANCH   1   2
HETATM    2  C   UNL     1     -20.603  -5.398  -5.403  1.00  0.00     0.268 C 
BRANCH   2   3
HETATM    3  N   UNL     1     -21.244  -6.472  -4.451  1.00  0.00    -0.076 N 
HETATM    4  C   UNL     1     -21.261  -6.024  -2.997  1.00  0.00     0.271 C 
HETATM    5  C   UNL     1     -20.393  -7.745  -4.531  1.00  0.00     0.271 C 
HETATM    6  C   UNL     1     -22.687  -6.792  -4.871  1.00  0.00     0.271 C 
ENDBRANCH   2   3
ENDBRANCH   1   2
BRANCH   1   7
HETATM    7  C   UNL     1     -21.698  -4.073  -7.375  1.00  0.00     0.143 C 
BRANCH   7   8
HETATM    8  C   UNL     1     -22.698  -4.239  -8.492  1.00  0.00     0.141 C 
HETATM    9  O   UNL     1     -22.378  -4.677  -9.595  1.00  0.00    -0.650 OA
BRANCH   8  10
HETATM   10  O   UNL     1     -23.946  -3.886  -8.171  1.00  0.00    -0.776 OA
HETATM   11  H   UNL     1     -24.663  -4.415  -8.574  1.00  0.00     0.167 HD
ENDBRANCH   8  10
ENDBRANCH   7   8
ENDBRANCH   1   7
BRANCH   1  12
HETATM   12  O   UNL     1     -20.164  -5.911  -7.775  1.00  0.00    -0.393 OA
HETATM   13  H   UNL     1     -20.569  -5.941  -8.671  1.00  0.00     0.210 HD
ENDBRANCH   1  12
TORSDOF 6
ENDMDL
MODEL 9
REMARK VINA RESULT:      -3.9      9.380     11.694
REMARK  6 active torsions:
REMARK  status: ('A' for Active; 'I' for Inactive)
REMARK    1  A    between atoms: N_2  and  C_5 
REMARK    2  A    between atoms: C_5  and  C_6 
REMARK    3  A    between atoms: C_6  and  C_7 
REMARK    4  A    between atoms: C_6  and  O_11 
REMARK    5  A    between atoms: C_7  and  C_8 
REMARK    6  A    between atoms: C_8  and  O_10 
ROOT
HETATM    1  C   UNL     1     -22.009  -7.052  -1.869  1.00  0.00     0.154 C 
ENDROOT
BRANCH   1   2
HETATM    2  C   UNL     1     -20.847  -7.073  -2.903  1.00  0.00     0.268 C 
BRANCH   2   3
HETATM    3  N   UNL     1     -21.218  -7.720  -4.285  1.00  0.00    -0.076 N 
HETATM    4  C   UNL     1     -21.737  -9.144  -4.141  1.00  0.00     0.271 C 
HETATM    5  C   UNL     1     -19.945  -7.780  -5.139  1.00  0.00     0.271 C 
HETATM    6  C   UNL     1     -22.287  -6.894  -5.015  1.00  0.00     0.271 C 
ENDBRANCH   2   3
ENDBRANCH   1   2
BRANCH   1   7
HETATM    7  C   UNL     1     -21.702  -7.746  -0.524  1.00  0.00     0.143 C 
BRANCH   7   8
HETATM    8  C   UNL     1     -22.905  -8.439   0.063  1.00  0.00     0.141 C 
HETATM    9  O   UNL     1     -23.031  -9.662   0.040  1.00  0.00    -0.650 OA
BRANCH   8  10
HETATM   10  O   UNL     1     -23.802  -7.615   0.613  1.00  0.00    -0.776 OA
HETATM   11  H   UNL     1     -23.546  -6.674   0.671  1.00  0.00     0.167 HD
ENDBRANCH   8  10
ENDBRANCH   7   8
ENDBRANCH   1   7
BRANCH   1  12
HETATM   12  O   UNL     1     -22.457  -5.716  -1.619  1.00  0.00    -0.393 OA
HETATM   13  H   UNL     1     -22.473  -5.578  -0.645  1.00  0.00     0.210 HD
ENDBRANCH   1  12
TORSDOF 6
ENDMDL
