MODEL 1
REMARK VINA RESULT:      -4.2      0.000      0.000
REMARK  5 active torsions:
REMARK  status: ('A' for Active; 'I' for Inactive)
REMARK    1  A    between atoms: N_2  and  C_5 
REMARK    2  A    between atoms: C_5  and  C_6 
REMARK    3  A    between atoms: C_6  and  O_8 
REMARK    4  A    between atoms: C_14  and  C_16 
REMARK    5  A    between atoms: C_16  and  O_18 
ROOT
HETATM    1  C   UNL     1     -22.788  -2.663 -11.769  1.00  0.00     0.345 C 
ENDROOT
BRANCH   1   2
HETATM    2  N   UNL     1     -23.269  -3.790 -10.788  1.00  0.00    -0.069 N 
HETATM    3  C   UNL     1     -22.133  -3.993  -9.788  1.00  0.00     0.272 C 
HETATM    4  C   UNL     1     -23.522  -5.089 -11.504  1.00  0.00     0.272 C 
HETATM    5  C   UNL     1     -24.494  -3.313 -10.043  1.00  0.00     0.272 C 
ENDBRANCH   1   2
BRANCH   1   6
HETATM    6  C   UNL     1     -23.344  -2.728 -13.191  1.00  0.00     0.166 C 
HETATM    7  O   UNL     1     -24.490  -2.445 -13.493  1.00  0.00    -0.649 OA
BRANCH   6   8
HETATM    8  O   UNL     1     -22.437  -3.117 -14.119  1.00  0.00    -0.775 OA
HETATM    9  H   UNL     1     -22.486  -4.070 -14.366  1.00  0.00     0.167 HD
ENDBRANCH   6   8
ENDBRANCH   1   6
TORSDOF 5
ENDMDL
MODEL 2
REMARK VINA RESULT:      -4.1      2.547      3.387
REMARK  5 active torsions:
REMARK  status: ('A' for Active; 'I' for Inactive)
REMARK    1  A    between atoms: N_2  and  C_5 
REMARK    2  A    between atoms: C_5  and  C_6 
REMARK    3  A    between atoms: C_6  and  O_8 
REMARK    4  A    between atoms: C_14  and  C_16 
REMARK    5  A    between atoms: C_16  and  O_18 
ROOT
HETATM    1  C   UNL     1     -23.381  -2.983 -10.351  1.00  0.00     0.345 C 
ENDROOT
BRANCH   1   2
HETATM    2  N   UNL     1     -23.312  -3.652 -11.770  1.00  0.00    -0.069 N 
HETATM    3  C   UNL     1     -21.871  -3.483 -12.247  1.00  0.00     0.272 C 
HETATM    4  C   UNL     1     -24.231  -2.979 -12.754  1.00  0.00     0.272 C 
HETATM    5  C   UNL     1     -23.613  -5.127 -11.641  1.00  0.00     0.272 C 
ENDBRANCH   1   2
BRANCH   1   6
HETATM    6  C   UNL     1     -24.597  -3.343  -9.498  1.00  0.00     0.166 C 
HETATM    7  O   UNL     1     -25.752  -3.138  -9.829  1.00  0.00    -0.649 OA
BRANCH   6   8
HETATM    8  O   UNL     1     -24.287  -3.938  -8.322  1.00  0.00    -0.775 OA
HETATM    9  H   UNL     1     -24.777  -4.774  -8.143  1.00  0.00     0.167 HD
ENDBRANCH   6   8
ENDBRANCH   1   6
TORSDOF 5
ENDMDL
MODEL 3
REMARK VINA RESULT:      -3.8     15.001     15.938
REMARK  5 active torsions:
REMARK  status: ('A' for Active; 'I' for Inactive)
REMARK    1  A    between atoms: N_2  and  C_5 
REMARK    2  A    between atoms: C_5  and  C_6 
REMARK    3  A    between atoms: C_6  and  O_8 
REMARK    4  A    between atoms: C_14  and  C_16 
REMARK    5  A    between atoms: C_16  and  O_18 
ROOT
HETATM    1  C   UNL     1     -29.772 -15.631 -19.527  1.00  0.00     0.345 C 
ENDROOT
BRANCH   1   2
HETATM    2  N   UNL     1     -29.874 -15.608 -21.093  1.00  0.00    -0.069 N 
HETATM    3  C   UNL     1     -29.450 -16.998 -21.564  1.00  0.00     0.272 C 
HETATM    4  C   UNL     1     -28.950 -14.587 -21.702  1.00  0.00     0.272 C 
HETATM    5  C   UNL     1     -31.311 -15.374 -21.497  1.00  0.00     0.272 C 
ENDBRANCH   1   2
BRANCH   1   6
HETATM    6  C   UNL     1     -29.379 -14.313 -18.859  1.00  0.00     0.166 C 
HETATM    7  O   UNL     1     -30.004 -13.273 -18.973  1.00  0.00    -0.649 OA
BRANCH   6   8
HETATM    8  O   UNL     1     -28.263 -14.395 -18.097  1.00  0.00    -0.775 OA
HETATM    9  H   UNL     1     -28.429 -14.398 -17.125  1.00  0.00     0.167 HD
ENDBRANCH   6   8
ENDBRANCH   1   6
TORSDOF 5
ENDMDL
MODEL 4
REMARK VINA RESULT:      -3.8     16.343     17.407
REMARK  5 active torsions:
REMARK  status: ('A' for Active; 'I' for Inactive)
REMARK    1  A    between atoms: N_2  and  C_5 
REMARK    2  A    between atoms: C_5  and  C_6 
REMARK    3  A    between atoms: C_6  and  O_8 
REMARK    4  A    between atoms: C_14  and  C_16 
REMARK    5  A    between atoms: C_16  and  O_18 
ROOT
HETATM    1  C   UNL     1     -11.278   5.705 -19.768  1.00  0.00     0.345 C 
ENDROOT
BRANCH   1   2
HETATM    2  N   UNL     1     -11.614   4.424 -20.611  1.00  0.00    -0.069 N 
HETATM    3  C   UNL     1     -13.123   4.219 -20.485  1.00  0.00     0.272 C 
HETATM    4  C   UNL     1     -10.914   3.201 -20.082  1.00  0.00     0.272 C 
HETATM    5  C   UNL     1     -11.278   4.679 -22.062  1.00  0.00     0.272 C 
ENDBRANCH   1   2
BRANCH   1   6
HETATM    6  C   UNL     1      -9.822   5.854 -19.325  1.00  0.00     0.166 C 
HETATM    7  O   UNL     1      -8.896   6.090 -20.082  1.00  0.00    -0.649 OA
BRANCH   6   8
HETATM    8  O   UNL     1      -9.637   5.720 -17.991  1.00  0.00    -0.775 OA
HETATM    9  H   UNL     1      -9.430   6.560 -17.518  1.00  0.00     0.167 HD
ENDBRANCH   6   8
ENDBRANCH   1   6
TORSDOF 5
ENDMDL
MODEL 5
REMARK VINA RESULT:      -3.8      2.384      3.335
REMARK  5 active torsions:
REMARK  status: ('A' for Active; 'I' for Inactive)
REMARK    1  A    between atoms: N_2  and  C_5 
REMARK    2  A    between atoms: C_5  and  C_6 
REMARK    3  A    between atoms: C_6  and  O_8 
REMARK    4  A    between atoms: C_14  and  C_16 
REMARK    5  A    between atoms: C_16  and  O_18 
ROOT
HETATM    1  C   UNL     1     -23.211  -3.648  -9.848  1.00  0.00     0.345 C 
ENDROOT
BRANCH   1   2
HETATM    2  N   UNL     1     -22.610  -3.795 -11.290  1.00  0.00    -0.069 N 
HETATM    3  C   UNL     1     -23.449  -4.863 -11.990  1.00  0.00     0.272 C 
HETATM    4  C   UNL     1     -21.176  -4.248 -11.260  1.00  0.00     0.272 C 
HETATM    5  C   UNL     1     -22.770  -2.488 -12.033  1.00  0.00     0.272 C 
ENDBRANCH   1   2
BRANCH   1   6
HETATM    6  C   UNL     1     -24.728  -3.797  -9.733  1.00  0.00     0.166 C 
HETATM    7  O   UNL     1     -25.524  -2.896  -9.935  1.00  0.00    -0.649 OA
BRANCH   6   8
HETATM    8  O   UNL     1     -25.134  -5.045  -9.400  1.00  0.00    -0.775 OA
HETATM    9  H   UNL     1     -24.520  -5.765  -9.679  1.00  0.00     0.167 HD
ENDBRANCH   6   8
ENDBRANCH   1   6
TORSDOF 5
ENDMDL
MODEL 6
REMARK VINA RESULT:      -3.7      1.551      2.561
REMARK  5 active torsions:
REMARK  status: ('A' for Active; 'I' for Inactive)
REMARK    1  A    between atoms: N_2  and  C_5 
REMARK    2  A    between atoms: C_5  and  C_6 
REMARK    3  A    between atoms: C_6  and  O_8 
REMARK    4  A    between atoms: C_14  and  C_16 
REMARK    5  A    between atoms: C_16  and  O_18 
ROOT
HETATM    1  C   UNL     1     -22.760  -2.919 -11.036  1.00  0.00     0.345 C 
ENDROOT
BRANCH   1   2
HETATM    2  N   UNL     1     -23.475  -3.866 -10.007  1.00  0.00    -0.069 N 
HETATM    3  C   UNL     1     -24.821  -3.212  -9.697  1.00  0.00     0.272 C 
HETATM    4  C   UNL     1     -22.695  -3.998  -8.727  1.00  0.00     0.272 C 
HETATM    5  C   UNL     1     -23.724  -5.208 -10.654  1.00  0.00     0.272 C 
ENDBRANCH   1   2
BRANCH   1   6
HETATM    6  C   UNL     1     -21.614  -3.540 -11.835  1.00  0.00     0.166 C 
HETATM    7  O   UNL     1     -20.570  -3.935 -11.344  1.00  0.00    -0.649 OA
BRANCH   6   8
HETATM    8  O   UNL     1     -21.860  -3.637 -13.163  1.00  0.00    -0.775 OA
HETATM    9  H   UNL     1     -22.217  -4.510 -13.451  1.00  0.00     0.167 HD
ENDBRANCH   6   8
ENDBRANCH   1   6
TORSDOF 5
ENDMDL
MODEL 7
REMARK VINA RESULT:      -3.5      3.292      4.182
REMARK  5 active torsions:
REMARK  status: ('A' for Active; 'I' for Inactive)
REMARK    1  A    between atoms: N_2  and  C_5 
REMARK    2  A    between atoms: C_5  and  C_6 
REMARK    3  A    between atoms: C_6  and  O_8 
REMARK    4  A    between atoms: C_14  and  C_16 
REMARK    5  A    between atoms: C_16  and  O_18 
ROOT
HETATM    1  C   UNL     1     -22.052  -3.633  -9.880  1.00  0.00     0.345 C 
ENDROOT
BRANCH   1   2
HETATM    2  N   UNL     1     -23.469  -3.775 -10.539  1.00  0.00    -0.069 N 
HETATM    3  C   UNL     1     -23.460  -2.861 -11.763  1.00  0.00     0.272 C 
HETATM    4  C   UNL     1     -24.568  -3.332  -9.611  1.00  0.00     0.272 C 
HETATM    5  C   UNL     1     -23.665  -5.201 -10.999  1.00  0.00     0.272 C 
ENDBRANCH   1   2
BRANCH   1   6
HETATM    6  C   UNL     1     -21.921  -4.155  -8.449  1.00  0.00     0.166 C 
HETATM    7  O   UNL     1     -21.719  -5.322  -8.160  1.00  0.00    -0.649 OA
BRANCH   6   8
HETATM    8  O   UNL     1     -22.030  -3.194  -7.502  1.00  0.00    -0.775 OA
HETATM    9  H   UNL     1     -22.554  -3.457  -6.709  1.00  0.00     0.167 HD
ENDBRANCH   6   8
ENDBRANCH   1   6
TORSDOF 5
ENDMDL
MODEL 8
REMARK VINA RESULT:      -3.4     14.802     15.650
REMARK  5 active torsions:
REMARK  status: ('A' for Active; 'I' for Inactive)
REMARK    1  A    between atoms: N_2  and  C_5 
REMARK    2  A    between atoms: C_5  and  C_6 
REMARK    3  A    between atoms: C_6  and  O_8 
REMARK    4  A    between atoms: C_14  and  C_16 
REMARK    5  A    between atoms: C_16  and  O_18 
ROOT
HETATM    1  C   UNL     1     -29.547 -15.561 -20.111  1.00  0.00     0.345 C 
ENDROOT
BRANCH   1   2
HETATM    2  N   UNL     1     -29.454 -14.700 -18.802  1.00  0.00    -0.069 N 
HETATM    3  C   UNL     1     -28.553 -15.481 -17.847  1.00  0.00     0.272 C 
HETATM    4  C   UNL     1     -30.800 -14.512 -18.155  1.00  0.00     0.272 C 
HETATM    5  C   UNL     1     -28.795 -13.378 -19.121  1.00  0.00     0.272 C 
ENDBRANCH   1   2
BRANCH   1   6
HETATM    6  C   UNL     1     -30.771 -15.311 -20.994  1.00  0.00     0.166 C 
HETATM    7  O   UNL     1     -31.070 -14.226 -21.460  1.00  0.00    -0.649 OA
BRANCH   6   8
HETATM    8  O   UNL     1     -31.507 -16.421 -21.239  1.00  0.00    -0.775 OA
HETATM    9  H   UNL     1     -30.987 -17.258 -21.278  1.00  0.00     0.167 HD
ENDBRANCH   6   8
ENDBRANCH   1   6
TORSDOF 5
ENDMDL
MODEL 9
REMARK VINA RESULT:      -3.4     17.896     18.890
REMARK  5 active torsions:
REMARK  status: ('A' for Active; 'I' for Inactive)
REMARK    1  A    between atoms: N_2  and  C_5 
REMARK    2  A    between atoms: C_5  and  C_6 
REMARK    3  A    between atoms: C_6  and  O_8 
REMARK    4  A    between atoms: C_14  and  C_16 
REMARK    5  A    between atoms: C_16  and  O_18 
ROOT
HETATM    1  C   UNL     1     -11.390   7.873 -20.177  1.00  0.00     0.345 C 
ENDROOT
BRANCH   1   2
HETATM    2  N   UNL     1     -10.834   6.489 -20.668  1.00  0.00    -0.069 N 
HETATM    3  C   UNL     1     -11.339   5.452 -19.666  1.00  0.00     0.272 C 
HETATM    4  C   UNL     1      -9.330   6.458 -20.681  1.00  0.00     0.272 C 
HETATM    5  C   UNL     1     -11.413   6.173 -22.028  1.00  0.00     0.272 C 
ENDBRANCH   1   2
BRANCH   1   6
HETATM    6  C   UNL     1     -10.364   8.832 -19.574  1.00  0.00     0.166 C 
HETATM    7  O   UNL     1      -9.739   9.660 -20.214  1.00  0.00    -0.649 OA
BRANCH   6   8
HETATM    8  O   UNL     1     -10.210   8.701 -18.235  1.00  0.00    -0.775 OA
HETATM    9  H   UNL     1      -9.841   9.496 -17.784  1.00  0.00     0.167 HD
ENDBRANCH   6   8
ENDBRANCH   1   6
TORSDOF 5
ENDMDL
