MODEL 1
REMARK VINA RESULT:      -6.5      0.000      0.000
REMARK  5 active torsions:
REMARK  status: ('A' for Active; 'I' for Inactive)
REMARK    1  A    between atoms: C_2  and  C_3 
REMARK    2  A    between atoms: C_3  and  O_4 
REMARK    3  A    between atoms: O_4  and  C_5 
REMARK    4  A    between atoms: C_5  and  C_7 
REMARK    5  A    between atoms: C_10  and  O_13 
ROOT
HETATM    1  C   UNL     1     -34.955  -2.886 -11.192  1.00  0.00     0.039 A 
HETATM    2  C   UNL     1     -35.538  -4.123 -10.870  1.00  0.00     0.020 A 
HETATM    3  C   UNL     1     -34.779  -5.294 -10.913  1.00  0.00     0.037 A 
HETATM    4  C   UNL     1     -33.439  -5.226 -11.280  1.00  0.00     0.065 A 
HETATM    5  C   UNL     1     -32.845  -4.009 -11.596  1.00  0.00     0.037 A 
HETATM    6  C   UNL     1     -33.601  -2.834 -11.546  1.00  0.00     0.020 A 
ENDROOT
BRANCH   1   7
HETATM    7  C   UNL     1     -35.724  -1.615 -11.090  1.00  0.00     0.293 C 
HETATM    8  O   UNL     1     -35.634  -0.842 -10.152  1.00  0.00    -0.259 OA
BRANCH   7   9
HETATM    9  O   UNL     1     -36.557  -1.497 -12.155  1.00  0.00    -0.318 OA
BRANCH   9  10
HETATM   10  C   UNL     1     -36.442  -0.289 -12.917  1.00  0.00     0.178 C 
BRANCH  10  11
HETATM   11  C   UNL     1     -35.083  -0.171 -13.592  1.00  0.00     0.022 C 
HETATM   12  C   UNL     1     -34.862   1.251 -14.086  1.00  0.00     0.007 C 
ENDBRANCH  10  11
ENDBRANCH   9  10
ENDBRANCH   7   9
ENDBRANCH   1   7
BRANCH   4  13
HETATM   13  O   UNL     1     -32.662  -6.346 -11.335  1.00  0.00    -0.361 OA
HETATM   14  H   UNL     1     -31.947  -6.200 -11.976  1.00  0.00     0.217 HD
ENDBRANCH   4  13
TORSDOF 5
ENDMDL
MODEL 2
REMARK VINA RESULT:      -6.4     12.194     14.375
REMARK  5 active torsions:
REMARK  status: ('A' for Active; 'I' for Inactive)
REMARK    1  A    between atoms: C_2  and  C_3 
REMARK    2  A    between atoms: C_3  and  O_4 
REMARK    3  A    between atoms: O_4  and  C_5 
REMARK    4  A    between atoms: C_5  and  C_7 
REMARK    5  A    between atoms: C_10  and  O_13 
ROOT
HETATM    1  C   UNL     1     -22.051  -4.030  -9.136  1.00  0.00     0.039 A 
HETATM    2  C   UNL     1     -20.819  -4.158  -9.799  1.00  0.00     0.020 A 
HETATM    3  C   UNL     1     -20.741  -3.988 -11.183  1.00  0.00     0.037 A 
HETATM    4  C   UNL     1     -21.894  -3.692 -11.901  1.00  0.00     0.065 A 
HETATM    5  C   UNL     1     -23.121  -3.556 -11.259  1.00  0.00     0.037 A 
HETATM    6  C   UNL     1     -23.201  -3.718  -9.873  1.00  0.00     0.020 A 
ENDROOT
BRANCH   1   7
HETATM    7  C   UNL     1     -22.152  -4.141  -7.654  1.00  0.00     0.293 C 
HETATM    8  O   UNL     1     -23.161  -4.491  -7.068  1.00  0.00    -0.259 OA
BRANCH   7   9
HETATM    9  O   UNL     1     -20.987  -3.741  -7.086  1.00  0.00    -0.318 OA
BRANCH   9  10
HETATM   10  C   UNL     1     -20.469  -4.582  -6.047  1.00  0.00     0.178 C 
BRANCH  10  11
HETATM   11  C   UNL     1     -20.031  -5.938  -6.581  1.00  0.00     0.022 C 
HETATM   12  C   UNL     1     -20.588  -7.053  -5.708  1.00  0.00     0.007 C 
ENDBRANCH  10  11
ENDBRANCH   9  10
ENDBRANCH   7   9
ENDBRANCH   1   7
BRANCH   4  13
HETATM   13  O   UNL     1     -21.861  -3.519 -13.253  1.00  0.00    -0.361 OA
HETATM   14  H   UNL     1     -20.999  -3.145 -13.500  1.00  0.00     0.217 HD
ENDBRANCH   4  13
TORSDOF 5
ENDMDL
MODEL 3
REMARK VINA RESULT:      -6.3     11.569     14.188
REMARK  5 active torsions:
REMARK  status: ('A' for Active; 'I' for Inactive)
REMARK    1  A    between atoms: C_2  and  C_3 
REMARK    2  A    between atoms: C_3  and  O_4 
REMARK    3  A    between atoms: O_4  and  C_5 
REMARK    4  A    between atoms: C_5  and  C_7 
REMARK    5  A    between atoms: C_10  and  O_13 
ROOT
HETATM    1  C   UNL     1     -21.853  -4.060  -9.747  1.00  0.00     0.039 A 
HETATM    2  C   UNL     1     -22.442  -3.568 -10.923  1.00  0.00     0.020 A 
HETATM    3  C   UNL     1     -23.811  -3.294 -10.967  1.00  0.00     0.037 A 
HETATM    4  C   UNL     1     -24.588  -3.514  -9.834  1.00  0.00     0.065 A 
HETATM    5  C   UNL     1     -24.018  -3.994  -8.659  1.00  0.00     0.037 A 
HETATM    6  C   UNL     1     -22.647  -4.262  -8.611  1.00  0.00     0.020 A 
ENDROOT
BRANCH   1   7
HETATM    7  C   UNL     1     -20.386  -4.297  -9.652  1.00  0.00     0.293 C 
HETATM    8  O   UNL     1     -19.750  -4.947 -10.465  1.00  0.00    -0.259 OA
BRANCH   7   9
HETATM    9  O   UNL     1     -19.904  -3.736  -8.515  1.00  0.00    -0.318 OA
BRANCH   9  10
HETATM   10  C   UNL     1     -19.127  -4.592  -7.668  1.00  0.00     0.178 C 
BRANCH  10  11
HETATM   11  C   UNL     1     -19.788  -4.800  -6.313  1.00  0.00     0.022 C 
HETATM   12  C   UNL     1     -20.446  -6.171  -6.253  1.00  0.00     0.007 C 
ENDBRANCH  10  11
ENDBRANCH   9  10
ENDBRANCH   7   9
ENDBRANCH   1   7
BRANCH   4  13
HETATM   13  O   UNL     1     -25.927  -3.260  -9.834  1.00  0.00    -0.361 OA
HETATM   14  H   UNL     1     -26.228  -3.164  -8.915  1.00  0.00     0.217 HD
ENDBRANCH   4  13
TORSDOF 5
ENDMDL
MODEL 4
REMARK VINA RESULT:      -6.3     10.879     12.680
REMARK  5 active torsions:
REMARK  status: ('A' for Active; 'I' for Inactive)
REMARK    1  A    between atoms: C_2  and  C_3 
REMARK    2  A    between atoms: C_3  and  O_4 
REMARK    3  A    between atoms: O_4  and  C_5 
REMARK    4  A    between atoms: C_5  and  C_7 
REMARK    5  A    between atoms: C_10  and  O_13 
ROOT
HETATM    1  C   UNL     1     -22.765  -3.858  -9.361  1.00  0.00     0.039 A 
HETATM    2  C   UNL     1     -22.714  -3.943  -7.960  1.00  0.00     0.020 A 
HETATM    3  C   UNL     1     -21.500  -4.173  -7.309  1.00  0.00     0.037 A 
HETATM    4  C   UNL     1     -20.340  -4.320  -8.062  1.00  0.00     0.065 A 
HETATM    5  C   UNL     1     -20.372  -4.232  -9.450  1.00  0.00     0.037 A 
HETATM    6  C   UNL     1     -21.585  -3.994 -10.103  1.00  0.00     0.020 A 
ENDROOT
BRANCH   1   7
HETATM    7  C   UNL     1     -24.035  -3.547 -10.075  1.00  0.00     0.293 C 
HETATM    8  O   UNL     1     -24.961  -2.933  -9.575  1.00  0.00    -0.259 OA
BRANCH   7   9
HETATM    9  O   UNL     1     -24.008  -4.099 -11.315  1.00  0.00    -0.318 OA
BRANCH   9  10
HETATM   10  C   UNL     1     -24.395  -3.241 -12.396  1.00  0.00     0.178 C 
BRANCH  10  11
HETATM   11  C   UNL     1     -23.212  -2.460 -12.951  1.00  0.00     0.022 C 
HETATM   12  C   UNL     1     -23.031  -2.760 -14.432  1.00  0.00     0.007 C 
ENDBRANCH  10  11
ENDBRANCH   9  10
ENDBRANCH   7   9
ENDBRANCH   1   7
BRANCH   4  13
HETATM   13  O   UNL     1     -19.134  -4.546  -7.467  1.00  0.00    -0.361 OA
HETATM   14  H   UNL     1     -19.282  -4.761  -6.531  1.00  0.00     0.217 HD
ENDBRANCH   4  13
TORSDOF 5
ENDMDL
MODEL 5
REMARK VINA RESULT:      -6.2     11.791     14.015
REMARK  5 active torsions:
REMARK  status: ('A' for Active; 'I' for Inactive)
REMARK    1  A    between atoms: C_2  and  C_3 
REMARK    2  A    between atoms: C_3  and  O_4 
REMARK    3  A    between atoms: O_4  and  C_5 
REMARK    4  A    between atoms: C_5  and  C_7 
REMARK    5  A    between atoms: C_10  and  O_13 
ROOT
HETATM    1  C   UNL     1     -22.420  -3.776  -9.448  1.00  0.00     0.039 A 
HETATM    2  C   UNL     1     -23.562  -3.427 -10.187  1.00  0.00     0.020 A 
HETATM    3  C   UNL     1     -23.488  -3.278 -11.574  1.00  0.00     0.037 A 
HETATM    4  C   UNL     1     -22.272  -3.478 -12.218  1.00  0.00     0.065 A 
HETATM    5  C   UNL     1     -21.133  -3.831 -11.502  1.00  0.00     0.037 A 
HETATM    6  C   UNL     1     -21.206  -3.988 -10.115  1.00  0.00     0.020 A 
ENDROOT
BRANCH   1   7
HETATM    7  C   UNL     1     -22.486  -4.006  -7.978  1.00  0.00     0.293 C 
HETATM    8  O   UNL     1     -23.468  -4.442  -7.404  1.00  0.00    -0.259 OA
BRANCH   7   9
HETATM    9  O   UNL     1     -21.325  -3.605  -7.401  1.00  0.00    -0.318 OA
BRANCH   9  10
HETATM   10  C   UNL     1     -20.893  -4.360  -6.262  1.00  0.00     0.178 C 
BRANCH  10  11
HETATM   11  C   UNL     1     -19.652  -5.187  -6.567  1.00  0.00     0.022 C 
HETATM   12  C   UNL     1     -18.737  -4.431  -7.519  1.00  0.00     0.007 C 
ENDBRANCH  10  11
ENDBRANCH   9  10
ENDBRANCH   7   9
ENDBRANCH   1   7
BRANCH   4  13
HETATM   13  O   UNL     1     -22.157  -3.343 -13.570  1.00  0.00    -0.361 OA
HETATM   14  H   UNL     1     -22.478  -4.155 -13.995  1.00  0.00     0.217 HD
ENDBRANCH   4  13
TORSDOF 5
ENDMDL
MODEL 6
REMARK VINA RESULT:      -6.2     11.319     13.880
REMARK  5 active torsions:
REMARK  status: ('A' for Active; 'I' for Inactive)
REMARK    1  A    between atoms: C_2  and  C_3 
REMARK    2  A    between atoms: C_3  and  O_4 
REMARK    3  A    between atoms: O_4  and  C_5 
REMARK    4  A    between atoms: C_5  and  C_7 
REMARK    5  A    between atoms: C_10  and  O_13 
ROOT
HETATM    1  C   UNL     1     -22.022  -3.905 -10.263  1.00  0.00     0.039 A 
HETATM    2  C   UNL     1     -23.391  -3.818  -9.960  1.00  0.00     0.020 A 
HETATM    3  C   UNL     1     -24.294  -3.330 -10.906  1.00  0.00     0.037 A 
HETATM    4  C   UNL     1     -23.827  -2.928 -12.153  1.00  0.00     0.065 A 
HETATM    5  C   UNL     1     -22.475  -3.013 -12.471  1.00  0.00     0.037 A 
HETATM    6  C   UNL     1     -21.570  -3.509 -11.528  1.00  0.00     0.020 A 
ENDROOT
BRANCH   1   7
HETATM    7  C   UNL     1     -21.047  -4.483  -9.297  1.00  0.00     0.293 C 
HETATM    8  O   UNL     1     -19.904  -4.790  -9.589  1.00  0.00    -0.259 OA
BRANCH   7   9
HETATM    9  O   UNL     1     -21.647  -4.660  -8.093  1.00  0.00    -0.318 OA
BRANCH   9  10
HETATM   10  C   UNL     1     -21.142  -3.864  -7.013  1.00  0.00     0.178 C 
BRANCH  10  11
HETATM   11  C   UNL     1     -20.210  -4.659  -6.110  1.00  0.00     0.022 C 
HETATM   12  C   UNL     1     -20.718  -6.084  -5.952  1.00  0.00     0.007 C 
ENDBRANCH  10  11
ENDBRANCH   9  10
ENDBRANCH   7   9
ENDBRANCH   1   7
BRANCH   4  13
HETATM   13  O   UNL     1     -24.675  -2.445 -13.105  1.00  0.00    -0.361 OA
HETATM   14  H   UNL     1     -25.443  -2.044 -12.666  1.00  0.00     0.217 HD
ENDBRANCH   4  13
TORSDOF 5
ENDMDL
MODEL 7
REMARK VINA RESULT:      -6.1      1.694      5.447
REMARK  5 active torsions:
REMARK  status: ('A' for Active; 'I' for Inactive)
REMARK    1  A    between atoms: C_2  and  C_3 
REMARK    2  A    between atoms: C_3  and  O_4 
REMARK    3  A    between atoms: O_4  and  C_5 
REMARK    4  A    between atoms: C_5  and  C_7 
REMARK    5  A    between atoms: C_10  and  O_13 
ROOT
HETATM    1  C   UNL     1     -35.863  -0.434 -12.637  1.00  0.00     0.039 A 
HETATM    2  C   UNL     1     -34.781   0.376 -13.019  1.00  0.00     0.020 A 
HETATM    3  C   UNL     1     -34.844   1.130 -14.193  1.00  0.00     0.037 A 
HETATM    4  C   UNL     1     -35.987   1.071 -14.982  1.00  0.00     0.065 A 
HETATM    5  C   UNL     1     -37.070   0.279 -14.614  1.00  0.00     0.037 A 
HETATM    6  C   UNL     1     -37.013  -0.471 -13.436  1.00  0.00     0.020 A 
ENDROOT
BRANCH   1   7
HETATM    7  C   UNL     1     -35.849  -1.196 -11.358  1.00  0.00     0.293 C 
HETATM    8  O   UNL     1     -35.863  -0.674 -10.257  1.00  0.00    -0.259 OA
BRANCH   7   9
HETATM    9  O   UNL     1     -35.761  -2.525 -11.618  1.00  0.00    -0.318 OA
BRANCH   9  10
HETATM   10  C   UNL     1     -34.816  -3.262 -10.832  1.00  0.00     0.178 C 
BRANCH  10  11
HETATM   11  C   UNL     1     -33.380  -2.924 -11.208  1.00  0.00     0.022 C 
HETATM   12  C   UNL     1     -32.725  -4.108 -11.904  1.00  0.00     0.007 C 
ENDBRANCH  10  11
ENDBRANCH   9  10
ENDBRANCH   7   9
ENDBRANCH   1   7
BRANCH   4  13
HETATM   13  O   UNL     1     -36.089   1.791 -16.136  1.00  0.00    -0.361 OA
HETATM   14  H   UNL     1     -35.957   1.194 -16.891  1.00  0.00     0.217 HD
ENDBRANCH   4  13
TORSDOF 5
ENDMDL
MODEL 8
REMARK VINA RESULT:      -5.8      1.861      2.804
REMARK  5 active torsions:
REMARK  status: ('A' for Active; 'I' for Inactive)
REMARK    1  A    between atoms: C_2  and  C_3 
REMARK    2  A    between atoms: C_3  and  O_4 
REMARK    3  A    between atoms: O_4  and  C_5 
REMARK    4  A    between atoms: C_5  and  C_7 
REMARK    5  A    between atoms: C_10  and  O_13 
ROOT
HETATM    1  C   UNL     1     -34.562  -1.676 -12.099  1.00  0.00     0.039 A 
HETATM    2  C   UNL     1     -33.973  -2.033 -10.875  1.00  0.00     0.020 A 
HETATM    3  C   UNL     1     -33.462  -3.319 -10.686  1.00  0.00     0.037 A 
HETATM    4  C   UNL     1     -33.543  -4.245 -11.720  1.00  0.00     0.065 A 
HETATM    5  C   UNL     1     -34.118  -3.905 -12.941  1.00  0.00     0.037 A 
HETATM    6  C   UNL     1     -34.623  -2.616 -13.135  1.00  0.00     0.020 A 
ENDROOT
BRANCH   1   7
HETATM    7  C   UNL     1     -35.055  -0.293 -12.350  1.00  0.00     0.293 C 
HETATM    8  O   UNL     1     -34.785   0.352 -13.349  1.00  0.00    -0.259 OA
BRANCH   7   9
HETATM    9  O   UNL     1     -35.781   0.134 -11.287  1.00  0.00    -0.318 OA
BRANCH   9  10
HETATM   10  C   UNL     1     -37.185  -0.152 -11.325  1.00  0.00     0.178 C 
BRANCH  10  11
HETATM   11  C   UNL     1     -37.856   0.117  -9.985  1.00  0.00     0.022 C 
HETATM   12  C   UNL     1     -36.927  -0.270  -8.844  1.00  0.00     0.007 C 
ENDBRANCH  10  11
ENDBRANCH   9  10
ENDBRANCH   7   9
ENDBRANCH   1   7
BRANCH   4  13
HETATM   13  O   UNL     1     -33.057  -5.510 -11.577  1.00  0.00    -0.361 OA
HETATM   14  H   UNL     1     -33.493  -5.930 -10.817  1.00  0.00     0.217 HD
ENDBRANCH   4  13
TORSDOF 5
ENDMDL
MODEL 9
REMARK VINA RESULT:      -5.8     12.729     14.941
REMARK  5 active torsions:
REMARK  status: ('A' for Active; 'I' for Inactive)
REMARK    1  A    between atoms: C_2  and  C_3 
REMARK    2  A    between atoms: C_3  and  O_4 
REMARK    3  A    between atoms: O_4  and  C_5 
REMARK    4  A    between atoms: C_5  and  C_7 
REMARK    5  A    between atoms: C_10  and  O_13 
ROOT
HETATM    1  C   UNL     1     -21.051  -4.760  -8.783  1.00  0.00     0.039 A 
HETATM    2  C   UNL     1     -22.346  -4.272  -9.019  1.00  0.00     0.020 A 
HETATM    3  C   UNL     1     -22.661  -3.661 -10.234  1.00  0.00     0.037 A 
HETATM    4  C   UNL     1     -21.679  -3.538 -11.211  1.00  0.00     0.065 A 
HETATM    5  C   UNL     1     -20.393  -4.022 -10.996  1.00  0.00     0.037 A 
HETATM    6  C   UNL     1     -20.077  -4.641  -9.783  1.00  0.00     0.020 A 
ENDROOT
BRANCH   1   7
HETATM    7  C   UNL     1     -20.706  -5.475  -7.523  1.00  0.00     0.293 C 
HETATM    8  O   UNL     1     -19.867  -6.355  -7.451  1.00  0.00    -0.259 OA
BRANCH   7   9
HETATM    9  O   UNL     1     -21.502  -5.035  -6.516  1.00  0.00    -0.318 OA
BRANCH   9  10
HETATM   10  C   UNL     1     -21.231  -5.573  -5.215  1.00  0.00     0.178 C 
BRANCH  10  11
HETATM   11  C   UNL     1     -22.257  -6.623  -4.811  1.00  0.00     0.022 C 
HETATM   12  C   UNL     1     -21.631  -8.009  -4.837  1.00  0.00     0.007 C 
ENDBRANCH  10  11
ENDBRANCH   9  10
ENDBRANCH   7   9
ENDBRANCH   1   7
BRANCH   4  13
HETATM   13  O   UNL     1     -21.944  -2.949 -12.412  1.00  0.00    -0.361 OA
HETATM   14  H   UNL     1     -21.608  -2.037 -12.394  1.00  0.00     0.217 HD
ENDBRANCH   4  13
TORSDOF 5
ENDMDL
