MODEL 1
REMARK VINA RESULT:      -7.1      0.000      0.000
REMARK  32 active torsions:
REMARK  status: ('A' for Active; 'I' for Inactive)
REMARK    1  A    between atoms: C_2  and  C_3 
REMARK    2  A    between atoms: C_3  and  C_4 
REMARK    3  A    between atoms: C_4  and  C_5 
REMARK    4  A    between atoms: C_5  and  C_6 
REMARK    5  A    between atoms: C_6  and  C_7 
REMARK    6  A    between atoms: C_7  and  C_8 
REMARK    7  A    between atoms: C_7  and  O_36 
REMARK    8  A    between atoms: C_8  and  C_9 
REMARK    9  A    between atoms: C_10  and  C_11 
REMARK   10  A    between atoms: C_11  and  C_12 
REMARK   11  A    between atoms: C_12  and  C_13 
REMARK   12  A    between atoms: C_13  and  C_14 
REMARK   13  A    between atoms: C_14  and  C_15 
REMARK   14  A    between atoms: C_15  and  C_16 
REMARK   15  A    between atoms: C_16  and  C_17 
REMARK   16  A    between atoms: C_17  and  C_18 
REMARK   17  A    between atoms: C_18  and  O_20 
REMARK   18  A    between atoms: O_20  and  C_21 
REMARK   19  A    between atoms: C_21  and  C_22 
REMARK   20  A    between atoms: C_22  and  C_23 
REMARK   21  A    between atoms: C_22  and  O_35 
REMARK   22  A    between atoms: C_23  and  O_24 
REMARK   23  A    between atoms: O_24  and  C_25 
REMARK   24  A    between atoms: C_25  and  C_26 
REMARK   25  A    between atoms: C_26  and  C_27 
REMARK   26  A    between atoms: C_26  and  O_34 
REMARK   27  A    between atoms: C_27  and  O_28 
REMARK   28  A    between atoms: O_28  and  C_29 
REMARK   29  A    between atoms: C_29  and  C_30 
REMARK   30  A    between atoms: C_30  and  C_31 
REMARK   31  A    between atoms: C_30  and  O_33 
REMARK   32  A    between atoms: C_31  and  O_32 
ROOT
HETATM    1  C   UNL     1     -24.569  -3.462 -10.377  1.00  0.00     0.258 C 
HETATM    2  O   UNL     1     -25.098  -2.928  -9.411  1.00  0.00    -0.265 OA
ENDROOT
BRANCH   1   3
HETATM    3  C   UNL     1     -23.479  -4.556 -10.125  1.00  0.00     0.111 C 
BRANCH   3   4
HETATM    4  C   UNL     1     -22.114  -4.584  -9.406  1.00  0.00     0.010 C 
BRANCH   4   5
HETATM    5  C   UNL     1     -21.800  -3.628  -8.246  1.00  0.00     0.000 C 
BRANCH   5   6
HETATM    6  C   UNL     1     -20.782  -4.159  -7.247  1.00  0.00     0.000 C 
BRANCH   6   7
HETATM    7  C   UNL     1     -21.136  -5.559  -6.734  1.00  0.00     0.000 C 
BRANCH   7   8
HETATM    8  C   UNL     1     -20.711  -5.797  -5.275  1.00  0.00     0.004 C 
BRANCH   8   9
HETATM    9  C   UNL     1     -21.084  -7.178  -4.719  1.00  0.00     0.027 C 
BRANCH   9  10
HETATM   10  C   UNL     1     -21.848  -7.002  -3.446  1.00  0.00    -0.031 C 
HETATM   11  C   UNL     1     -21.410  -6.975  -2.186  1.00  0.00    -0.028 C 
BRANCH  11  12
HETATM   12  C   UNL     1     -22.314  -6.820  -0.981  1.00  0.00     0.058 C 
BRANCH  12  13
HETATM   13  C   UNL     1     -22.553  -7.966   0.091  1.00  0.00     0.121 C 
BRANCH  13  14
HETATM   14  C   UNL     1     -22.284  -9.371  -0.422  1.00  0.00     0.032 C 
BRANCH  14  15
HETATM   15  C   UNL     1     -23.452 -10.287  -0.193  1.00  0.00     0.002 C 
BRANCH  15  16
HETATM   16  C   UNL     1     -23.703 -11.107  -1.450  1.00  0.00     0.000 C 
BRANCH  16  17
HETATM   17  C   UNL     1     -22.687 -10.732  -2.497  1.00  0.00    -0.000 C 
BRANCH  17  18
HETATM   18  C   UNL     1     -22.164 -11.980  -3.172  1.00  0.00    -0.005 C 
HETATM   19  C   UNL     1     -21.517 -12.853  -2.121  1.00  0.00     0.005 C 
ENDBRANCH  17  18
ENDBRANCH  16  17
ENDBRANCH  15  16
ENDBRANCH  14  15
ENDBRANCH  13  14
BRANCH  13  20
HETATM   20  O   UNL     1     -23.819  -8.111   0.714  1.00  0.00    -0.395 OA
HETATM   21  H   UNL     1     -24.484  -7.581   0.249  1.00  0.00     0.210 HD
ENDBRANCH  13  20
ENDBRANCH  12  13
ENDBRANCH  11  12
ENDBRANCH   9  10
ENDBRANCH   8   9
ENDBRANCH   7   8
ENDBRANCH   6   7
ENDBRANCH   5   6
ENDBRANCH   4   5
ENDBRANCH   3   4
ENDBRANCH   1   3
BRANCH   1  22
HETATM   22  O   UNL     1     -24.805  -3.013 -11.634  1.00  0.00    -0.319 OA
BRANCH  22  23
HETATM   23  C   UNL     1     -23.688  -2.660 -12.546  1.00  0.00     0.212 C 
BRANCH  23  24
HETATM   24  C   UNL     1     -23.501  -3.541 -13.846  1.00  0.00     0.166 C 
BRANCH  24  25
HETATM   25  C   UNL     1     -24.515  -4.723 -13.975  1.00  0.00     0.201 C 
BRANCH  25  26
HETATM   26  O   UNL     1     -24.659  -5.171 -15.360  1.00  0.00    -0.386 OA
BRANCH  26  27
HETATM   27  C   UNL     1     -25.056  -6.555 -15.425  1.00  0.00     0.201 C 
BRANCH  27  28
HETATM   28  C   UNL     1     -26.376  -6.782 -16.189  1.00  0.00     0.165 C 
BRANCH  28  29
HETATM   29  C   UNL     1     -27.712  -6.711 -15.408  1.00  0.00     0.201 C 
BRANCH  29  30
HETATM   30  O   UNL     1     -28.629  -5.637 -15.558  1.00  0.00    -0.386 OA
BRANCH  30  31
HETATM   31  C   UNL     1     -30.008  -5.853 -15.807  1.00  0.00     0.201 C 
BRANCH  31  32
HETATM   32  C   UNL     1     -30.507  -6.252 -17.208  1.00  0.00     0.165 C 
BRANCH  32  33
HETATM   33  C   UNL     1     -29.926  -7.477 -17.929  1.00  0.00     0.198 C 
BRANCH  33  34
HETATM   34  O   UNL     1     -28.752  -7.200 -18.688  1.00  0.00    -0.398 OA
HETATM   35  H   UNL     1     -28.787  -7.773 -19.477  1.00  0.00     0.209 HD
ENDBRANCH  33  34
ENDBRANCH  32  33
BRANCH  32  36
HETATM   36  O   UNL     1     -31.926  -6.485 -17.089  1.00  0.00    -0.391 OA
HETATM   37  H   UNL     1     -32.186  -7.010 -17.865  1.00  0.00     0.210 HD
ENDBRANCH  32  36
ENDBRANCH  31  32
ENDBRANCH  30  31
ENDBRANCH  29  30
ENDBRANCH  28  29
BRANCH  28  38
HETATM   38  O   UNL     1     -26.440  -5.793 -17.243  1.00  0.00    -0.391 OA
HETATM   39  H   UNL     1     -25.535  -5.686 -17.584  1.00  0.00     0.210 HD
ENDBRANCH  28  38
ENDBRANCH  27  28
ENDBRANCH  26  27
ENDBRANCH  25  26
ENDBRANCH  24  25
BRANCH  24  40
HETATM   40  O   UNL     1     -23.588  -2.732 -15.022  1.00  0.00    -0.391 OA
HETATM   41  H   UNL     1     -22.813  -2.914 -15.580  1.00  0.00     0.210 HD
ENDBRANCH  24  40
ENDBRANCH  23  24
ENDBRANCH  22  23
ENDBRANCH   1  22
TORSDOF 32
ENDMDL
MODEL 2
REMARK VINA RESULT:      -6.9      4.177      7.410
REMARK  32 active torsions:
REMARK  status: ('A' for Active; 'I' for Inactive)
REMARK    1  A    between atoms: C_2  and  C_3 
REMARK    2  A    between atoms: C_3  and  C_4 
REMARK    3  A    between atoms: C_4  and  C_5 
REMARK    4  A    between atoms: C_5  and  C_6 
REMARK    5  A    between atoms: C_6  and  C_7 
REMARK    6  A    between atoms: C_7  and  C_8 
REMARK    7  A    between atoms: C_7  and  O_36 
REMARK    8  A    between atoms: C_8  and  C_9 
REMARK    9  A    between atoms: C_10  and  C_11 
REMARK   10  A    between atoms: C_11  and  C_12 
REMARK   11  A    between atoms: C_12  and  C_13 
REMARK   12  A    between atoms: C_13  and  C_14 
REMARK   13  A    between atoms: C_14  and  C_15 
REMARK   14  A    between atoms: C_15  and  C_16 
REMARK   15  A    between atoms: C_16  and  C_17 
REMARK   16  A    between atoms: C_17  and  C_18 
REMARK   17  A    between atoms: C_18  and  O_20 
REMARK   18  A    between atoms: O_20  and  C_21 
REMARK   19  A    between atoms: C_21  and  C_22 
REMARK   20  A    between atoms: C_22  and  C_23 
REMARK   21  A    between atoms: C_22  and  O_35 
REMARK   22  A    between atoms: C_23  and  O_24 
REMARK   23  A    between atoms: O_24  and  C_25 
REMARK   24  A    between atoms: C_25  and  C_26 
REMARK   25  A    between atoms: C_26  and  C_27 
REMARK   26  A    between atoms: C_26  and  O_34 
REMARK   27  A    between atoms: C_27  and  O_28 
REMARK   28  A    between atoms: O_28  and  C_29 
REMARK   29  A    between atoms: C_29  and  C_30 
REMARK   30  A    between atoms: C_30  and  C_31 
REMARK   31  A    between atoms: C_30  and  O_33 
REMARK   32  A    between atoms: C_31  and  O_32 
ROOT
HETATM    1  C   UNL     1     -22.104  -6.416  -5.168  1.00  0.00     0.258 C 
HETATM    2  O   UNL     1     -23.218  -5.931  -5.315  1.00  0.00    -0.265 OA
ENDROOT
BRANCH   1   3
HETATM    3  C   UNL     1     -21.553  -6.603  -3.715  1.00  0.00     0.111 C 
BRANCH   3   4
HETATM    4  C   UNL     1     -21.838  -5.939  -2.353  1.00  0.00     0.010 C 
BRANCH   4   5
HETATM    5  C   UNL     1     -22.337  -6.755  -1.152  1.00  0.00     0.000 C 
BRANCH   5   6
HETATM    6  C   UNL     1     -21.414  -7.886  -0.726  1.00  0.00     0.000 C 
BRANCH   6   7
HETATM    7  C   UNL     1     -22.153  -8.999   0.024  1.00  0.00     0.000 C 
BRANCH   7   8
HETATM    8  C   UNL     1     -22.270 -10.303  -0.783  1.00  0.00     0.004 C 
BRANCH   8   9
HETATM    9  C   UNL     1     -22.214 -11.583   0.061  1.00  0.00     0.027 C 
BRANCH   9  10
HETATM   10  C   UNL     1     -20.867 -12.212  -0.093  1.00  0.00    -0.031 C 
HETATM   11  C   UNL     1     -19.681 -11.809   0.367  1.00  0.00    -0.028 C 
BRANCH  11  12
HETATM   12  C   UNL     1     -18.380 -12.539   0.103  1.00  0.00     0.058 C 
BRANCH  12  13
HETATM   13  C   UNL     1     -16.957 -11.983   0.534  1.00  0.00     0.121 C 
BRANCH  13  14
HETATM   14  C   UNL     1     -15.905 -12.035  -0.561  1.00  0.00     0.032 C 
BRANCH  14  15
HETATM   15  C   UNL     1     -15.969 -10.834  -1.460  1.00  0.00     0.002 C 
BRANCH  15  16
HETATM   16  C   UNL     1     -15.657 -11.255  -2.888  1.00  0.00     0.000 C 
BRANCH  16  17
HETATM   17  C   UNL     1     -16.285 -10.273  -3.843  1.00  0.00    -0.000 C 
BRANCH  17  18
HETATM   18  C   UNL     1     -15.872 -10.602  -5.260  1.00  0.00    -0.005 C 
HETATM   19  C   UNL     1     -16.656  -9.715  -6.201  1.00  0.00     0.005 C 
ENDBRANCH  17  18
ENDBRANCH  16  17
ENDBRANCH  15  16
ENDBRANCH  14  15
ENDBRANCH  13  14
BRANCH  13  20
HETATM   20  O   UNL     1     -16.271 -12.551   1.638  1.00  0.00    -0.395 OA
HETATM   21  H   UNL     1     -15.314 -12.458   1.522  1.00  0.00     0.210 HD
ENDBRANCH  13  20
ENDBRANCH  12  13
ENDBRANCH  11  12
ENDBRANCH   9  10
ENDBRANCH   8   9
ENDBRANCH   7   8
ENDBRANCH   6   7
ENDBRANCH   5   6
ENDBRANCH   4   5
ENDBRANCH   3   4
ENDBRANCH   1   3
BRANCH   1  22
HETATM   22  O   UNL     1     -21.300  -6.645  -6.235  1.00  0.00    -0.319 OA
BRANCH  22  23
HETATM   23  C   UNL     1     -20.186  -5.724  -6.569  1.00  0.00     0.212 C 
BRANCH  23  24
HETATM   24  C   UNL     1     -20.206  -5.040  -7.995  1.00  0.00     0.166 C 
BRANCH  24  25
HETATM   25  C   UNL     1     -21.604  -5.048  -8.693  1.00  0.00     0.201 C 
BRANCH  25  26
HETATM   26  O   UNL     1     -22.360  -3.827  -8.415  1.00  0.00    -0.386 OA
BRANCH  26  27
HETATM   27  C   UNL     1     -23.778  -4.047  -8.551  1.00  0.00     0.201 C 
BRANCH  27  28
HETATM   28  C   UNL     1     -24.413  -3.274  -9.724  1.00  0.00     0.165 C 
BRANCH  28  29
HETATM   29  C   UNL     1     -24.147  -3.760 -11.170  1.00  0.00     0.201 C 
BRANCH  29  30
HETATM   30  O   UNL     1     -24.222  -2.896 -12.294  1.00  0.00    -0.386 OA
BRANCH  30  31
HETATM   31  C   UNL     1     -23.136  -2.732 -13.192  1.00  0.00     0.201 C 
BRANCH  31  32
HETATM   32  C   UNL     1     -23.380  -2.450 -14.685  1.00  0.00     0.165 C 
BRANCH  32  33
HETATM   33  C   UNL     1     -23.679  -1.025 -15.177  1.00  0.00     0.198 C 
BRANCH  33  34
HETATM   34  O   UNL     1     -24.886  -0.475 -14.657  1.00  0.00    -0.398 OA
HETATM   35  H   UNL     1     -25.416  -0.188 -15.425  1.00  0.00     0.209 HD
ENDBRANCH  33  34
ENDBRANCH  32  33
BRANCH  32  36
HETATM   36  O   UNL     1     -22.193  -2.880 -15.384  1.00  0.00    -0.391 OA
HETATM   37  H   UNL     1     -22.128  -2.329 -16.183  1.00  0.00     0.210 HD
ENDBRANCH  32  36
ENDBRANCH  31  32
ENDBRANCH  30  31
ENDBRANCH  29  30
ENDBRANCH  28  29
BRANCH  28  38
HETATM   38  O   UNL     1     -25.847  -3.285  -9.523  1.00  0.00    -0.391 OA
HETATM   39  H   UNL     1     -26.069  -2.469  -9.042  1.00  0.00     0.210 HD
ENDBRANCH  28  38
ENDBRANCH  27  28
ENDBRANCH  26  27
ENDBRANCH  25  26
ENDBRANCH  24  25
BRANCH  24  40
HETATM   40  O   UNL     1     -19.742  -3.690  -7.915  1.00  0.00    -0.391 OA
HETATM   41  H   UNL     1     -20.027  -3.218  -8.716  1.00  0.00     0.210 HD
ENDBRANCH  24  40
ENDBRANCH  23  24
ENDBRANCH  22  23
ENDBRANCH   1  22
TORSDOF 32
ENDMDL
MODEL 3
REMARK VINA RESULT:      -6.8      3.752      7.929
REMARK  32 active torsions:
REMARK  status: ('A' for Active; 'I' for Inactive)
REMARK    1  A    between atoms: C_2  and  C_3 
REMARK    2  A    between atoms: C_3  and  C_4 
REMARK    3  A    between atoms: C_4  and  C_5 
REMARK    4  A    between atoms: C_5  and  C_6 
REMARK    5  A    between atoms: C_6  and  C_7 
REMARK    6  A    between atoms: C_7  and  C_8 
REMARK    7  A    between atoms: C_7  and  O_36 
REMARK    8  A    between atoms: C_8  and  C_9 
REMARK    9  A    between atoms: C_10  and  C_11 
REMARK   10  A    between atoms: C_11  and  C_12 
REMARK   11  A    between atoms: C_12  and  C_13 
REMARK   12  A    between atoms: C_13  and  C_14 
REMARK   13  A    between atoms: C_14  and  C_15 
REMARK   14  A    between atoms: C_15  and  C_16 
REMARK   15  A    between atoms: C_16  and  C_17 
REMARK   16  A    between atoms: C_17  and  C_18 
REMARK   17  A    between atoms: C_18  and  O_20 
REMARK   18  A    between atoms: O_20  and  C_21 
REMARK   19  A    between atoms: C_21  and  C_22 
REMARK   20  A    between atoms: C_22  and  C_23 
REMARK   21  A    between atoms: C_22  and  O_35 
REMARK   22  A    between atoms: C_23  and  O_24 
REMARK   23  A    between atoms: O_24  and  C_25 
REMARK   24  A    between atoms: C_25  and  C_26 
REMARK   25  A    between atoms: C_26  and  C_27 
REMARK   26  A    between atoms: C_26  and  O_34 
REMARK   27  A    between atoms: C_27  and  O_28 
REMARK   28  A    between atoms: O_28  and  C_29 
REMARK   29  A    between atoms: C_29  and  C_30 
REMARK   30  A    between atoms: C_30  and  C_31 
REMARK   31  A    between atoms: C_30  and  O_33 
REMARK   32  A    between atoms: C_31  and  O_32 
ROOT
HETATM    1  C   UNL     1     -21.569  -7.049  -3.538  1.00  0.00     0.258 C 
HETATM    2  O   UNL     1     -21.585  -8.153  -4.065  1.00  0.00    -0.265 OA
ENDROOT
BRANCH   1   3
HETATM    3  C   UNL     1     -21.406  -6.962  -1.983  1.00  0.00     0.111 C 
BRANCH   3   4
HETATM    4  C   UNL     1     -22.374  -6.760  -0.800  1.00  0.00     0.010 C 
BRANCH   4   5
HETATM    5  C   UNL     1     -22.586  -7.853   0.258  1.00  0.00     0.000 C 
BRANCH   5   6
HETATM    6  C   UNL     1     -21.475  -8.889   0.330  1.00  0.00     0.000 C 
BRANCH   6   7
HETATM    7  C   UNL     1     -21.942 -10.283  -0.103  1.00  0.00     0.000 C 
BRANCH   7   8
HETATM    8  C   UNL     1     -22.815 -10.267  -1.369  1.00  0.00     0.004 C 
BRANCH   8   9
HETATM    9  C   UNL     1     -23.061 -11.647  -1.992  1.00  0.00     0.027 C 
BRANCH   9  10
HETATM   10  C   UNL     1     -22.611 -11.628  -3.418  1.00  0.00    -0.031 C 
HETATM   11  C   UNL     1     -21.993 -12.572  -4.129  1.00  0.00    -0.028 C 
BRANCH  11  12
HETATM   12  C   UNL     1     -21.564 -12.399  -5.571  1.00  0.00     0.058 C 
BRANCH  12  13
HETATM   13  C   UNL     1     -20.601 -11.238  -6.068  1.00  0.00     0.121 C 
BRANCH  13  14
HETATM   14  C   UNL     1     -19.291 -11.141  -5.304  1.00  0.00     0.032 C 
BRANCH  14  15
HETATM   15  C   UNL     1     -18.274 -12.128  -5.802  1.00  0.00     0.002 C 
BRANCH  15  16
HETATM   16  C   UNL     1     -16.935 -11.428  -5.976  1.00  0.00     0.000 C 
BRANCH  16  17
HETATM   17  C   UNL     1     -17.036 -10.024  -5.438  1.00  0.00    -0.000 C 
BRANCH  17  18
HETATM   18  C   UNL     1     -15.852  -9.734  -4.541  1.00  0.00    -0.005 C 
HETATM   19  C   UNL     1     -16.336  -9.713  -3.109  1.00  0.00     0.005 C 
ENDBRANCH  17  18
ENDBRANCH  16  17
ENDBRANCH  15  16
ENDBRANCH  14  15
ENDBRANCH  13  14
BRANCH  13  20
HETATM   20  O   UNL     1     -21.046  -9.892  -6.074  1.00  0.00    -0.395 OA
HETATM   21  H   UNL     1     -21.835  -9.797  -5.520  1.00  0.00     0.210 HD
ENDBRANCH  13  20
ENDBRANCH  12  13
ENDBRANCH  11  12
ENDBRANCH   9  10
ENDBRANCH   8   9
ENDBRANCH   7   8
ENDBRANCH   6   7
ENDBRANCH   5   6
ENDBRANCH   4   5
ENDBRANCH   3   4
ENDBRANCH   1   3
BRANCH   1  22
HETATM   22  O   UNL     1     -21.842  -5.932  -4.256  1.00  0.00    -0.319 OA
BRANCH  22  23
HETATM   23  C   UNL     1     -20.815  -5.308  -5.126  1.00  0.00     0.212 C 
BRANCH  23  24
HETATM   24  C   UNL     1     -20.631  -5.899  -6.581  1.00  0.00     0.166 C 
BRANCH  24  25
HETATM   25  C   UNL     1     -19.809  -4.987  -7.548  1.00  0.00     0.201 C 
BRANCH  25  26
HETATM   26  O   UNL     1     -20.663  -4.035  -8.259  1.00  0.00    -0.386 OA
BRANCH  26  27
HETATM   27  C   UNL     1     -21.861  -4.670  -8.746  1.00  0.00     0.201 C 
BRANCH  27  28
HETATM   28  C   UNL     1     -23.139  -3.838  -8.513  1.00  0.00     0.165 C 
BRANCH  28  29
HETATM   29  C   UNL     1     -24.233  -3.827  -9.609  1.00  0.00     0.201 C 
BRANCH  29  30
HETATM   30  O   UNL     1     -24.225  -2.903 -10.688  1.00  0.00    -0.386 OA
BRANCH  30  31
HETATM   31  C   UNL     1     -23.467  -3.126 -11.866  1.00  0.00     0.201 C 
BRANCH  31  32
HETATM   32  C   UNL     1     -24.081  -2.900 -13.258  1.00  0.00     0.165 C 
BRANCH  32  33
HETATM   33  C   UNL     1     -23.371  -2.020 -14.297  1.00  0.00     0.198 C 
BRANCH  33  34
HETATM   34  O   UNL     1     -24.233  -1.511 -15.312  1.00  0.00    -0.398 OA
HETATM   35  H   UNL     1     -25.039  -2.062 -15.296  1.00  0.00     0.209 HD
ENDBRANCH  33  34
ENDBRANCH  32  33
BRANCH  32  36
HETATM   36  O   UNL     1     -24.227  -4.203 -13.861  1.00  0.00    -0.391 OA
HETATM   37  H   UNL     1     -24.493  -4.052 -14.783  1.00  0.00     0.210 HD
ENDBRANCH  32  36
ENDBRANCH  31  32
ENDBRANCH  30  31
ENDBRANCH  29  30
ENDBRANCH  28  29
BRANCH  28  38
HETATM   38  O   UNL     1     -23.754  -4.325  -7.296  1.00  0.00    -0.391 OA
HETATM   39  H   UNL     1     -24.686  -4.510  -7.507  1.00  0.00     0.210 HD
ENDBRANCH  28  38
ENDBRANCH  27  28
ENDBRANCH  26  27
ENDBRANCH  25  26
ENDBRANCH  24  25
BRANCH  24  40
HETATM   40  O   UNL     1     -20.013  -7.188  -6.530  1.00  0.00    -0.391 OA
HETATM   41  H   UNL     1     -19.503  -7.318  -7.348  1.00  0.00     0.210 HD
ENDBRANCH  24  40
ENDBRANCH  23  24
ENDBRANCH  22  23
ENDBRANCH   1  22
TORSDOF 32
ENDMDL
MODEL 4
REMARK VINA RESULT:      -6.8      3.867      7.588
REMARK  32 active torsions:
REMARK  status: ('A' for Active; 'I' for Inactive)
REMARK    1  A    between atoms: C_2  and  C_3 
REMARK    2  A    between atoms: C_3  and  C_4 
REMARK    3  A    between atoms: C_4  and  C_5 
REMARK    4  A    between atoms: C_5  and  C_6 
REMARK    5  A    between atoms: C_6  and  C_7 
REMARK    6  A    between atoms: C_7  and  C_8 
REMARK    7  A    between atoms: C_7  and  O_36 
REMARK    8  A    between atoms: C_8  and  C_9 
REMARK    9  A    between atoms: C_10  and  C_11 
REMARK   10  A    between atoms: C_11  and  C_12 
REMARK   11  A    between atoms: C_12  and  C_13 
REMARK   12  A    between atoms: C_13  and  C_14 
REMARK   13  A    between atoms: C_14  and  C_15 
REMARK   14  A    between atoms: C_15  and  C_16 
REMARK   15  A    between atoms: C_16  and  C_17 
REMARK   16  A    between atoms: C_17  and  C_18 
REMARK   17  A    between atoms: C_18  and  O_20 
REMARK   18  A    between atoms: O_20  and  C_21 
REMARK   19  A    between atoms: C_21  and  C_22 
REMARK   20  A    between atoms: C_22  and  C_23 
REMARK   21  A    between atoms: C_22  and  O_35 
REMARK   22  A    between atoms: C_23  and  O_24 
REMARK   23  A    between atoms: O_24  and  C_25 
REMARK   24  A    between atoms: C_25  and  C_26 
REMARK   25  A    between atoms: C_26  and  C_27 
REMARK   26  A    between atoms: C_26  and  O_34 
REMARK   27  A    between atoms: C_27  and  O_28 
REMARK   28  A    between atoms: O_28  and  C_29 
REMARK   29  A    between atoms: C_29  and  C_30 
REMARK   30  A    between atoms: C_30  and  C_31 
REMARK   31  A    between atoms: C_30  and  O_33 
REMARK   32  A    between atoms: C_31  and  O_32 
ROOT
HETATM    1  C   UNL     1     -20.695  -7.794  -3.791  1.00  0.00     0.258 C 
HETATM    2  O   UNL     1     -19.694  -8.426  -4.099  1.00  0.00    -0.265 OA
ENDROOT
BRANCH   1   3
HETATM    3  C   UNL     1     -20.882  -7.369  -2.296  1.00  0.00     0.111 C 
BRANCH   3   4
HETATM    4  C   UNL     1     -22.065  -6.841  -1.458  1.00  0.00     0.010 C 
BRANCH   4   5
HETATM    5  C   UNL     1     -22.587  -7.608  -0.235  1.00  0.00     0.000 C 
BRANCH   5   6
HETATM    6  C   UNL     1     -21.606  -8.615   0.347  1.00  0.00     0.000 C 
BRANCH   6   7
HETATM    7  C   UNL     1     -22.180 -10.035   0.395  1.00  0.00     0.000 C 
BRANCH   7   8
HETATM    8  C   UNL     1     -23.645 -10.115  -0.066  1.00  0.00     0.004 C 
BRANCH   8   9
HETATM    9  C   UNL     1     -24.018 -11.420  -0.782  1.00  0.00     0.027 C 
BRANCH   9  10
HETATM   10  C   UNL     1     -23.113 -11.611  -1.956  1.00  0.00    -0.031 C 
HETATM   11  C   UNL     1     -22.932 -10.836  -3.027  1.00  0.00    -0.028 C 
BRANCH  11  12
HETATM   12  C   UNL     1     -21.994 -11.176  -4.167  1.00  0.00     0.058 C 
BRANCH  12  13
HETATM   13  C   UNL     1     -21.657 -12.661  -4.614  1.00  0.00     0.121 C 
BRANCH  13  14
HETATM   14  C   UNL     1     -20.283 -13.149  -4.183  1.00  0.00     0.032 C 
BRANCH  14  15
HETATM   15  C   UNL     1     -19.283 -12.030  -4.122  1.00  0.00     0.002 C 
BRANCH  15  16
HETATM   16  C   UNL     1     -18.441 -12.175  -2.863  1.00  0.00     0.000 C 
BRANCH  16  17
HETATM   17  C   UNL     1     -18.823 -11.096  -1.883  1.00  0.00    -0.000 C 
BRANCH  17  18
HETATM   18  C   UNL     1     -19.063 -11.705  -0.520  1.00  0.00    -0.005 C 
HETATM   19  C   UNL     1     -19.976 -12.899  -0.687  1.00  0.00     0.005 C 
ENDBRANCH  17  18
ENDBRANCH  16  17
ENDBRANCH  15  16
ENDBRANCH  14  15
ENDBRANCH  13  14
BRANCH  13  20
HETATM   20  O   UNL     1     -21.687 -13.020  -5.986  1.00  0.00    -0.395 OA
HETATM   21  H   UNL     1     -20.816 -13.335  -6.269  1.00  0.00     0.210 HD
ENDBRANCH  13  20
ENDBRANCH  12  13
ENDBRANCH  11  12
ENDBRANCH   9  10
ENDBRANCH   8   9
ENDBRANCH   7   8
ENDBRANCH   6   7
ENDBRANCH   5   6
ENDBRANCH   4   5
ENDBRANCH   3   4
ENDBRANCH   1   3
BRANCH   1  22
HETATM   22  O   UNL     1     -21.695  -7.597  -4.684  1.00  0.00    -0.319 OA
BRANCH  22  23
HETATM   23  C   UNL     1     -21.941  -6.261  -5.281  1.00  0.00     0.212 C 
BRANCH  23  24
HETATM   24  C   UNL     1     -20.804  -5.648  -6.194  1.00  0.00     0.166 C 
BRANCH  24  25
HETATM   25  C   UNL     1     -21.274  -5.260  -7.634  1.00  0.00     0.201 C 
BRANCH  25  26
HETATM   26  O   UNL     1     -22.102  -4.054  -7.632  1.00  0.00    -0.386 OA
BRANCH  26  27
HETATM   27  C   UNL     1     -23.403  -4.312  -8.197  1.00  0.00     0.201 C 
BRANCH  27  28
HETATM   28  C   UNL     1     -23.669  -3.545  -9.508  1.00  0.00     0.165 C 
BRANCH  28  29
HETATM   29  C   UNL     1     -23.696  -4.333 -10.841  1.00  0.00     0.201 C 
BRANCH  29  30
HETATM   30  O   UNL     1     -22.769  -4.095 -11.890  1.00  0.00    -0.386 OA
BRANCH  30  31
HETATM   31  C   UNL     1     -22.766  -2.887 -12.633  1.00  0.00     0.201 C 
BRANCH  31  32
HETATM   32  C   UNL     1     -23.826  -2.622 -13.717  1.00  0.00     0.165 C 
BRANCH  32  33
HETATM   33  C   UNL     1     -23.737  -1.381 -14.618  1.00  0.00     0.198 C 
BRANCH  33  34
HETATM   34  O   UNL     1     -24.919  -0.586 -14.628  1.00  0.00    -0.398 OA
HETATM   35  H   UNL     1     -25.065  -0.313 -15.553  1.00  0.00     0.209 HD
ENDBRANCH  33  34
ENDBRANCH  32  33
BRANCH  32  36
HETATM   36  O   UNL     1     -23.809  -3.765 -14.598  1.00  0.00    -0.391 OA
HETATM   37  H   UNL     1     -24.352  -3.529 -15.368  1.00  0.00     0.210 HD
ENDBRANCH  32  36
ENDBRANCH  31  32
ENDBRANCH  30  31
ENDBRANCH  29  30
ENDBRANCH  28  29
BRANCH  28  38
HETATM   38  O   UNL     1     -24.950  -2.888  -9.371  1.00  0.00    -0.391 OA
HETATM   39  H   UNL     1     -25.512  -3.476  -8.835  1.00  0.00     0.210 HD
ENDBRANCH  28  38
ENDBRANCH  27  28
ENDBRANCH  26  27
ENDBRANCH  25  26
ENDBRANCH  24  25
BRANCH  24  40
HETATM   40  O   UNL     1     -20.225  -4.496  -5.576  1.00  0.00    -0.391 OA
HETATM   41  H   UNL     1     -19.614  -4.081  -6.209  1.00  0.00     0.210 HD
ENDBRANCH  24  40
ENDBRANCH  23  24
ENDBRANCH  22  23
ENDBRANCH   1  22
TORSDOF 32
ENDMDL
MODEL 5
REMARK VINA RESULT:      -6.7      4.086      7.987
REMARK  32 active torsions:
REMARK  status: ('A' for Active; 'I' for Inactive)
REMARK    1  A    between atoms: C_2  and  C_3 
REMARK    2  A    between atoms: C_3  and  C_4 
REMARK    3  A    between atoms: C_4  and  C_5 
REMARK    4  A    between atoms: C_5  and  C_6 
REMARK    5  A    between atoms: C_6  and  C_7 
REMARK    6  A    between atoms: C_7  and  C_8 
REMARK    7  A    between atoms: C_7  and  O_36 
REMARK    8  A    between atoms: C_8  and  C_9 
REMARK    9  A    between atoms: C_10  and  C_11 
REMARK   10  A    between atoms: C_11  and  C_12 
REMARK   11  A    between atoms: C_12  and  C_13 
REMARK   12  A    between atoms: C_13  and  C_14 
REMARK   13  A    between atoms: C_14  and  C_15 
REMARK   14  A    between atoms: C_15  and  C_16 
REMARK   15  A    between atoms: C_16  and  C_17 
REMARK   16  A    between atoms: C_17  and  C_18 
REMARK   17  A    between atoms: C_18  and  O_20 
REMARK   18  A    between atoms: O_20  and  C_21 
REMARK   19  A    between atoms: C_21  and  C_22 
REMARK   20  A    between atoms: C_22  and  C_23 
REMARK   21  A    between atoms: C_22  and  O_35 
REMARK   22  A    between atoms: C_23  and  O_24 
REMARK   23  A    between atoms: O_24  and  C_25 
REMARK   24  A    between atoms: C_25  and  C_26 
REMARK   25  A    between atoms: C_26  and  C_27 
REMARK   26  A    between atoms: C_26  and  O_34 
REMARK   27  A    between atoms: C_27  and  O_28 
REMARK   28  A    between atoms: O_28  and  C_29 
REMARK   29  A    between atoms: C_29  and  C_30 
REMARK   30  A    between atoms: C_30  and  C_31 
REMARK   31  A    between atoms: C_30  and  O_33 
REMARK   32  A    between atoms: C_31  and  O_32 
ROOT
HETATM    1  C   UNL     1     -21.625  -6.870  -2.785  1.00  0.00     0.258 C 
HETATM    2  O   UNL     1     -22.341  -5.919  -2.502  1.00  0.00    -0.265 OA
ENDROOT
BRANCH   1   3
HETATM    3  C   UNL     1     -21.099  -7.782  -1.627  1.00  0.00     0.111 C 
BRANCH   3   4
HETATM    4  C   UNL     1     -21.590  -8.122  -0.205  1.00  0.00     0.010 C 
BRANCH   4   5
HETATM    5  C   UNL     1     -22.961  -8.771   0.036  1.00  0.00     0.000 C 
BRANCH   5   6
HETATM    6  C   UNL     1     -22.928 -10.285   0.184  1.00  0.00     0.000 C 
BRANCH   6   7
HETATM    7  C   UNL     1     -23.708 -11.001  -0.923  1.00  0.00     0.000 C 
BRANCH   7   8
HETATM    8  C   UNL     1     -22.849 -11.986  -1.734  1.00  0.00     0.004 C 
BRANCH   8   9
HETATM    9  C   UNL     1     -21.335 -11.773  -1.598  1.00  0.00     0.027 C 
BRANCH   9  10
HETATM   10  C   UNL     1     -20.741 -11.602  -2.959  1.00  0.00    -0.031 C 
HETATM   11  C   UNL     1     -20.788 -10.554  -3.784  1.00  0.00    -0.028 C 
BRANCH  11  12
HETATM   12  C   UNL     1     -20.160 -10.536  -5.162  1.00  0.00     0.058 C 
BRANCH  12  13
HETATM   13  C   UNL     1     -18.792  -9.802  -5.494  1.00  0.00     0.121 C 
BRANCH  13  14
HETATM   14  C   UNL     1     -17.947  -9.469  -4.276  1.00  0.00     0.032 C 
BRANCH  14  15
HETATM   15  C   UNL     1     -16.849 -10.472  -4.061  1.00  0.00     0.002 C 
BRANCH  15  16
HETATM   16  C   UNL     1     -15.994 -10.039  -2.880  1.00  0.00     0.000 C 
BRANCH  16  17
HETATM   17  C   UNL     1     -16.245 -10.968  -1.720  1.00  0.00    -0.000 C 
BRANCH  17  18
HETATM   18  C   UNL     1     -16.929 -12.225  -2.210  1.00  0.00    -0.005 C 
HETATM   19  C   UNL     1     -17.638 -12.867  -1.039  1.00  0.00     0.005 C 
ENDBRANCH  17  18
ENDBRANCH  16  17
ENDBRANCH  15  16
ENDBRANCH  14  15
ENDBRANCH  13  14
BRANCH  13  20
HETATM   20  O   UNL     1     -18.792  -8.574  -6.205  1.00  0.00    -0.395 OA
HETATM   21  H   UNL     1     -18.991  -7.840  -5.605  1.00  0.00     0.210 HD
ENDBRANCH  13  20
ENDBRANCH  12  13
ENDBRANCH  11  12
ENDBRANCH   9  10
ENDBRANCH   8   9
ENDBRANCH   7   8
ENDBRANCH   6   7
ENDBRANCH   5   6
ENDBRANCH   4   5
ENDBRANCH   3   4
ENDBRANCH   1   3
BRANCH   1  22
HETATM   22  O   UNL     1     -21.167  -7.044  -4.049  1.00  0.00    -0.319 OA
BRANCH  22  23
HETATM   23  C   UNL     1     -20.894  -5.885  -4.934  1.00  0.00     0.212 C 
BRANCH  23  24
HETATM   24  C   UNL     1     -21.346  -5.997  -6.446  1.00  0.00     0.166 C 
BRANCH  24  25
HETATM   25  C   UNL     1     -22.231  -4.809  -6.943  1.00  0.00     0.201 C 
BRANCH  25  26
HETATM   26  O   UNL     1     -21.494  -3.915  -7.836  1.00  0.00    -0.386 OA
BRANCH  26  27
HETATM   27  C   UNL     1     -22.215  -3.690  -9.063  1.00  0.00     0.201 C 
BRANCH  27  28
HETATM   28  C   UNL     1     -21.500  -4.247 -10.310  1.00  0.00     0.165 C 
BRANCH  28  29
HETATM   29  C   UNL     1     -21.320  -3.325 -11.542  1.00  0.00     0.201 C 
BRANCH  29  30
HETATM   30  O   UNL     1     -22.358  -2.486 -12.027  1.00  0.00    -0.386 OA
BRANCH  30  31
HETATM   31  C   UNL     1     -23.417  -2.984 -12.828  1.00  0.00     0.201 C 
BRANCH  31  32
HETATM   32  C   UNL     1     -23.527  -2.609 -14.317  1.00  0.00     0.165 C 
BRANCH  32  33
HETATM   33  C   UNL     1     -23.614  -1.138 -14.752  1.00  0.00     0.198 C 
BRANCH  33  34
HETATM   34  O   UNL     1     -24.934  -0.602 -14.722  1.00  0.00    -0.398 OA
HETATM   35  H   UNL     1     -25.466  -1.133 -15.345  1.00  0.00     0.209 HD
ENDBRANCH  33  34
ENDBRANCH  32  33
BRANCH  32  36
HETATM   36  O   UNL     1     -22.361  -3.156 -14.967  1.00  0.00    -0.391 OA
HETATM   37  H   UNL     1     -22.509  -3.063 -15.923  1.00  0.00     0.210 HD
ENDBRANCH  32  36
ENDBRANCH  31  32
ENDBRANCH  30  31
ENDBRANCH  29  30
ENDBRANCH  28  29
BRANCH  28  38
HETATM   38  O   UNL     1     -20.180  -4.674  -9.895  1.00  0.00    -0.391 OA
HETATM   39  H   UNL     1     -19.612  -4.636 -10.685  1.00  0.00     0.210 HD
ENDBRANCH  28  38
ENDBRANCH  27  28
ENDBRANCH  26  27
ENDBRANCH  25  26
ENDBRANCH  24  25
BRANCH  24  40
HETATM   40  O   UNL     1     -20.210  -6.113  -7.306  1.00  0.00    -0.391 OA
HETATM   41  H   UNL     1     -19.839  -7.007  -7.209  1.00  0.00     0.210 HD
ENDBRANCH  24  40
ENDBRANCH  23  24
ENDBRANCH  22  23
ENDBRANCH   1  22
TORSDOF 32
ENDMDL
MODEL 6
REMARK VINA RESULT:      -6.7      3.824      8.161
REMARK  32 active torsions:
REMARK  status: ('A' for Active; 'I' for Inactive)
REMARK    1  A    between atoms: C_2  and  C_3 
REMARK    2  A    between atoms: C_3  and  C_4 
REMARK    3  A    between atoms: C_4  and  C_5 
REMARK    4  A    between atoms: C_5  and  C_6 
REMARK    5  A    between atoms: C_6  and  C_7 
REMARK    6  A    between atoms: C_7  and  C_8 
REMARK    7  A    between atoms: C_7  and  O_36 
REMARK    8  A    between atoms: C_8  and  C_9 
REMARK    9  A    between atoms: C_10  and  C_11 
REMARK   10  A    between atoms: C_11  and  C_12 
REMARK   11  A    between atoms: C_12  and  C_13 
REMARK   12  A    between atoms: C_13  and  C_14 
REMARK   13  A    between atoms: C_14  and  C_15 
REMARK   14  A    between atoms: C_15  and  C_16 
REMARK   15  A    between atoms: C_16  and  C_17 
REMARK   16  A    between atoms: C_17  and  C_18 
REMARK   17  A    between atoms: C_18  and  O_20 
REMARK   18  A    between atoms: O_20  and  C_21 
REMARK   19  A    between atoms: C_21  and  C_22 
REMARK   20  A    between atoms: C_22  and  C_23 
REMARK   21  A    between atoms: C_22  and  O_35 
REMARK   22  A    between atoms: C_23  and  O_24 
REMARK   23  A    between atoms: O_24  and  C_25 
REMARK   24  A    between atoms: C_25  and  C_26 
REMARK   25  A    between atoms: C_26  and  C_27 
REMARK   26  A    between atoms: C_26  and  O_34 
REMARK   27  A    between atoms: C_27  and  O_28 
REMARK   28  A    between atoms: O_28  and  C_29 
REMARK   29  A    between atoms: C_29  and  C_30 
REMARK   30  A    between atoms: C_30  and  C_31 
REMARK   31  A    between atoms: C_30  and  O_33 
REMARK   32  A    between atoms: C_31  and  O_32 
ROOT
HETATM    1  C   UNL     1     -21.891  -6.848  -2.283  1.00  0.00     0.258 C 
HETATM    2  O   UNL     1     -22.662  -5.909  -2.140  1.00  0.00    -0.265 OA
ENDROOT
BRANCH   1   3
HETATM    3  C   UNL     1     -21.604  -7.776  -1.056  1.00  0.00     0.111 C 
BRANCH   3   4
HETATM    4  C   UNL     1     -22.462  -8.709  -0.177  1.00  0.00     0.010 C 
BRANCH   4   5
HETATM    5  C   UNL     1     -21.999 -10.131   0.172  1.00  0.00     0.000 C 
BRANCH   5   6
HETATM    6  C   UNL     1     -23.015 -11.221  -0.137  1.00  0.00     0.000 C 
BRANCH   6   7
HETATM    7  C   UNL     1     -23.606 -11.093  -1.545  1.00  0.00     0.000 C 
BRANCH   7   8
HETATM    8  C   UNL     1     -22.741 -11.756  -2.630  1.00  0.00     0.004 C 
BRANCH   8   9
HETATM    9  C   UNL     1     -22.129 -10.779  -3.644  1.00  0.00     0.027 C 
BRANCH   9  10
HETATM   10  C   UNL     1     -20.741 -10.430  -3.209  1.00  0.00    -0.031 C 
HETATM   11  C   UNL     1     -19.801 -11.201  -2.660  1.00  0.00    -0.028 C 
BRANCH  11  12
HETATM   12  C   UNL     1     -18.437 -10.697  -2.237  1.00  0.00     0.058 C 
BRANCH  12  13
HETATM   13  C   UNL     1     -17.133 -11.603  -2.215  1.00  0.00     0.121 C 
BRANCH  13  14
HETATM   14  C   UNL     1     -15.911 -10.959  -2.849  1.00  0.00     0.032 C 
BRANCH  14  15
HETATM   15  C   UNL     1     -16.251  -9.672  -3.546  1.00  0.00     0.002 C 
BRANCH  15  16
HETATM   16  C   UNL     1     -15.562  -9.636  -4.902  1.00  0.00     0.000 C 
BRANCH  16  17
HETATM   17  C   UNL     1     -16.267 -10.580  -5.841  1.00  0.00    -0.000 C 
BRANCH  17  18
HETATM   18  C   UNL     1     -17.673 -10.087  -6.103  1.00  0.00    -0.005 C 
HETATM   19  C   UNL     1     -18.592 -11.286  -6.171  1.00  0.00     0.005 C 
ENDBRANCH  17  18
ENDBRANCH  16  17
ENDBRANCH  15  16
ENDBRANCH  14  15
ENDBRANCH  13  14
BRANCH  13  20
HETATM   20  O   UNL     1     -17.144 -12.887  -2.818  1.00  0.00    -0.395 OA
HETATM   21  H   UNL     1     -16.901 -13.564  -2.168  1.00  0.00     0.210 HD
ENDBRANCH  13  20
ENDBRANCH  12  13
ENDBRANCH  11  12
ENDBRANCH   9  10
ENDBRANCH   8   9
ENDBRANCH   7   8
ENDBRANCH   6   7
ENDBRANCH   5   6
ENDBRANCH   4   5
ENDBRANCH   3   4
ENDBRANCH   1   3
BRANCH   1  22
HETATM   22  O   UNL     1     -21.180  -6.995  -3.428  1.00  0.00    -0.319 OA
BRANCH  22  23
HETATM   23  C   UNL     1     -21.169  -5.936  -4.467  1.00  0.00     0.212 C 
BRANCH  23  24
HETATM   24  C   UNL     1     -20.904  -6.382  -5.961  1.00  0.00     0.166 C 
BRANCH  24  25
HETATM   25  C   UNL     1     -20.172  -5.310  -6.833  1.00  0.00     0.201 C 
BRANCH  25  26
HETATM   26  O   UNL     1     -21.100  -4.308  -7.358  1.00  0.00    -0.386 OA
BRANCH  26  27
HETATM   27  C   UNL     1     -21.786  -4.793  -8.529  1.00  0.00     0.201 C 
BRANCH  27  28
HETATM   28  C   UNL     1     -23.161  -4.132  -8.757  1.00  0.00     0.165 C 
BRANCH  28  29
HETATM   29  C   UNL     1     -24.112  -4.737  -9.819  1.00  0.00     0.201 C 
BRANCH  29  30
HETATM   30  O   UNL     1     -24.363  -4.108 -11.067  1.00  0.00    -0.386 OA
BRANCH  30  31
HETATM   31  C   UNL     1     -23.328  -3.513 -11.833  1.00  0.00     0.201 C 
BRANCH  31  32
HETATM   32  C   UNL     1     -23.647  -2.476 -12.925  1.00  0.00     0.165 C 
BRANCH  32  33
HETATM   33  C   UNL     1     -23.197  -2.700 -14.376  1.00  0.00     0.198 C 
BRANCH  33  34
HETATM   34  O   UNL     1     -23.682  -3.909 -14.953  1.00  0.00    -0.398 OA
HETATM   35  H   UNL     1     -24.632  -3.772 -15.132  1.00  0.00     0.209 HD
ENDBRANCH  33  34
ENDBRANCH  32  33
BRANCH  32  36
HETATM   36  O   UNL     1     -25.083  -2.345 -12.961  1.00  0.00    -0.391 OA
HETATM   37  H   UNL     1     -25.271  -1.453 -13.299  1.00  0.00     0.210 HD
ENDBRANCH  32  36
ENDBRANCH  31  32
ENDBRANCH  30  31
ENDBRANCH  29  30
ENDBRANCH  28  29
BRANCH  28  38
HETATM   38  O   UNL     1     -23.862  -4.150  -7.491  1.00  0.00    -0.391 OA
HETATM   39  H   UNL     1     -23.755  -3.265  -7.099  1.00  0.00     0.210 HD
ENDBRANCH  28  38
ENDBRANCH  27  28
ENDBRANCH  26  27
ENDBRANCH  25  26
ENDBRANCH  24  25
BRANCH  24  40
HETATM   40  O   UNL     1     -20.150  -7.596  -6.002  1.00  0.00    -0.391 OA
HETATM   41  H   UNL     1     -19.425  -7.489  -6.641  1.00  0.00     0.210 HD
ENDBRANCH  24  40
ENDBRANCH  23  24
ENDBRANCH  22  23
ENDBRANCH   1  22
TORSDOF 32
ENDMDL
MODEL 7
REMARK VINA RESULT:      -6.7      4.167      8.277
REMARK  32 active torsions:
REMARK  status: ('A' for Active; 'I' for Inactive)
REMARK    1  A    between atoms: C_2  and  C_3 
REMARK    2  A    between atoms: C_3  and  C_4 
REMARK    3  A    between atoms: C_4  and  C_5 
REMARK    4  A    between atoms: C_5  and  C_6 
REMARK    5  A    between atoms: C_6  and  C_7 
REMARK    6  A    between atoms: C_7  and  C_8 
REMARK    7  A    between atoms: C_7  and  O_36 
REMARK    8  A    between atoms: C_8  and  C_9 
REMARK    9  A    between atoms: C_10  and  C_11 
REMARK   10  A    between atoms: C_11  and  C_12 
REMARK   11  A    between atoms: C_12  and  C_13 
REMARK   12  A    between atoms: C_13  and  C_14 
REMARK   13  A    between atoms: C_14  and  C_15 
REMARK   14  A    between atoms: C_15  and  C_16 
REMARK   15  A    between atoms: C_16  and  C_17 
REMARK   16  A    between atoms: C_17  and  C_18 
REMARK   17  A    between atoms: C_18  and  O_20 
REMARK   18  A    between atoms: O_20  and  C_21 
REMARK   19  A    between atoms: C_21  and  C_22 
REMARK   20  A    between atoms: C_22  and  C_23 
REMARK   21  A    between atoms: C_22  and  O_35 
REMARK   22  A    between atoms: C_23  and  O_24 
REMARK   23  A    between atoms: O_24  and  C_25 
REMARK   24  A    between atoms: C_25  and  C_26 
REMARK   25  A    between atoms: C_26  and  C_27 
REMARK   26  A    between atoms: C_26  and  O_34 
REMARK   27  A    between atoms: C_27  and  O_28 
REMARK   28  A    between atoms: O_28  and  C_29 
REMARK   29  A    between atoms: C_29  and  C_30 
REMARK   30  A    between atoms: C_30  and  C_31 
REMARK   31  A    between atoms: C_30  and  O_33 
REMARK   32  A    between atoms: C_31  and  O_32 
ROOT
HETATM    1  C   UNL     1     -21.533  -6.667  -2.867  1.00  0.00     0.258 C 
HETATM    2  O   UNL     1     -20.772  -7.621  -2.953  1.00  0.00    -0.265 OA
ENDROOT
BRANCH   1   3
HETATM    3  C   UNL     1     -22.313  -6.449  -1.527  1.00  0.00     0.111 C 
BRANCH   3   4
HETATM    4  C   UNL     1     -22.273  -7.099  -0.130  1.00  0.00     0.010 C 
BRANCH   4   5
HETATM    5  C   UNL     1     -23.278  -8.186   0.278  1.00  0.00     0.000 C 
BRANCH   5   6
HETATM    6  C   UNL     1     -22.856  -9.604  -0.076  1.00  0.00     0.000 C 
BRANCH   6   7
HETATM    7  C   UNL     1     -21.336  -9.752  -0.204  1.00  0.00     0.000 C 
BRANCH   7   8
HETATM    8  C   UNL     1     -20.730 -10.720   0.826  1.00  0.00     0.004 C 
BRANCH   8   9
HETATM    9  C   UNL     1     -20.285 -12.070   0.248  1.00  0.00     0.027 C 
BRANCH   9  10
HETATM   10  C   UNL     1     -19.298 -11.829  -0.850  1.00  0.00    -0.031 C 
HETATM   11  C   UNL     1     -19.395 -12.092  -2.155  1.00  0.00    -0.028 C 
BRANCH  11  12
HETATM   12  C   UNL     1     -18.291 -11.821  -3.155  1.00  0.00     0.058 C 
BRANCH  12  13
HETATM   13  C   UNL     1     -17.655 -10.386  -3.394  1.00  0.00     0.121 C 
BRANCH  13  14
HETATM   14  C   UNL     1     -16.211 -10.256  -2.941  1.00  0.00     0.032 C 
BRANCH  14  15
HETATM   15  C   UNL     1     -15.726 -11.497  -2.247  1.00  0.00     0.002 C 
BRANCH  15  16
HETATM   16  C   UNL     1     -14.760 -12.240  -3.158  1.00  0.00     0.000 C 
BRANCH  16  17
HETATM   17  C   UNL     1     -14.533 -11.427  -4.406  1.00  0.00    -0.000 C 
BRANCH  17  18
HETATM   18  C   UNL     1     -14.833 -12.270  -5.626  1.00  0.00    -0.005 C 
HETATM   19  C   UNL     1     -15.773 -11.493  -6.520  1.00  0.00     0.005 C 
ENDBRANCH  17  18
ENDBRANCH  16  17
ENDBRANCH  15  16
ENDBRANCH  14  15
ENDBRANCH  13  14
BRANCH  13  20
HETATM   20  O   UNL     1     -18.254  -9.233  -2.824  1.00  0.00    -0.395 OA
HETATM   21  H   UNL     1     -19.054  -8.994  -3.315  1.00  0.00     0.210 HD
ENDBRANCH  13  20
ENDBRANCH  12  13
ENDBRANCH  11  12
ENDBRANCH   9  10
ENDBRANCH   8   9
ENDBRANCH   7   8
ENDBRANCH   6   7
ENDBRANCH   5   6
ENDBRANCH   4   5
ENDBRANCH   3   4
ENDBRANCH   1   3
BRANCH   1  22
HETATM   22  O   UNL     1     -21.817  -5.904  -3.951  1.00  0.00    -0.319 OA
BRANCH  22  23
HETATM   23  C   UNL     1     -22.058  -6.517  -5.281  1.00  0.00     0.212 C 
BRANCH  23  24
HETATM   24  C   UNL     1     -21.175  -6.009  -6.491  1.00  0.00     0.166 C 
BRANCH  24  25
HETATM   25  C   UNL     1     -20.694  -4.528  -6.359  1.00  0.00     0.201 C 
BRANCH  25  26
HETATM   26  O   UNL     1     -21.507  -3.617  -7.165  1.00  0.00    -0.386 OA
BRANCH  26  27
HETATM   27  C   UNL     1     -21.775  -4.170  -8.469  1.00  0.00     0.201 C 
BRANCH  27  28
HETATM   28  C   UNL     1     -23.062  -3.621  -9.119  1.00  0.00     0.165 C 
BRANCH  28  29
HETATM   29  C   UNL     1     -23.436  -4.092 -10.545  1.00  0.00     0.201 C 
BRANCH  29  30
HETATM   30  O   UNL     1     -22.734  -3.662 -11.703  1.00  0.00    -0.386 OA
BRANCH  30  31
HETATM   31  C   UNL     1     -23.105  -2.495 -12.418  1.00  0.00     0.201 C 
BRANCH  31  32
HETATM   32  C   UNL     1     -23.422  -2.557 -13.923  1.00  0.00     0.165 C 
BRANCH  32  33
HETATM   33  C   UNL     1     -23.597  -1.270 -14.743  1.00  0.00     0.198 C 
BRANCH  33  34
HETATM   34  O   UNL     1     -24.895  -0.689 -14.639  1.00  0.00    -0.398 OA
HETATM   35  H   UNL     1     -24.798   0.254 -14.869  1.00  0.00     0.209 HD
ENDBRANCH  33  34
ENDBRANCH  32  33
BRANCH  32  36
HETATM   36  O   UNL     1     -22.343  -3.288 -14.541  1.00  0.00    -0.391 OA
HETATM   37  H   UNL     1     -22.486  -4.226 -14.328  1.00  0.00     0.210 HD
ENDBRANCH  32  36
ENDBRANCH  31  32
ENDBRANCH  30  31
ENDBRANCH  29  30
ENDBRANCH  28  29
BRANCH  28  38
HETATM   38  O   UNL     1     -24.165  -3.965  -8.248  1.00  0.00    -0.391 OA
HETATM   39  H   UNL     1     -23.916  -3.676  -7.352  1.00  0.00     0.210 HD
ENDBRANCH  28  38
ENDBRANCH  27  28
ENDBRANCH  26  27
ENDBRANCH  25  26
ENDBRANCH  24  25
BRANCH  24  40
HETATM   40  O   UNL     1     -20.031  -6.848  -6.670  1.00  0.00    -0.391 OA
HETATM   41  H   UNL     1     -19.247  -6.282  -6.770  1.00  0.00     0.210 HD
ENDBRANCH  24  40
ENDBRANCH  23  24
ENDBRANCH  22  23
ENDBRANCH   1  22
TORSDOF 32
ENDMDL
MODEL 8
REMARK VINA RESULT:      -6.6      4.053      7.801
REMARK  32 active torsions:
REMARK  status: ('A' for Active; 'I' for Inactive)
REMARK    1  A    between atoms: C_2  and  C_3 
REMARK    2  A    between atoms: C_3  and  C_4 
REMARK    3  A    between atoms: C_4  and  C_5 
REMARK    4  A    between atoms: C_5  and  C_6 
REMARK    5  A    between atoms: C_6  and  C_7 
REMARK    6  A    between atoms: C_7  and  C_8 
REMARK    7  A    between atoms: C_7  and  O_36 
REMARK    8  A    between atoms: C_8  and  C_9 
REMARK    9  A    between atoms: C_10  and  C_11 
REMARK   10  A    between atoms: C_11  and  C_12 
REMARK   11  A    between atoms: C_12  and  C_13 
REMARK   12  A    between atoms: C_13  and  C_14 
REMARK   13  A    between atoms: C_14  and  C_15 
REMARK   14  A    between atoms: C_15  and  C_16 
REMARK   15  A    between atoms: C_16  and  C_17 
REMARK   16  A    between atoms: C_17  and  C_18 
REMARK   17  A    between atoms: C_18  and  O_20 
REMARK   18  A    between atoms: O_20  and  C_21 
REMARK   19  A    between atoms: C_21  and  C_22 
REMARK   20  A    between atoms: C_22  and  C_23 
REMARK   21  A    between atoms: C_22  and  O_35 
REMARK   22  A    between atoms: C_23  and  O_24 
REMARK   23  A    between atoms: O_24  and  C_25 
REMARK   24  A    between atoms: C_25  and  C_26 
REMARK   25  A    between atoms: C_26  and  C_27 
REMARK   26  A    between atoms: C_26  and  O_34 
REMARK   27  A    between atoms: C_27  and  O_28 
REMARK   28  A    between atoms: O_28  and  C_29 
REMARK   29  A    between atoms: C_29  and  C_30 
REMARK   30  A    between atoms: C_30  and  C_31 
REMARK   31  A    between atoms: C_30  and  O_33 
REMARK   32  A    between atoms: C_31  and  O_32 
ROOT
HETATM    1  C   UNL     1     -21.862  -6.344  -2.606  1.00  0.00     0.258 C 
HETATM    2  O   UNL     1     -22.333  -5.611  -1.747  1.00  0.00    -0.265 OA
ENDROOT
BRANCH   1   3
HETATM    3  C   UNL     1     -21.062  -7.611  -2.152  1.00  0.00     0.111 C 
BRANCH   3   4
HETATM    4  C   UNL     1     -20.866  -8.348  -0.812  1.00  0.00     0.010 C 
BRANCH   4   5
HETATM    5  C   UNL     1     -21.770  -8.069   0.397  1.00  0.00     0.000 C 
BRANCH   5   6
HETATM    6  C   UNL     1     -23.158  -8.684   0.306  1.00  0.00     0.000 C 
BRANCH   6   7
HETATM    7  C   UNL     1     -23.214  -9.870  -0.664  1.00  0.00     0.000 C 
BRANCH   7   8
HETATM    8  C   UNL     1     -24.001 -11.070  -0.112  1.00  0.00     0.004 C 
BRANCH   8   9
HETATM    9  C   UNL     1     -23.128 -12.217   0.415  1.00  0.00     0.027 C 
BRANCH   9  10
HETATM   10  C   UNL     1     -21.729 -12.035  -0.081  1.00  0.00    -0.031 C 
HETATM   11  C   UNL     1     -20.596 -11.879   0.605  1.00  0.00    -0.028 C 
BRANCH  11  12
HETATM   12  C   UNL     1     -19.241 -11.670  -0.039  1.00  0.00     0.058 C 
BRANCH  12  13
HETATM   13  C   UNL     1     -18.541 -12.741  -0.980  1.00  0.00     0.121 C 
BRANCH  13  14
HETATM   14  C   UNL     1     -19.204 -12.913  -2.336  1.00  0.00     0.032 C 
BRANCH  14  15
HETATM   15  C   UNL     1     -18.686 -11.927  -3.344  1.00  0.00     0.002 C 
BRANCH  15  16
HETATM   16  C   UNL     1     -19.598 -10.710  -3.374  1.00  0.00     0.000 C 
BRANCH  16  17
HETATM   17  C   UNL     1     -20.482 -10.782  -4.592  1.00  0.00    -0.000 C 
BRANCH  17  18
HETATM   18  C   UNL     1     -21.926 -10.583  -4.189  1.00  0.00    -0.005 C 
HETATM   19  C   UNL     1     -22.470 -11.906  -3.700  1.00  0.00     0.005 C 
ENDBRANCH  17  18
ENDBRANCH  16  17
ENDBRANCH  15  16
ENDBRANCH  14  15
ENDBRANCH  13  14
BRANCH  13  20
HETATM   20  O   UNL     1     -18.389 -14.083  -0.547  1.00  0.00    -0.395 OA
HETATM   21  H   UNL     1     -19.042 -14.651  -0.982  1.00  0.00     0.210 HD
ENDBRANCH  13  20
ENDBRANCH  12  13
ENDBRANCH  11  12
ENDBRANCH   9  10
ENDBRANCH   8   9
ENDBRANCH   7   8
ENDBRANCH   6   7
ENDBRANCH   5   6
ENDBRANCH   4   5
ENDBRANCH   3   4
ENDBRANCH   1   3
BRANCH   1  22
HETATM   22  O   UNL     1     -21.894  -5.993  -3.915  1.00  0.00    -0.319 OA
BRANCH  22  23
HETATM   23  C   UNL     1     -21.054  -6.691  -4.919  1.00  0.00     0.212 C 
BRANCH  23  24
HETATM   24  C   UNL     1     -20.867  -5.995  -6.326  1.00  0.00     0.166 C 
BRANCH  24  25
HETATM   25  C   UNL     1     -20.537  -4.469  -6.251  1.00  0.00     0.201 C 
BRANCH  25  26
HETATM   26  O   UNL     1     -21.369  -3.686  -7.166  1.00  0.00    -0.386 OA
BRANCH  26  27
HETATM   27  C   UNL     1     -22.510  -4.443  -7.614  1.00  0.00     0.201 C 
BRANCH  27  28
HETATM   28  C   UNL     1     -22.682  -4.451  -9.146  1.00  0.00     0.165 C 
BRANCH  28  29
HETATM   29  C   UNL     1     -23.791  -3.574  -9.777  1.00  0.00     0.201 C 
BRANCH  29  30
HETATM   30  O   UNL     1     -24.405  -3.892 -11.018  1.00  0.00    -0.386 OA
BRANCH  30  31
HETATM   31  C   UNL     1     -24.340  -3.022 -12.136  1.00  0.00     0.201 C 
BRANCH  31  32
HETATM   32  C   UNL     1     -23.421  -3.334 -13.330  1.00  0.00     0.165 C 
BRANCH  32  33
HETATM   33  C   UNL     1     -23.262  -2.331 -14.482  1.00  0.00     0.198 C 
BRANCH  33  34
HETATM   34  O   UNL     1     -24.253  -1.307 -14.499  1.00  0.00    -0.398 OA
HETATM   35  H   UNL     1     -24.371  -1.016 -13.575  1.00  0.00     0.209 HD
ENDBRANCH  33  34
ENDBRANCH  32  33
BRANCH  32  36
HETATM   36  O   UNL     1     -22.100  -3.543 -12.788  1.00  0.00    -0.391 OA
HETATM   37  H   UNL     1     -21.695  -4.254 -13.314  1.00  0.00     0.210 HD
ENDBRANCH  32  36
ENDBRANCH  31  32
ENDBRANCH  30  31
ENDBRANCH  29  30
ENDBRANCH  28  29
BRANCH  28  38
HETATM   38  O   UNL     1     -21.422  -4.033  -9.724  1.00  0.00    -0.391 OA
HETATM   39  H   UNL     1     -20.722  -4.510  -9.244  1.00  0.00     0.210 HD
ENDBRANCH  28  38
ENDBRANCH  27  28
ENDBRANCH  26  27
ENDBRANCH  25  26
ENDBRANCH  24  25
BRANCH  24  40
HETATM   40  O   UNL     1     -19.844  -6.648  -7.082  1.00  0.00    -0.391 OA
HETATM   41  H   UNL     1     -19.355  -5.975  -7.586  1.00  0.00     0.210 HD
ENDBRANCH  24  40
ENDBRANCH  23  24
ENDBRANCH  22  23
ENDBRANCH   1  22
TORSDOF 32
ENDMDL
MODEL 9
REMARK VINA RESULT:      -6.6      1.600      2.021
REMARK  32 active torsions:
REMARK  status: ('A' for Active; 'I' for Inactive)
REMARK    1  A    between atoms: C_2  and  C_3 
REMARK    2  A    between atoms: C_3  and  C_4 
REMARK    3  A    between atoms: C_4  and  C_5 
REMARK    4  A    between atoms: C_5  and  C_6 
REMARK    5  A    between atoms: C_6  and  C_7 
REMARK    6  A    between atoms: C_7  and  C_8 
REMARK    7  A    between atoms: C_7  and  O_36 
REMARK    8  A    between atoms: C_8  and  C_9 
REMARK    9  A    between atoms: C_10  and  C_11 
REMARK   10  A    between atoms: C_11  and  C_12 
REMARK   11  A    between atoms: C_12  and  C_13 
REMARK   12  A    between atoms: C_13  and  C_14 
REMARK   13  A    between atoms: C_14  and  C_15 
REMARK   14  A    between atoms: C_15  and  C_16 
REMARK   15  A    between atoms: C_16  and  C_17 
REMARK   16  A    between atoms: C_17  and  C_18 
REMARK   17  A    between atoms: C_18  and  O_20 
REMARK   18  A    between atoms: O_20  and  C_21 
REMARK   19  A    between atoms: C_21  and  C_22 
REMARK   20  A    between atoms: C_22  and  C_23 
REMARK   21  A    between atoms: C_22  and  O_35 
REMARK   22  A    between atoms: C_23  and  O_24 
REMARK   23  A    between atoms: O_24  and  C_25 
REMARK   24  A    between atoms: C_25  and  C_26 
REMARK   25  A    between atoms: C_26  and  C_27 
REMARK   26  A    between atoms: C_26  and  O_34 
REMARK   27  A    between atoms: C_27  and  O_28 
REMARK   28  A    between atoms: O_28  and  C_29 
REMARK   29  A    between atoms: C_29  and  C_30 
REMARK   30  A    between atoms: C_30  and  C_31 
REMARK   31  A    between atoms: C_30  and  O_33 
REMARK   32  A    between atoms: C_31  and  O_32 
ROOT
HETATM    1  C   UNL     1     -24.029  -3.665 -10.231  1.00  0.00     0.258 C 
HETATM    2  O   UNL     1     -25.161  -3.222 -10.372  1.00  0.00    -0.265 OA
ENDROOT
BRANCH   1   3
HETATM    3  C   UNL     1     -23.436  -3.762  -8.785  1.00  0.00     0.111 C 
BRANCH   3   4
HETATM    4  C   UNL     1     -22.200  -4.442  -8.162  1.00  0.00     0.010 C 
BRANCH   4   5
HETATM    5  C   UNL     1     -21.196  -3.654  -7.308  1.00  0.00     0.000 C 
BRANCH   5   6
HETATM    6  C   UNL     1     -20.631  -4.423  -6.124  1.00  0.00     0.000 C 
BRANCH   6   7
HETATM    7  C   UNL     1     -19.805  -5.640  -6.553  1.00  0.00     0.000 C 
BRANCH   7   8
HETATM    8  C   UNL     1     -20.200  -6.932  -5.817  1.00  0.00     0.004 C 
BRANCH   8   9
HETATM    9  C   UNL     1     -21.542  -6.860  -5.077  1.00  0.00     0.027 C 
BRANCH   9  10
HETATM   10  C   UNL     1     -21.537  -7.851  -3.957  1.00  0.00    -0.031 C 
HETATM   11  C   UNL     1     -21.339  -7.661  -2.652  1.00  0.00    -0.028 C 
BRANCH  11  12
HETATM   12  C   UNL     1     -21.331  -8.777  -1.627  1.00  0.00     0.058 C 
BRANCH  12  13
HETATM   13  C   UNL     1     -21.413  -8.532  -0.061  1.00  0.00     0.121 C 
BRANCH  13  14
HETATM   14  C   UNL     1     -21.390  -9.801   0.774  1.00  0.00     0.032 C 
BRANCH  14  15
HETATM   15  C   UNL     1     -21.760 -11.013  -0.033  1.00  0.00     0.002 C 
BRANCH  15  16
HETATM   16  C   UNL     1     -23.241 -11.307   0.149  1.00  0.00     0.000 C 
BRANCH  16  17
HETATM   17  C   UNL     1     -23.417 -12.760   0.507  1.00  0.00    -0.000 C 
BRANCH  17  18
HETATM   18  C   UNL     1     -22.200 -13.253   1.256  1.00  0.00    -0.005 C 
HETATM   19  C   UNL     1     -22.667 -14.122   2.403  1.00  0.00     0.005 C 
ENDBRANCH  17  18
ENDBRANCH  16  17
ENDBRANCH  15  16
ENDBRANCH  14  15
ENDBRANCH  13  14
BRANCH  13  20
HETATM   20  O   UNL     1     -22.509  -7.825   0.496  1.00  0.00    -0.395 OA
HETATM   21  H   UNL     1     -23.183  -8.446   0.811  1.00  0.00     0.210 HD
ENDBRANCH  13  20
ENDBRANCH  12  13
ENDBRANCH  11  12
ENDBRANCH   9  10
ENDBRANCH   8   9
ENDBRANCH   7   8
ENDBRANCH   6   7
ENDBRANCH   5   6
ENDBRANCH   4   5
ENDBRANCH   3   4
ENDBRANCH   1   3
BRANCH   1  22
HETATM   22  O   UNL     1     -23.244  -3.923 -11.306  1.00  0.00    -0.319 OA
BRANCH  22  23
HETATM   23  C   UNL     1     -22.980  -2.884 -12.331  1.00  0.00     0.212 C 
BRANCH  23  24
HETATM   24  C   UNL     1     -23.572  -3.118 -13.779  1.00  0.00     0.166 C 
BRANCH  24  25
HETATM   25  C   UNL     1     -24.571  -4.316 -13.880  1.00  0.00     0.201 C 
BRANCH  25  26
HETATM   26  O   UNL     1     -24.552  -4.932 -15.207  1.00  0.00    -0.386 OA
BRANCH  26  27
HETATM   27  C   UNL     1     -25.133  -6.251 -15.180  1.00  0.00     0.201 C 
BRANCH  27  28
HETATM   28  C   UNL     1     -25.433  -6.821 -16.580  1.00  0.00     0.165 C 
BRANCH  28  29
HETATM   29  C   UNL     1     -26.508  -6.128 -17.453  1.00  0.00     0.201 C 
BRANCH  29  30
HETATM   30  O   UNL     1     -27.897  -6.216 -17.169  1.00  0.00    -0.386 OA
BRANCH  30  31
HETATM   31  C   UNL     1     -28.842  -6.621 -18.146  1.00  0.00     0.201 C 
BRANCH  31  32
HETATM   32  C   UNL     1     -30.110  -7.397 -17.746  1.00  0.00     0.165 C 
BRANCH  32  33
HETATM   33  C   UNL     1     -31.416  -6.655 -17.425  1.00  0.00     0.198 C 
BRANCH  33  34
HETATM   34  O   UNL     1     -31.270  -5.616 -16.460  1.00  0.00    -0.398 OA
HETATM   35  H   UNL     1     -32.137  -5.514 -16.025  1.00  0.00     0.209 HD
ENDBRANCH  33  34
ENDBRANCH  32  33
BRANCH  32  36
HETATM   36  O   UNL     1     -30.409  -8.289 -18.841  1.00  0.00    -0.391 OA
HETATM   37  H   UNL     1     -29.728  -8.134 -19.517  1.00  0.00     0.210 HD
ENDBRANCH  32  36
ENDBRANCH  31  32
ENDBRANCH  30  31
ENDBRANCH  29  30
ENDBRANCH  28  29
BRANCH  28  38
HETATM   38  O   UNL     1     -24.194  -6.803 -17.328  1.00  0.00    -0.391 OA
HETATM   39  H   UNL     1     -23.493  -6.548 -16.703  1.00  0.00     0.210 HD
ENDBRANCH  28  38
ENDBRANCH  27  28
ENDBRANCH  26  27
ENDBRANCH  25  26
ENDBRANCH  24  25
BRANCH  24  40
HETATM   40  O   UNL     1     -24.222  -1.938 -14.257  1.00  0.00    -0.391 OA
HETATM   41  H   UNL     1     -24.629  -1.482 -13.500  1.00  0.00     0.210 HD
ENDBRANCH  24  40
ENDBRANCH  23  24
ENDBRANCH  22  23
ENDBRANCH   1  22
TORSDOF 32
ENDMDL
