MODEL 1
REMARK VINA RESULT:      -6.0      0.000      0.000
REMARK WARNING: 32 MAX_TORS EXCEEDED!!!
REMARK  35 active torsions:
REMARK  status: ('A' for Active; 'I' for Inactive)
REMARK    1  A    between atoms: C_2  and  C_3 
REMARK    2  A    between atoms: C_3  and  C_4 
REMARK    3  A    between atoms: C_4  and  C_5 
REMARK    4  A    between atoms: C_5  and  C_6 
REMARK    5  A    between atoms: C_6  and  C_7 
REMARK    6  A    between atoms: C_7  and  C_8 
REMARK    7  A    between atoms: C_8  and  C_9 
REMARK    8  A    between atoms: C_9  and  C_10 
REMARK    9  A    between atoms: C_10  and  C_11 
REMARK   10  A    between atoms: C_11  and  C_12 
REMARK   11  A    between atoms: C_12  and  C_13 
REMARK   12  A    between atoms: C_13  and  C_14 
REMARK   13  A    between atoms: C_14  and  C_15 
REMARK   14  A    between atoms: C_15  and  C_16 
REMARK   15  A    between atoms: C_15  and  O_22 
REMARK   16  A    between atoms: C_16  and  C_17 
REMARK   17  A    between atoms: C_16  and  O_21 
REMARK   18  A    between atoms: C_17  and  C_18 
REMARK   19  A    between atoms: C_17  and  N_20 
REMARK   20  A    between atoms: C_18  and  O_19 
REMARK       I    between atoms: N_20  and  C_27 
REMARK   21  A    between atoms: C_27  and  C_29 
REMARK   22  A    between atoms: C_29  and  C_30 
REMARK   23  A    between atoms: C_30  and  C_31 
REMARK   24  A    between atoms: C_31  and  C_32 
REMARK   25  A    between atoms: C_32  and  C_33 
REMARK   26  A    between atoms: C_33  and  C_34 
REMARK   27  A    between atoms: C_34  and  C_35 
REMARK   28  A    between atoms: C_35  and  C_36 
REMARK   29  A    between atoms: C_37  and  C_38 
REMARK   30  A    between atoms: C_38  and  C_39 
REMARK   31  A    between atoms: C_39  and  C_40 
REMARK   32  A    between atoms: C_40  and  C_41 
REMARK   33  A    between atoms: C_41  and  C_42 
REMARK   34  A    between atoms: C_42  and  C_43 
REMARK   35  A    between atoms: C_43  and  C_44 
ROOT
HETATM    1  C   UNK A   1     -16.525 -11.761  -3.951  1.00  0.00     0.139 C 
ENDROOT
BRANCH   1   2
HETATM    2  C   UNK A   1     -17.207 -12.021  -2.590  1.00  0.00     0.171 C 
BRANCH   2   3
HETATM    3  C   UNK A   1     -17.877 -10.763  -1.982  1.00  0.00     0.149 C 
BRANCH   3   4
HETATM    4  C   UNK A   1     -19.394 -10.865  -1.764  1.00  0.00     0.034 C 
BRANCH   4   5
HETATM    5  C   UNK A   1     -19.831 -12.235  -1.274  1.00  0.00     0.002 C 
BRANCH   5   6
HETATM    6  C   UNK A   1     -20.212 -12.251   0.191  1.00  0.00     0.000 C 
BRANCH   6   7
HETATM    7  C   UNK A   1     -20.985 -13.536   0.466  1.00  0.00     0.000 C 
BRANCH   7   8
HETATM    8  C   UNK A   1     -21.934 -13.327   1.627  1.00  0.00     0.000 C 
BRANCH   8   9
HETATM    9  C   UNK A   1     -23.338 -13.064   1.115  1.00  0.00     0.000 C 
BRANCH   9  10
HETATM   10  C   UNK A   1     -23.425 -13.455  -0.346  1.00  0.00     0.000 C 
BRANCH  10  11
HETATM   11  C   UNK A   1     -23.908 -12.282  -1.177  1.00  0.00     0.000 C 
BRANCH  11  12
HETATM   12  C   UNK A   1     -24.037 -11.049  -0.300  1.00  0.00     0.000 C 
BRANCH  12  13
HETATM   13  C   UNK A   1     -23.061  -9.979  -0.756  1.00  0.00     0.000 C 
BRANCH  13  14
HETATM   14  C   UNK A   1     -22.746  -9.030   0.391  1.00  0.00     0.000 C 
BRANCH  14  15
HETATM   15  C   UNK A   1     -21.362  -8.423   0.208  1.00  0.00    -0.000 C 
BRANCH  15  16
HETATM   16  C   UNK A   1     -21.262  -7.699  -1.129  1.00  0.00    -0.005 C 
HETATM   17  C   UNK A   1     -22.281  -6.577  -1.208  1.00  0.00     0.005 C 
ENDBRANCH  15  16
ENDBRANCH  14  15
ENDBRANCH  13  14
ENDBRANCH  12  13
ENDBRANCH  11  12
ENDBRANCH  10  11
ENDBRANCH   9  10
ENDBRANCH   8   9
ENDBRANCH   7   8
ENDBRANCH   6   7
ENDBRANCH   5   6
ENDBRANCH   4   5
ENDBRANCH   3   4
BRANCH   3  18
HETATM   18  O   UNK A   1     -17.621  -9.649  -2.836  1.00  0.00    -0.393 OA
HETATM   19  H   UNK A   1     -17.426  -8.873  -2.280  1.00  0.00     0.210 HD
ENDBRANCH   3  18
ENDBRANCH   2   3
BRANCH   2  20
HETATM   20  O   UNK A   1     -16.181 -12.616  -1.778  1.00  0.00    -0.391 OA
HETATM   21  H   UNK A   1     -16.575 -13.021  -0.979  1.00  0.00     0.210 HD
ENDBRANCH   2  20
ENDBRANCH   1   2
BRANCH   1  22
HETATM   22  C   UNK A   1     -15.169 -12.491  -4.066  1.00  0.00     0.191 C 
BRANCH  22  23
HETATM   23  O   UNK A   1     -14.253 -11.877  -4.978  1.00  0.00    -0.399 OA
HETATM   24  H   UNK A   1     -14.090 -10.973  -4.672  1.00  0.00     0.209 HD
ENDBRANCH  22  23
ENDBRANCH   1  22
BRANCH   1  25
HETATM   25  N   UNK A   1     -17.474 -12.190  -4.988  1.00  0.00    -0.352 N 
HETATM   26  C   UNK A   0     -17.971 -11.283  -5.892  1.00  0.00     0.218 C 
HETATM   27  O   UNK A   0     -17.744 -10.073  -5.820  1.00  0.00    -0.274 OA
HETATM   28  H   UNK A   1     -17.991 -13.045  -4.795  1.00  0.00     0.163 HD
BRANCH  26  29
HETATM   29  C   UNK A   0     -18.860 -11.890  -6.967  1.00  0.00     0.103 C 
BRANCH  29  30
HETATM   30  C   UNK A   0     -20.155 -12.375  -6.326  1.00  0.00     0.009 C 
BRANCH  30  31
HETATM   31  C   UNK A   0     -21.145 -11.240  -6.087  1.00  0.00     0.000 C 
BRANCH  31  32
HETATM   32  C   UNK A   0     -21.669 -11.306  -4.654  1.00  0.00     0.000 C 
BRANCH  32  33
HETATM   33  C   UNK A   0     -21.826  -9.912  -4.069  1.00  0.00     0.000 C 
BRANCH  33  34
HETATM   34  C   UNK A   0     -21.165  -8.874  -4.965  1.00  0.00     0.004 C 
BRANCH  34  35
HETATM   35  C   UNK A   0     -21.843  -7.522  -4.785  1.00  0.00     0.027 C 
BRANCH  35  36
HETATM   36  C   UNK A   0     -21.411  -6.574  -5.855  1.00  0.00    -0.031 C 
HETATM   37  C   UNK A   0     -20.644  -5.505  -5.613  1.00  0.00    -0.031 C 
BRANCH  37  38
HETATM   38  C   UNK A   0     -20.215  -4.556  -6.683  1.00  0.00     0.027 C 
BRANCH  38  39
HETATM   39  C   UNK A   0     -20.574  -5.111  -8.059  1.00  0.00     0.004 C 
BRANCH  39  40
HETATM   40  C   UNK A   0     -19.951  -4.250  -9.145  1.00  0.00     0.000 C 
BRANCH  40  41
HETATM   41  C   UNK A   0     -20.612  -4.522 -10.488  1.00  0.00     0.000 C 
BRANCH  41  42
HETATM   42  C   UNK A   0     -20.888  -3.218 -11.225  1.00  0.00     0.000 C 
BRANCH  42  43
HETATM   43  C   UNK A   0     -22.376  -3.088 -11.540  1.00  0.00    -0.000 C 
BRANCH  43  44
HETATM   44  C   UNK A   0     -23.167  -4.231 -10.917  1.00  0.00    -0.005 C 
HETATM   45  C   UNK A   0     -24.166  -3.705  -9.902  1.00  0.00     0.005 C 
ENDBRANCH  43  44
ENDBRANCH  42  43
ENDBRANCH  41  42
ENDBRANCH  40  41
ENDBRANCH  39  40
ENDBRANCH  38  39
ENDBRANCH  37  38
ENDBRANCH  35  36
ENDBRANCH  34  35
ENDBRANCH  33  34
ENDBRANCH  32  33
ENDBRANCH  31  32
ENDBRANCH  30  31
ENDBRANCH  29  30
ENDBRANCH  26  29
ENDBRANCH   1  25
TORSDOF 35
ENDMDL
MODEL 2
REMARK VINA RESULT:      -6.0      1.306      2.192
REMARK WARNING: 32 MAX_TORS EXCEEDED!!!
REMARK  35 active torsions:
REMARK  status: ('A' for Active; 'I' for Inactive)
REMARK    1  A    between atoms: C_2  and  C_3 
REMARK    2  A    between atoms: C_3  and  C_4 
REMARK    3  A    between atoms: C_4  and  C_5 
REMARK    4  A    between atoms: C_5  and  C_6 
REMARK    5  A    between atoms: C_6  and  C_7 
REMARK    6  A    between atoms: C_7  and  C_8 
REMARK    7  A    between atoms: C_8  and  C_9 
REMARK    8  A    between atoms: C_9  and  C_10 
REMARK    9  A    between atoms: C_10  and  C_11 
REMARK   10  A    between atoms: C_11  and  C_12 
REMARK   11  A    between atoms: C_12  and  C_13 
REMARK   12  A    between atoms: C_13  and  C_14 
REMARK   13  A    between atoms: C_14  and  C_15 
REMARK   14  A    between atoms: C_15  and  C_16 
REMARK   15  A    between atoms: C_15  and  O_22 
REMARK   16  A    between atoms: C_16  and  C_17 
REMARK   17  A    between atoms: C_16  and  O_21 
REMARK   18  A    between atoms: C_17  and  C_18 
REMARK   19  A    between atoms: C_17  and  N_20 
REMARK   20  A    between atoms: C_18  and  O_19 
REMARK       I    between atoms: N_20  and  C_27 
REMARK   21  A    between atoms: C_27  and  C_29 
REMARK   22  A    between atoms: C_29  and  C_30 
REMARK   23  A    between atoms: C_30  and  C_31 
REMARK   24  A    between atoms: C_31  and  C_32 
REMARK   25  A    between atoms: C_32  and  C_33 
REMARK   26  A    between atoms: C_33  and  C_34 
REMARK   27  A    between atoms: C_34  and  C_35 
REMARK   28  A    between atoms: C_35  and  C_36 
REMARK   29  A    between atoms: C_37  and  C_38 
REMARK   30  A    between atoms: C_38  and  C_39 
REMARK   31  A    between atoms: C_39  and  C_40 
REMARK   32  A    between atoms: C_40  and  C_41 
REMARK   33  A    between atoms: C_41  and  C_42 
REMARK   34  A    between atoms: C_42  and  C_43 
REMARK   35  A    between atoms: C_43  and  C_44 
ROOT
HETATM    1  C   UNK A   1     -14.950 -11.614  -4.818  1.00  0.00     0.139 C 
ENDROOT
BRANCH   1   2
HETATM    2  C   UNK A   1     -15.014 -12.130  -3.364  1.00  0.00     0.171 C 
BRANCH   2   3
HETATM    3  C   UNK A   1     -15.382 -11.033  -2.333  1.00  0.00     0.149 C 
BRANCH   3   4
HETATM    4  C   UNK A   1     -16.473 -11.418  -1.323  1.00  0.00     0.034 C 
BRANCH   4   5
HETATM    5  C   UNK A   1     -17.878 -11.187  -1.852  1.00  0.00     0.002 C 
BRANCH   5   6
HETATM    6  C   UNK A   1     -18.541 -12.449  -2.360  1.00  0.00     0.000 C 
BRANCH   6   7
HETATM    7  C   UNK A   1     -20.006 -12.417  -1.944  1.00  0.00     0.000 C 
BRANCH   7   8
HETATM    8  C   UNK A   1     -20.115 -12.513  -0.436  1.00  0.00     0.000 C 
BRANCH   8   9
HETATM    9  C   UNK A   1     -21.232 -13.465  -0.051  1.00  0.00     0.000 C 
BRANCH   9  10
HETATM   10  C   UNK A   1     -21.876 -12.994   1.237  1.00  0.00     0.000 C 
BRANCH  10  11
HETATM   11  C   UNK A   1     -23.378 -12.885   1.066  1.00  0.00     0.000 C 
BRANCH  11  12
HETATM   12  C   UNK A   1     -23.698 -12.253  -0.277  1.00  0.00     0.000 C 
BRANCH  12  13
HETATM   13  C   UNK A   1     -24.162 -10.820  -0.082  1.00  0.00     0.000 C 
BRANCH  13  14
HETATM   14  C   UNK A   1     -23.010  -9.855  -0.322  1.00  0.00     0.000 C 
BRANCH  14  15
HETATM   15  C   UNK A   1     -23.247  -8.554   0.433  1.00  0.00    -0.000 C 
BRANCH  15  16
HETATM   16  C   UNK A   1     -21.957  -8.060   1.076  1.00  0.00    -0.005 C 
HETATM   17  C   UNK A   1     -20.967  -9.199   1.236  1.00  0.00     0.005 C 
ENDBRANCH  15  16
ENDBRANCH  14  15
ENDBRANCH  13  14
ENDBRANCH  12  13
ENDBRANCH  11  12
ENDBRANCH  10  11
ENDBRANCH   9  10
ENDBRANCH   8   9
ENDBRANCH   7   8
ENDBRANCH   6   7
ENDBRANCH   5   6
ENDBRANCH   4   5
ENDBRANCH   3   4
BRANCH   3  18
HETATM   18  O   UNK A   1     -15.813  -9.869  -3.036  1.00  0.00    -0.393 OA
HETATM   19  H   UNK A   1     -15.139  -9.175  -2.923  1.00  0.00     0.210 HD
ENDBRANCH   3  18
ENDBRANCH   2   3
BRANCH   2  20
HETATM   20  O   UNK A   1     -13.743 -12.766  -3.149  1.00  0.00    -0.391 OA
HETATM   21  H   UNK A   1     -13.556 -12.830  -2.190  1.00  0.00     0.210 HD
ENDBRANCH   2  20
ENDBRANCH   1   2
BRANCH   1  22
HETATM   22  C   UNK A   1     -13.804 -12.274  -5.614  1.00  0.00     0.191 C 
BRANCH  22  23
HETATM   23  O   UNK A   1     -14.113 -13.584  -6.102  1.00  0.00    -0.399 OA
HETATM   24  H   UNK A   1     -13.276 -14.043  -6.271  1.00  0.00     0.209 HD
ENDBRANCH  22  23
ENDBRANCH   1  22
BRANCH   1  25
HETATM   25  N   UNK A   1     -16.265 -11.879  -5.418  1.00  0.00    -0.352 N 
HETATM   26  C   UNK A   0     -16.965 -10.867  -6.029  1.00  0.00     0.218 C 
HETATM   27  O   UNK A   0     -16.594  -9.691  -6.012  1.00  0.00    -0.274 OA
HETATM   28  H   UNK A   1     -16.761 -12.695  -5.067  1.00  0.00     0.163 HD
BRANCH  26  29
HETATM   29  C   UNK A   0     -18.260 -11.311  -6.694  1.00  0.00     0.103 C 
BRANCH  29  30
HETATM   30  C   UNK A   0     -19.337 -11.470  -5.627  1.00  0.00     0.009 C 
BRANCH  30  31
HETATM   31  C   UNK A   0     -19.948 -10.135  -5.216  1.00  0.00     0.000 C 
BRANCH  31  32
HETATM   32  C   UNK A   0     -21.396 -10.344  -4.776  1.00  0.00     0.000 C 
BRANCH  32  33
HETATM   33  C   UNK A   0     -21.667  -9.647  -3.452  1.00  0.00     0.000 C 
BRANCH  33  34
HETATM   34  C   UNK A   0     -20.506  -8.737  -3.076  1.00  0.00     0.004 C 
BRANCH  34  35
HETATM   35  C   UNK A   0     -21.027  -7.501  -2.352  1.00  0.00     0.027 C 
BRANCH  35  36
HETATM   36  C   UNK A   0     -21.252  -6.385  -3.319  1.00  0.00    -0.031 C 
HETATM   37  C   UNK A   0     -20.933  -6.473  -4.615  1.00  0.00    -0.031 C 
BRANCH  37  38
HETATM   38  C   UNK A   0     -21.154  -5.356  -5.582  1.00  0.00     0.027 C 
BRANCH  38  39
HETATM   39  C   UNK A   0     -20.322  -5.576  -6.843  1.00  0.00     0.004 C 
BRANCH  39  40
HETATM   40  C   UNK A   0     -20.256  -4.291  -7.653  1.00  0.00     0.000 C 
BRANCH  40  41
HETATM   41  C   UNK A   0     -21.646  -3.696  -7.825  1.00  0.00     0.000 C 
BRANCH  41  42
HETATM   42  C   UNK A   0     -22.457  -4.506  -8.827  1.00  0.00     0.000 C 
BRANCH  42  43
HETATM   43  C   UNK A   0     -22.669  -3.709 -10.111  1.00  0.00    -0.000 C 
BRANCH  43  44
HETATM   44  C   UNK A   0     -21.883  -4.316 -11.266  1.00  0.00    -0.005 C 
HETATM   45  C   UNK A   0     -20.464  -3.778 -11.294  1.00  0.00     0.005 C 
ENDBRANCH  43  44
ENDBRANCH  42  43
ENDBRANCH  41  42
ENDBRANCH  40  41
ENDBRANCH  39  40
ENDBRANCH  38  39
ENDBRANCH  37  38
ENDBRANCH  35  36
ENDBRANCH  34  35
ENDBRANCH  33  34
ENDBRANCH  32  33
ENDBRANCH  31  32
ENDBRANCH  30  31
ENDBRANCH  29  30
ENDBRANCH  26  29
ENDBRANCH   1  25
TORSDOF 35
ENDMDL
MODEL 3
REMARK VINA RESULT:      -5.9      1.856      7.794
REMARK WARNING: 32 MAX_TORS EXCEEDED!!!
REMARK  35 active torsions:
REMARK  status: ('A' for Active; 'I' for Inactive)
REMARK    1  A    between atoms: C_2  and  C_3 
REMARK    2  A    between atoms: C_3  and  C_4 
REMARK    3  A    between atoms: C_4  and  C_5 
REMARK    4  A    between atoms: C_5  and  C_6 
REMARK    5  A    between atoms: C_6  and  C_7 
REMARK    6  A    between atoms: C_7  and  C_8 
REMARK    7  A    between atoms: C_8  and  C_9 
REMARK    8  A    between atoms: C_9  and  C_10 
REMARK    9  A    between atoms: C_10  and  C_11 
REMARK   10  A    between atoms: C_11  and  C_12 
REMARK   11  A    between atoms: C_12  and  C_13 
REMARK   12  A    between atoms: C_13  and  C_14 
REMARK   13  A    between atoms: C_14  and  C_15 
REMARK   14  A    between atoms: C_15  and  C_16 
REMARK   15  A    between atoms: C_15  and  O_22 
REMARK   16  A    between atoms: C_16  and  C_17 
REMARK   17  A    between atoms: C_16  and  O_21 
REMARK   18  A    between atoms: C_17  and  C_18 
REMARK   19  A    between atoms: C_17  and  N_20 
REMARK   20  A    between atoms: C_18  and  O_19 
REMARK       I    between atoms: N_20  and  C_27 
REMARK   21  A    between atoms: C_27  and  C_29 
REMARK   22  A    between atoms: C_29  and  C_30 
REMARK   23  A    between atoms: C_30  and  C_31 
REMARK   24  A    between atoms: C_31  and  C_32 
REMARK   25  A    between atoms: C_32  and  C_33 
REMARK   26  A    between atoms: C_33  and  C_34 
REMARK   27  A    between atoms: C_34  and  C_35 
REMARK   28  A    between atoms: C_35  and  C_36 
REMARK   29  A    between atoms: C_37  and  C_38 
REMARK   30  A    between atoms: C_38  and  C_39 
REMARK   31  A    between atoms: C_39  and  C_40 
REMARK   32  A    between atoms: C_40  and  C_41 
REMARK   33  A    between atoms: C_41  and  C_42 
REMARK   34  A    between atoms: C_42  and  C_43 
REMARK   35  A    between atoms: C_43  and  C_44 
ROOT
HETATM    1  C   UNK A   1     -16.696 -12.304  -1.115  1.00  0.00     0.139 C 
ENDROOT
BRANCH   1   2
HETATM    2  C   UNK A   1     -16.411 -11.578  -2.448  1.00  0.00     0.171 C 
BRANCH   2   3
HETATM    3  C   UNK A   1     -17.010 -10.151  -2.516  1.00  0.00     0.149 C 
BRANCH   3   4
HETATM    4  C   UNK A   1     -17.993  -9.903  -3.670  1.00  0.00     0.034 C 
BRANCH   4   5
HETATM    5  C   UNK A   1     -19.295  -9.269  -3.213  1.00  0.00     0.002 C 
BRANCH   5   6
HETATM    6  C   UNK A   1     -20.071  -8.620  -4.338  1.00  0.00     0.000 C 
BRANCH   6   7
HETATM    7  C   UNK A   1     -21.385  -8.097  -3.770  1.00  0.00     0.000 C 
BRANCH   7   8
HETATM    8  C   UNK A   1     -21.335  -6.588  -3.665  1.00  0.00     0.000 C 
BRANCH   8   9
HETATM    9  C   UNK A   1     -21.601  -5.959  -5.021  1.00  0.00     0.000 C 
BRANCH   9  10
HETATM   10  C   UNK A   1     -20.453  -5.041  -5.385  1.00  0.00     0.000 C 
BRANCH  10  11
HETATM   11  C   UNK A   1     -19.698  -5.589  -6.580  1.00  0.00     0.000 C 
BRANCH  11  12
HETATM   12  C   UNK A   1     -20.548  -5.453  -7.831  1.00  0.00     0.000 C 
BRANCH  12  13
HETATM   13  C   UNK A   1     -20.876  -3.991  -8.083  1.00  0.00     0.000 C 
BRANCH  13  14
HETATM   14  C   UNK A   1     -22.340  -3.839  -8.471  1.00  0.00     0.000 C 
BRANCH  14  15
HETATM   15  C   UNK A   1     -22.652  -4.691  -9.693  1.00  0.00    -0.000 C 
BRANCH  15  16
HETATM   16  C   UNK A   1     -22.846  -3.817 -10.926  1.00  0.00    -0.005 C 
HETATM   17  C   UNK A   1     -21.573  -3.763 -11.750  1.00  0.00     0.005 C 
ENDBRANCH  15  16
ENDBRANCH  14  15
ENDBRANCH  13  14
ENDBRANCH  12  13
ENDBRANCH  11  12
ENDBRANCH  10  11
ENDBRANCH   9  10
ENDBRANCH   8   9
ENDBRANCH   7   8
ENDBRANCH   6   7
ENDBRANCH   5   6
ENDBRANCH   4   5
ENDBRANCH   3   4
BRANCH   3  18
HETATM   18  O   UNK A   1     -15.943  -9.210  -2.626  1.00  0.00    -0.393 OA
HETATM   19  H   UNK A   1     -15.800  -9.016  -3.570  1.00  0.00     0.210 HD
ENDBRANCH   3  18
ENDBRANCH   2   3
BRANCH   2  20
HETATM   20  O   UNK A   1     -16.879 -12.484  -3.461  1.00  0.00    -0.391 OA
HETATM   21  H   UNK A   1     -17.752 -12.193  -3.796  1.00  0.00     0.210 HD
ENDBRANCH   2  20
ENDBRANCH   1   2
BRANCH   1  22
HETATM   22  C   UNK A   1     -15.562 -12.091  -0.089  1.00  0.00     0.191 C 
BRANCH  22  23
HETATM   23  O   UNK A   1     -16.011 -11.619   1.185  1.00  0.00    -0.399 OA
HETATM   24  H   UNK A   1     -16.287 -10.696   1.079  1.00  0.00     0.209 HD
ENDBRANCH  22  23
ENDBRANCH   1  22
BRANCH   1  25
HETATM   25  N   UNK A   1     -17.986 -11.799  -0.626  1.00  0.00    -0.352 N 
HETATM   26  C   UNK A   0     -19.035 -12.661  -0.419  1.00  0.00     0.218 C 
HETATM   27  O   UNK A   0     -18.992 -13.855  -0.727  1.00  0.00    -0.274 OA
HETATM   28  H   UNK A   1     -18.169 -10.811  -0.786  1.00  0.00     0.163 HD
BRANCH  26  29
HETATM   29  C   UNK A   0     -20.272 -12.013   0.185  1.00  0.00     0.103 C 
BRANCH  29  30
HETATM   30  C   UNK A   0     -20.036 -10.512   0.309  1.00  0.00     0.009 C 
BRANCH  30  31
HETATM   31  C   UNK A   0     -20.434  -9.972   1.679  1.00  0.00     0.000 C 
BRANCH  31  32
HETATM   32  C   UNK A   0     -21.089  -8.602   1.522  1.00  0.00     0.000 C 
BRANCH  32  33
HETATM   33  C   UNK A   0     -21.201  -8.219   0.055  1.00  0.00     0.000 C 
BRANCH  33  34
HETATM   34  C   UNK A   0     -22.659  -8.041  -0.345  1.00  0.00     0.004 C 
BRANCH  34  35
HETATM   35  C   UNK A   0     -23.530  -9.048   0.397  1.00  0.00     0.027 C 
BRANCH  35  36
HETATM   36  C   UNK A   0     -23.581 -10.342  -0.347  1.00  0.00    -0.031 C 
HETATM   37  C   UNK A   0     -23.083 -10.491  -1.579  1.00  0.00    -0.031 C 
BRANCH  37  38
HETATM   38  C   UNK A   0     -23.138 -11.783  -2.325  1.00  0.00     0.027 C 
BRANCH  38  39
HETATM   39  C   UNK A   0     -22.659 -11.586  -3.762  1.00  0.00     0.004 C 
BRANCH  39  40
HETATM   40  C   UNK A   0     -21.360 -12.344  -3.985  1.00  0.00     0.000 C 
BRANCH  40  41
HETATM   41  C   UNK A   0     -20.790 -12.032  -5.361  1.00  0.00     0.000 C 
BRANCH  41  42
HETATM   42  C   UNK A   0     -21.746 -12.487  -6.455  1.00  0.00     0.000 C 
BRANCH  42  43
HETATM   43  C   UNK A   0     -21.286 -13.816  -7.047  1.00  0.00    -0.000 C 
BRANCH  43  44
HETATM   44  C   UNK A   0     -22.202 -14.954  -6.613  1.00  0.00    -0.005 C 
HETATM   45  C   UNK A   0     -23.547 -14.418  -6.158  1.00  0.00     0.005 C 
ENDBRANCH  43  44
ENDBRANCH  42  43
ENDBRANCH  41  42
ENDBRANCH  40  41
ENDBRANCH  39  40
ENDBRANCH  38  39
ENDBRANCH  37  38
ENDBRANCH  35  36
ENDBRANCH  34  35
ENDBRANCH  33  34
ENDBRANCH  32  33
ENDBRANCH  31  32
ENDBRANCH  30  31
ENDBRANCH  29  30
ENDBRANCH  26  29
ENDBRANCH   1  25
TORSDOF 35
ENDMDL
MODEL 4
REMARK VINA RESULT:      -5.8      9.664     15.593
REMARK WARNING: 32 MAX_TORS EXCEEDED!!!
REMARK  35 active torsions:
REMARK  status: ('A' for Active; 'I' for Inactive)
REMARK    1  A    between atoms: C_2  and  C_3 
REMARK    2  A    between atoms: C_3  and  C_4 
REMARK    3  A    between atoms: C_4  and  C_5 
REMARK    4  A    between atoms: C_5  and  C_6 
REMARK    5  A    between atoms: C_6  and  C_7 
REMARK    6  A    between atoms: C_7  and  C_8 
REMARK    7  A    between atoms: C_8  and  C_9 
REMARK    8  A    between atoms: C_9  and  C_10 
REMARK    9  A    between atoms: C_10  and  C_11 
REMARK   10  A    between atoms: C_11  and  C_12 
REMARK   11  A    between atoms: C_12  and  C_13 
REMARK   12  A    between atoms: C_13  and  C_14 
REMARK   13  A    between atoms: C_14  and  C_15 
REMARK   14  A    between atoms: C_15  and  C_16 
REMARK   15  A    between atoms: C_15  and  O_22 
REMARK   16  A    between atoms: C_16  and  C_17 
REMARK   17  A    between atoms: C_16  and  O_21 
REMARK   18  A    between atoms: C_17  and  C_18 
REMARK   19  A    between atoms: C_17  and  N_20 
REMARK   20  A    between atoms: C_18  and  O_19 
REMARK       I    between atoms: N_20  and  C_27 
REMARK   21  A    between atoms: C_27  and  C_29 
REMARK   22  A    between atoms: C_29  and  C_30 
REMARK   23  A    between atoms: C_30  and  C_31 
REMARK   24  A    between atoms: C_31  and  C_32 
REMARK   25  A    between atoms: C_32  and  C_33 
REMARK   26  A    between atoms: C_33  and  C_34 
REMARK   27  A    between atoms: C_34  and  C_35 
REMARK   28  A    between atoms: C_35  and  C_36 
REMARK   29  A    between atoms: C_37  and  C_38 
REMARK   30  A    between atoms: C_38  and  C_39 
REMARK   31  A    between atoms: C_39  and  C_40 
REMARK   32  A    between atoms: C_40  and  C_41 
REMARK   33  A    between atoms: C_41  and  C_42 
REMARK   34  A    between atoms: C_42  and  C_43 
REMARK   35  A    between atoms: C_43  and  C_44 
ROOT
HETATM    1  C   UNK A   1     -26.528  -6.286 -18.478  1.00  0.00     0.139 C 
ENDROOT
BRANCH   1   2
HETATM    2  C   UNK A   1     -25.570  -6.881 -17.423  1.00  0.00     0.171 C 
BRANCH   2   3
HETATM    3  C   UNK A   1     -25.943  -6.505 -15.967  1.00  0.00     0.149 C 
BRANCH   3   4
HETATM    4  C   UNK A   1     -24.757  -6.174 -15.048  1.00  0.00     0.034 C 
BRANCH   4   5
HETATM    5  C   UNK A   1     -24.971  -4.906 -14.238  1.00  0.00     0.002 C 
BRANCH   5   6
HETATM    6  C   UNK A   1     -23.918  -4.694 -13.172  1.00  0.00     0.000 C 
BRANCH   6   7
HETATM    7  C   UNK A   1     -24.255  -3.411 -12.422  1.00  0.00     0.000 C 
BRANCH   7   8
HETATM    8  C   UNK A   1     -22.987  -2.634 -12.137  1.00  0.00     0.000 C 
BRANCH   8   9
HETATM    9  C   UNK A   1     -21.777  -3.542 -12.254  1.00  0.00     0.000 C 
BRANCH   9  10
HETATM   10  C   UNK A   1     -20.804  -3.234 -11.134  1.00  0.00     0.000 C 
BRANCH  10  11
HETATM   11  C   UNK A   1     -20.282  -4.519 -10.522  1.00  0.00     0.000 C 
BRANCH  11  12
HETATM   12  C   UNK A   1     -20.283  -4.403  -9.007  1.00  0.00     0.000 C 
BRANCH  12  13
HETATM   13  C   UNK A   1     -21.624  -3.877  -8.525  1.00  0.00     0.000 C 
BRANCH  13  14
HETATM   14  C   UNK A   1     -21.913  -4.384  -7.119  1.00  0.00     0.000 C 
BRANCH  14  15
HETATM   15  C   UNK A   1     -20.617  -4.526  -6.333  1.00  0.00    -0.000 C 
BRANCH  15  16
HETATM   16  C   UNK A   1     -20.624  -5.806  -5.508  1.00  0.00    -0.005 C 
HETATM   17  C   UNK A   1     -22.045  -6.266  -5.242  1.00  0.00     0.005 C 
ENDBRANCH  15  16
ENDBRANCH  14  15
ENDBRANCH  13  14
ENDBRANCH  12  13
ENDBRANCH  11  12
ENDBRANCH  10  11
ENDBRANCH   9  10
ENDBRANCH   8   9
ENDBRANCH   7   8
ENDBRANCH   6   7
ENDBRANCH   5   6
ENDBRANCH   4   5
ENDBRANCH   3   4
BRANCH   3  18
HETATM   18  O   UNK A   1     -26.672  -7.585 -15.386  1.00  0.00    -0.393 OA
HETATM   19  H   UNK A   1     -27.623  -7.390 -15.462  1.00  0.00     0.210 HD
ENDBRANCH   3  18
ENDBRANCH   2   3
BRANCH   2  20
HETATM   20  O   UNK A   1     -24.262  -6.462 -17.845  1.00  0.00    -0.391 OA
HETATM   21  H   UNK A   1     -23.595  -7.132 -17.590  1.00  0.00     0.210 HD
ENDBRANCH   2  20
ENDBRANCH   1   2
BRANCH   1  22
HETATM   22  C   UNK A   1     -26.152  -6.723 -19.911  1.00  0.00     0.191 C 
BRANCH  22  23
HETATM   23  O   UNK A   1     -25.270  -7.849 -19.963  1.00  0.00    -0.399 OA
HETATM   24  H   UNK A   1     -24.838  -7.847 -20.830  1.00  0.00     0.209 HD
ENDBRANCH  22  23
ENDBRANCH   1  22
BRANCH   1  25
HETATM   25  N   UNK A   1     -27.884  -6.715 -18.107  1.00  0.00    -0.352 N 
HETATM   26  C   UNK A   0     -28.976  -5.978 -18.498  1.00  0.00     0.218 C 
HETATM   27  O   UNK A   0     -28.879  -4.889 -19.069  1.00  0.00    -0.274 OA
HETATM   28  H   UNK A   1     -27.954  -7.331 -17.300  1.00  0.00     0.163 HD
BRANCH  26  29
HETATM   29  C   UNK A   0     -30.316  -6.598 -18.131  1.00  0.00     0.103 C 
BRANCH  29  30
HETATM   30  C   UNK A   0     -30.796  -5.999 -16.814  1.00  0.00     0.009 C 
BRANCH  30  31
HETATM   31  C   UNK A   0     -31.344  -4.586 -16.984  1.00  0.00     0.000 C 
BRANCH  31  32
HETATM   32  C   UNK A   0     -32.856  -4.590 -16.773  1.00  0.00     0.000 C 
BRANCH  32  33
HETATM   33  C   UNK A   0     -33.467  -3.265 -17.204  1.00  0.00     0.000 C 
BRANCH  33  34
HETATM   34  C   UNK A   0     -34.578  -2.850 -16.250  1.00  0.00     0.004 C 
BRANCH  34  35
HETATM   35  C   UNK A   0     -35.307  -1.629 -16.800  1.00  0.00     0.027 C 
BRANCH  35  36
HETATM   36  C   UNK A   0     -35.463  -0.592 -15.736  1.00  0.00    -0.031 C 
HETATM   37  C   UNK A   0     -35.403  -0.877 -14.430  1.00  0.00    -0.031 C 
BRANCH  37  38
HETATM   38  C   UNK A   0     -35.564   0.159 -13.366  1.00  0.00     0.027 C 
BRANCH  38  39
HETATM   39  C   UNK A   0     -35.287  -0.447 -11.992  1.00  0.00     0.004 C 
BRANCH  39  40
HETATM   40  C   UNK A   0     -34.753  -1.861 -12.146  1.00  0.00     0.000 C 
BRANCH  40  41
HETATM   41  C   UNK A   0     -33.644  -2.126 -11.138  1.00  0.00     0.000 C 
BRANCH  41  42
HETATM   42  C   UNK A   0     -33.178  -3.573 -11.221  1.00  0.00     0.000 C 
BRANCH  42  43
HETATM   43  C   UNK A   0     -34.216  -4.505 -10.601  1.00  0.00    -0.000 C 
BRANCH  43  44
HETATM   44  C   UNK A   0     -33.936  -5.956 -10.970  1.00  0.00    -0.005 C 
HETATM   45  C   UNK A   0     -34.638  -6.902 -10.012  1.00  0.00     0.005 C 
ENDBRANCH  43  44
ENDBRANCH  42  43
ENDBRANCH  41  42
ENDBRANCH  40  41
ENDBRANCH  39  40
ENDBRANCH  38  39
ENDBRANCH  37  38
ENDBRANCH  35  36
ENDBRANCH  34  35
ENDBRANCH  33  34
ENDBRANCH  32  33
ENDBRANCH  31  32
ENDBRANCH  30  31
ENDBRANCH  29  30
ENDBRANCH  26  29
ENDBRANCH   1  25
TORSDOF 35
ENDMDL
MODEL 5
REMARK VINA RESULT:      -5.8      1.514      8.941
REMARK WARNING: 32 MAX_TORS EXCEEDED!!!
REMARK  35 active torsions:
REMARK  status: ('A' for Active; 'I' for Inactive)
REMARK    1  A    between atoms: C_2  and  C_3 
REMARK    2  A    between atoms: C_3  and  C_4 
REMARK    3  A    between atoms: C_4  and  C_5 
REMARK    4  A    between atoms: C_5  and  C_6 
REMARK    5  A    between atoms: C_6  and  C_7 
REMARK    6  A    between atoms: C_7  and  C_8 
REMARK    7  A    between atoms: C_8  and  C_9 
REMARK    8  A    between atoms: C_9  and  C_10 
REMARK    9  A    between atoms: C_10  and  C_11 
REMARK   10  A    between atoms: C_11  and  C_12 
REMARK   11  A    between atoms: C_12  and  C_13 
REMARK   12  A    between atoms: C_13  and  C_14 
REMARK   13  A    between atoms: C_14  and  C_15 
REMARK   14  A    between atoms: C_15  and  C_16 
REMARK   15  A    between atoms: C_15  and  O_22 
REMARK   16  A    between atoms: C_16  and  C_17 
REMARK   17  A    between atoms: C_16  and  O_21 
REMARK   18  A    between atoms: C_17  and  C_18 
REMARK   19  A    between atoms: C_17  and  N_20 
REMARK   20  A    between atoms: C_18  and  O_19 
REMARK       I    between atoms: N_20  and  C_27 
REMARK   21  A    between atoms: C_27  and  C_29 
REMARK   22  A    between atoms: C_29  and  C_30 
REMARK   23  A    between atoms: C_30  and  C_31 
REMARK   24  A    between atoms: C_31  and  C_32 
REMARK   25  A    between atoms: C_32  and  C_33 
REMARK   26  A    between atoms: C_33  and  C_34 
REMARK   27  A    between atoms: C_34  and  C_35 
REMARK   28  A    between atoms: C_35  and  C_36 
REMARK   29  A    between atoms: C_37  and  C_38 
REMARK   30  A    between atoms: C_38  and  C_39 
REMARK   31  A    between atoms: C_39  and  C_40 
REMARK   32  A    between atoms: C_40  and  C_41 
REMARK   33  A    between atoms: C_41  and  C_42 
REMARK   34  A    between atoms: C_42  and  C_43 
REMARK   35  A    between atoms: C_43  and  C_44 
ROOT
HETATM    1  C   UNK A   1     -17.472 -10.792  -4.992  1.00  0.00     0.139 C 
ENDROOT
BRANCH   1   2
HETATM    2  C   UNK A   1     -18.281  -9.886  -4.039  1.00  0.00     0.171 C 
BRANCH   2   3
HETATM    3  C   UNK A   1     -19.176  -8.857  -4.773  1.00  0.00     0.149 C 
BRANCH   3   4
HETATM    4  C   UNK A   1     -20.679  -9.176  -4.777  1.00  0.00     0.034 C 
BRANCH   4   5
HETATM    5  C   UNK A   1     -21.545  -7.946  -4.562  1.00  0.00     0.002 C 
BRANCH   5   6
HETATM    6  C   UNK A   1     -21.353  -6.886  -5.625  1.00  0.00     0.000 C 
BRANCH   6   7
HETATM    7  C   UNK A   1     -20.919  -5.598  -4.937  1.00  0.00     0.000 C 
BRANCH   7   8
HETATM    8  C   UNK A   1     -20.324  -4.647  -5.954  1.00  0.00     0.000 C 
BRANCH   8   9
HETATM    9  C   UNK A   1     -21.317  -4.385  -7.071  1.00  0.00     0.000 C 
BRANCH   9  10
HETATM   10  C   UNK A   1     -20.568  -4.043  -8.343  1.00  0.00     0.000 C 
BRANCH  10  11
HETATM   11  C   UNK A   1     -21.481  -4.181  -9.545  1.00  0.00     0.000 C 
BRANCH  11  12
HETATM   12  C   UNK A   1     -22.910  -4.405  -9.082  1.00  0.00     0.000 C 
BRANCH  12  13
HETATM   13  C   UNK A   1     -23.844  -4.458 -10.279  1.00  0.00     0.000 C 
BRANCH  13  14
HETATM   14  C   UNK A   1     -23.626  -3.245 -11.172  1.00  0.00     0.000 C 
BRANCH  14  15
HETATM   15  C   UNK A   1     -23.991  -3.579 -12.611  1.00  0.00    -0.000 C 
BRANCH  15  16
HETATM   16  C   UNK A   1     -23.786  -2.370 -13.515  1.00  0.00    -0.005 C 
HETATM   17  C   UNK A   1     -22.867  -2.714 -14.672  1.00  0.00     0.005 C 
ENDBRANCH  15  16
ENDBRANCH  14  15
ENDBRANCH  13  14
ENDBRANCH  12  13
ENDBRANCH  11  12
ENDBRANCH  10  11
ENDBRANCH   9  10
ENDBRANCH   8   9
ENDBRANCH   7   8
ENDBRANCH   6   7
ENDBRANCH   5   6
ENDBRANCH   4   5
ENDBRANCH   3   4
BRANCH   3  18
HETATM   18  O   UNK A   1     -18.738  -8.751  -6.127  1.00  0.00    -0.393 OA
HETATM   19  H   UNK A   1     -18.363  -9.608  -6.397  1.00  0.00     0.210 HD
ENDBRANCH   3  18
ENDBRANCH   2   3
BRANCH   2  20
HETATM   20  O   UNK A   1     -17.297  -9.318  -3.158  1.00  0.00    -0.391 OA
HETATM   21  H   UNK A   1     -17.731  -8.952  -2.360  1.00  0.00     0.210 HD
ENDBRANCH   2  20
ENDBRANCH   1   2
BRANCH   1  22
HETATM   22  C   UNK A   1     -16.137 -11.246  -4.363  1.00  0.00     0.191 C 
BRANCH  22  23
HETATM   23  O   UNK A   1     -16.290 -12.038  -3.181  1.00  0.00    -0.399 OA
HETATM   24  H   UNK A   1     -15.665 -11.708  -2.519  1.00  0.00     0.209 HD
ENDBRANCH  22  23
ENDBRANCH   1  22
BRANCH   1  25
HETATM   25  N   UNK A   1     -18.339 -11.930  -5.330  1.00  0.00    -0.352 N 
HETATM   26  C   UNK A   0     -18.782 -12.106  -6.618  1.00  0.00     0.218 C 
HETATM   27  O   UNK A   0     -18.577 -11.285  -7.515  1.00  0.00    -0.274 OA
HETATM   28  H   UNK A   1     -18.857 -12.343  -4.557  1.00  0.00     0.163 HD
BRANCH  26  29
HETATM   29  C   UNK A   0     -19.584 -13.380  -6.838  1.00  0.00     0.103 C 
BRANCH  29  30
HETATM   30  C   UNK A   0     -20.879 -13.033  -7.564  1.00  0.00     0.009 C 
BRANCH  30  31
HETATM   31  C   UNK A   0     -21.745 -12.060  -6.772  1.00  0.00     0.000 C 
BRANCH  31  32
HETATM   32  C   UNK A   0     -22.732 -12.837  -5.904  1.00  0.00     0.000 C 
BRANCH  32  33
HETATM   33  C   UNK A   0     -22.421 -12.649  -4.428  1.00  0.00     0.000 C 
BRANCH  33  34
HETATM   34  C   UNK A   0     -21.627 -13.830  -3.890  1.00  0.00     0.004 C 
BRANCH  34  35
HETATM   35  C   UNK A   0     -20.503 -13.335  -2.988  1.00  0.00     0.027 C 
BRANCH  35  36
HETATM   36  C   UNK A   0     -20.877 -12.035  -2.353  1.00  0.00    -0.031 C 
HETATM   37  C   UNK A   0     -20.177 -11.487  -1.354  1.00  0.00    -0.031 C 
BRANCH  37  38
HETATM   38  C   UNK A   0     -20.552 -10.190  -0.717  1.00  0.00     0.027 C 
BRANCH  38  39
HETATM   39  C   UNK A   0     -21.924  -9.735  -1.211  1.00  0.00     0.004 C 
BRANCH  39  40
HETATM   40  C   UNK A   0     -22.854  -9.515  -0.030  1.00  0.00     0.000 C 
BRANCH  40  41
HETATM   41  C   UNK A   0     -24.055 -10.445  -0.116  1.00  0.00     0.000 C 
BRANCH  41  42
HETATM   42  C   UNK A   0     -23.641 -11.884   0.163  1.00  0.00     0.000 C 
BRANCH  42  43
HETATM   43  C   UNK A   0     -24.056 -12.792  -0.992  1.00  0.00    -0.000 C 
BRANCH  43  44
HETATM   44  C   UNK A   0     -23.546 -14.212  -0.780  1.00  0.00    -0.005 C 
HETATM   45  C   UNK A   0     -24.698 -15.200  -0.754  1.00  0.00     0.005 C 
ENDBRANCH  43  44
ENDBRANCH  42  43
ENDBRANCH  41  42
ENDBRANCH  40  41
ENDBRANCH  39  40
ENDBRANCH  38  39
ENDBRANCH  37  38
ENDBRANCH  35  36
ENDBRANCH  34  35
ENDBRANCH  33  34
ENDBRANCH  32  33
ENDBRANCH  31  32
ENDBRANCH  30  31
ENDBRANCH  29  30
ENDBRANCH  26  29
ENDBRANCH   1  25
TORSDOF 35
ENDMDL
MODEL 6
REMARK VINA RESULT:      -5.8      2.362      5.594
REMARK WARNING: 32 MAX_TORS EXCEEDED!!!
REMARK  35 active torsions:
REMARK  status: ('A' for Active; 'I' for Inactive)
REMARK    1  A    between atoms: C_2  and  C_3 
REMARK    2  A    between atoms: C_3  and  C_4 
REMARK    3  A    between atoms: C_4  and  C_5 
REMARK    4  A    between atoms: C_5  and  C_6 
REMARK    5  A    between atoms: C_6  and  C_7 
REMARK    6  A    between atoms: C_7  and  C_8 
REMARK    7  A    between atoms: C_8  and  C_9 
REMARK    8  A    between atoms: C_9  and  C_10 
REMARK    9  A    between atoms: C_10  and  C_11 
REMARK   10  A    between atoms: C_11  and  C_12 
REMARK   11  A    between atoms: C_12  and  C_13 
REMARK   12  A    between atoms: C_13  and  C_14 
REMARK   13  A    between atoms: C_14  and  C_15 
REMARK   14  A    between atoms: C_15  and  C_16 
REMARK   15  A    between atoms: C_15  and  O_22 
REMARK   16  A    between atoms: C_16  and  C_17 
REMARK   17  A    between atoms: C_16  and  O_21 
REMARK   18  A    between atoms: C_17  and  C_18 
REMARK   19  A    between atoms: C_17  and  N_20 
REMARK   20  A    between atoms: C_18  and  O_19 
REMARK       I    between atoms: N_20  and  C_27 
REMARK   21  A    between atoms: C_27  and  C_29 
REMARK   22  A    between atoms: C_29  and  C_30 
REMARK   23  A    between atoms: C_30  and  C_31 
REMARK   24  A    between atoms: C_31  and  C_32 
REMARK   25  A    between atoms: C_32  and  C_33 
REMARK   26  A    between atoms: C_33  and  C_34 
REMARK   27  A    between atoms: C_34  and  C_35 
REMARK   28  A    between atoms: C_35  and  C_36 
REMARK   29  A    between atoms: C_37  and  C_38 
REMARK   30  A    between atoms: C_38  and  C_39 
REMARK   31  A    between atoms: C_39  and  C_40 
REMARK   32  A    between atoms: C_40  and  C_41 
REMARK   33  A    between atoms: C_41  and  C_42 
REMARK   34  A    between atoms: C_42  and  C_43 
REMARK   35  A    between atoms: C_43  and  C_44 
ROOT
HETATM    1  C   UNK A   1     -17.198 -13.093  -0.049  1.00  0.00     0.139 C 
ENDROOT
BRANCH   1   2
HETATM    2  C   UNK A   1     -16.178 -13.322  -1.186  1.00  0.00     0.171 C 
BRANCH   2   3
HETATM    3  C   UNK A   1     -16.666 -14.323  -2.263  1.00  0.00     0.149 C 
BRANCH   3   4
HETATM    4  C   UNK A   1     -16.396 -13.909  -3.717  1.00  0.00     0.034 C 
BRANCH   4   5
HETATM    5  C   UNK A   1     -17.411 -14.480  -4.694  1.00  0.00     0.002 C 
BRANCH   5   6
HETATM    6  C   UNK A   1     -17.646 -13.592  -5.897  1.00  0.00     0.000 C 
BRANCH   6   7
HETATM    7  C   UNK A   1     -16.305 -13.008  -6.325  1.00  0.00     0.000 C 
BRANCH   7   8
HETATM    8  C   UNK A   1     -16.394 -11.497  -6.369  1.00  0.00     0.000 C 
BRANCH   8   9
HETATM    9  C   UNK A   1     -15.249 -10.881  -5.585  1.00  0.00     0.000 C 
BRANCH   9  10
HETATM   10  C   UNK A   1     -15.776  -9.753  -4.723  1.00  0.00     0.000 C 
BRANCH  10  11
HETATM   11  C   UNK A   1     -16.484 -10.308  -3.503  1.00  0.00     0.000 C 
BRANCH  11  12
HETATM   12  C   UNK A   1     -17.698  -9.455  -3.180  1.00  0.00     0.000 C 
BRANCH  12  13
HETATM   13  C   UNK A   1     -18.630  -9.399  -4.379  1.00  0.00     0.000 C 
BRANCH  13  14
HETATM   14  C   UNK A   1     -19.449 -10.678  -4.469  1.00  0.00     0.000 C 
BRANCH  14  15
HETATM   15  C   UNK A   1     -20.853 -10.370  -4.969  1.00  0.00    -0.000 C 
BRANCH  15  16
HETATM   16  C   UNK A   1     -21.852 -11.389  -4.436  1.00  0.00    -0.005 C 
HETATM   17  C   UNK A   1     -22.730 -10.769  -3.364  1.00  0.00     0.005 C 
ENDBRANCH  15  16
ENDBRANCH  14  15
ENDBRANCH  13  14
ENDBRANCH  12  13
ENDBRANCH  11  12
ENDBRANCH  10  11
ENDBRANCH   9  10
ENDBRANCH   8   9
ENDBRANCH   7   8
ENDBRANCH   6   7
ENDBRANCH   5   6
ENDBRANCH   4   5
ENDBRANCH   3   4
BRANCH   3  18
HETATM   18  O   UNK A   1     -18.071 -14.518  -2.106  1.00  0.00    -0.393 OA
HETATM   19  H   UNK A   1     -18.334 -15.295  -2.631  1.00  0.00     0.210 HD
ENDBRANCH   3  18
ENDBRANCH   2   3
BRANCH   2  20
HETATM   20  O   UNK A   1     -14.964 -13.695  -0.514  1.00  0.00    -0.391 OA
HETATM   21  H   UNK A   1     -14.208 -13.650  -1.134  1.00  0.00     0.210 HD
ENDBRANCH   2  20
ENDBRANCH   1   2
BRANCH   1  22
HETATM   22  C   UNK A   1     -16.503 -12.860   1.311  1.00  0.00     0.191 C 
BRANCH  22  23
HETATM   23  O   UNK A   1     -15.924 -11.559   1.453  1.00  0.00    -0.399 OA
HETATM   24  H   UNK A   1     -16.630 -10.946   1.704  1.00  0.00     0.209 HD
ENDBRANCH  22  23
ENDBRANCH   1  22
BRANCH   1  25
HETATM   25  N   UNK A   1     -18.027 -11.948  -0.450  1.00  0.00    -0.352 N 
HETATM   26  C   UNK A   0     -19.397 -12.028  -0.386  1.00  0.00     0.218 C 
HETATM   27  O   UNK A   0     -19.995 -13.070  -0.104  1.00  0.00    -0.274 OA
HETATM   28  H   UNK A   1     -17.590 -11.276  -1.076  1.00  0.00     0.163 HD
BRANCH  26  29
HETATM   29  C   UNK A   0     -20.119 -10.735  -0.733  1.00  0.00     0.103 C 
BRANCH  29  30
HETATM   30  C   UNK A   0     -21.244 -10.509   0.271  1.00  0.00     0.009 C 
BRANCH  30  31
HETATM   31  C   UNK A   0     -20.829  -9.583   1.409  1.00  0.00     0.000 C 
BRANCH  31  32
HETATM   32  C   UNK A   0     -21.506  -8.224   1.241  1.00  0.00     0.000 C 
BRANCH  32  33
HETATM   33  C   UNK A   0     -22.563  -8.276   0.149  1.00  0.00     0.000 C 
BRANCH  33  34
HETATM   34  C   UNK A   0     -22.354  -7.154  -0.857  1.00  0.00     0.004 C 
BRANCH  34  35
HETATM   35  C   UNK A   0     -21.026  -7.343  -1.580  1.00  0.00     0.027 C 
BRANCH  35  36
HETATM   36  C   UNK A   0     -21.235  -7.368  -3.059  1.00  0.00    -0.031 C 
HETATM   37  C   UNK A   0     -21.917  -6.420  -3.712  1.00  0.00    -0.031 C 
BRANCH  37  38
HETATM   38  C   UNK A   0     -22.130  -6.447  -5.190  1.00  0.00     0.027 C 
BRANCH  38  39
HETATM   39  C   UNK A   0     -20.807  -6.694  -5.911  1.00  0.00     0.004 C 
BRANCH  39  40
HETATM   40  C   UNK A   0     -20.235  -5.378  -6.413  1.00  0.00     0.000 C 
BRANCH  40  41
HETATM   41  C   UNK A   0     -21.314  -4.555  -7.103  1.00  0.00     0.000 C 
BRANCH  41  42
HETATM   42  C   UNK A   0     -21.550  -5.059  -8.520  1.00  0.00     0.000 C 
BRANCH  42  43
HETATM   43  C   UNK A   0     -21.807  -3.889  -9.466  1.00  0.00    -0.000 C 
BRANCH  43  44
HETATM   44  C   UNK A   0     -22.996  -4.175 -10.375  1.00  0.00    -0.005 C 
HETATM   45  C   UNK A   0     -24.304  -3.889  -9.659  1.00  0.00     0.005 C 
ENDBRANCH  43  44
ENDBRANCH  42  43
ENDBRANCH  41  42
ENDBRANCH  40  41
ENDBRANCH  39  40
ENDBRANCH  38  39
ENDBRANCH  37  38
ENDBRANCH  35  36
ENDBRANCH  34  35
ENDBRANCH  33  34
ENDBRANCH  32  33
ENDBRANCH  31  32
ENDBRANCH  30  31
ENDBRANCH  29  30
ENDBRANCH  26  29
ENDBRANCH   1  25
TORSDOF 35
ENDMDL
MODEL 7
REMARK VINA RESULT:      -5.7      1.838      4.982
REMARK WARNING: 32 MAX_TORS EXCEEDED!!!
REMARK  35 active torsions:
REMARK  status: ('A' for Active; 'I' for Inactive)
REMARK    1  A    between atoms: C_2  and  C_3 
REMARK    2  A    between atoms: C_3  and  C_4 
REMARK    3  A    between atoms: C_4  and  C_5 
REMARK    4  A    between atoms: C_5  and  C_6 
REMARK    5  A    between atoms: C_6  and  C_7 
REMARK    6  A    between atoms: C_7  and  C_8 
REMARK    7  A    between atoms: C_8  and  C_9 
REMARK    8  A    between atoms: C_9  and  C_10 
REMARK    9  A    between atoms: C_10  and  C_11 
REMARK   10  A    between atoms: C_11  and  C_12 
REMARK   11  A    between atoms: C_12  and  C_13 
REMARK   12  A    between atoms: C_13  and  C_14 
REMARK   13  A    between atoms: C_14  and  C_15 
REMARK   14  A    between atoms: C_15  and  C_16 
REMARK   15  A    between atoms: C_15  and  O_22 
REMARK   16  A    between atoms: C_16  and  C_17 
REMARK   17  A    between atoms: C_16  and  O_21 
REMARK   18  A    between atoms: C_17  and  C_18 
REMARK   19  A    between atoms: C_17  and  N_20 
REMARK   20  A    between atoms: C_18  and  O_19 
REMARK       I    between atoms: N_20  and  C_27 
REMARK   21  A    between atoms: C_27  and  C_29 
REMARK   22  A    between atoms: C_29  and  C_30 
REMARK   23  A    between atoms: C_30  and  C_31 
REMARK   24  A    between atoms: C_31  and  C_32 
REMARK   25  A    between atoms: C_32  and  C_33 
REMARK   26  A    between atoms: C_33  and  C_34 
REMARK   27  A    between atoms: C_34  and  C_35 
REMARK   28  A    between atoms: C_35  and  C_36 
REMARK   29  A    between atoms: C_37  and  C_38 
REMARK   30  A    between atoms: C_38  and  C_39 
REMARK   31  A    between atoms: C_39  and  C_40 
REMARK   32  A    between atoms: C_40  and  C_41 
REMARK   33  A    between atoms: C_41  and  C_42 
REMARK   34  A    between atoms: C_42  and  C_43 
REMARK   35  A    between atoms: C_43  and  C_44 
ROOT
HETATM    1  C   UNK A   1     -20.255 -12.836  -6.420  1.00  0.00     0.139 C 
ENDROOT
BRANCH   1   2
HETATM    2  C   UNK A   1     -18.797 -12.578  -6.860  1.00  0.00     0.171 C 
BRANCH   2   3
HETATM    3  C   UNK A   1     -17.844 -12.250  -5.683  1.00  0.00     0.149 C 
BRANCH   3   4
HETATM    4  C   UNK A   1     -16.521 -11.575  -6.075  1.00  0.00     0.034 C 
BRANCH   4   5
HETATM    5  C   UNK A   1     -16.502 -10.087  -5.769  1.00  0.00     0.002 C 
BRANCH   5   6
HETATM    6  C   UNK A   1     -17.437  -9.697  -4.644  1.00  0.00     0.000 C 
BRANCH   6   7
HETATM    7  C   UNK A   1     -16.621  -9.600  -3.361  1.00  0.00     0.000 C 
BRANCH   7   8
HETATM    8  C   UNK A   1     -17.069 -10.668  -2.385  1.00  0.00     0.000 C 
BRANCH   8   9
HETATM    9  C   UNK A   1     -15.903 -11.107  -1.518  1.00  0.00     0.000 C 
BRANCH   9  10
HETATM   10  C   UNK A   1     -16.227 -12.441  -0.876  1.00  0.00     0.000 C 
BRANCH  10  11
HETATM   11  C   UNK A   1     -17.107 -12.240   0.342  1.00  0.00     0.000 C 
BRANCH  11  12
HETATM   12  C   UNK A   1     -18.290 -13.190   0.284  1.00  0.00     0.000 C 
BRANCH  12  13
HETATM   13  C   UNK A   1     -19.531 -12.449  -0.183  1.00  0.00     0.000 C 
BRANCH  13  14
HETATM   14  C   UNK A   1     -20.763 -13.328  -0.019  1.00  0.00     0.000 C 
BRANCH  14  15
HETATM   15  C   UNK A   1     -21.530 -12.932   1.235  1.00  0.00    -0.000 C 
BRANCH  15  16
HETATM   16  C   UNK A   1     -23.029 -13.102   1.027  1.00  0.00    -0.005 C 
HETATM   17  C   UNK A   1     -23.649 -13.863   2.184  1.00  0.00     0.005 C 
ENDBRANCH  15  16
ENDBRANCH  14  15
ENDBRANCH  13  14
ENDBRANCH  12  13
ENDBRANCH  11  12
ENDBRANCH  10  11
ENDBRANCH   9  10
ENDBRANCH   8   9
ENDBRANCH   7   8
ENDBRANCH   6   7
ENDBRANCH   5   6
ENDBRANCH   4   5
ENDBRANCH   3   4
BRANCH   3  18
HETATM   18  O   UNK A   1     -17.541 -13.459  -4.988  1.00  0.00    -0.393 OA
HETATM   19  H   UNK A   1     -16.921 -13.251  -4.266  1.00  0.00     0.210 HD
ENDBRANCH   3  18
ENDBRANCH   2   3
BRANCH   2  20
HETATM   20  O   UNK A   1     -18.898 -11.555  -7.865  1.00  0.00    -0.391 OA
HETATM   21  H   UNK A   1     -18.017 -11.163  -8.037  1.00  0.00     0.210 HD
ENDBRANCH   2  20
ENDBRANCH   1   2
BRANCH   1  22
HETATM   22  C   UNK A   1     -20.588 -14.344  -6.385  1.00  0.00     0.191 C 
BRANCH  22  23
HETATM   23  O   UNK A   1     -19.476 -15.193  -6.689  1.00  0.00    -0.399 OA
HETATM   24  H   UNK A   1     -19.480 -15.358  -7.643  1.00  0.00     0.209 HD
ENDBRANCH  22  23
ENDBRANCH   1  22
BRANCH   1  25
HETATM   25  N   UNK A   1     -20.417 -12.204  -5.103  1.00  0.00    -0.352 N 
HETATM   26  C   UNK A   0     -20.917 -10.928  -5.003  1.00  0.00     0.218 C 
HETATM   27  O   UNK A   0     -21.147 -10.220  -5.986  1.00  0.00    -0.274 OA
HETATM   28  H   UNK A   1     -19.843 -12.581  -4.352  1.00  0.00     0.163 HD
BRANCH  26  29
HETATM   29  C   UNK A   0     -21.124 -10.445  -3.576  1.00  0.00     0.103 C 
BRANCH  29  30
HETATM   30  C   UNK A   0     -22.068 -11.404  -2.859  1.00  0.00     0.009 C 
BRANCH  30  31
HETATM   31  C   UNK A   0     -22.890 -10.710  -1.777  1.00  0.00     0.000 C 
BRANCH  31  32
HETATM   32  C   UNK A   0     -21.978  -9.844  -0.912  1.00  0.00     0.000 C 
BRANCH  32  33
HETATM   33  C   UNK A   0     -22.793  -8.915  -0.026  1.00  0.00     0.000 C 
BRANCH  33  34
HETATM   34  C   UNK A   0     -22.535  -7.460  -0.392  1.00  0.00     0.004 C 
BRANCH  34  35
HETATM   35  C   UNK A   0     -21.383  -7.369  -1.386  1.00  0.00     0.027 C 
BRANCH  35  36
HETATM   36  C   UNK A   0     -21.803  -6.611  -2.603  1.00  0.00    -0.031 C 
HETATM   37  C   UNK A   0     -21.642  -7.084  -3.844  1.00  0.00    -0.031 C 
BRANCH  37  38
HETATM   38  C   UNK A   0     -22.058  -6.325  -5.061  1.00  0.00     0.027 C 
BRANCH  38  39
HETATM   39  C   UNK A   0     -20.891  -6.213  -6.040  1.00  0.00     0.004 C 
BRANCH  39  40
HETATM   40  C   UNK A   0     -20.283  -4.822  -5.965  1.00  0.00     0.000 C 
BRANCH  40  41
HETATM   41  C   UNK A   0     -20.768  -3.964  -7.124  1.00  0.00     0.000 C 
BRANCH  41  42
HETATM   42  C   UNK A   0     -21.219  -4.837  -8.287  1.00  0.00     0.000 C 
BRANCH  42  43
HETATM   43  C   UNK A   0     -22.174  -4.066  -9.194  1.00  0.00    -0.000 C 
BRANCH  43  44
HETATM   44  C   UNK A   0     -21.852  -4.314 -10.662  1.00  0.00    -0.005 C 
HETATM   45  C   UNK A   0     -20.525  -3.679 -11.038  1.00  0.00     0.005 C 
ENDBRANCH  43  44
ENDBRANCH  42  43
ENDBRANCH  41  42
ENDBRANCH  40  41
ENDBRANCH  39  40
ENDBRANCH  38  39
ENDBRANCH  37  38
ENDBRANCH  35  36
ENDBRANCH  34  35
ENDBRANCH  33  34
ENDBRANCH  32  33
ENDBRANCH  31  32
ENDBRANCH  30  31
ENDBRANCH  29  30
ENDBRANCH  26  29
ENDBRANCH   1  25
TORSDOF 35
ENDMDL
MODEL 8
REMARK VINA RESULT:      -5.7      1.652      8.026
REMARK WARNING: 32 MAX_TORS EXCEEDED!!!
REMARK  35 active torsions:
REMARK  status: ('A' for Active; 'I' for Inactive)
REMARK    1  A    between atoms: C_2  and  C_3 
REMARK    2  A    between atoms: C_3  and  C_4 
REMARK    3  A    between atoms: C_4  and  C_5 
REMARK    4  A    between atoms: C_5  and  C_6 
REMARK    5  A    between atoms: C_6  and  C_7 
REMARK    6  A    between atoms: C_7  and  C_8 
REMARK    7  A    between atoms: C_8  and  C_9 
REMARK    8  A    between atoms: C_9  and  C_10 
REMARK    9  A    between atoms: C_10  and  C_11 
REMARK   10  A    between atoms: C_11  and  C_12 
REMARK   11  A    between atoms: C_12  and  C_13 
REMARK   12  A    between atoms: C_13  and  C_14 
REMARK   13  A    between atoms: C_14  and  C_15 
REMARK   14  A    between atoms: C_15  and  C_16 
REMARK   15  A    between atoms: C_15  and  O_22 
REMARK   16  A    between atoms: C_16  and  C_17 
REMARK   17  A    between atoms: C_16  and  O_21 
REMARK   18  A    between atoms: C_17  and  C_18 
REMARK   19  A    between atoms: C_17  and  N_20 
REMARK   20  A    between atoms: C_18  and  O_19 
REMARK       I    between atoms: N_20  and  C_27 
REMARK   21  A    between atoms: C_27  and  C_29 
REMARK   22  A    between atoms: C_29  and  C_30 
REMARK   23  A    between atoms: C_30  and  C_31 
REMARK   24  A    between atoms: C_31  and  C_32 
REMARK   25  A    between atoms: C_32  and  C_33 
REMARK   26  A    between atoms: C_33  and  C_34 
REMARK   27  A    between atoms: C_34  and  C_35 
REMARK   28  A    between atoms: C_35  and  C_36 
REMARK   29  A    between atoms: C_37  and  C_38 
REMARK   30  A    between atoms: C_38  and  C_39 
REMARK   31  A    between atoms: C_39  and  C_40 
REMARK   32  A    between atoms: C_40  and  C_41 
REMARK   33  A    between atoms: C_41  and  C_42 
REMARK   34  A    between atoms: C_42  and  C_43 
REMARK   35  A    between atoms: C_43  and  C_44 
ROOT
HETATM    1  C   UNK A   1     -15.981 -11.298  -4.135  1.00  0.00     0.139 C 
ENDROOT
BRANCH   1   2
HETATM    2  C   UNK A   1     -17.009 -10.673  -3.167  1.00  0.00     0.171 C 
BRANCH   2   3
HETATM    3  C   UNK A   1     -18.475 -10.812  -3.647  1.00  0.00     0.149 C 
BRANCH   3   4
HETATM    4  C   UNK A   1     -19.475  -9.838  -3.005  1.00  0.00     0.034 C 
BRANCH   4   5
HETATM    5  C   UNK A   1     -20.574  -9.403  -3.959  1.00  0.00     0.002 C 
BRANCH   5   6
HETATM    6  C   UNK A   1     -20.622  -7.905  -4.172  1.00  0.00     0.000 C 
BRANCH   6   7
HETATM    7  C   UNK A   1     -21.468  -7.629  -5.409  1.00  0.00     0.000 C 
BRANCH   7   8
HETATM    8  C   UNK A   1     -21.821  -6.157  -5.472  1.00  0.00     0.000 C 
BRANCH   8   9
HETATM    9  C   UNK A   1     -20.632  -5.315  -5.047  1.00  0.00     0.000 C 
BRANCH   9  10
HETATM   10  C   UNK A   1     -20.041  -4.627  -6.261  1.00  0.00     0.000 C 
BRANCH  10  11
HETATM   11  C   UNK A   1     -21.120  -3.885  -7.024  1.00  0.00     0.000 C 
BRANCH  11  12
HETATM   12  C   UNK A   1     -20.898  -4.048  -8.517  1.00  0.00     0.000 C 
BRANCH  12  13
HETATM   13  C   UNK A   1     -22.086  -4.753  -9.148  1.00  0.00     0.000 C 
BRANCH  13  14
HETATM   14  C   UNK A   1     -22.763  -3.842 -10.162  1.00  0.00     0.000 C 
BRANCH  14  15
HETATM   15  C   UNK A   1     -23.594  -4.665 -11.136  1.00  0.00    -0.000 C 
BRANCH  15  16
HETATM   16  C   UNK A   1     -23.831  -3.894 -12.429  1.00  0.00    -0.005 C 
HETATM   17  C   UNK A   1     -23.045  -2.595 -12.431  1.00  0.00     0.005 C 
ENDBRANCH  15  16
ENDBRANCH  14  15
ENDBRANCH  13  14
ENDBRANCH  12  13
ENDBRANCH  11  12
ENDBRANCH  10  11
ENDBRANCH   9  10
ENDBRANCH   8   9
ENDBRANCH   7   8
ENDBRANCH   6   7
ENDBRANCH   5   6
ENDBRANCH   4   5
ENDBRANCH   3   4
BRANCH   3  18
HETATM   18  O   UNK A   1     -18.919 -12.144  -3.389  1.00  0.00    -0.393 OA
HETATM   19  H   UNK A   1     -19.293 -12.174  -2.490  1.00  0.00     0.210 HD
ENDBRANCH   3  18
ENDBRANCH   2   3
BRANCH   2  20
HETATM   20  O   UNK A   1     -16.555  -9.321  -2.980  1.00  0.00    -0.391 OA
HETATM   21  H   UNK A   1     -15.610  -9.247  -3.223  1.00  0.00     0.210 HD
ENDBRANCH   2  20
ENDBRANCH   1   2
BRANCH   1  22
HETATM   22  C   UNK A   1     -15.051 -12.302  -3.418  1.00  0.00     0.191 C 
BRANCH  22  23
HETATM   23  O   UNK A   1     -13.747 -12.405  -4.000  1.00  0.00    -0.399 OA
HETATM   24  H   UNK A   1     -13.844 -12.807  -4.876  1.00  0.00     0.209 HD
ENDBRANCH  22  23
ENDBRANCH   1  22
BRANCH   1  25
HETATM   25  N   UNK A   1     -16.749 -11.932  -5.216  1.00  0.00    -0.352 N 
HETATM   26  C   UNK A   0     -16.179 -12.125  -6.450  1.00  0.00     0.218 C 
HETATM   27  O   UNK A   0     -15.064 -11.690  -6.748  1.00  0.00    -0.274 OA
HETATM   28  H   UNK A   1     -17.762 -11.891  -5.128  1.00  0.00     0.163 HD
BRANCH  26  29
HETATM   29  C   UNK A   0     -17.056 -12.883  -7.436  1.00  0.00     0.103 C 
BRANCH  29  30
HETATM   30  C   UNK A   0     -18.496 -12.408  -7.288  1.00  0.00     0.009 C 
BRANCH  30  31
HETATM   31  C   UNK A   0     -19.460 -13.187  -8.177  1.00  0.00     0.000 C 
BRANCH  31  32
HETATM   32  C   UNK A   0     -20.865 -13.137  -7.582  1.00  0.00     0.000 C 
BRANCH  32  33
HETATM   33  C   UNK A   0     -20.993 -11.993  -6.588  1.00  0.00     0.000 C 
BRANCH  33  34
HETATM   34  C   UNK A   0     -22.228 -12.172  -5.717  1.00  0.00     0.004 C 
BRANCH  34  35
HETATM   35  C   UNK A   0     -21.965 -13.228  -4.650  1.00  0.00     0.027 C 
BRANCH  35  36
HETATM   36  C   UNK A   0     -22.509 -12.785  -3.332  1.00  0.00    -0.031 C 
HETATM   37  C   UNK A   0     -23.045 -13.632  -2.446  1.00  0.00    -0.031 C 
BRANCH  37  38
HETATM   38  C   UNK A   0     -23.593 -13.190  -1.129  1.00  0.00     0.027 C 
BRANCH  38  39
HETATM   39  C   UNK A   0     -24.003 -11.720  -1.193  1.00  0.00     0.004 C 
BRANCH  39  40
HETATM   40  C   UNK A   0     -23.280 -10.932  -0.113  1.00  0.00     0.000 C 
BRANCH  40  41
HETATM   41  C   UNK A   0     -22.318  -9.931  -0.735  1.00  0.00     0.000 C 
BRANCH  41  42
HETATM   42  C   UNK A   0     -21.540  -9.191   0.345  1.00  0.00     0.000 C 
BRANCH  42  43
HETATM   43  C   UNK A   0     -21.951  -7.722   0.386  1.00  0.00    -0.000 C 
BRANCH  43  44
HETATM   44  C   UNK A   0     -22.645  -7.313  -0.907  1.00  0.00    -0.005 C 
HETATM   45  C   UNK A   0     -22.000  -6.071  -1.496  1.00  0.00     0.005 C 
ENDBRANCH  43  44
ENDBRANCH  42  43
ENDBRANCH  41  42
ENDBRANCH  40  41
ENDBRANCH  39  40
ENDBRANCH  38  39
ENDBRANCH  37  38
ENDBRANCH  35  36
ENDBRANCH  34  35
ENDBRANCH  33  34
ENDBRANCH  32  33
ENDBRANCH  31  32
ENDBRANCH  30  31
ENDBRANCH  29  30
ENDBRANCH  26  29
ENDBRANCH   1  25
TORSDOF 35
ENDMDL
MODEL 9
REMARK VINA RESULT:      -5.7      2.516      8.425
REMARK WARNING: 32 MAX_TORS EXCEEDED!!!
REMARK  35 active torsions:
REMARK  status: ('A' for Active; 'I' for Inactive)
REMARK    1  A    between atoms: C_2  and  C_3 
REMARK    2  A    between atoms: C_3  and  C_4 
REMARK    3  A    between atoms: C_4  and  C_5 
REMARK    4  A    between atoms: C_5  and  C_6 
REMARK    5  A    between atoms: C_6  and  C_7 
REMARK    6  A    between atoms: C_7  and  C_8 
REMARK    7  A    between atoms: C_8  and  C_9 
REMARK    8  A    between atoms: C_9  and  C_10 
REMARK    9  A    between atoms: C_10  and  C_11 
REMARK   10  A    between atoms: C_11  and  C_12 
REMARK   11  A    between atoms: C_12  and  C_13 
REMARK   12  A    between atoms: C_13  and  C_14 
REMARK   13  A    between atoms: C_14  and  C_15 
REMARK   14  A    between atoms: C_15  and  C_16 
REMARK   15  A    between atoms: C_15  and  O_22 
REMARK   16  A    between atoms: C_16  and  C_17 
REMARK   17  A    between atoms: C_16  and  O_21 
REMARK   18  A    between atoms: C_17  and  C_18 
REMARK   19  A    between atoms: C_17  and  N_20 
REMARK   20  A    between atoms: C_18  and  O_19 
REMARK       I    between atoms: N_20  and  C_27 
REMARK   21  A    between atoms: C_27  and  C_29 
REMARK   22  A    between atoms: C_29  and  C_30 
REMARK   23  A    between atoms: C_30  and  C_31 
REMARK   24  A    between atoms: C_31  and  C_32 
REMARK   25  A    between atoms: C_32  and  C_33 
REMARK   26  A    between atoms: C_33  and  C_34 
REMARK   27  A    between atoms: C_34  and  C_35 
REMARK   28  A    between atoms: C_35  and  C_36 
REMARK   29  A    between atoms: C_37  and  C_38 
REMARK   30  A    between atoms: C_38  and  C_39 
REMARK   31  A    between atoms: C_39  and  C_40 
REMARK   32  A    between atoms: C_40  and  C_41 
REMARK   33  A    between atoms: C_41  and  C_42 
REMARK   34  A    between atoms: C_42  and  C_43 
REMARK   35  A    between atoms: C_43  and  C_44 
ROOT
HETATM    1  C   UNK A   1     -16.465 -13.831   1.046  1.00  0.00     0.139 C 
ENDROOT
BRANCH   1   2
HETATM    2  C   UNK A   1     -16.431 -12.492   0.277  1.00  0.00     0.171 C 
BRANCH   2   3
HETATM    3  C   UNK A   1     -15.739 -12.591  -1.106  1.00  0.00     0.149 C 
BRANCH   3   4
HETATM    4  C   UNK A   1     -16.371 -11.744  -2.221  1.00  0.00     0.034 C 
BRANCH   4   5
HETATM    5  C   UNK A   1     -15.719 -10.381  -2.371  1.00  0.00     0.002 C 
BRANCH   5   6
HETATM    6  C   UNK A   1     -16.540  -9.413  -3.196  1.00  0.00     0.000 C 
BRANCH   6   7
HETATM    7  C   UNK A   1     -17.981  -9.475  -2.704  1.00  0.00     0.000 C 
BRANCH   7   8
HETATM    8  C   UNK A   1     -18.931  -9.267  -3.865  1.00  0.00     0.000 C 
BRANCH   8   9
HETATM    9  C   UNK A   1     -20.328  -8.968  -3.353  1.00  0.00     0.000 C 
BRANCH   9  10
HETATM   10  C   UNK A   1     -20.819  -7.668  -3.957  1.00  0.00     0.000 C 
BRANCH  10  11
HETATM   11  C   UNK A   1     -20.282  -7.505  -5.365  1.00  0.00     0.000 C 
BRANCH  11  12
HETATM   12  C   UNK A   1     -21.058  -6.419  -6.089  1.00  0.00     0.000 C 
BRANCH  12  13
HETATM   13  C   UNK A   1     -20.426  -5.063  -5.826  1.00  0.00     0.000 C 
BRANCH  13  14
HETATM   14  C   UNK A   1     -19.506  -4.679  -6.976  1.00  0.00     0.000 C 
BRANCH  14  15
HETATM   15  C   UNK A   1     -20.059  -5.208  -8.292  1.00  0.00    -0.000 C 
BRANCH  15  16
HETATM   16  C   UNK A   1     -20.547  -4.063  -9.171  1.00  0.00    -0.005 C 
HETATM   17  C   UNK A   1     -20.393  -4.412 -10.640  1.00  0.00     0.005 C 
ENDBRANCH  15  16
ENDBRANCH  14  15
ENDBRANCH  13  14
ENDBRANCH  12  13
ENDBRANCH  11  12
ENDBRANCH  10  11
ENDBRANCH   9  10
ENDBRANCH   8   9
ENDBRANCH   7   8
ENDBRANCH   6   7
ENDBRANCH   5   6
ENDBRANCH   4   5
ENDBRANCH   3   4
BRANCH   3  18
HETATM   18  O   UNK A   1     -15.740 -13.955  -1.524  1.00  0.00    -0.393 OA
HETATM   19  H   UNK A   1     -15.272 -14.016  -2.375  1.00  0.00     0.210 HD
ENDBRANCH   3  18
ENDBRANCH   2   3
BRANCH   2  20
HETATM   20  O   UNK A   1     -15.829 -11.563   1.194  1.00  0.00    -0.391 OA
HETATM   21  H   UNK A   1     -16.407 -11.437   1.974  1.00  0.00     0.210 HD
ENDBRANCH   2  20
ENDBRANCH   1   2
BRANCH   1  22
HETATM   22  C   UNK A   1     -15.950 -13.678   2.494  1.00  0.00     0.191 C 
BRANCH  22  23
HETATM   23  O   UNK A   1     -15.720 -14.921   3.165  1.00  0.00    -0.399 OA
HETATM   24  H   UNK A   1     -16.028 -15.633   2.584  1.00  0.00     0.209 HD
ENDBRANCH  22  23
ENDBRANCH   1  22
BRANCH   1  25
HETATM   25  N   UNK A   1     -17.855 -14.308   1.002  1.00  0.00    -0.352 N 
HETATM   26  C   UNK A   0     -18.157 -15.507   0.402  1.00  0.00     0.218 C 
HETATM   27  O   UNK A   0     -17.324 -16.178  -0.211  1.00  0.00    -0.274 OA
HETATM   28  H   UNK A   1     -18.576 -13.597   1.099  1.00  0.00     0.163 HD
BRANCH  26  29
HETATM   29  C   UNK A   0     -19.617 -15.919   0.523  1.00  0.00     0.103 C 
BRANCH  29  30
HETATM   30  C   UNK A   0     -20.087 -15.672   1.951  1.00  0.00     0.009 C 
BRANCH  30  31
HETATM   31  C   UNK A   0     -21.601 -15.516   2.047  1.00  0.00     0.000 C 
BRANCH  31  32
HETATM   32  C   UNK A   0     -21.958 -14.041   2.214  1.00  0.00     0.000 C 
BRANCH  32  33
HETATM   33  C   UNK A   0     -23.362 -13.762   1.701  1.00  0.00     0.000 C 
BRANCH  33  34
HETATM   34  C   UNK A   0     -23.500 -14.192   0.248  1.00  0.00     0.004 C 
BRANCH  34  35
HETATM   35  C   UNK A   0     -23.966 -13.016  -0.602  1.00  0.00     0.027 C 
BRANCH  35  36
HETATM   36  C   UNK A   0     -23.669 -11.725   0.086  1.00  0.00    -0.031 C 
HETATM   37  C   UNK A   0     -23.788 -10.536  -0.516  1.00  0.00    -0.031 C 
BRANCH  37  38
HETATM   38  C   UNK A   0     -23.487  -9.245   0.170  1.00  0.00     0.027 C 
BRANCH  38  39
HETATM   39  C   UNK A   0     -22.035  -8.842  -0.072  1.00  0.00     0.004 C 
BRANCH  39  40
HETATM   40  C   UNK A   0     -21.242  -8.955   1.220  1.00  0.00     0.000 C 
BRANCH  40  41
HETATM   41  C   UNK A   0     -20.493 -10.278   1.273  1.00  0.00     0.000 C 
BRANCH  41  42
HETATM   42  C   UNK A   0     -20.071 -10.714  -0.123  1.00  0.00     0.000 C 
BRANCH  42  43
HETATM   43  C   UNK A   0     -20.224 -12.224  -0.280  1.00  0.00    -0.000 C 
BRANCH  43  44
HETATM   44  C   UNK A   0     -19.793 -12.674  -1.671  1.00  0.00    -0.005 C 
HETATM   45  C   UNK A   0     -20.958 -13.292  -2.423  1.00  0.00     0.005 C 
ENDBRANCH  43  44
ENDBRANCH  42  43
ENDBRANCH  41  42
ENDBRANCH  40  41
ENDBRANCH  39  40
ENDBRANCH  38  39
ENDBRANCH  37  38
ENDBRANCH  35  36
ENDBRANCH  34  35
ENDBRANCH  33  34
ENDBRANCH  32  33
ENDBRANCH  31  32
ENDBRANCH  30  31
ENDBRANCH  29  30
ENDBRANCH  26  29
ENDBRANCH   1  25
TORSDOF 35
ENDMDL
