MODEL 1
REMARK VINA RESULT:      -7.1      0.000      0.000
REMARK  13 active torsions:
REMARK  status: ('A' for Active; 'I' for Inactive)
REMARK    1  A    between atoms: C_2  and  C_3 
REMARK    2  A    between atoms: C_3  and  C_4 
REMARK    3  A    between atoms: C_4  and  C_5 
REMARK    4  A    between atoms: C_5  and  C_6 
REMARK    5  A    between atoms: C_6  and  C_7 
REMARK    6  A    between atoms: C_7  and  C_8 
REMARK    7  A    between atoms: C_8  and  C_9 
REMARK    8  A    between atoms: C_9  and  C_10 
REMARK    9  A    between atoms: C_10  and  C_11 
REMARK   10  A    between atoms: C_11  and  C_12 
REMARK       I    between atoms: C_12  and  N_14 
REMARK   11  A    between atoms: N_14  and  C_16 
REMARK   12  A    between atoms: C_16  and  C_17 
REMARK   13  A    between atoms: C_17  and  O_19 
ROOT
HETATM    1  C   UNL     1     -22.765  -3.890  -8.689  1.00  0.00     0.009 C 
ENDROOT
BRANCH   1   2
HETATM    2  C   UNL     1     -21.843  -4.836  -7.921  1.00  0.00     0.000 C 
BRANCH   2   3
HETATM    3  C   UNL     1     -20.846  -4.056  -7.069  1.00  0.00     0.000 C 
BRANCH   3   4
HETATM    4  C   UNL     1     -20.276  -4.928  -5.954  1.00  0.00     0.000 C 
BRANCH   4   5
HETATM    5  C   UNL     1     -21.390  -5.694  -5.246  1.00  0.00     0.000 C 
BRANCH   5   6
HETATM    6  C   UNL     1     -20.989  -7.147  -5.003  1.00  0.00     0.000 C 
BRANCH   6   7
HETATM    7  C   UNL     1     -21.019  -7.478  -3.513  1.00  0.00     0.000 C 
BRANCH   7   8
HETATM    8  C   UNL     1     -21.329  -6.233  -2.684  1.00  0.00    -0.000 C 
BRANCH   8   9
HETATM    9  C   UNL     1     -22.365  -6.533  -1.604  1.00  0.00    -0.005 C 
HETATM   10  C   UNL     1     -21.852  -7.580  -0.630  1.00  0.00     0.005 C 
ENDBRANCH   8   9
ENDBRANCH   7   8
ENDBRANCH   6   7
ENDBRANCH   5   6
ENDBRANCH   4   5
ENDBRANCH   3   4
ENDBRANCH   2   3
ENDBRANCH   1   2
BRANCH   1  11
HETATM   11  C   UNL     1     -23.437  -4.616  -9.851  1.00  0.00     0.103 C 
BRANCH  11  12
HETATM   12  C   UNL     1     -23.861  -3.675 -10.968  1.00  0.00     0.219 C 
HETATM   13  O   UNL     1     -24.973  -3.152 -10.984  1.00  0.00    -0.273 OA
HETATM   14  N   UNL     1     -22.938  -3.455 -11.987  1.00  0.00    -0.347 N 
HETATM   15  C   UNL     1     -21.579  -3.996 -12.008  1.00  0.00     0.153 C 
BRANCH  14  16
HETATM   16  C   UNL     1     -23.238  -2.421 -13.002  1.00  0.00     0.235 C 
BRANCH  16  17
HETATM   17  C   UNL     1     -23.238  -2.953 -14.431  1.00  0.00     0.158 C 
HETATM   18  O   UNL     1     -22.653  -2.418 -15.360  1.00  0.00    -0.649 OA
BRANCH  17  19
HETATM   19  O   UNL     1     -24.021  -4.047 -14.598  1.00  0.00    -0.775 OA
HETATM   20  H   UNL     1     -23.679  -4.783 -14.053  1.00  0.00     0.167 HD
ENDBRANCH  17  19
ENDBRANCH  16  17
ENDBRANCH  14  16
ENDBRANCH  11  12
ENDBRANCH   1  11
TORSDOF 13
ENDMDL
MODEL 2
REMARK VINA RESULT:      -7.1      1.986      3.186
REMARK  13 active torsions:
REMARK  status: ('A' for Active; 'I' for Inactive)
REMARK    1  A    between atoms: C_2  and  C_3 
REMARK    2  A    between atoms: C_3  and  C_4 
REMARK    3  A    between atoms: C_4  and  C_5 
REMARK    4  A    between atoms: C_5  and  C_6 
REMARK    5  A    between atoms: C_6  and  C_7 
REMARK    6  A    between atoms: C_7  and  C_8 
REMARK    7  A    between atoms: C_8  and  C_9 
REMARK    8  A    between atoms: C_9  and  C_10 
REMARK    9  A    between atoms: C_10  and  C_11 
REMARK   10  A    between atoms: C_11  and  C_12 
REMARK       I    between atoms: C_12  and  N_14 
REMARK   11  A    between atoms: N_14  and  C_16 
REMARK   12  A    between atoms: C_16  and  C_17 
REMARK   13  A    between atoms: C_17  and  O_19 
ROOT
HETATM    1  C   UNL     1     -19.903  -5.038  -7.637  1.00  0.00     0.009 C 
ENDROOT
BRANCH   1   2
HETATM    2  C   UNL     1     -19.397  -4.852  -6.208  1.00  0.00     0.000 C 
BRANCH   2   3
HETATM    3  C   UNL     1     -20.501  -5.139  -5.195  1.00  0.00     0.000 C 
BRANCH   3   4
HETATM    4  C   UNL     1     -20.859  -6.623  -5.177  1.00  0.00     0.000 C 
BRANCH   4   5
HETATM    5  C   UNL     1     -21.780  -6.941  -4.002  1.00  0.00     0.000 C 
BRANCH   5   6
HETATM    6  C   UNL     1     -21.441  -6.079  -2.790  1.00  0.00     0.000 C 
BRANCH   6   7
HETATM    7  C   UNL     1     -22.311  -6.457  -1.593  1.00  0.00     0.000 C 
BRANCH   7   8
HETATM    8  C   UNL     1     -21.816  -7.748  -0.945  1.00  0.00    -0.000 C 
BRANCH   8   9
HETATM    9  C   UNL     1     -22.757  -8.203   0.167  1.00  0.00    -0.005 C 
HETATM   10  C   UNL     1     -23.217  -9.634  -0.058  1.00  0.00     0.005 C 
ENDBRANCH   8   9
ENDBRANCH   7   8
ENDBRANCH   6   7
ENDBRANCH   5   6
ENDBRANCH   4   5
ENDBRANCH   3   4
ENDBRANCH   2   3
ENDBRANCH   1   2
BRANCH   1  11
HETATM   11  C   UNL     1     -20.789  -3.867  -8.053  1.00  0.00     0.103 C 
BRANCH  11  12
HETATM   12  C   UNL     1     -22.212  -4.292  -8.379  1.00  0.00     0.219 C 
HETATM   13  O   UNL     1     -23.059  -4.439  -7.501  1.00  0.00    -0.273 OA
HETATM   14  N   UNL     1     -22.504  -4.534  -9.719  1.00  0.00    -0.347 N 
HETATM   15  C   UNL     1     -21.566  -4.327 -10.822  1.00  0.00     0.153 C 
BRANCH  14  16
HETATM   16  C   UNL     1     -23.910  -4.782 -10.104  1.00  0.00     0.235 C 
BRANCH  16  17
HETATM   17  C   UNL     1     -24.699  -3.508 -10.384  1.00  0.00     0.158 C 
HETATM   18  O   UNL     1     -24.922  -3.075 -11.504  1.00  0.00    -0.649 OA
BRANCH  17  19
HETATM   19  O   UNL     1     -25.070  -2.847  -9.261  1.00  0.00    -0.775 OA
HETATM   20  H   UNL     1     -26.033  -2.947  -9.122  1.00  0.00     0.167 HD
ENDBRANCH  17  19
ENDBRANCH  16  17
ENDBRANCH  14  16
ENDBRANCH  11  12
ENDBRANCH   1  11
TORSDOF 13
ENDMDL
MODEL 3
REMARK VINA RESULT:      -6.7      1.509      2.167
REMARK  13 active torsions:
REMARK  status: ('A' for Active; 'I' for Inactive)
REMARK    1  A    between atoms: C_2  and  C_3 
REMARK    2  A    between atoms: C_3  and  C_4 
REMARK    3  A    between atoms: C_4  and  C_5 
REMARK    4  A    between atoms: C_5  and  C_6 
REMARK    5  A    between atoms: C_6  and  C_7 
REMARK    6  A    between atoms: C_7  and  C_8 
REMARK    7  A    between atoms: C_8  and  C_9 
REMARK    8  A    between atoms: C_9  and  C_10 
REMARK    9  A    between atoms: C_10  and  C_11 
REMARK   10  A    between atoms: C_11  and  C_12 
REMARK       I    between atoms: C_12  and  N_14 
REMARK   11  A    between atoms: N_14  and  C_16 
REMARK   12  A    between atoms: C_16  and  C_17 
REMARK   13  A    between atoms: C_17  and  O_19 
ROOT
HETATM    1  C   UNL     1     -21.262  -5.095  -8.082  1.00  0.00     0.009 C 
ENDROOT
BRANCH   1   2
HETATM    2  C   UNL     1     -20.032  -4.673  -7.279  1.00  0.00     0.000 C 
BRANCH   2   3
HETATM    3  C   UNL     1     -20.279  -4.824  -5.781  1.00  0.00     0.000 C 
BRANCH   3   4
HETATM    4  C   UNL     1     -20.559  -6.279  -5.414  1.00  0.00     0.000 C 
BRANCH   4   5
HETATM    5  C   UNL     1     -21.733  -6.373  -4.441  1.00  0.00     0.000 C 
BRANCH   5   6
HETATM    6  C   UNL     1     -21.276  -6.135  -3.005  1.00  0.00     0.000 C 
BRANCH   6   7
HETATM    7  C   UNL     1     -21.625  -7.329  -2.118  1.00  0.00     0.000 C 
BRANCH   7   8
HETATM    8  C   UNL     1     -22.404  -6.881  -0.883  1.00  0.00    -0.000 C 
BRANCH   8   9
HETATM    9  C   UNL     1     -22.731  -8.065   0.022  1.00  0.00    -0.005 C 
HETATM   10  C   UNL     1     -21.621  -8.306   1.031  1.00  0.00     0.005 C 
ENDBRANCH   8   9
ENDBRANCH   7   8
ENDBRANCH   6   7
ENDBRANCH   5   6
ENDBRANCH   4   5
ENDBRANCH   3   4
ENDBRANCH   2   3
ENDBRANCH   1   2
BRANCH   1  11
HETATM   11  C   UNL     1     -21.896  -3.890  -8.771  1.00  0.00     0.103 C 
BRANCH  11  12
HETATM   12  C   UNL     1     -22.181  -4.135 -10.244  1.00  0.00     0.219 C 
HETATM   13  O   UNL     1     -21.306  -4.525 -11.015  1.00  0.00    -0.273 OA
HETATM   14  N   UNL     1     -23.475  -3.872 -10.685  1.00  0.00    -0.347 N 
HETATM   15  C   UNL     1     -24.580  -3.461  -9.818  1.00  0.00     0.153 C 
BRANCH  14  16
HETATM   16  C   UNL     1     -23.844  -4.255 -12.066  1.00  0.00     0.235 C 
BRANCH  16  17
HETATM   17  C   UNL     1     -23.748  -3.105 -13.063  1.00  0.00     0.158 C 
HETATM   18  O   UNL     1     -22.751  -2.851 -13.719  1.00  0.00    -0.649 OA
BRANCH  17  19
HETATM   19  O   UNL     1     -24.860  -2.331 -13.100  1.00  0.00    -0.775 OA
HETATM   20  H   UNL     1     -24.912  -1.868 -13.960  1.00  0.00     0.167 HD
ENDBRANCH  17  19
ENDBRANCH  16  17
ENDBRANCH  14  16
ENDBRANCH  11  12
ENDBRANCH   1  11
TORSDOF 13
ENDMDL
MODEL 4
REMARK VINA RESULT:      -6.4      1.896      3.064
REMARK  13 active torsions:
REMARK  status: ('A' for Active; 'I' for Inactive)
REMARK    1  A    between atoms: C_2  and  C_3 
REMARK    2  A    between atoms: C_3  and  C_4 
REMARK    3  A    between atoms: C_4  and  C_5 
REMARK    4  A    between atoms: C_5  and  C_6 
REMARK    5  A    between atoms: C_6  and  C_7 
REMARK    6  A    between atoms: C_7  and  C_8 
REMARK    7  A    between atoms: C_8  and  C_9 
REMARK    8  A    between atoms: C_9  and  C_10 
REMARK    9  A    between atoms: C_10  and  C_11 
REMARK   10  A    between atoms: C_11  and  C_12 
REMARK       I    between atoms: C_12  and  N_14 
REMARK   11  A    between atoms: N_14  and  C_16 
REMARK   12  A    between atoms: C_16  and  C_17 
REMARK   13  A    between atoms: C_17  and  O_19 
ROOT
HETATM    1  C   UNL     1     -19.893  -4.610  -7.048  1.00  0.00     0.009 C 
ENDROOT
BRANCH   1   2
HETATM    2  C   UNL     1     -20.249  -5.181  -5.677  1.00  0.00     0.000 C 
BRANCH   2   3
HETATM    3  C   UNL     1     -20.221  -6.707  -5.696  1.00  0.00     0.000 C 
BRANCH   3   4
HETATM    4  C   UNL     1     -20.881  -7.285  -4.447  1.00  0.00     0.000 C 
BRANCH   4   5
HETATM    5  C   UNL     1     -21.927  -6.320  -3.895  1.00  0.00     0.000 C 
BRANCH   5   6
HETATM    6  C   UNL     1     -21.838  -6.225  -2.374  1.00  0.00     0.000 C 
BRANCH   6   7
HETATM    7  C   UNL     1     -21.261  -7.509  -1.782  1.00  0.00     0.000 C 
BRANCH   7   8
HETATM    8  C   UNL     1     -22.154  -8.044  -0.665  1.00  0.00    -0.000 C 
BRANCH   8   9
HETATM    9  C   UNL     1     -21.457  -9.154   0.116  1.00  0.00    -0.005 C 
HETATM   10  C   UNL     1     -21.075  -8.686   1.509  1.00  0.00     0.005 C 
ENDBRANCH   8   9
ENDBRANCH   7   8
ENDBRANCH   6   7
ENDBRANCH   5   6
ENDBRANCH   4   5
ENDBRANCH   3   4
ENDBRANCH   2   3
ENDBRANCH   1   2
BRANCH   1  11
HETATM   11  C   UNL     1     -21.087  -3.878  -7.655  1.00  0.00     0.103 C 
BRANCH  11  12
HETATM   12  C   UNL     1     -21.278  -4.185  -9.131  1.00  0.00     0.219 C 
HETATM   13  O   UNL     1     -20.329  -4.467  -9.861  1.00  0.00    -0.273 OA
HETATM   14  N   UNL     1     -22.577  -4.104  -9.627  1.00  0.00    -0.347 N 
HETATM   15  C   UNL     1     -23.760  -3.830  -8.811  1.00  0.00     0.153 C 
BRANCH  14  16
HETATM   16  C   UNL     1     -22.836  -4.556 -11.011  1.00  0.00     0.235 C 
BRANCH  16  17
HETATM   17  C   UNL     1     -22.722  -3.443 -12.047  1.00  0.00     0.158 C 
HETATM   18  O   UNL     1     -23.662  -2.762 -12.425  1.00  0.00    -0.649 OA
BRANCH  17  19
HETATM   19  O   UNL     1     -21.479  -3.325 -12.575  1.00  0.00    -0.775 OA
HETATM   20  H   UNL     1     -20.993  -2.610 -12.118  1.00  0.00     0.167 HD
ENDBRANCH  17  19
ENDBRANCH  16  17
ENDBRANCH  14  16
ENDBRANCH  11  12
ENDBRANCH   1  11
TORSDOF 13
ENDMDL
MODEL 5
REMARK VINA RESULT:      -6.2      2.440      4.472
REMARK  13 active torsions:
REMARK  status: ('A' for Active; 'I' for Inactive)
REMARK    1  A    between atoms: C_2  and  C_3 
REMARK    2  A    between atoms: C_3  and  C_4 
REMARK    3  A    between atoms: C_4  and  C_5 
REMARK    4  A    between atoms: C_5  and  C_6 
REMARK    5  A    between atoms: C_6  and  C_7 
REMARK    6  A    between atoms: C_7  and  C_8 
REMARK    7  A    between atoms: C_8  and  C_9 
REMARK    8  A    between atoms: C_9  and  C_10 
REMARK    9  A    between atoms: C_10  and  C_11 
REMARK   10  A    between atoms: C_11  and  C_12 
REMARK       I    between atoms: C_12  and  N_14 
REMARK   11  A    between atoms: N_14  and  C_16 
REMARK   12  A    between atoms: C_16  and  C_17 
REMARK   13  A    between atoms: C_17  and  O_19 
ROOT
HETATM    1  C   UNL     1     -21.665  -6.513  -5.606  1.00  0.00     0.009 C 
ENDROOT
BRANCH   1   2
HETATM    2  C   UNL     1     -21.475  -6.419  -4.093  1.00  0.00     0.000 C 
BRANCH   2   3
HETATM    3  C   UNL     1     -20.608  -7.564  -3.579  1.00  0.00     0.000 C 
BRANCH   3   4
HETATM    4  C   UNL     1     -20.706  -7.690  -2.061  1.00  0.00     0.000 C 
BRANCH   4   5
HETATM    5  C   UNL     1     -22.092  -7.273  -1.574  1.00  0.00     0.000 C 
BRANCH   5   6
HETATM    6  C   UNL     1     -22.220  -7.453  -0.064  1.00  0.00     0.000 C 
BRANCH   6   7
HETATM    7  C   UNL     1     -22.959  -8.747   0.269  1.00  0.00     0.000 C 
BRANCH   7   8
HETATM    8  C   UNL     1     -21.998  -9.934   0.286  1.00  0.00    -0.000 C 
BRANCH   8   9
HETATM    9  C   UNL     1     -22.742 -11.249   0.077  1.00  0.00    -0.005 C 
HETATM   10  C   UNL     1     -24.018 -11.036  -0.719  1.00  0.00     0.005 C 
ENDBRANCH   8   9
ENDBRANCH   7   8
ENDBRANCH   6   7
ENDBRANCH   5   6
ENDBRANCH   4   5
ENDBRANCH   3   4
ENDBRANCH   2   3
ENDBRANCH   1   2
BRANCH   1  11
HETATM   11  C   UNL     1     -21.265  -5.204  -6.282  1.00  0.00     0.103 C 
BRANCH  11  12
HETATM   12  C   UNL     1     -22.359  -4.645  -7.178  1.00  0.00     0.219 C 
HETATM   13  O   UNL     1     -23.516  -4.517  -6.782  1.00  0.00    -0.273 OA
HETATM   14  N   UNL     1     -21.995  -4.310  -8.480  1.00  0.00    -0.347 N 
HETATM   15  C   UNL     1     -20.631  -4.382  -9.004  1.00  0.00     0.153 C 
BRANCH  14  16
HETATM   16  C   UNL     1     -22.979  -3.608  -9.332  1.00  0.00     0.235 C 
BRANCH  16  17
HETATM   17  C   UNL     1     -23.901  -4.549 -10.098  1.00  0.00     0.158 C 
HETATM   18  O   UNL     1     -23.625  -5.048 -11.178  1.00  0.00    -0.649 OA
BRANCH  17  19
HETATM   19  O   UNL     1     -25.106  -4.725  -9.503  1.00  0.00    -0.775 OA
HETATM   20  H   UNL     1     -25.733  -4.043  -9.819  1.00  0.00     0.167 HD
ENDBRANCH  17  19
ENDBRANCH  16  17
ENDBRANCH  14  16
ENDBRANCH  11  12
ENDBRANCH   1  11
TORSDOF 13
ENDMDL
MODEL 6
REMARK VINA RESULT:      -5.9      5.603      9.912
REMARK  13 active torsions:
REMARK  status: ('A' for Active; 'I' for Inactive)
REMARK    1  A    between atoms: C_2  and  C_3 
REMARK    2  A    between atoms: C_3  and  C_4 
REMARK    3  A    between atoms: C_4  and  C_5 
REMARK    4  A    between atoms: C_5  and  C_6 
REMARK    5  A    between atoms: C_6  and  C_7 
REMARK    6  A    between atoms: C_7  and  C_8 
REMARK    7  A    between atoms: C_8  and  C_9 
REMARK    8  A    between atoms: C_9  and  C_10 
REMARK    9  A    between atoms: C_10  and  C_11 
REMARK   10  A    between atoms: C_11  and  C_12 
REMARK       I    between atoms: C_12  and  N_14 
REMARK   11  A    between atoms: N_14  and  C_16 
REMARK   12  A    between atoms: C_16  and  C_17 
REMARK   13  A    between atoms: C_17  and  O_19 
ROOT
HETATM    1  C   UNL     1     -21.821  -6.441  -5.142  1.00  0.00     0.009 C 
ENDROOT
BRANCH   1   2
HETATM    2  C   UNL     1     -20.515  -6.077  -5.848  1.00  0.00     0.000 C 
BRANCH   2   3
HETATM    3  C   UNL     1     -20.333  -4.564  -5.914  1.00  0.00     0.000 C 
BRANCH   3   4
HETATM    4  C   UNL     1     -20.816  -4.009  -7.251  1.00  0.00     0.000 C 
BRANCH   4   5
HETATM    5  C   UNL     1     -20.718  -5.072  -8.342  1.00  0.00     0.000 C 
BRANCH   5   6
HETATM    6  C   UNL     1     -20.075  -4.506  -9.605  1.00  0.00     0.000 C 
BRANCH   6   7
HETATM    7  C   UNL     1     -21.068  -3.647 -10.384  1.00  0.00     0.000 C 
BRANCH   7   8
HETATM    8  C   UNL     1     -21.698  -4.441 -11.525  1.00  0.00    -0.000 C 
BRANCH   8   9
HETATM    9  C   UNL     1     -23.211  -4.244 -11.566  1.00  0.00    -0.005 C 
HETATM   10  C   UNL     1     -23.882  -4.914 -10.379  1.00  0.00     0.005 C 
ENDBRANCH   8   9
ENDBRANCH   7   8
ENDBRANCH   6   7
ENDBRANCH   5   6
ENDBRANCH   4   5
ENDBRANCH   3   4
ENDBRANCH   2   3
ENDBRANCH   1   2
BRANCH   1  11
HETATM   11  C   UNL     1     -21.639  -7.689  -4.282  1.00  0.00     0.103 C 
BRANCH  11  12
HETATM   12  C   UNL     1     -21.650  -7.384  -2.792  1.00  0.00     0.219 C 
HETATM   13  O   UNL     1     -21.974  -6.280  -2.361  1.00  0.00    -0.273 OA
HETATM   14  N   UNL     1     -21.247  -8.408  -1.939  1.00  0.00    -0.347 N 
HETATM   15  C   UNL     1     -20.901  -9.762  -2.374  1.00  0.00     0.153 C 
BRANCH  14  16
HETATM   16  C   UNL     1     -21.401  -8.217  -0.481  1.00  0.00     0.235 C 
BRANCH  16  17
HETATM   17  C   UNL     1     -22.789  -8.579   0.037  1.00  0.00     0.158 C 
HETATM   18  O   UNL     1     -23.194  -9.724   0.163  1.00  0.00    -0.649 OA
BRANCH  17  19
HETATM   19  O   UNL     1     -23.573  -7.500   0.276  1.00  0.00    -0.775 OA
HETATM   20  H   UNL     1     -24.407  -7.579  -0.229  1.00  0.00     0.167 HD
ENDBRANCH  17  19
ENDBRANCH  16  17
ENDBRANCH  14  16
ENDBRANCH  11  12
ENDBRANCH   1  11
TORSDOF 13
ENDMDL
MODEL 7
REMARK VINA RESULT:      -5.9      1.973      2.633
REMARK  13 active torsions:
REMARK  status: ('A' for Active; 'I' for Inactive)
REMARK    1  A    between atoms: C_2  and  C_3 
REMARK    2  A    between atoms: C_3  and  C_4 
REMARK    3  A    between atoms: C_4  and  C_5 
REMARK    4  A    between atoms: C_5  and  C_6 
REMARK    5  A    between atoms: C_6  and  C_7 
REMARK    6  A    between atoms: C_7  and  C_8 
REMARK    7  A    between atoms: C_8  and  C_9 
REMARK    8  A    between atoms: C_9  and  C_10 
REMARK    9  A    between atoms: C_10  and  C_11 
REMARK   10  A    between atoms: C_11  and  C_12 
REMARK       I    between atoms: C_12  and  N_14 
REMARK   11  A    between atoms: N_14  and  C_16 
REMARK   12  A    between atoms: C_16  and  C_17 
REMARK   13  A    between atoms: C_17  and  O_19 
ROOT
HETATM    1  C   UNL     1     -20.583  -3.956  -7.830  1.00  0.00     0.009 C 
ENDROOT
BRANCH   1   2
HETATM    2  C   UNL     1     -20.457  -5.228  -6.992  1.00  0.00     0.000 C 
BRANCH   2   3
HETATM    3  C   UNL     1     -20.847  -4.967  -5.540  1.00  0.00     0.000 C 
BRANCH   3   4
HETATM    4  C   UNL     1     -20.800  -6.251  -4.718  1.00  0.00     0.000 C 
BRANCH   4   5
HETATM    5  C   UNL     1     -20.413  -7.439  -5.596  1.00  0.00     0.000 C 
BRANCH   5   6
HETATM    6  C   UNL     1     -21.190  -8.691  -5.201  1.00  0.00     0.000 C 
BRANCH   6   7
HETATM    7  C   UNL     1     -21.502  -8.689  -3.706  1.00  0.00     0.000 C 
BRANCH   7   8
HETATM    8  C   UNL     1     -21.859 -10.092  -3.221  1.00  0.00    -0.000 C 
BRANCH   8   9
HETATM    9  C   UNL     1     -22.279 -10.079  -1.754  1.00  0.00    -0.005 C 
HETATM   10  C   UNL     1     -23.389 -11.083  -1.494  1.00  0.00     0.005 C 
ENDBRANCH   8   9
ENDBRANCH   7   8
ENDBRANCH   6   7
ENDBRANCH   5   6
ENDBRANCH   4   5
ENDBRANCH   3   4
ENDBRANCH   2   3
ENDBRANCH   1   2
BRANCH   1  11
HETATM   11  C   UNL     1     -22.011  -3.789  -8.344  1.00  0.00     0.103 C 
BRANCH  11  12
HETATM   12  C   UNL     1     -22.153  -4.144  -9.815  1.00  0.00     0.219 C 
HETATM   13  O   UNL     1     -21.211  -4.592 -10.466  1.00  0.00    -0.273 OA
HETATM   14  N   UNL     1     -23.395  -3.910 -10.400  1.00  0.00    -0.347 N 
HETATM   15  C   UNL     1     -24.574  -3.433  -9.680  1.00  0.00     0.153 C 
BRANCH  14  16
HETATM   16  C   UNL     1     -23.630  -4.395 -11.778  1.00  0.00     0.235 C 
BRANCH  16  17
HETATM   17  C   UNL     1     -23.467  -3.313 -12.840  1.00  0.00     0.158 C 
HETATM   18  O   UNL     1     -24.384  -2.629 -13.266  1.00  0.00    -0.649 OA
BRANCH  17  19
HETATM   19  O   UNL     1     -22.207  -3.229 -13.333  1.00  0.00    -0.775 OA
HETATM   20  H   UNL     1     -22.208  -3.462 -14.283  1.00  0.00     0.167 HD
ENDBRANCH  17  19
ENDBRANCH  16  17
ENDBRANCH  14  16
ENDBRANCH  11  12
ENDBRANCH   1  11
TORSDOF 13
ENDMDL
MODEL 8
REMARK VINA RESULT:      -5.8     12.703     14.923
REMARK  13 active torsions:
REMARK  status: ('A' for Active; 'I' for Inactive)
REMARK    1  A    between atoms: C_2  and  C_3 
REMARK    2  A    between atoms: C_3  and  C_4 
REMARK    3  A    between atoms: C_4  and  C_5 
REMARK    4  A    between atoms: C_5  and  C_6 
REMARK    5  A    between atoms: C_6  and  C_7 
REMARK    6  A    between atoms: C_7  and  C_8 
REMARK    7  A    between atoms: C_8  and  C_9 
REMARK    8  A    between atoms: C_9  and  C_10 
REMARK    9  A    between atoms: C_10  and  C_11 
REMARK   10  A    between atoms: C_11  and  C_12 
REMARK       I    between atoms: C_12  and  N_14 
REMARK   11  A    between atoms: N_14  and  C_16 
REMARK   12  A    between atoms: C_16  and  C_17 
REMARK   13  A    between atoms: C_17  and  O_19 
ROOT
HETATM    1  C   UNL     1     -34.565  -1.108 -11.813  1.00  0.00     0.009 C 
ENDROOT
BRANCH   1   2
HETATM    2  C   UNL     1     -35.715  -0.103 -11.766  1.00  0.00     0.000 C 
BRANCH   2   3
HETATM    3  C   UNL     1     -36.946  -0.712 -11.100  1.00  0.00     0.000 C 
BRANCH   3   4
HETATM    4  C   UNL     1     -37.041  -0.295  -9.635  1.00  0.00     0.000 C 
BRANCH   4   5
HETATM    5  C   UNL     1     -37.892   0.964  -9.488  1.00  0.00     0.000 C 
BRANCH   5   6
HETATM    6  C   UNL     1     -37.507   1.743  -8.233  1.00  0.00     0.000 C 
BRANCH   6   7
HETATM    7  C   UNL     1     -36.913   0.813  -7.177  1.00  0.00     0.000 C 
BRANCH   7   8
HETATM    8  C   UNL     1     -37.574   1.038  -5.819  1.00  0.00    -0.000 C 
BRANCH   8   9
HETATM    9  C   UNL     1     -36.980   0.118  -4.756  1.00  0.00    -0.005 C 
HETATM   10  C   UNL     1     -38.073  -0.594  -3.977  1.00  0.00     0.005 C 
ENDBRANCH   8   9
ENDBRANCH   7   8
ENDBRANCH   6   7
ENDBRANCH   5   6
ENDBRANCH   4   5
ENDBRANCH   3   4
ENDBRANCH   2   3
ENDBRANCH   1   2
BRANCH   1  11
HETATM   11  C   UNL     1     -34.905  -2.275 -12.736  1.00  0.00     0.103 C 
BRANCH  11  12
HETATM   12  C   UNL     1     -34.134  -3.540 -12.396  1.00  0.00     0.219 C 
HETATM   13  O   UNL     1     -33.113  -3.857 -13.002  1.00  0.00    -0.273 OA
HETATM   14  N   UNL     1     -34.656  -4.340 -11.383  1.00  0.00    -0.347 N 
HETATM   15  C   UNL     1     -35.832  -4.002 -10.582  1.00  0.00     0.153 C 
BRANCH  14  16
HETATM   16  C   UNL     1     -33.855  -5.487 -10.903  1.00  0.00     0.235 C 
BRANCH  16  17
HETATM   17  C   UNL     1     -34.631  -6.799 -10.866  1.00  0.00     0.158 C 
HETATM   18  O   UNL     1     -34.717  -7.515  -9.881  1.00  0.00    -0.649 OA
BRANCH  17  19
HETATM   19  O   UNL     1     -35.162  -7.144 -12.065  1.00  0.00    -0.775 OA
HETATM   20  H   UNL     1     -35.938  -6.580 -12.257  1.00  0.00     0.167 HD
ENDBRANCH  17  19
ENDBRANCH  16  17
ENDBRANCH  14  16
ENDBRANCH  11  12
ENDBRANCH   1  11
TORSDOF 13
ENDMDL
MODEL 9
REMARK VINA RESULT:      -5.8      3.405      6.170
REMARK  13 active torsions:
REMARK  status: ('A' for Active; 'I' for Inactive)
REMARK    1  A    between atoms: C_2  and  C_3 
REMARK    2  A    between atoms: C_3  and  C_4 
REMARK    3  A    between atoms: C_4  and  C_5 
REMARK    4  A    between atoms: C_5  and  C_6 
REMARK    5  A    between atoms: C_6  and  C_7 
REMARK    6  A    between atoms: C_7  and  C_8 
REMARK    7  A    between atoms: C_8  and  C_9 
REMARK    8  A    between atoms: C_9  and  C_10 
REMARK    9  A    between atoms: C_10  and  C_11 
REMARK   10  A    between atoms: C_11  and  C_12 
REMARK       I    between atoms: C_12  and  N_14 
REMARK   11  A    between atoms: N_14  and  C_16 
REMARK   12  A    between atoms: C_16  and  C_17 
REMARK   13  A    between atoms: C_17  and  O_19 
ROOT
HETATM    1  C   UNL     1     -21.396  -6.405  -3.000  1.00  0.00     0.009 C 
ENDROOT
BRANCH   1   2
HETATM    2  C   UNL     1     -21.602  -7.486  -1.941  1.00  0.00     0.000 C 
BRANCH   2   3
HETATM    3  C   UNL     1     -22.512  -6.989  -0.821  1.00  0.00     0.000 C 
BRANCH   3   4
HETATM    4  C   UNL     1     -22.668  -8.044   0.270  1.00  0.00     0.000 C 
BRANCH   4   5
HETATM    5  C   UNL     1     -22.455  -9.445  -0.300  1.00  0.00     0.000 C 
BRANCH   5   6
HETATM    6  C   UNL     1     -23.677 -10.327  -0.061  1.00  0.00     0.000 C 
BRANCH   6   7
HETATM    7  C   UNL     1     -23.940 -11.230  -1.264  1.00  0.00     0.000 C 
BRANCH   7   8
HETATM    8  C   UNL     1     -22.643 -11.542  -2.006  1.00  0.00    -0.000 C 
BRANCH   8   9
HETATM    9  C   UNL     1     -22.802 -11.333  -3.509  1.00  0.00    -0.005 C 
HETATM   10  C   UNL     1     -21.652 -10.515  -4.072  1.00  0.00     0.005 C 
ENDBRANCH   8   9
ENDBRANCH   7   8
ENDBRANCH   6   7
ENDBRANCH   5   6
ENDBRANCH   4   5
ENDBRANCH   3   4
ENDBRANCH   2   3
ENDBRANCH   1   2
BRANCH   1  11
HETATM   11  C   UNL     1     -21.511  -6.994  -4.403  1.00  0.00     0.103 C 
BRANCH  11  12
HETATM   12  C   UNL     1     -22.220  -6.067  -5.376  1.00  0.00     0.219 C 
HETATM   13  O   UNL     1     -23.442  -5.930  -5.366  1.00  0.00    -0.273 OA
HETATM   14  N   UNL     1     -21.422  -5.398  -6.301  1.00  0.00    -0.347 N 
HETATM   15  C   UNL     1     -19.961  -5.466  -6.338  1.00  0.00     0.153 C 
BRANCH  14  16
HETATM   16  C   UNL     1     -22.043  -4.360  -7.153  1.00  0.00     0.235 C 
BRANCH  16  17
HETATM   17  C   UNL     1     -21.800  -4.571  -8.644  1.00  0.00     0.158 C 
HETATM   18  O   UNL     1     -20.734  -4.359  -9.199  1.00  0.00    -0.649 OA
BRANCH  17  19
HETATM   19  O   UNL     1     -22.911  -4.948  -9.322  1.00  0.00    -0.775 OA
HETATM   20  H   UNL     1     -22.886  -4.579 -10.228  1.00  0.00     0.167 HD
ENDBRANCH  17  19
ENDBRANCH  16  17
ENDBRANCH  14  16
ENDBRANCH  11  12
ENDBRANCH   1  11
TORSDOF 13
ENDMDL
