MODEL 1
REMARK VINA RESULT:      -5.6      0.000      0.000
REMARK  6 active torsions:
REMARK  status: ('A' for Active; 'I' for Inactive)
REMARK    1  A    between atoms: C_2  and  O_12 
REMARK    2  A    between atoms: C_3  and  O_11 
REMARK    3  A    between atoms: C_4  and  O_10 
REMARK    4  A    between atoms: C_5  and  C_7 
REMARK    5  A    between atoms: C_5  and  O_9 
REMARK    6  A    between atoms: C_7  and  O_8 
ROOT
HETATM    1  C   UNL     1     -21.595  -2.762 -11.664  1.00  0.00     0.206 C 
HETATM    2  C   UNL     1     -22.255  -3.835 -10.797  1.00  0.00     0.173 C 
HETATM    3  C   UNL     1     -23.223  -4.679 -11.635  1.00  0.00     0.183 C 
HETATM    4  C   UNL     1     -24.223  -3.772 -12.366  1.00  0.00     0.213 C 
HETATM    5  C   UNL     1     -23.506  -2.643 -13.153  1.00  0.00     0.212 C 
HETATM    6  O   UNL     1     -22.567  -1.942 -12.325  1.00  0.00    -0.349 OA
ENDROOT
BRANCH   5   7
HETATM    7  C   UNL     1     -22.847  -3.118 -14.470  1.00  0.00     0.235 C 
BRANCH   7   8
HETATM    8  O   UNL     1     -22.827  -2.127 -15.496  1.00  0.00    -0.395 OA
HETATM    9  H   UNL     1     -23.258  -2.525 -16.276  1.00  0.00     0.209 HD
ENDBRANCH   7   8
ENDBRANCH   5   7
BRANCH   5  10
HETATM   10  O   UNL     1     -24.500  -1.677 -13.529  1.00  0.00    -0.362 OA
HETATM   11  H   UNL     1     -24.314  -0.907 -12.957  1.00  0.00     0.213 HD
ENDBRANCH   5  10
BRANCH   4  12
HETATM   12  O   UNL     1     -25.112  -3.141 -11.396  1.00  0.00    -0.387 OA
HETATM   13  H   UNL     1     -25.804  -2.683 -11.923  1.00  0.00     0.210 HD
ENDBRANCH   4  12
BRANCH   3  14
HETATM   14  O   UNL     1     -23.919  -5.593 -10.777  1.00  0.00    -0.390 OA
HETATM   15  H   UNL     1     -24.550  -5.043 -10.271  1.00  0.00     0.210 HD
ENDBRANCH   3  14
BRANCH   2  16
HETATM   16  O   UNL     1     -23.012  -3.197  -9.747  1.00  0.00    -0.391 OA
HETATM   17  H   UNL     1     -23.863  -2.915 -10.134  1.00  0.00     0.210 HD
ENDBRANCH   2  16
TORSDOF 6
ENDMDL
MODEL 2
REMARK VINA RESULT:      -5.5      1.503      3.737
REMARK  6 active torsions:
REMARK  status: ('A' for Active; 'I' for Inactive)
REMARK    1  A    between atoms: C_2  and  O_12 
REMARK    2  A    between atoms: C_3  and  O_11 
REMARK    3  A    between atoms: C_4  and  O_10 
REMARK    4  A    between atoms: C_5  and  C_7 
REMARK    5  A    between atoms: C_5  and  O_9 
REMARK    6  A    between atoms: C_7  and  O_8 
ROOT
HETATM    1  C   UNL     1     -21.770  -3.004 -10.899  1.00  0.00     0.206 C 
HETATM    2  C   UNL     1     -22.129  -2.704 -12.355  1.00  0.00     0.173 C 
HETATM    3  C   UNL     1     -23.652  -2.669 -12.533  1.00  0.00     0.183 C 
HETATM    4  C   UNL     1     -24.279  -3.962 -11.994  1.00  0.00     0.213 C 
HETATM    5  C   UNL     1     -23.807  -4.270 -10.549  1.00  0.00     0.212 C 
HETATM    6  O   UNL     1     -22.377  -4.218 -10.442  1.00  0.00    -0.349 OA
ENDROOT
BRANCH   5   7
HETATM    7  C   UNL     1     -24.484  -3.394  -9.467  1.00  0.00     0.235 C 
BRANCH   7   8
HETATM    8  O   UNL     1     -25.884  -3.210  -9.665  1.00  0.00    -0.395 OA
HETATM    9  H   UNL     1     -26.037  -3.258 -10.627  1.00  0.00     0.209 HD
ENDBRANCH   7   8
ENDBRANCH   5   7
BRANCH   5  10
HETATM   10  O   UNL     1     -24.177  -5.627 -10.251  1.00  0.00    -0.362 OA
HETATM   11  H   UNL     1     -25.008  -5.762 -10.746  1.00  0.00     0.213 HD
ENDBRANCH   5  10
BRANCH   4  12
HETATM   12  O   UNL     1     -23.888  -5.086 -12.838  1.00  0.00    -0.387 OA
HETATM   13  H   UNL     1     -22.907  -5.132 -12.788  1.00  0.00     0.210 HD
ENDBRANCH   4  12
BRANCH   3  14
HETATM   14  O   UNL     1     -23.963  -2.510 -13.924  1.00  0.00    -0.390 OA
HETATM   15  H   UNL     1     -23.362  -1.808 -14.245  1.00  0.00     0.210 HD
ENDBRANCH   3  14
BRANCH   2  16
HETATM   16  O   UNL     1     -21.604  -3.750 -13.199  1.00  0.00    -0.391 OA
HETATM   17  H   UNL     1     -22.278  -4.455 -13.239  1.00  0.00     0.210 HD
ENDBRANCH   2  16
TORSDOF 6
ENDMDL
MODEL 3
REMARK VINA RESULT:      -5.2      9.884     11.325
REMARK  6 active torsions:
REMARK  status: ('A' for Active; 'I' for Inactive)
REMARK    1  A    between atoms: C_2  and  O_12 
REMARK    2  A    between atoms: C_3  and  O_11 
REMARK    3  A    between atoms: C_4  and  O_10 
REMARK    4  A    between atoms: C_5  and  C_7 
REMARK    5  A    between atoms: C_5  and  O_9 
REMARK    6  A    between atoms: C_7  and  O_8 
ROOT
HETATM    1  C   UNL     1     -35.506  -4.346 -10.860  1.00  0.00     0.206 C 
HETATM    2  C   UNL     1     -34.359  -5.317 -11.142  1.00  0.00     0.173 C 
HETATM    3  C   UNL     1     -33.089  -4.548 -11.525  1.00  0.00     0.183 C 
HETATM    4  C   UNL     1     -33.381  -3.582 -12.681  1.00  0.00     0.213 C 
HETATM    5  C   UNL     1     -34.611  -2.685 -12.383  1.00  0.00     0.212 C 
HETATM    6  O   UNL     1     -35.740  -3.466 -11.966  1.00  0.00    -0.349 OA
ENDROOT
BRANCH   5   7
HETATM    7  C   UNL     1     -34.324  -1.536 -11.387  1.00  0.00     0.235 C 
BRANCH   7   8
HETATM    8  O   UNL     1     -34.688  -0.246 -11.873  1.00  0.00    -0.395 OA
HETATM    9  H   UNL     1     -34.232   0.404 -11.304  1.00  0.00     0.209 HD
ENDBRANCH   7   8
ENDBRANCH   5   7
BRANCH   5  10
HETATM   10  O   UNL     1     -34.999  -2.056 -13.615  1.00  0.00    -0.362 OA
HETATM   11  H   UNL     1     -34.713  -1.128 -13.511  1.00  0.00     0.213 HD
ENDBRANCH   5  10
BRANCH   4  12
HETATM   12  O   UNL     1     -33.668  -4.341 -13.894  1.00  0.00    -0.387 OA
HETATM   13  H   UNL     1     -34.106  -5.169 -13.596  1.00  0.00     0.210 HD
ENDBRANCH   4  12
BRANCH   3  14
HETATM   14  O   UNL     1     -32.067  -5.480 -11.904  1.00  0.00    -0.390 OA
HETATM   15  H   UNL     1     -31.600  -5.704 -11.074  1.00  0.00     0.210 HD
ENDBRANCH   3  14
BRANCH   2  16
HETATM   16  O   UNL     1     -34.719  -6.166 -12.252  1.00  0.00    -0.391 OA
HETATM   17  H   UNL     1     -35.218  -6.922 -11.888  1.00  0.00     0.210 HD
ENDBRANCH   2  16
TORSDOF 6
ENDMDL
MODEL 4
REMARK VINA RESULT:      -4.9      2.529      4.090
REMARK  6 active torsions:
REMARK  status: ('A' for Active; 'I' for Inactive)
REMARK    1  A    between atoms: C_2  and  O_12 
REMARK    2  A    between atoms: C_3  and  O_11 
REMARK    3  A    between atoms: C_4  and  O_10 
REMARK    4  A    between atoms: C_5  and  C_7 
REMARK    5  A    between atoms: C_5  and  O_9 
REMARK    6  A    between atoms: C_7  and  O_8 
ROOT
HETATM    1  C   UNL     1     -21.498  -4.468  -8.553  1.00  0.00     0.206 C 
HETATM    2  C   UNL     1     -20.514  -3.958  -9.607  1.00  0.00     0.173 C 
HETATM    3  C   UNL     1     -21.229  -3.043 -10.609  1.00  0.00     0.183 C 
HETATM    4  C   UNL     1     -22.454  -3.756 -11.198  1.00  0.00     0.213 C 
HETATM    5  C   UNL     1     -23.370  -4.337 -10.089  1.00  0.00     0.212 C 
HETATM    6  O   UNL     1     -22.622  -5.124  -9.151  1.00  0.00    -0.349 OA
ENDROOT
BRANCH   5   7
HETATM    7  C   UNL     1     -24.233  -3.274  -9.368  1.00  0.00     0.235 C 
BRANCH   7   8
HETATM    8  O   UNL     1     -25.606  -3.285  -9.754  1.00  0.00    -0.395 OA
HETATM    9  H   UNL     1     -25.666  -3.849 -10.548  1.00  0.00     0.209 HD
ENDBRANCH   7   8
ENDBRANCH   5   7
BRANCH   5  10
HETATM   10  O   UNL     1     -24.293  -5.241 -10.717  1.00  0.00    -0.362 OA
HETATM   11  H   UNL     1     -24.085  -6.109 -10.321  1.00  0.00     0.213 HD
ENDBRANCH   5  10
BRANCH   4  12
HETATM   12  O   UNL     1     -22.018  -4.865 -12.040  1.00  0.00    -0.387 OA
HETATM   13  H   UNL     1     -21.036  -4.874 -11.987  1.00  0.00     0.210 HD
ENDBRANCH   4  12
BRANCH   3  14
HETATM   14  O   UNL     1     -20.316  -2.680 -11.654  1.00  0.00    -0.390 OA
HETATM   15  H   UNL     1     -20.717  -3.023 -12.477  1.00  0.00     0.210 HD
ENDBRANCH   3  14
BRANCH   2  16
HETATM   16  O   UNL     1     -19.974  -5.081 -10.334  1.00  0.00    -0.391 OA
HETATM   17  H   UNL     1     -20.693  -5.440 -10.889  1.00  0.00     0.210 HD
ENDBRANCH   2  16
TORSDOF 6
ENDMDL
MODEL 5
REMARK VINA RESULT:      -4.9     11.423     12.683
REMARK  6 active torsions:
REMARK  status: ('A' for Active; 'I' for Inactive)
REMARK    1  A    between atoms: C_2  and  O_12 
REMARK    2  A    between atoms: C_3  and  O_11 
REMARK    3  A    between atoms: C_4  and  O_10 
REMARK    4  A    between atoms: C_5  and  C_7 
REMARK    5  A    between atoms: C_5  and  O_9 
REMARK    6  A    between atoms: C_7  and  O_8 
ROOT
HETATM    1  C   UNL     1     -37.100  -0.399 -11.809  1.00  0.00     0.206 C 
HETATM    2  C   UNL     1     -36.287  -1.182 -10.777  1.00  0.00     0.173 C 
HETATM    3  C   UNL     1     -34.795  -1.138 -11.128  1.00  0.00     0.183 C 
HETATM    4  C   UNL     1     -34.575  -1.606 -12.573  1.00  0.00     0.213 C 
HETATM    5  C   UNL     1     -35.492  -0.847 -13.568  1.00  0.00     0.212 C 
HETATM    6  O   UNL     1     -36.862  -0.871 -13.141  1.00  0.00    -0.349 OA
ENDROOT
BRANCH   5   7
HETATM    7  C   UNL     1     -35.026   0.596 -13.877  1.00  0.00     0.235 C 
BRANCH   7   8
HETATM    8  O   UNL     1     -35.850   1.280 -14.818  1.00  0.00    -0.395 OA
HETATM    9  H   UNL     1     -36.629   1.599 -14.325  1.00  0.00     0.209 HD
ENDBRANCH   7   8
ENDBRANCH   5   7
BRANCH   5  10
HETATM   10  O   UNL     1     -35.456  -1.554 -14.818  1.00  0.00    -0.362 OA
HETATM   11  H   UNL     1     -34.543  -1.896 -14.873  1.00  0.00     0.213 HD
ENDBRANCH   5  10
BRANCH   4  12
HETATM   12  O   UNL     1     -34.884  -3.028 -12.681  1.00  0.00    -0.387 OA
HETATM   13  H   UNL     1     -34.135  -3.430 -13.175  1.00  0.00     0.210 HD
ENDBRANCH   4  12
BRANCH   3  14
HETATM   14  O   UNL     1     -34.070  -1.979 -10.219  1.00  0.00    -0.390 OA
HETATM   15  H   UNL     1     -33.951  -1.443  -9.410  1.00  0.00     0.210 HD
ENDBRANCH   3  14
BRANCH   2  16
HETATM   16  O   UNL     1     -36.709  -2.561 -10.788  1.00  0.00    -0.391 OA
HETATM   17  H   UNL     1     -37.642  -2.581 -10.501  1.00  0.00     0.210 HD
ENDBRANCH   2  16
TORSDOF 6
ENDMDL
MODEL 6
REMARK VINA RESULT:      -4.8      3.230      4.457
REMARK  6 active torsions:
REMARK  status: ('A' for Active; 'I' for Inactive)
REMARK    1  A    between atoms: C_2  and  O_12 
REMARK    2  A    between atoms: C_3  and  O_11 
REMARK    3  A    between atoms: C_4  and  O_10 
REMARK    4  A    between atoms: C_5  and  C_7 
REMARK    5  A    between atoms: C_5  and  O_9 
REMARK    6  A    between atoms: C_7  and  O_8 
ROOT
HETATM    1  C   UNL     1     -20.835  -4.304 -10.362  1.00  0.00     0.206 C 
HETATM    2  C   UNL     1     -20.190  -4.773  -9.057  1.00  0.00     0.173 C 
HETATM    3  C   UNL     1     -21.247  -5.377  -8.125  1.00  0.00     0.183 C 
HETATM    4  C   UNL     1     -22.405  -4.389  -7.923  1.00  0.00     0.213 C 
HETATM    5  C   UNL     1     -22.960  -3.871  -9.276  1.00  0.00     0.212 C 
HETATM    6  O   UNL     1     -21.908  -3.385 -10.123  1.00  0.00    -0.349 OA
ENDROOT
BRANCH   5   7
HETATM    7  C   UNL     1     -23.853  -4.893 -10.020  1.00  0.00     0.235 C 
BRANCH   7   8
HETATM    8  O   UNL     1     -25.227  -4.841  -9.644  1.00  0.00    -0.395 OA
HETATM    9  H   UNL     1     -25.395  -3.933  -9.329  1.00  0.00     0.209 HD
ENDBRANCH   7   8
ENDBRANCH   5   7
BRANCH   5  10
HETATM   10  O   UNL     1     -23.798  -2.738  -8.997  1.00  0.00    -0.362 OA
HETATM   11  H   UNL     1     -23.630  -2.544  -8.055  1.00  0.00     0.213 HD
ENDBRANCH   5  10
BRANCH   4  12
HETATM   12  O   UNL     1     -21.937  -3.234  -7.164  1.00  0.00    -0.387 OA
HETATM   13  H   UNL     1     -22.693  -2.606  -7.134  1.00  0.00     0.210 HD
ENDBRANCH   4  12
BRANCH   3  14
HETATM   14  O   UNL     1     -20.641  -5.694  -6.864  1.00  0.00    -0.390 OA
HETATM   15  H   UNL     1     -20.937  -6.603  -6.656  1.00  0.00     0.210 HD
ENDBRANCH   3  14
BRANCH   2  16
HETATM   16  O   UNL     1     -19.598  -3.641  -8.387  1.00  0.00    -0.391 OA
HETATM   17  H   UNL     1     -20.049  -3.544  -7.527  1.00  0.00     0.210 HD
ENDBRANCH   2  16
TORSDOF 6
ENDMDL
MODEL 7
REMARK VINA RESULT:      -4.7      1.666      2.447
REMARK  6 active torsions:
REMARK  status: ('A' for Active; 'I' for Inactive)
REMARK    1  A    between atoms: C_2  and  O_12 
REMARK    2  A    between atoms: C_3  and  O_11 
REMARK    3  A    between atoms: C_4  and  O_10 
REMARK    4  A    between atoms: C_5  and  C_7 
REMARK    5  A    between atoms: C_5  and  O_9 
REMARK    6  A    between atoms: C_7  and  O_8 
ROOT
HETATM    1  C   UNL     1     -24.463  -3.084 -10.609  1.00  0.00     0.206 C 
HETATM    2  C   UNL     1     -23.065  -3.387 -10.067  1.00  0.00     0.173 C 
HETATM    3  C   UNL     1     -22.000  -3.046 -11.115  1.00  0.00     0.183 C 
HETATM    4  C   UNL     1     -22.316  -3.750 -12.443  1.00  0.00     0.213 C 
HETATM    5  C   UNL     1     -23.775  -3.486 -12.899  1.00  0.00     0.212 C 
HETATM    6  O   UNL     1     -24.711  -3.761 -11.846  1.00  0.00    -0.349 OA
ENDROOT
BRANCH   5   7
HETATM    7  C   UNL     1     -24.001  -2.077 -13.497  1.00  0.00     0.235 C 
BRANCH   7   8
HETATM    8  O   UNL     1     -23.914  -2.032 -14.920  1.00  0.00    -0.395 OA
HETATM    9  H   UNL     1     -24.371  -1.217 -15.201  1.00  0.00     0.209 HD
ENDBRANCH   7   8
ENDBRANCH   5   7
BRANCH   5  10
HETATM   10  O   UNL     1     -24.077  -4.419 -13.950  1.00  0.00    -0.362 OA
HETATM   11  H   UNL     1     -24.815  -4.950 -13.593  1.00  0.00     0.213 HD
ENDBRANCH   5  10
BRANCH   4  12
HETATM   12  O   UNL     1     -22.154  -5.191 -12.285  1.00  0.00    -0.387 OA
HETATM   13  H   UNL     1     -22.519  -5.408 -11.398  1.00  0.00     0.210 HD
ENDBRANCH   4  12
BRANCH   3  14
HETATM   14  O   UNL     1     -20.712  -3.455 -10.633  1.00  0.00    -0.390 OA
HETATM   15  H   UNL     1     -20.133  -3.466 -11.421  1.00  0.00     0.210 HD
ENDBRANCH   3  14
BRANCH   2  16
HETATM   16  O   UNL     1     -22.967  -4.796  -9.772  1.00  0.00    -0.391 OA
HETATM   17  H   UNL     1     -22.550  -5.226 -10.543  1.00  0.00     0.210 HD
ENDBRANCH   2  16
TORSDOF 6
ENDMDL
MODEL 8
REMARK VINA RESULT:      -4.7      2.105      2.626
REMARK  6 active torsions:
REMARK  status: ('A' for Active; 'I' for Inactive)
REMARK    1  A    between atoms: C_2  and  O_12 
REMARK    2  A    between atoms: C_3  and  O_11 
REMARK    3  A    between atoms: C_4  and  O_10 
REMARK    4  A    between atoms: C_5  and  C_7 
REMARK    5  A    between atoms: C_5  and  O_9 
REMARK    6  A    between atoms: C_7  and  O_8 
ROOT
HETATM    1  C   UNL     1     -21.378  -3.896 -10.007  1.00  0.00     0.206 C 
HETATM    2  C   UNL     1     -21.977  -4.064  -8.609  1.00  0.00     0.173 C 
HETATM    3  C   UNL     1     -23.381  -4.674  -8.700  1.00  0.00     0.183 C 
HETATM    4  C   UNL     1     -24.257  -3.851  -9.656  1.00  0.00     0.213 C 
HETATM    5  C   UNL     1     -23.562  -3.629 -11.025  1.00  0.00     0.212 C 
HETATM    6  O   UNL     1     -22.230  -3.123 -10.860  1.00  0.00    -0.349 OA
ENDROOT
BRANCH   5   7
HETATM    7  C   UNL     1     -23.581  -4.873 -11.946  1.00  0.00     0.235 C 
BRANCH   7   8
HETATM    8  O   UNL     1     -23.895  -4.579 -13.306  1.00  0.00    -0.395 OA
HETATM    9  H   UNL     1     -24.859  -4.697 -13.400  1.00  0.00     0.209 HD
ENDBRANCH   7   8
ENDBRANCH   5   7
BRANCH   5  10
HETATM   10  O   UNL     1     -24.291  -2.606 -11.721  1.00  0.00    -0.362 OA
HETATM   11  H   UNL     1     -25.170  -3.002 -11.878  1.00  0.00     0.213 HD
ENDBRANCH   5  10
BRANCH   4  12
HETATM   12  O   UNL     1     -24.520  -2.539  -9.073  1.00  0.00    -0.387 OA
HETATM   13  H   UNL     1     -24.854  -1.979  -9.809  1.00  0.00     0.210 HD
ENDBRANCH   4  12
BRANCH   3  14
HETATM   14  O   UNL     1     -23.969  -4.706  -7.392  1.00  0.00    -0.390 OA
HETATM   15  H   UNL     1     -24.260  -3.788  -7.218  1.00  0.00     0.210 HD
ENDBRANCH   3  14
BRANCH   2  16
HETATM   16  O   UNL     1     -22.092  -2.769  -7.984  1.00  0.00    -0.391 OA
HETATM   17  H   UNL     1     -22.400  -2.915  -7.069  1.00  0.00     0.210 HD
ENDBRANCH   2  16
TORSDOF 6
ENDMDL
MODEL 9
REMARK VINA RESULT:      -4.6     11.484     13.052
REMARK  6 active torsions:
REMARK  status: ('A' for Active; 'I' for Inactive)
REMARK    1  A    between atoms: C_2  and  O_12 
REMARK    2  A    between atoms: C_3  and  O_11 
REMARK    3  A    between atoms: C_4  and  O_10 
REMARK    4  A    between atoms: C_5  and  C_7 
REMARK    5  A    between atoms: C_5  and  O_9 
REMARK    6  A    between atoms: C_7  and  O_8 
ROOT
HETATM    1  C   UNL     1     -35.408  -1.012 -13.335  1.00  0.00     0.206 C 
HETATM    2  C   UNL     1     -36.395  -0.052 -12.669  1.00  0.00     0.173 C 
HETATM    3  C   UNL     1     -36.130   0.025 -11.161  1.00  0.00     0.183 C 
HETATM    4  C   UNL     1     -36.126  -1.383 -10.549  1.00  0.00     0.213 C 
HETATM    5  C   UNL     1     -35.181  -2.341 -11.320  1.00  0.00     0.212 C 
HETATM    6  O   UNL     1     -35.440  -2.311 -12.732  1.00  0.00    -0.349 OA
ENDROOT
BRANCH   5   7
HETATM    7  C   UNL     1     -33.679  -2.117 -11.021  1.00  0.00     0.235 C 
BRANCH   7   8
HETATM    8  O   UNL     1     -32.844  -3.208 -11.404  1.00  0.00    -0.395 OA
HETATM    9  H   UNL     1     -32.702  -3.125 -12.366  1.00  0.00     0.209 HD
ENDBRANCH   7   8
ENDBRANCH   5   7
BRANCH   5  10
HETATM   10  O   UNL     1     -35.477  -3.681 -10.893  1.00  0.00    -0.362 OA
HETATM   11  H   UNL     1     -35.017  -3.765 -10.036  1.00  0.00     0.213 HD
ENDBRANCH   5  10
BRANCH   4  12
HETATM   12  O   UNL     1     -37.471  -1.946 -10.605  1.00  0.00    -0.387 OA
HETATM   13  H   UNL     1     -37.629  -2.174 -11.548  1.00  0.00     0.210 HD
ENDBRANCH   4  12
BRANCH   3  14
HETATM   14  O   UNL     1     -37.143   0.831 -10.543  1.00  0.00    -0.390 OA
HETATM   15  H   UNL     1     -36.865   1.756 -10.694  1.00  0.00     0.210 HD
ENDBRANCH   3  14
BRANCH   2  16
HETATM   16  O   UNL     1     -37.738  -0.544 -12.863  1.00  0.00    -0.391 OA
HETATM   17  H   UNL     1     -37.716  -1.510 -12.718  1.00  0.00     0.210 HD
ENDBRANCH   2  16
TORSDOF 6
ENDMDL
