MODEL 1
REMARK VINA RESULT:      -6.8      0.000      0.000
REMARK WARNING: 32 MAX_TORS EXCEEDED!!!
REMARK  70 active torsions:
REMARK  status: ('A' for Active; 'I' for Inactive)
REMARK    1  A    between atoms: C_2  and  C_3 
REMARK    2  A    between atoms: C_3  and  C_4 
REMARK    3  A    between atoms: C_4  and  C_5 
REMARK    4  A    between atoms: C_5  and  C_6 
REMARK    5  A    between atoms: C_6  and  C_7 
REMARK    6  A    between atoms: C_7  and  C_8 
REMARK    7  A    between atoms: C_8  and  C_9 
REMARK    8  A    between atoms: C_10  and  C_11 
REMARK    9  A    between atoms: C_11  and  C_12 
REMARK   10  A    between atoms: C_12  and  C_13 
REMARK   11  A    between atoms: C_13  and  C_14 
REMARK   12  A    between atoms: C_14  and  C_15 
REMARK   13  A    between atoms: C_15  and  C_16 
REMARK   14  A    between atoms: C_16  and  C_17 
REMARK   15  A    between atoms: C_17  and  C_18 
REMARK   16  A    between atoms: C_18  and  O_20 
REMARK   17  A    between atoms: C_23  and  C_24 
REMARK   18  A    between atoms: C_24  and  C_25 
REMARK   19  A    between atoms: C_25  and  C_26 
REMARK   20  A    between atoms: C_26  and  C_27 
REMARK   21  A    between atoms: C_27  and  C_28 
REMARK   22  A    between atoms: C_28  and  C_29 
REMARK   23  A    between atoms: C_29  and  C_30 
REMARK   24  A    between atoms: C_31  and  C_32 
REMARK   25  A    between atoms: C_32  and  C_33 
REMARK   26  A    between atoms: C_33  and  C_34 
REMARK   27  A    between atoms: C_34  and  C_35 
REMARK   28  A    between atoms: C_35  and  C_36 
REMARK   29  A    between atoms: C_36  and  C_37 
REMARK   30  A    between atoms: C_37  and  C_38 
REMARK   31  A    between atoms: C_38  and  C_39 
REMARK   32  A    between atoms: C_39  and  O_41 
REMARK   33  A    between atoms: C_44  and  C_45 
REMARK   34  A    between atoms: C_45  and  C_46 
REMARK   35  A    between atoms: C_46  and  C_47 
REMARK   36  A    between atoms: C_47  and  C_48 
REMARK   37  A    between atoms: C_48  and  C_49 
REMARK   38  A    between atoms: C_49  and  C_50 
REMARK   39  A    between atoms: C_50  and  C_51 
REMARK   40  A    between atoms: C_52  and  C_53 
REMARK   41  A    between atoms: C_53  and  C_54 
REMARK   42  A    between atoms: C_54  and  C_55 
REMARK   43  A    between atoms: C_55  and  C_56 
REMARK   44  A    between atoms: C_56  and  C_57 
REMARK   45  A    between atoms: C_57  and  C_58 
REMARK   46  A    between atoms: C_58  and  C_59 
REMARK   47  A    between atoms: C_59  and  C_60 
REMARK   48  A    between atoms: C_60  and  O_62 
REMARK   49  A    between atoms: C_64  and  C_65 
REMARK   50  A    between atoms: C_64  and  O_75 
REMARK   51  A    between atoms: C_65  and  C_66 
REMARK   52  A    between atoms: C_65  and  O_74 
REMARK   53  A    between atoms: C_66  and  C_67 
REMARK   54  A    between atoms: C_66  and  O_73 
REMARK   55  A    between atoms: C_67  and  C_68 
REMARK   56  A    between atoms: C_67  and  O_72 
REMARK   57  A    between atoms: C_68  and  C_69 
REMARK   58  A    between atoms: C_68  and  O_71 
REMARK   59  A    between atoms: C_69  and  O_70 
REMARK   60  A    between atoms: C_82  and  C_83 
REMARK   61  A    between atoms: C_82  and  O_93 
REMARK   62  A    between atoms: C_83  and  C_84 
REMARK   63  A    between atoms: C_83  and  O_92 
REMARK   64  A    between atoms: C_84  and  C_85 
REMARK   65  A    between atoms: C_84  and  O_91 
REMARK   66  A    between atoms: C_85  and  C_86 
REMARK   67  A    between atoms: C_85  and  O_90 
REMARK   68  A    between atoms: C_86  and  C_87 
REMARK   69  A    between atoms: C_86  and  O_89 
REMARK   70  A    between atoms: C_87  and  O_88 
ROOT
HETATM    1  C   UNL     4     -22.692  -2.930 -12.963  1.00  0.00     0.180 C 
ENDROOT
BRANCH   1   2
HETATM    2  C   UNL     4     -23.110  -2.505 -14.434  1.00  0.00     0.173 C 
BRANCH   2   3
HETATM    3  C   UNL     4     -23.813  -0.996 -15.136  1.00  0.00     0.198 C 
BRANCH   3   4
HETATM    4  O   UNL     4     -25.036  -0.365 -14.759  1.00  0.00    -0.398 OA
HETATM    5  H   UNL     4     -24.929   0.343 -14.088  1.00  0.00     0.209 HD
ENDBRANCH   3   4
ENDBRANCH   2   3
BRANCH   2   6
HETATM    6  O   UNL     4     -23.721  -3.782 -14.792  1.00  0.00    -0.391 OA
HETATM    7  H   UNL     4     -24.353  -3.635 -15.516  1.00  0.00     0.210 HD
ENDBRANCH   2   6
ENDBRANCH   1   2
BRANCH   1   8
HETATM    8  C   UNL     4     -23.885  -3.499 -12.117  1.00  0.00     0.180 C 
BRANCH   8   9
HETATM    9  C   UNL     4     -23.719  -3.228 -10.610  1.00  0.00     0.173 C 
BRANCH   9  10
HETATM   10  C   UNL     4     -24.722  -3.997  -9.757  1.00  0.00     0.198 C 
BRANCH  10  11
HETATM   11  O   UNL     4     -25.937  -3.246  -9.706  1.00  0.00    -0.398 OA
HETATM   12  H   UNL     4     -26.281  -3.393  -8.792  1.00  0.00     0.209 HD
ENDBRANCH  10  11
ENDBRANCH   9  10
BRANCH   9  13
HETATM   13  O   UNL     4     -22.431  -3.580 -10.068  1.00  0.00    -0.391 OA
HETATM   14  H   UNL     4     -22.134  -2.829  -9.510  1.00  0.00     0.210 HD
ENDBRANCH   9  13
ENDBRANCH   8   9
BRANCH   8  15
HETATM   15  O   UNL     4     -25.095  -2.863 -12.573  1.00  0.00    -0.390 OA
HETATM   16  H   UNL     4     -24.858  -2.141 -13.186  1.00  0.00     0.210 HD
ENDBRANCH   8  15
ENDBRANCH   1   8
BRANCH   1  17
HETATM   17  O   UNL     4     -21.640  -3.879 -12.828  1.00  0.00    -0.390 OA
HETATM   18  H   UNL     4     -20.854  -3.538 -13.300  1.00  0.00     0.210 HD
ENDBRANCH   1  17
TORSDOF 70
ENDMDL
MODEL 2
REMARK VINA RESULT:      -6.3      1.169      2.073
REMARK WARNING: 32 MAX_TORS EXCEEDED!!!
REMARK  70 active torsions:
REMARK  status: ('A' for Active; 'I' for Inactive)
REMARK    1  A    between atoms: C_2  and  C_3 
REMARK    2  A    between atoms: C_3  and  C_4 
REMARK    3  A    between atoms: C_4  and  C_5 
REMARK    4  A    between atoms: C_5  and  C_6 
REMARK    5  A    between atoms: C_6  and  C_7 
REMARK    6  A    between atoms: C_7  and  C_8 
REMARK    7  A    between atoms: C_8  and  C_9 
REMARK    8  A    between atoms: C_10  and  C_11 
REMARK    9  A    between atoms: C_11  and  C_12 
REMARK   10  A    between atoms: C_12  and  C_13 
REMARK   11  A    between atoms: C_13  and  C_14 
REMARK   12  A    between atoms: C_14  and  C_15 
REMARK   13  A    between atoms: C_15  and  C_16 
REMARK   14  A    between atoms: C_16  and  C_17 
REMARK   15  A    between atoms: C_17  and  C_18 
REMARK   16  A    between atoms: C_18  and  O_20 
REMARK   17  A    between atoms: C_23  and  C_24 
REMARK   18  A    between atoms: C_24  and  C_25 
REMARK   19  A    between atoms: C_25  and  C_26 
REMARK   20  A    between atoms: C_26  and  C_27 
REMARK   21  A    between atoms: C_27  and  C_28 
REMARK   22  A    between atoms: C_28  and  C_29 
REMARK   23  A    between atoms: C_29  and  C_30 
REMARK   24  A    between atoms: C_31  and  C_32 
REMARK   25  A    between atoms: C_32  and  C_33 
REMARK   26  A    between atoms: C_33  and  C_34 
REMARK   27  A    between atoms: C_34  and  C_35 
REMARK   28  A    between atoms: C_35  and  C_36 
REMARK   29  A    between atoms: C_36  and  C_37 
REMARK   30  A    between atoms: C_37  and  C_38 
REMARK   31  A    between atoms: C_38  and  C_39 
REMARK   32  A    between atoms: C_39  and  O_41 
REMARK   33  A    between atoms: C_44  and  C_45 
REMARK   34  A    between atoms: C_45  and  C_46 
REMARK   35  A    between atoms: C_46  and  C_47 
REMARK   36  A    between atoms: C_47  and  C_48 
REMARK   37  A    between atoms: C_48  and  C_49 
REMARK   38  A    between atoms: C_49  and  C_50 
REMARK   39  A    between atoms: C_50  and  C_51 
REMARK   40  A    between atoms: C_52  and  C_53 
REMARK   41  A    between atoms: C_53  and  C_54 
REMARK   42  A    between atoms: C_54  and  C_55 
REMARK   43  A    between atoms: C_55  and  C_56 
REMARK   44  A    between atoms: C_56  and  C_57 
REMARK   45  A    between atoms: C_57  and  C_58 
REMARK   46  A    between atoms: C_58  and  C_59 
REMARK   47  A    between atoms: C_59  and  C_60 
REMARK   48  A    between atoms: C_60  and  O_62 
REMARK   49  A    between atoms: C_64  and  C_65 
REMARK   50  A    between atoms: C_64  and  O_75 
REMARK   51  A    between atoms: C_65  and  C_66 
REMARK   52  A    between atoms: C_65  and  O_74 
REMARK   53  A    between atoms: C_66  and  C_67 
REMARK   54  A    between atoms: C_66  and  O_73 
REMARK   55  A    between atoms: C_67  and  C_68 
REMARK   56  A    between atoms: C_67  and  O_72 
REMARK   57  A    between atoms: C_68  and  C_69 
REMARK   58  A    between atoms: C_68  and  O_71 
REMARK   59  A    between atoms: C_69  and  O_70 
REMARK   60  A    between atoms: C_82  and  C_83 
REMARK   61  A    between atoms: C_82  and  O_93 
REMARK   62  A    between atoms: C_83  and  C_84 
REMARK   63  A    between atoms: C_83  and  O_92 
REMARK   64  A    between atoms: C_84  and  C_85 
REMARK   65  A    between atoms: C_84  and  O_91 
REMARK   66  A    between atoms: C_85  and  C_86 
REMARK   67  A    between atoms: C_85  and  O_90 
REMARK   68  A    between atoms: C_86  and  C_87 
REMARK   69  A    between atoms: C_86  and  O_89 
REMARK   70  A    between atoms: C_87  and  O_88 
ROOT
HETATM    1  C   UNL     4     -24.088  -3.107 -12.772  1.00  0.00     0.180 C 
ENDROOT
BRANCH   1   2
HETATM    2  C   UNL     4     -23.340  -2.211 -13.848  1.00  0.00     0.173 C 
BRANCH   2   3
HETATM    3  C   UNL     4     -23.906  -0.994 -15.057  1.00  0.00     0.198 C 
BRANCH   3   4
HETATM    4  O   UNL     4     -25.039  -0.135 -14.942  1.00  0.00    -0.398 OA
HETATM    5  H   UNL     4     -24.922   0.594 -14.295  1.00  0.00     0.209 HD
ENDBRANCH   3   4
ENDBRANCH   2   3
BRANCH   2   6
HETATM    6  O   UNL     4     -22.417  -3.250 -14.295  1.00  0.00    -0.391 OA
HETATM    7  H   UNL     4     -21.740  -3.384 -13.611  1.00  0.00     0.210 HD
ENDBRANCH   2   6
ENDBRANCH   1   2
BRANCH   1   8
HETATM    8  C   UNL     4     -23.493  -2.969 -11.327  1.00  0.00     0.180 C 
BRANCH   8   9
HETATM    9  C   UNL     4     -24.224  -3.858 -10.303  1.00  0.00     0.173 C 
BRANCH   9  10
HETATM   10  C   UNL     4     -23.355  -4.216  -9.103  1.00  0.00     0.198 C 
BRANCH  10  11
HETATM   11  O   UNL     4     -24.149  -4.090  -7.920  1.00  0.00    -0.398 OA
HETATM   12  H   UNL     4     -23.642  -4.580  -7.229  1.00  0.00     0.209 HD
ENDBRANCH  10  11
ENDBRANCH   9  10
BRANCH   9  13
HETATM   13  O   UNL     4     -25.413  -3.275  -9.733  1.00  0.00    -0.391 OA
HETATM   14  H   UNL     4     -25.135  -2.747  -8.953  1.00  0.00     0.210 HD
ENDBRANCH   9  13
ENDBRANCH   8   9
BRANCH   8  15
HETATM   15  O   UNL     4     -22.108  -3.362 -11.378  1.00  0.00    -0.390 OA
HETATM   16  H   UNL     4     -21.553  -2.559 -11.352  1.00  0.00     0.210 HD
ENDBRANCH   8  15
ENDBRANCH   1   8
BRANCH   1  17
HETATM   17  O   UNL     4     -25.492  -2.924 -12.628  1.00  0.00    -0.390 OA
HETATM   18  H   UNL     4     -25.948  -3.525 -13.252  1.00  0.00     0.210 HD
ENDBRANCH   1  17
TORSDOF 70
ENDMDL
MODEL 3
REMARK VINA RESULT:      -6.1      0.802      4.334
REMARK WARNING: 32 MAX_TORS EXCEEDED!!!
REMARK  70 active torsions:
REMARK  status: ('A' for Active; 'I' for Inactive)
REMARK    1  A    between atoms: C_2  and  C_3 
REMARK    2  A    between atoms: C_3  and  C_4 
REMARK    3  A    between atoms: C_4  and  C_5 
REMARK    4  A    between atoms: C_5  and  C_6 
REMARK    5  A    between atoms: C_6  and  C_7 
REMARK    6  A    between atoms: C_7  and  C_8 
REMARK    7  A    between atoms: C_8  and  C_9 
REMARK    8  A    between atoms: C_10  and  C_11 
REMARK    9  A    between atoms: C_11  and  C_12 
REMARK   10  A    between atoms: C_12  and  C_13 
REMARK   11  A    between atoms: C_13  and  C_14 
REMARK   12  A    between atoms: C_14  and  C_15 
REMARK   13  A    between atoms: C_15  and  C_16 
REMARK   14  A    between atoms: C_16  and  C_17 
REMARK   15  A    between atoms: C_17  and  C_18 
REMARK   16  A    between atoms: C_18  and  O_20 
REMARK   17  A    between atoms: C_23  and  C_24 
REMARK   18  A    between atoms: C_24  and  C_25 
REMARK   19  A    between atoms: C_25  and  C_26 
REMARK   20  A    between atoms: C_26  and  C_27 
REMARK   21  A    between atoms: C_27  and  C_28 
REMARK   22  A    between atoms: C_28  and  C_29 
REMARK   23  A    between atoms: C_29  and  C_30 
REMARK   24  A    between atoms: C_31  and  C_32 
REMARK   25  A    between atoms: C_32  and  C_33 
REMARK   26  A    between atoms: C_33  and  C_34 
REMARK   27  A    between atoms: C_34  and  C_35 
REMARK   28  A    between atoms: C_35  and  C_36 
REMARK   29  A    between atoms: C_36  and  C_37 
REMARK   30  A    between atoms: C_37  and  C_38 
REMARK   31  A    between atoms: C_38  and  C_39 
REMARK   32  A    between atoms: C_39  and  O_41 
REMARK   33  A    between atoms: C_44  and  C_45 
REMARK   34  A    between atoms: C_45  and  C_46 
REMARK   35  A    between atoms: C_46  and  C_47 
REMARK   36  A    between atoms: C_47  and  C_48 
REMARK   37  A    between atoms: C_48  and  C_49 
REMARK   38  A    between atoms: C_49  and  C_50 
REMARK   39  A    between atoms: C_50  and  C_51 
REMARK   40  A    between atoms: C_52  and  C_53 
REMARK   41  A    between atoms: C_53  and  C_54 
REMARK   42  A    between atoms: C_54  and  C_55 
REMARK   43  A    between atoms: C_55  and  C_56 
REMARK   44  A    between atoms: C_56  and  C_57 
REMARK   45  A    between atoms: C_57  and  C_58 
REMARK   46  A    between atoms: C_58  and  C_59 
REMARK   47  A    between atoms: C_59  and  C_60 
REMARK   48  A    between atoms: C_60  and  O_62 
REMARK   49  A    between atoms: C_64  and  C_65 
REMARK   50  A    between atoms: C_64  and  O_75 
REMARK   51  A    between atoms: C_65  and  C_66 
REMARK   52  A    between atoms: C_65  and  O_74 
REMARK   53  A    between atoms: C_66  and  C_67 
REMARK   54  A    between atoms: C_66  and  O_73 
REMARK   55  A    between atoms: C_67  and  C_68 
REMARK   56  A    between atoms: C_67  and  O_72 
REMARK   57  A    between atoms: C_68  and  C_69 
REMARK   58  A    between atoms: C_68  and  O_71 
REMARK   59  A    between atoms: C_69  and  O_70 
REMARK   60  A    between atoms: C_82  and  C_83 
REMARK   61  A    between atoms: C_82  and  O_93 
REMARK   62  A    between atoms: C_83  and  C_84 
REMARK   63  A    between atoms: C_83  and  O_92 
REMARK   64  A    between atoms: C_84  and  C_85 
REMARK   65  A    between atoms: C_84  and  O_91 
REMARK   66  A    between atoms: C_85  and  C_86 
REMARK   67  A    between atoms: C_85  and  O_90 
REMARK   68  A    between atoms: C_86  and  C_87 
REMARK   69  A    between atoms: C_86  and  O_89 
REMARK   70  A    between atoms: C_87  and  O_88 
ROOT
HETATM    1  C   UNL     4     -22.681  -3.885 -12.331  1.00  0.00     0.180 C 
ENDROOT
BRANCH   1   2
HETATM    2  C   UNL     4     -23.003  -4.162 -10.802  1.00  0.00     0.173 C 
BRANCH   2   3
HETATM    3  C   UNL     4     -24.541  -4.309  -9.865  1.00  0.00     0.198 C 
BRANCH   3   4
HETATM    4  O   UNL     4     -25.576  -3.332  -9.759  1.00  0.00    -0.398 OA
HETATM    5  H   UNL     4     -25.448  -2.553 -10.341  1.00  0.00     0.209 HD
ENDBRANCH   3   4
ENDBRANCH   2   3
BRANCH   2   6
HETATM    6  O   UNL     4     -21.949  -3.304 -10.267  1.00  0.00    -0.391 OA
HETATM    7  H   UNL     4     -21.106  -3.787 -10.296  1.00  0.00     0.210 HD
ENDBRANCH   2   6
ENDBRANCH   1   2
BRANCH   1   8
HETATM    8  C   UNL     4     -23.329  -2.562 -12.872  1.00  0.00     0.180 C 
BRANCH   8   9
HETATM    9  C   UNL     4     -23.450  -2.552 -14.408  1.00  0.00     0.173 C 
BRANCH   9  10
HETATM   10  C   UNL     4     -23.628  -1.149 -14.978  1.00  0.00     0.198 C 
BRANCH  10  11
HETATM   11  O   UNL     4     -24.909  -0.660 -14.572  1.00  0.00    -0.398 OA
HETATM   12  H   UNL     4     -24.901   0.294 -14.830  1.00  0.00     0.209 HD
ENDBRANCH  10  11
ENDBRANCH   9  10
BRANCH   9  13
HETATM   13  O   UNL     4     -22.313  -3.091 -15.109  1.00  0.00    -0.391 OA
HETATM   14  H   UNL     4     -22.358  -2.764 -16.035  1.00  0.00     0.210 HD
ENDBRANCH   9  13
ENDBRANCH   8   9
BRANCH   8  15
HETATM   15  O   UNL     4     -24.648  -2.448 -12.302  1.00  0.00    -0.390 OA
HETATM   16  H   UNL     4     -24.784  -3.186 -11.677  1.00  0.00     0.210 HD
ENDBRANCH   8  15
ENDBRANCH   1   8
BRANCH   1  17
HETATM   17  O   UNL     4     -21.312  -3.825 -12.713  1.00  0.00    -0.390 OA
HETATM   18  H   UNL     4     -20.871  -4.647 -12.417  1.00  0.00     0.210 HD
ENDBRANCH   1  17
TORSDOF 70
ENDMDL
MODEL 4
REMARK VINA RESULT:      -5.6      1.643      5.161
REMARK WARNING: 32 MAX_TORS EXCEEDED!!!
REMARK  70 active torsions:
REMARK  status: ('A' for Active; 'I' for Inactive)
REMARK    1  A    between atoms: C_2  and  C_3 
REMARK    2  A    between atoms: C_3  and  C_4 
REMARK    3  A    between atoms: C_4  and  C_5 
REMARK    4  A    between atoms: C_5  and  C_6 
REMARK    5  A    between atoms: C_6  and  C_7 
REMARK    6  A    between atoms: C_7  and  C_8 
REMARK    7  A    between atoms: C_8  and  C_9 
REMARK    8  A    between atoms: C_10  and  C_11 
REMARK    9  A    between atoms: C_11  and  C_12 
REMARK   10  A    between atoms: C_12  and  C_13 
REMARK   11  A    between atoms: C_13  and  C_14 
REMARK   12  A    between atoms: C_14  and  C_15 
REMARK   13  A    between atoms: C_15  and  C_16 
REMARK   14  A    between atoms: C_16  and  C_17 
REMARK   15  A    between atoms: C_17  and  C_18 
REMARK   16  A    between atoms: C_18  and  O_20 
REMARK   17  A    between atoms: C_23  and  C_24 
REMARK   18  A    between atoms: C_24  and  C_25 
REMARK   19  A    between atoms: C_25  and  C_26 
REMARK   20  A    between atoms: C_26  and  C_27 
REMARK   21  A    between atoms: C_27  and  C_28 
REMARK   22  A    between atoms: C_28  and  C_29 
REMARK   23  A    between atoms: C_29  and  C_30 
REMARK   24  A    between atoms: C_31  and  C_32 
REMARK   25  A    between atoms: C_32  and  C_33 
REMARK   26  A    between atoms: C_33  and  C_34 
REMARK   27  A    between atoms: C_34  and  C_35 
REMARK   28  A    between atoms: C_35  and  C_36 
REMARK   29  A    between atoms: C_36  and  C_37 
REMARK   30  A    between atoms: C_37  and  C_38 
REMARK   31  A    between atoms: C_38  and  C_39 
REMARK   32  A    between atoms: C_39  and  O_41 
REMARK   33  A    between atoms: C_44  and  C_45 
REMARK   34  A    between atoms: C_45  and  C_46 
REMARK   35  A    between atoms: C_46  and  C_47 
REMARK   36  A    between atoms: C_47  and  C_48 
REMARK   37  A    between atoms: C_48  and  C_49 
REMARK   38  A    between atoms: C_49  and  C_50 
REMARK   39  A    between atoms: C_50  and  C_51 
REMARK   40  A    between atoms: C_52  and  C_53 
REMARK   41  A    between atoms: C_53  and  C_54 
REMARK   42  A    between atoms: C_54  and  C_55 
REMARK   43  A    between atoms: C_55  and  C_56 
REMARK   44  A    between atoms: C_56  and  C_57 
REMARK   45  A    between atoms: C_57  and  C_58 
REMARK   46  A    between atoms: C_58  and  C_59 
REMARK   47  A    between atoms: C_59  and  C_60 
REMARK   48  A    between atoms: C_60  and  O_62 
REMARK   49  A    between atoms: C_64  and  C_65 
REMARK   50  A    between atoms: C_64  and  O_75 
REMARK   51  A    between atoms: C_65  and  C_66 
REMARK   52  A    between atoms: C_65  and  O_74 
REMARK   53  A    between atoms: C_66  and  C_67 
REMARK   54  A    between atoms: C_66  and  O_73 
REMARK   55  A    between atoms: C_67  and  C_68 
REMARK   56  A    between atoms: C_67  and  O_72 
REMARK   57  A    between atoms: C_68  and  C_69 
REMARK   58  A    between atoms: C_68  and  O_71 
REMARK   59  A    between atoms: C_69  and  O_70 
REMARK   60  A    between atoms: C_82  and  C_83 
REMARK   61  A    between atoms: C_82  and  O_93 
REMARK   62  A    between atoms: C_83  and  C_84 
REMARK   63  A    between atoms: C_83  and  O_92 
REMARK   64  A    between atoms: C_84  and  C_85 
REMARK   65  A    between atoms: C_84  and  O_91 
REMARK   66  A    between atoms: C_85  and  C_86 
REMARK   67  A    between atoms: C_85  and  O_90 
REMARK   68  A    between atoms: C_86  and  C_87 
REMARK   69  A    between atoms: C_86  and  O_89 
REMARK   70  A    between atoms: C_87  and  O_88 
ROOT
HETATM    1  C   UNL     4     -24.190  -3.246 -10.352  1.00  0.00     0.180 C 
ENDROOT
BRANCH   1   2
HETATM    2  C   UNL     4     -23.069  -4.006  -9.524  1.00  0.00     0.173 C 
BRANCH   2   3
HETATM    3  C   UNL     4     -22.897  -4.438  -7.778  1.00  0.00     0.198 C 
BRANCH   3   4
HETATM    4  O   UNL     4     -23.915  -4.390  -6.779  1.00  0.00    -0.398 OA
HETATM    5  H   UNL     4     -24.485  -3.593  -6.831  1.00  0.00     0.209 HD
ENDBRANCH   3   4
ENDBRANCH   2   3
BRANCH   2   6
HETATM    6  O   UNL     4     -21.934  -3.378 -10.195  1.00  0.00    -0.391 OA
HETATM    7  H   UNL     4     -22.255  -2.624 -10.716  1.00  0.00     0.210 HD
ENDBRANCH   2   6
ENDBRANCH   1   2
BRANCH   1   8
HETATM    8  C   UNL     4     -24.244  -3.674 -11.861  1.00  0.00     0.180 C 
BRANCH   8   9
HETATM    9  C   UNL     4     -23.843  -2.530 -12.812  1.00  0.00     0.173 C 
BRANCH   9  10
HETATM   10  C   UNL     4     -22.897  -2.983 -13.918  1.00  0.00     0.198 C 
BRANCH  10  11
HETATM   11  O   UNL     4     -23.663  -3.681 -14.904  1.00  0.00    -0.398 OA
HETATM   12  H   UNL     4     -23.444  -3.226 -15.753  1.00  0.00     0.209 HD
ENDBRANCH  10  11
ENDBRANCH   9  10
BRANCH   9  13
HETATM   13  O   UNL     4     -24.940  -1.902 -13.502  1.00  0.00    -0.391 OA
HETATM   14  H   UNL     4     -25.744  -2.029 -12.952  1.00  0.00     0.210 HD
ENDBRANCH   9  13
ENDBRANCH   8   9
BRANCH   8  15
HETATM   15  O   UNL     4     -23.329  -4.772 -12.044  1.00  0.00    -0.390 OA
HETATM   16  H   UNL     4     -23.213  -4.927 -13.001  1.00  0.00     0.210 HD
ENDBRANCH   8  15
ENDBRANCH   1   8
BRANCH   1  17
HETATM   17  O   UNL     4     -25.529  -3.336  -9.880  1.00  0.00    -0.390 OA
HETATM   18  H   UNL     4     -25.510  -3.384  -8.903  1.00  0.00     0.210 HD
ENDBRANCH   1  17
TORSDOF 70
ENDMDL
MODEL 5
REMARK VINA RESULT:      -5.3      2.060      3.439
REMARK WARNING: 32 MAX_TORS EXCEEDED!!!
REMARK  70 active torsions:
REMARK  status: ('A' for Active; 'I' for Inactive)
REMARK    1  A    between atoms: C_2  and  C_3 
REMARK    2  A    between atoms: C_3  and  C_4 
REMARK    3  A    between atoms: C_4  and  C_5 
REMARK    4  A    between atoms: C_5  and  C_6 
REMARK    5  A    between atoms: C_6  and  C_7 
REMARK    6  A    between atoms: C_7  and  C_8 
REMARK    7  A    between atoms: C_8  and  C_9 
REMARK    8  A    between atoms: C_10  and  C_11 
REMARK    9  A    between atoms: C_11  and  C_12 
REMARK   10  A    between atoms: C_12  and  C_13 
REMARK   11  A    between atoms: C_13  and  C_14 
REMARK   12  A    between atoms: C_14  and  C_15 
REMARK   13  A    between atoms: C_15  and  C_16 
REMARK   14  A    between atoms: C_16  and  C_17 
REMARK   15  A    between atoms: C_17  and  C_18 
REMARK   16  A    between atoms: C_18  and  O_20 
REMARK   17  A    between atoms: C_23  and  C_24 
REMARK   18  A    between atoms: C_24  and  C_25 
REMARK   19  A    between atoms: C_25  and  C_26 
REMARK   20  A    between atoms: C_26  and  C_27 
REMARK   21  A    between atoms: C_27  and  C_28 
REMARK   22  A    between atoms: C_28  and  C_29 
REMARK   23  A    between atoms: C_29  and  C_30 
REMARK   24  A    between atoms: C_31  and  C_32 
REMARK   25  A    between atoms: C_32  and  C_33 
REMARK   26  A    between atoms: C_33  and  C_34 
REMARK   27  A    between atoms: C_34  and  C_35 
REMARK   28  A    between atoms: C_35  and  C_36 
REMARK   29  A    between atoms: C_36  and  C_37 
REMARK   30  A    between atoms: C_37  and  C_38 
REMARK   31  A    between atoms: C_38  and  C_39 
REMARK   32  A    between atoms: C_39  and  O_41 
REMARK   33  A    between atoms: C_44  and  C_45 
REMARK   34  A    between atoms: C_45  and  C_46 
REMARK   35  A    between atoms: C_46  and  C_47 
REMARK   36  A    between atoms: C_47  and  C_48 
REMARK   37  A    between atoms: C_48  and  C_49 
REMARK   38  A    between atoms: C_49  and  C_50 
REMARK   39  A    between atoms: C_50  and  C_51 
REMARK   40  A    between atoms: C_52  and  C_53 
REMARK   41  A    between atoms: C_53  and  C_54 
REMARK   42  A    between atoms: C_54  and  C_55 
REMARK   43  A    between atoms: C_55  and  C_56 
REMARK   44  A    between atoms: C_56  and  C_57 
REMARK   45  A    between atoms: C_57  and  C_58 
REMARK   46  A    between atoms: C_58  and  C_59 
REMARK   47  A    between atoms: C_59  and  C_60 
REMARK   48  A    between atoms: C_60  and  O_62 
REMARK   49  A    between atoms: C_64  and  C_65 
REMARK   50  A    between atoms: C_64  and  O_75 
REMARK   51  A    between atoms: C_65  and  C_66 
REMARK   52  A    between atoms: C_65  and  O_74 
REMARK   53  A    between atoms: C_66  and  C_67 
REMARK   54  A    between atoms: C_66  and  O_73 
REMARK   55  A    between atoms: C_67  and  C_68 
REMARK   56  A    between atoms: C_67  and  O_72 
REMARK   57  A    between atoms: C_68  and  C_69 
REMARK   58  A    between atoms: C_68  and  O_71 
REMARK   59  A    between atoms: C_69  and  O_70 
REMARK   60  A    between atoms: C_82  and  C_83 
REMARK   61  A    between atoms: C_82  and  O_93 
REMARK   62  A    between atoms: C_83  and  C_84 
REMARK   63  A    between atoms: C_83  and  O_92 
REMARK   64  A    between atoms: C_84  and  C_85 
REMARK   65  A    between atoms: C_84  and  O_91 
REMARK   66  A    between atoms: C_85  and  C_86 
REMARK   67  A    between atoms: C_85  and  O_90 
REMARK   68  A    between atoms: C_86  and  C_87 
REMARK   69  A    between atoms: C_86  and  O_89 
REMARK   70  A    between atoms: C_87  and  O_88 
ROOT
HETATM    1  C   UNL     4     -22.594  -4.347 -11.218  1.00  0.00     0.180 C 
ENDROOT
BRANCH   1   2
HETATM    2  C   UNL     4     -22.473  -3.171 -12.277  1.00  0.00     0.173 C 
BRANCH   2   3
HETATM    3  C   UNL     4     -23.116  -2.938 -13.950  1.00  0.00     0.198 C 
BRANCH   3   4
HETATM    4  O   UNL     4     -22.377  -3.006 -15.169  1.00  0.00    -0.398 OA
HETATM    5  H   UNL     4     -22.931  -3.180 -15.960  1.00  0.00     0.209 HD
ENDBRANCH   3   4
ENDBRANCH   2   3
BRANCH   2   6
HETATM    6  O   UNL     4     -21.059  -2.896 -12.037  1.00  0.00    -0.391 OA
HETATM    7  H   UNL     4     -20.811  -2.088 -12.517  1.00  0.00     0.210 HD
ENDBRANCH   2   6
ENDBRANCH   1   2
BRANCH   1   8
HETATM    8  C   UNL     4     -22.091  -3.947  -9.787  1.00  0.00     0.180 C 
BRANCH   8   9
HETATM    9  C   UNL     4     -23.051  -4.411  -8.675  1.00  0.00     0.173 C 
BRANCH   9  10
HETATM   10  C   UNL     4     -22.401  -4.414  -7.295  1.00  0.00     0.198 C 
BRANCH  10  11
HETATM   11  O   UNL     4     -21.689  -3.185  -7.133  1.00  0.00    -0.398 OA
HETATM   12  H   UNL     4     -20.947  -3.243  -7.782  1.00  0.00     0.209 HD
ENDBRANCH  10  11
ENDBRANCH   9  10
BRANCH   9  13
HETATM   13  O   UNL     4     -24.235  -3.605  -8.520  1.00  0.00    -0.391 OA
HETATM   14  H   UNL     4     -24.839  -3.828  -9.262  1.00  0.00     0.210 HD
ENDBRANCH   9  13
ENDBRANCH   8   9
BRANCH   8  15
HETATM   15  O   UNL     4     -20.806  -4.566  -9.579  1.00  0.00    -0.390 OA
HETATM   16  H   UNL     4     -20.928  -5.366  -9.034  1.00  0.00     0.210 HD
ENDBRANCH   8  15
ENDBRANCH   1   8
BRANCH   1  17
HETATM   17  O   UNL     4     -23.879  -4.927 -11.025  1.00  0.00    -0.390 OA
HETATM   18  H   UNL     4     -24.087  -4.906 -10.069  1.00  0.00     0.210 HD
ENDBRANCH   1  17
TORSDOF 70
ENDMDL
MODEL 6
REMARK VINA RESULT:      -5.3      1.921      4.988
REMARK WARNING: 32 MAX_TORS EXCEEDED!!!
REMARK  70 active torsions:
REMARK  status: ('A' for Active; 'I' for Inactive)
REMARK    1  A    between atoms: C_2  and  C_3 
REMARK    2  A    between atoms: C_3  and  C_4 
REMARK    3  A    between atoms: C_4  and  C_5 
REMARK    4  A    between atoms: C_5  and  C_6 
REMARK    5  A    between atoms: C_6  and  C_7 
REMARK    6  A    between atoms: C_7  and  C_8 
REMARK    7  A    between atoms: C_8  and  C_9 
REMARK    8  A    between atoms: C_10  and  C_11 
REMARK    9  A    between atoms: C_11  and  C_12 
REMARK   10  A    between atoms: C_12  and  C_13 
REMARK   11  A    between atoms: C_13  and  C_14 
REMARK   12  A    between atoms: C_14  and  C_15 
REMARK   13  A    between atoms: C_15  and  C_16 
REMARK   14  A    between atoms: C_16  and  C_17 
REMARK   15  A    between atoms: C_17  and  C_18 
REMARK   16  A    between atoms: C_18  and  O_20 
REMARK   17  A    between atoms: C_23  and  C_24 
REMARK   18  A    between atoms: C_24  and  C_25 
REMARK   19  A    between atoms: C_25  and  C_26 
REMARK   20  A    between atoms: C_26  and  C_27 
REMARK   21  A    between atoms: C_27  and  C_28 
REMARK   22  A    between atoms: C_28  and  C_29 
REMARK   23  A    between atoms: C_29  and  C_30 
REMARK   24  A    between atoms: C_31  and  C_32 
REMARK   25  A    between atoms: C_32  and  C_33 
REMARK   26  A    between atoms: C_33  and  C_34 
REMARK   27  A    between atoms: C_34  and  C_35 
REMARK   28  A    between atoms: C_35  and  C_36 
REMARK   29  A    between atoms: C_36  and  C_37 
REMARK   30  A    between atoms: C_37  and  C_38 
REMARK   31  A    between atoms: C_38  and  C_39 
REMARK   32  A    between atoms: C_39  and  O_41 
REMARK   33  A    between atoms: C_44  and  C_45 
REMARK   34  A    between atoms: C_45  and  C_46 
REMARK   35  A    between atoms: C_46  and  C_47 
REMARK   36  A    between atoms: C_47  and  C_48 
REMARK   37  A    between atoms: C_48  and  C_49 
REMARK   38  A    between atoms: C_49  and  C_50 
REMARK   39  A    between atoms: C_50  and  C_51 
REMARK   40  A    between atoms: C_52  and  C_53 
REMARK   41  A    between atoms: C_53  and  C_54 
REMARK   42  A    between atoms: C_54  and  C_55 
REMARK   43  A    between atoms: C_55  and  C_56 
REMARK   44  A    between atoms: C_56  and  C_57 
REMARK   45  A    between atoms: C_57  and  C_58 
REMARK   46  A    between atoms: C_58  and  C_59 
REMARK   47  A    between atoms: C_59  and  C_60 
REMARK   48  A    between atoms: C_60  and  O_62 
REMARK   49  A    between atoms: C_64  and  C_65 
REMARK   50  A    between atoms: C_64  and  O_75 
REMARK   51  A    between atoms: C_65  and  C_66 
REMARK   52  A    between atoms: C_65  and  O_74 
REMARK   53  A    between atoms: C_66  and  C_67 
REMARK   54  A    between atoms: C_66  and  O_73 
REMARK   55  A    between atoms: C_67  and  C_68 
REMARK   56  A    between atoms: C_67  and  O_72 
REMARK   57  A    between atoms: C_68  and  C_69 
REMARK   58  A    between atoms: C_68  and  O_71 
REMARK   59  A    between atoms: C_69  and  O_70 
REMARK   60  A    between atoms: C_82  and  C_83 
REMARK   61  A    between atoms: C_82  and  O_93 
REMARK   62  A    between atoms: C_83  and  C_84 
REMARK   63  A    between atoms: C_83  and  O_92 
REMARK   64  A    between atoms: C_84  and  C_85 
REMARK   65  A    between atoms: C_84  and  O_91 
REMARK   66  A    between atoms: C_85  and  C_86 
REMARK   67  A    between atoms: C_85  and  O_90 
REMARK   68  A    between atoms: C_86  and  C_87 
REMARK   69  A    between atoms: C_86  and  O_89 
REMARK   70  A    between atoms: C_87  and  O_88 
ROOT
HETATM    1  C   UNL     4     -22.406  -4.039 -11.683  1.00  0.00     0.180 C 
ENDROOT
BRANCH   1   2
HETATM    2  C   UNL     4     -21.988  -4.152 -10.156  1.00  0.00     0.173 C 
BRANCH   2   3
HETATM    3  C   UNL     4     -20.402  -4.371  -9.318  1.00  0.00     0.198 C 
BRANCH   3   4
HETATM    4  O   UNL     4     -20.093  -5.330  -8.308  1.00  0.00    -0.398 OA
HETATM    5  H   UNL     4     -20.391  -6.241  -8.520  1.00  0.00     0.209 HD
ENDBRANCH   3   4
ENDBRANCH   2   3
BRANCH   2   6
HETATM    6  O   UNL     4     -23.103  -5.004  -9.756  1.00  0.00    -0.391 OA
HETATM    7  H   UNL     4     -23.183  -4.982  -8.788  1.00  0.00     0.210 HD
ENDBRANCH   2   6
ENDBRANCH   1   2
BRANCH   1   8
HETATM    8  C   UNL     4     -23.399  -2.859 -11.970  1.00  0.00     0.180 C 
BRANCH   8   9
HETATM    9  C   UNL     4     -24.053  -2.964 -13.360  1.00  0.00     0.173 C 
BRANCH   9  10
HETATM   10  C   UNL     4     -23.334  -2.134 -14.418  1.00  0.00     0.198 C 
BRANCH  10  11
HETATM   11  O   UNL     4     -22.464  -3.000 -15.152  1.00  0.00    -0.398 OA
HETATM   12  H   UNL     4     -21.559  -2.770 -14.830  1.00  0.00     0.209 HD
ENDBRANCH  10  11
ENDBRANCH   9  10
BRANCH   9  13
HETATM   13  O   UNL     4     -24.101  -4.296 -13.909  1.00  0.00    -0.391 OA
HETATM   14  H   UNL     4     -24.469  -4.225 -14.817  1.00  0.00     0.210 HD
ENDBRANCH   9  13
ENDBRANCH   8   9
BRANCH   8  15
HETATM   15  O   UNL     4     -24.433  -2.894 -10.966  1.00  0.00    -0.390 OA
HETATM   16  H   UNL     4     -24.987  -2.096 -11.059  1.00  0.00     0.210 HD
ENDBRANCH   8  15
ENDBRANCH   1   8
BRANCH   1  17
HETATM   17  O   UNL     4     -21.363  -3.904 -12.641  1.00  0.00    -0.390 OA
HETATM   18  H   UNL     4     -20.538  -3.671 -12.170  1.00  0.00     0.210 HD
ENDBRANCH   1  17
TORSDOF 70
ENDMDL
MODEL 7
REMARK VINA RESULT:      -5.1      2.876      6.054
REMARK WARNING: 32 MAX_TORS EXCEEDED!!!
REMARK  70 active torsions:
REMARK  status: ('A' for Active; 'I' for Inactive)
REMARK    1  A    between atoms: C_2  and  C_3 
REMARK    2  A    between atoms: C_3  and  C_4 
REMARK    3  A    between atoms: C_4  and  C_5 
REMARK    4  A    between atoms: C_5  and  C_6 
REMARK    5  A    between atoms: C_6  and  C_7 
REMARK    6  A    between atoms: C_7  and  C_8 
REMARK    7  A    between atoms: C_8  and  C_9 
REMARK    8  A    between atoms: C_10  and  C_11 
REMARK    9  A    between atoms: C_11  and  C_12 
REMARK   10  A    between atoms: C_12  and  C_13 
REMARK   11  A    between atoms: C_13  and  C_14 
REMARK   12  A    between atoms: C_14  and  C_15 
REMARK   13  A    between atoms: C_15  and  C_16 
REMARK   14  A    between atoms: C_16  and  C_17 
REMARK   15  A    between atoms: C_17  and  C_18 
REMARK   16  A    between atoms: C_18  and  O_20 
REMARK   17  A    between atoms: C_23  and  C_24 
REMARK   18  A    between atoms: C_24  and  C_25 
REMARK   19  A    between atoms: C_25  and  C_26 
REMARK   20  A    between atoms: C_26  and  C_27 
REMARK   21  A    between atoms: C_27  and  C_28 
REMARK   22  A    between atoms: C_28  and  C_29 
REMARK   23  A    between atoms: C_29  and  C_30 
REMARK   24  A    between atoms: C_31  and  C_32 
REMARK   25  A    between atoms: C_32  and  C_33 
REMARK   26  A    between atoms: C_33  and  C_34 
REMARK   27  A    between atoms: C_34  and  C_35 
REMARK   28  A    between atoms: C_35  and  C_36 
REMARK   29  A    between atoms: C_36  and  C_37 
REMARK   30  A    between atoms: C_37  and  C_38 
REMARK   31  A    between atoms: C_38  and  C_39 
REMARK   32  A    between atoms: C_39  and  O_41 
REMARK   33  A    between atoms: C_44  and  C_45 
REMARK   34  A    between atoms: C_45  and  C_46 
REMARK   35  A    between atoms: C_46  and  C_47 
REMARK   36  A    between atoms: C_47  and  C_48 
REMARK   37  A    between atoms: C_48  and  C_49 
REMARK   38  A    between atoms: C_49  and  C_50 
REMARK   39  A    between atoms: C_50  and  C_51 
REMARK   40  A    between atoms: C_52  and  C_53 
REMARK   41  A    between atoms: C_53  and  C_54 
REMARK   42  A    between atoms: C_54  and  C_55 
REMARK   43  A    between atoms: C_55  and  C_56 
REMARK   44  A    between atoms: C_56  and  C_57 
REMARK   45  A    between atoms: C_57  and  C_58 
REMARK   46  A    between atoms: C_58  and  C_59 
REMARK   47  A    between atoms: C_59  and  C_60 
REMARK   48  A    between atoms: C_60  and  O_62 
REMARK   49  A    between atoms: C_64  and  C_65 
REMARK   50  A    between atoms: C_64  and  O_75 
REMARK   51  A    between atoms: C_65  and  C_66 
REMARK   52  A    between atoms: C_65  and  O_74 
REMARK   53  A    between atoms: C_66  and  C_67 
REMARK   54  A    between atoms: C_66  and  O_73 
REMARK   55  A    between atoms: C_67  and  C_68 
REMARK   56  A    between atoms: C_67  and  O_72 
REMARK   57  A    between atoms: C_68  and  C_69 
REMARK   58  A    between atoms: C_68  and  O_71 
REMARK   59  A    between atoms: C_69  and  O_70 
REMARK   60  A    between atoms: C_82  and  C_83 
REMARK   61  A    between atoms: C_82  and  O_93 
REMARK   62  A    between atoms: C_83  and  C_84 
REMARK   63  A    between atoms: C_83  and  O_92 
REMARK   64  A    between atoms: C_84  and  C_85 
REMARK   65  A    between atoms: C_84  and  O_91 
REMARK   66  A    between atoms: C_85  and  C_86 
REMARK   67  A    between atoms: C_85  and  O_90 
REMARK   68  A    between atoms: C_86  and  C_87 
REMARK   69  A    between atoms: C_86  and  O_89 
REMARK   70  A    between atoms: C_87  and  O_88 
ROOT
HETATM    1  C   UNL     4     -22.750  -4.094  -8.397  1.00  0.00     0.180 C 
ENDROOT
BRANCH   1   2
HETATM    2  C   UNL     4     -21.428  -4.927  -8.123  1.00  0.00     0.173 C 
BRANCH   2   3
HETATM    3  C   UNL     4     -20.835  -5.883  -6.708  1.00  0.00     0.198 C 
BRANCH   3   4
HETATM    4  O   UNL     4     -19.847  -6.913  -6.724  1.00  0.00    -0.398 OA
HETATM    5  H   UNL     4     -19.779  -7.386  -7.581  1.00  0.00     0.209 HD
ENDBRANCH   3   4
ENDBRANCH   2   3
BRANCH   2   6
HETATM    6  O   UNL     4     -20.514  -3.968  -8.738  1.00  0.00    -0.391 OA
HETATM    7  H   UNL     4     -19.768  -3.814  -8.135  1.00  0.00     0.210 HD
ENDBRANCH   2   6
ENDBRANCH   1   2
BRANCH   1   8
HETATM    8  C   UNL     4     -23.399  -4.401  -9.793  1.00  0.00     0.180 C 
BRANCH   8   9
HETATM    9  C   UNL     4     -24.302  -3.255 -10.286  1.00  0.00     0.173 C 
BRANCH   9  10
HETATM   10  C   UNL     4     -24.434  -3.217 -11.805  1.00  0.00     0.198 C 
BRANCH  10  11
HETATM   11  O   UNL     4     -23.442  -2.325 -12.318  1.00  0.00    -0.398 OA
HETATM   12  H   UNL     4     -23.814  -2.011 -13.178  1.00  0.00     0.209 HD
ENDBRANCH  10  11
ENDBRANCH   9  10
BRANCH   9  13
HETATM   13  O   UNL     4     -25.659  -3.300  -9.802  1.00  0.00    -0.391 OA
HETATM   14  H   UNL     4     -26.217  -3.657 -10.527  1.00  0.00     0.210 HD
ENDBRANCH   9  13
ENDBRANCH   8   9
BRANCH   8  15
HETATM   15  O   UNL     4     -22.334  -4.596 -10.744  1.00  0.00    -0.390 OA
HETATM   16  H   UNL     4     -22.661  -5.164 -11.468  1.00  0.00     0.210 HD
ENDBRANCH   8  15
ENDBRANCH   1   8
BRANCH   1  17
HETATM   17  O   UNL     4     -23.806  -4.208  -7.450  1.00  0.00    -0.390 OA
HETATM   18  H   UNL     4     -24.412  -3.449  -7.570  1.00  0.00     0.210 HD
ENDBRANCH   1  17
TORSDOF 70
ENDMDL
MODEL 8
REMARK VINA RESULT:      -5.0      3.290      6.253
REMARK WARNING: 32 MAX_TORS EXCEEDED!!!
REMARK  70 active torsions:
REMARK  status: ('A' for Active; 'I' for Inactive)
REMARK    1  A    between atoms: C_2  and  C_3 
REMARK    2  A    between atoms: C_3  and  C_4 
REMARK    3  A    between atoms: C_4  and  C_5 
REMARK    4  A    between atoms: C_5  and  C_6 
REMARK    5  A    between atoms: C_6  and  C_7 
REMARK    6  A    between atoms: C_7  and  C_8 
REMARK    7  A    between atoms: C_8  and  C_9 
REMARK    8  A    between atoms: C_10  and  C_11 
REMARK    9  A    between atoms: C_11  and  C_12 
REMARK   10  A    between atoms: C_12  and  C_13 
REMARK   11  A    between atoms: C_13  and  C_14 
REMARK   12  A    between atoms: C_14  and  C_15 
REMARK   13  A    between atoms: C_15  and  C_16 
REMARK   14  A    between atoms: C_16  and  C_17 
REMARK   15  A    between atoms: C_17  and  C_18 
REMARK   16  A    between atoms: C_18  and  O_20 
REMARK   17  A    between atoms: C_23  and  C_24 
REMARK   18  A    between atoms: C_24  and  C_25 
REMARK   19  A    between atoms: C_25  and  C_26 
REMARK   20  A    between atoms: C_26  and  C_27 
REMARK   21  A    between atoms: C_27  and  C_28 
REMARK   22  A    between atoms: C_28  and  C_29 
REMARK   23  A    between atoms: C_29  and  C_30 
REMARK   24  A    between atoms: C_31  and  C_32 
REMARK   25  A    between atoms: C_32  and  C_33 
REMARK   26  A    between atoms: C_33  and  C_34 
REMARK   27  A    between atoms: C_34  and  C_35 
REMARK   28  A    between atoms: C_35  and  C_36 
REMARK   29  A    between atoms: C_36  and  C_37 
REMARK   30  A    between atoms: C_37  and  C_38 
REMARK   31  A    between atoms: C_38  and  C_39 
REMARK   32  A    between atoms: C_39  and  O_41 
REMARK   33  A    between atoms: C_44  and  C_45 
REMARK   34  A    between atoms: C_45  and  C_46 
REMARK   35  A    between atoms: C_46  and  C_47 
REMARK   36  A    between atoms: C_47  and  C_48 
REMARK   37  A    between atoms: C_48  and  C_49 
REMARK   38  A    between atoms: C_49  and  C_50 
REMARK   39  A    between atoms: C_50  and  C_51 
REMARK   40  A    between atoms: C_52  and  C_53 
REMARK   41  A    between atoms: C_53  and  C_54 
REMARK   42  A    between atoms: C_54  and  C_55 
REMARK   43  A    between atoms: C_55  and  C_56 
REMARK   44  A    between atoms: C_56  and  C_57 
REMARK   45  A    between atoms: C_57  and  C_58 
REMARK   46  A    between atoms: C_58  and  C_59 
REMARK   47  A    between atoms: C_59  and  C_60 
REMARK   48  A    between atoms: C_60  and  O_62 
REMARK   49  A    between atoms: C_64  and  C_65 
REMARK   50  A    between atoms: C_64  and  O_75 
REMARK   51  A    between atoms: C_65  and  C_66 
REMARK   52  A    between atoms: C_65  and  O_74 
REMARK   53  A    between atoms: C_66  and  C_67 
REMARK   54  A    between atoms: C_66  and  O_73 
REMARK   55  A    between atoms: C_67  and  C_68 
REMARK   56  A    between atoms: C_67  and  O_72 
REMARK   57  A    between atoms: C_68  and  C_69 
REMARK   58  A    between atoms: C_68  and  O_71 
REMARK   59  A    between atoms: C_69  and  O_70 
REMARK   60  A    between atoms: C_82  and  C_83 
REMARK   61  A    between atoms: C_82  and  O_93 
REMARK   62  A    between atoms: C_83  and  C_84 
REMARK   63  A    between atoms: C_83  and  O_92 
REMARK   64  A    between atoms: C_84  and  C_85 
REMARK   65  A    between atoms: C_84  and  O_91 
REMARK   66  A    between atoms: C_85  and  C_86 
REMARK   67  A    between atoms: C_85  and  O_90 
REMARK   68  A    between atoms: C_86  and  C_87 
REMARK   69  A    between atoms: C_86  and  O_89 
REMARK   70  A    between atoms: C_87  and  O_88 
ROOT
HETATM    1  C   UNL     4     -21.684  -4.984  -8.563  1.00  0.00     0.180 C 
ENDROOT
BRANCH   1   2
HETATM    2  C   UNL     4     -21.179  -5.083  -7.062  1.00  0.00     0.173 C 
BRANCH   2   3
HETATM    3  C   UNL     4     -21.729  -6.038  -5.629  1.00  0.00     0.198 C 
BRANCH   3   4
HETATM    4  O   UNL     4     -23.046  -6.079  -5.082  1.00  0.00    -0.398 OA
HETATM    5  H   UNL     4     -23.758  -6.046  -5.756  1.00  0.00     0.209 HD
ENDBRANCH   3   4
ENDBRANCH   2   3
BRANCH   2   6
HETATM    6  O   UNL     4     -20.942  -3.653  -6.887  1.00  0.00    -0.391 OA
HETATM    7  H   UNL     4     -21.599  -3.160  -7.405  1.00  0.00     0.210 HD
ENDBRANCH   2   6
ENDBRANCH   1   2
BRANCH   1   8
HETATM    8  C   UNL     4     -22.936  -4.054  -8.738  1.00  0.00     0.180 C 
BRANCH   8   9
HETATM    9  C   UNL     4     -23.780  -4.430  -9.971  1.00  0.00     0.173 C 
BRANCH   9  10
HETATM   10  C   UNL     4     -24.653  -3.281 -10.462  1.00  0.00     0.198 C 
BRANCH  10  11
HETATM   11  O   UNL     4     -25.837  -3.243  -9.661  1.00  0.00    -0.398 OA
HETATM   12  H   UNL     4     -26.353  -4.036  -9.945  1.00  0.00     0.209 HD
ENDBRANCH  10  11
ENDBRANCH   9  10
BRANCH   9  13
HETATM   13  O   UNL     4     -23.020  -4.833 -11.126  1.00  0.00    -0.391 OA
HETATM   14  H   UNL     4     -22.416  -5.554 -10.842  1.00  0.00     0.210 HD
ENDBRANCH   9  13
ENDBRANCH   8   9
BRANCH   8  15
HETATM   15  O   UNL     4     -23.753  -4.183  -7.558  1.00  0.00    -0.390 OA
HETATM   16  H   UNL     4     -23.385  -3.611  -6.858  1.00  0.00     0.210 HD
ENDBRANCH   8  15
ENDBRANCH   1   8
BRANCH   1  17
HETATM   17  O   UNL     4     -20.747  -4.554  -9.544  1.00  0.00    -0.390 OA
HETATM   18  H   UNL     4     -20.033  -4.059  -9.093  1.00  0.00     0.210 HD
ENDBRANCH   1  17
TORSDOF 70
ENDMDL
MODEL 9
REMARK VINA RESULT:      -5.0      2.547      4.384
REMARK WARNING: 32 MAX_TORS EXCEEDED!!!
REMARK  70 active torsions:
REMARK  status: ('A' for Active; 'I' for Inactive)
REMARK    1  A    between atoms: C_2  and  C_3 
REMARK    2  A    between atoms: C_3  and  C_4 
REMARK    3  A    between atoms: C_4  and  C_5 
REMARK    4  A    between atoms: C_5  and  C_6 
REMARK    5  A    between atoms: C_6  and  C_7 
REMARK    6  A    between atoms: C_7  and  C_8 
REMARK    7  A    between atoms: C_8  and  C_9 
REMARK    8  A    between atoms: C_10  and  C_11 
REMARK    9  A    between atoms: C_11  and  C_12 
REMARK   10  A    between atoms: C_12  and  C_13 
REMARK   11  A    between atoms: C_13  and  C_14 
REMARK   12  A    between atoms: C_14  and  C_15 
REMARK   13  A    between atoms: C_15  and  C_16 
REMARK   14  A    between atoms: C_16  and  C_17 
REMARK   15  A    between atoms: C_17  and  C_18 
REMARK   16  A    between atoms: C_18  and  O_20 
REMARK   17  A    between atoms: C_23  and  C_24 
REMARK   18  A    between atoms: C_24  and  C_25 
REMARK   19  A    between atoms: C_25  and  C_26 
REMARK   20  A    between atoms: C_26  and  C_27 
REMARK   21  A    between atoms: C_27  and  C_28 
REMARK   22  A    between atoms: C_28  and  C_29 
REMARK   23  A    between atoms: C_29  and  C_30 
REMARK   24  A    between atoms: C_31  and  C_32 
REMARK   25  A    between atoms: C_32  and  C_33 
REMARK   26  A    between atoms: C_33  and  C_34 
REMARK   27  A    between atoms: C_34  and  C_35 
REMARK   28  A    between atoms: C_35  and  C_36 
REMARK   29  A    between atoms: C_36  and  C_37 
REMARK   30  A    between atoms: C_37  and  C_38 
REMARK   31  A    between atoms: C_38  and  C_39 
REMARK   32  A    between atoms: C_39  and  O_41 
REMARK   33  A    between atoms: C_44  and  C_45 
REMARK   34  A    between atoms: C_45  and  C_46 
REMARK   35  A    between atoms: C_46  and  C_47 
REMARK   36  A    between atoms: C_47  and  C_48 
REMARK   37  A    between atoms: C_48  and  C_49 
REMARK   38  A    between atoms: C_49  and  C_50 
REMARK   39  A    between atoms: C_50  and  C_51 
REMARK   40  A    between atoms: C_52  and  C_53 
REMARK   41  A    between atoms: C_53  and  C_54 
REMARK   42  A    between atoms: C_54  and  C_55 
REMARK   43  A    between atoms: C_55  and  C_56 
REMARK   44  A    between atoms: C_56  and  C_57 
REMARK   45  A    between atoms: C_57  and  C_58 
REMARK   46  A    between atoms: C_58  and  C_59 
REMARK   47  A    between atoms: C_59  and  C_60 
REMARK   48  A    between atoms: C_60  and  O_62 
REMARK   49  A    between atoms: C_64  and  C_65 
REMARK   50  A    between atoms: C_64  and  O_75 
REMARK   51  A    between atoms: C_65  and  C_66 
REMARK   52  A    between atoms: C_65  and  O_74 
REMARK   53  A    between atoms: C_66  and  C_67 
REMARK   54  A    between atoms: C_66  and  O_73 
REMARK   55  A    between atoms: C_67  and  C_68 
REMARK   56  A    between atoms: C_67  and  O_72 
REMARK   57  A    between atoms: C_68  and  C_69 
REMARK   58  A    between atoms: C_68  and  O_71 
REMARK   59  A    between atoms: C_69  and  O_70 
REMARK   60  A    between atoms: C_82  and  C_83 
REMARK   61  A    between atoms: C_82  and  O_93 
REMARK   62  A    between atoms: C_83  and  C_84 
REMARK   63  A    between atoms: C_83  and  O_92 
REMARK   64  A    between atoms: C_84  and  C_85 
REMARK   65  A    between atoms: C_84  and  O_91 
REMARK   66  A    between atoms: C_85  and  C_86 
REMARK   67  A    between atoms: C_85  and  O_90 
REMARK   68  A    between atoms: C_86  and  C_87 
REMARK   69  A    between atoms: C_86  and  O_89 
REMARK   70  A    between atoms: C_87  and  O_88 
ROOT
HETATM    1  C   UNL     4     -23.542  -4.210  -9.693  1.00  0.00     0.180 C 
ENDROOT
BRANCH   1   2
HETATM    2  C   UNL     4     -24.098  -3.740 -11.103  1.00  0.00     0.173 C 
BRANCH   2   3
HETATM    3  C   UNL     4     -23.322  -2.998 -12.557  1.00  0.00     0.198 C 
BRANCH   3   4
HETATM    4  O   UNL     4     -22.086  -3.382 -13.158  1.00  0.00    -0.398 OA
HETATM    5  H   UNL     4     -21.522  -3.942 -12.583  1.00  0.00     0.209 HD
ENDBRANCH   3   4
ENDBRANCH   2   3
BRANCH   2   6
HETATM    6  O   UNL     4     -25.322  -3.132 -10.589  1.00  0.00    -0.391 OA
HETATM    7  H   UNL     4     -25.409  -3.352  -9.646  1.00  0.00     0.210 HD
ENDBRANCH   2   6
ENDBRANCH   1   2
BRANCH   1   8
HETATM    8  C   UNL     4     -22.027  -3.864  -9.476  1.00  0.00     0.180 C 
BRANCH   8   9
HETATM    9  C   UNL     4     -21.529  -4.253  -8.071  1.00  0.00     0.173 C 
BRANCH   9  10
HETATM   10  C   UNL     4     -20.069  -4.690  -8.059  1.00  0.00     0.198 C 
BRANCH  10  11
HETATM   11  O   UNL     4     -20.016  -6.063  -7.664  1.00  0.00    -0.398 OA
HETATM   12  H   UNL     4     -20.636  -6.522  -8.281  1.00  0.00     0.209 HD
ENDBRANCH  10  11
ENDBRANCH   9  10
BRANCH   9  13
HETATM   13  O   UNL     4     -21.604  -3.201  -7.088  1.00  0.00    -0.391 OA
HETATM   14  H   UNL     4     -21.716  -2.354  -7.574  1.00  0.00     0.210 HD
ENDBRANCH   9  13
ENDBRANCH   8   9
BRANCH   8  15
HETATM   15  O   UNL     4     -21.261  -4.590 -10.457  1.00  0.00    -0.390 OA
HETATM   16  H   UNL     4     -20.321  -4.576 -10.194  1.00  0.00     0.210 HD
ENDBRANCH   8  15
ENDBRANCH   1   8
BRANCH   1  17
HETATM   17  O   UNL     4     -24.213  -3.736  -8.531  1.00  0.00    -0.390 OA
HETATM   18  H   UNL     4     -24.505  -4.508  -8.006  1.00  0.00     0.210 HD
ENDBRANCH   1  17
TORSDOF 70
ENDMDL
