MODEL 1
REMARK VINA RESULT:      -6.3      0.000      0.000
REMARK  3 active torsions:
REMARK  status: ('A' for Active; 'I' for Inactive)
REMARK    1  A    between atoms: C_4  and  C_13 
REMARK    2  A    between atoms: C_5  and  O_12 
REMARK    3  A    between atoms: C_6  and  C_8 
ROOT
HETATM    1  C   UNL     1     -21.613  -6.249  -4.318  1.00  0.00     0.048 C 
HETATM    2  C   UNL     1     -21.116  -7.355  -3.434  1.00  0.00    -0.061 A 
HETATM    3  C   UNL     1     -21.724  -7.626  -2.205  1.00  0.00     0.017 A 
HETATM    4  C   UNL     1     -21.299  -8.677  -1.364  1.00  0.00    -0.016 A 
HETATM    5  C   UNL     1     -20.195  -9.448  -1.830  1.00  0.00     0.079 A 
HETATM    6  C   UNL     1     -19.512  -9.170  -3.045  1.00  0.00    -0.016 A 
HETATM    7  C   UNL     1     -20.027  -8.128  -3.837  1.00  0.00     0.017 A 
ENDROOT
BRANCH   4   8
HETATM    8  C   UNL     1     -22.045  -8.921  -0.024  1.00  0.00    -0.021 C 
HETATM    9  C   UNL     1     -23.113  -7.837   0.304  1.00  0.00     0.019 C 
HETATM   10  C   UNL     1     -22.823 -10.257  -0.049  1.00  0.00     0.019 C 
HETATM   11  C   UNL     1     -21.059  -8.879   1.168  1.00  0.00     0.019 C 
ENDBRANCH   4   8
BRANCH   5  12
HETATM   12  O   UNL     1     -19.760 -10.547  -1.145  1.00  0.00    -0.360 OA
HETATM   13  H   UNL     1     -18.818 -10.686  -1.280  1.00  0.00     0.217 HD
ENDBRANCH   5  12
BRANCH   6  14
HETATM   14  C   UNL     1     -18.286  -9.973  -3.561  1.00  0.00    -0.021 C 
HETATM   15  C   UNL     1     -18.081  -9.633  -5.051  1.00  0.00     0.019 C 
HETATM   16  C   UNL     1     -16.987  -9.605  -2.794  1.00  0.00     0.019 C 
HETATM   17  C   UNL     1     -18.398 -11.511  -3.421  1.00  0.00     0.019 C 
ENDBRANCH   6  14
TORSDOF 3
ENDMDL
MODEL 2
REMARK VINA RESULT:      -6.2      0.192      4.667
REMARK  3 active torsions:
REMARK  status: ('A' for Active; 'I' for Inactive)
REMARK    1  A    between atoms: C_4  and  C_13 
REMARK    2  A    between atoms: C_5  and  O_12 
REMARK    3  A    between atoms: C_6  and  C_8 
ROOT
HETATM    1  C   UNL     1     -21.597  -6.137  -4.351  1.00  0.00     0.048 C 
HETATM    2  C   UNL     1     -21.101  -7.285  -3.521  1.00  0.00    -0.061 A 
HETATM    3  C   UNL     1     -20.049  -8.093  -3.961  1.00  0.00     0.017 A 
HETATM    4  C   UNL     1     -19.541  -9.162  -3.193  1.00  0.00    -0.016 A 
HETATM    5  C   UNL     1     -20.172  -9.388  -1.936  1.00  0.00     0.079 A 
HETATM    6  C   UNL     1     -21.281  -8.629  -1.476  1.00  0.00    -0.016 A 
HETATM    7  C   UNL     1     -21.697  -7.559  -2.291  1.00  0.00     0.017 A 
ENDROOT
BRANCH   4   8
HETATM    8  C   UNL     1     -18.355  -9.995  -3.750  1.00  0.00    -0.021 C 
HETATM    9  C   UNL     1     -18.022  -9.693  -5.240  1.00  0.00     0.019 C 
HETATM   10  C   UNL     1     -17.048  -9.699  -2.978  1.00  0.00     0.019 C 
HETATM   11  C   UNL     1     -18.685 -11.507  -3.717  1.00  0.00     0.019 C 
ENDBRANCH   4   8
BRANCH   5  12
HETATM   12  O   UNL     1     -19.702 -10.333  -1.068  1.00  0.00    -0.360 OA
HETATM   13  H   UNL     1     -19.953 -11.217  -1.353  1.00  0.00     0.217 HD
ENDBRANCH   5  12
BRANCH   6  14
HETATM   14  C   UNL     1     -22.009  -8.874  -0.126  1.00  0.00    -0.021 C 
HETATM   15  C   UNL     1     -22.973  -7.696   0.123  1.00  0.00     0.019 C 
HETATM   16  C   UNL     1     -22.840 -10.186  -0.145  1.00  0.00     0.019 C 
HETATM   17  C   UNL     1     -21.084  -9.018   1.107  1.00  0.00     0.019 C 
ENDBRANCH   6  14
TORSDOF 3
ENDMDL
MODEL 3
REMARK VINA RESULT:      -6.1     16.311     18.442
REMARK  3 active torsions:
REMARK  status: ('A' for Active; 'I' for Inactive)
REMARK    1  A    between atoms: C_4  and  C_13 
REMARK    2  A    between atoms: C_5  and  O_12 
REMARK    3  A    between atoms: C_6  and  C_8 
ROOT
HETATM    1  C   UNL     1     -21.893   9.364   2.187  1.00  0.00     0.048 C 
HETATM    2  C   UNL     1     -23.161   8.995   1.473  1.00  0.00    -0.061 A 
HETATM    3  C   UNL     1     -24.411   9.323   2.005  1.00  0.00     0.017 A 
HETATM    4  C   UNL     1     -25.620   9.016   1.347  1.00  0.00    -0.016 A 
HETATM    5  C   UNL     1     -25.501   8.333   0.102  1.00  0.00     0.079 A 
HETATM    6  C   UNL     1     -24.255   7.930  -0.447  1.00  0.00    -0.016 A 
HETATM    7  C   UNL     1     -23.099   8.311   0.260  1.00  0.00     0.017 A 
ENDROOT
BRANCH   4   8
HETATM    8  C   UNL     1     -26.965   9.435   2.001  1.00  0.00    -0.021 C 
HETATM    9  C   UNL     1     -28.026   8.297   2.036  1.00  0.00     0.019 C 
HETATM   10  C   UNL     1     -26.767   9.847   3.478  1.00  0.00     0.019 C 
HETATM   11  C   UNL     1     -27.634  10.575   1.195  1.00  0.00     0.019 C 
ENDBRANCH   4   8
BRANCH   5  12
HETATM   12  O   UNL     1     -26.600   8.070  -0.668  1.00  0.00    -0.360 OA
HETATM   13  H   UNL     1     -27.203   8.819  -0.673  1.00  0.00     0.217 HD
ENDBRANCH   5  12
BRANCH   6  14
HETATM   14  C   UNL     1     -24.097   7.157  -1.785  1.00  0.00    -0.021 C 
HETATM   15  C   UNL     1     -22.793   7.624  -2.462  1.00  0.00     0.019 C 
HETATM   16  C   UNL     1     -24.006   5.622  -1.560  1.00  0.00     0.019 C 
HETATM   17  C   UNL     1     -25.262   7.333  -2.791  1.00  0.00     0.019 C 
ENDBRANCH   6  14
TORSDOF 3
ENDMDL
MODEL 4
REMARK VINA RESULT:      -6.0     16.314     18.948
REMARK  3 active torsions:
REMARK  status: ('A' for Active; 'I' for Inactive)
REMARK    1  A    between atoms: C_4  and  C_13 
REMARK    2  A    between atoms: C_5  and  O_12 
REMARK    3  A    between atoms: C_6  and  C_8 
ROOT
HETATM    1  C   UNL     1     -21.912   9.285   2.311  1.00  0.00     0.048 C 
HETATM    2  C   UNL     1     -23.142   8.955   1.516  1.00  0.00    -0.061 A 
HETATM    3  C   UNL     1     -23.051   8.305   0.282  1.00  0.00     0.017 A 
HETATM    4  C   UNL     1     -24.189   7.956  -0.476  1.00  0.00    -0.016 A 
HETATM    5  C   UNL     1     -25.450   8.316   0.080  1.00  0.00     0.079 A 
HETATM    6  C   UNL     1     -25.585   9.028   1.303  1.00  0.00    -0.016 A 
HETATM    7  C   UNL     1     -24.399   9.302   2.009  1.00  0.00     0.017 A 
ENDROOT
BRANCH   4   8
HETATM    8  C   UNL     1     -23.997   7.216  -1.828  1.00  0.00    -0.021 C 
HETATM    9  C   UNL     1     -25.113   7.519  -2.871  1.00  0.00     0.019 C 
HETATM   10  C   UNL     1     -22.678   7.636  -2.517  1.00  0.00     0.019 C 
HETATM   11  C   UNL     1     -24.051   5.683  -1.626  1.00  0.00     0.019 C 
ENDBRANCH   4   8
BRANCH   5  12
HETATM   12  O   UNL     1     -26.620   7.944  -0.520  1.00  0.00    -0.360 OA
HETATM   13  H   UNL     1     -27.361   8.034   0.087  1.00  0.00     0.217 HD
ENDBRANCH   5  12
BRANCH   6  14
HETATM   14  C   UNL     1     -26.944   9.462   1.916  1.00  0.00    -0.021 C 
HETATM   15  C   UNL     1     -26.678  10.021   3.329  1.00  0.00     0.019 C 
HETATM   16  C   UNL     1     -27.631  10.572   1.075  1.00  0.00     0.019 C 
HETATM   17  C   UNL     1     -28.007   8.342   2.025  1.00  0.00     0.019 C 
ENDBRANCH   6  14
TORSDOF 3
ENDMDL
MODEL 5
REMARK VINA RESULT:      -5.8     16.943     19.062
REMARK  3 active torsions:
REMARK  status: ('A' for Active; 'I' for Inactive)
REMARK    1  A    between atoms: C_4  and  C_13 
REMARK    2  A    between atoms: C_5  and  O_12 
REMARK    3  A    between atoms: C_6  and  C_8 
ROOT
HETATM    1  C   UNL     1     -23.508   6.717  -1.520  1.00  0.00     0.048 C 
HETATM    2  C   UNL     1     -24.019   7.627  -0.440  1.00  0.00    -0.061 A 
HETATM    3  C   UNL     1     -25.382   7.913  -0.323  1.00  0.00     0.017 A 
HETATM    4  C   UNL     1     -25.897   8.741   0.697  1.00  0.00    -0.016 A 
HETATM    5  C   UNL     1     -24.945   9.288   1.604  1.00  0.00     0.079 A 
HETATM    6  C   UNL     1     -23.546   9.069   1.487  1.00  0.00    -0.016 A 
HETATM    7  C   UNL     1     -23.125   8.201   0.462  1.00  0.00     0.017 A 
ENDROOT
BRANCH   4   8
HETATM    8  C   UNL     1     -27.429   8.990   0.765  1.00  0.00    -0.021 C 
HETATM    9  C   UNL     1     -27.813  10.491   0.923  1.00  0.00     0.019 C 
HETATM   10  C   UNL     1     -28.132   8.530  -0.533  1.00  0.00     0.019 C 
HETATM   11  C   UNL     1     -28.043   8.293   2.003  1.00  0.00     0.019 C 
ENDBRANCH   4   8
BRANCH   5  12
HETATM   12  O   UNL     1     -25.340  10.025   2.685  1.00  0.00    -0.360 OA
HETATM   13  H   UNL     1     -25.597   9.453   3.415  1.00  0.00     0.217 HD
ENDBRANCH   5  12
BRANCH   6  14
HETATM   14  C   UNL     1     -22.483   9.678   2.441  1.00  0.00    -0.021 C 
HETATM   15  C   UNL     1     -21.211   8.811   2.362  1.00  0.00     0.019 C 
HETATM   16  C   UNL     1     -22.108  11.131   2.039  1.00  0.00     0.019 C 
HETATM   17  C   UNL     1     -22.911   9.785   3.925  1.00  0.00     0.019 C 
ENDBRANCH   6  14
TORSDOF 3
ENDMDL
MODEL 6
REMARK VINA RESULT:      -5.8     16.190     18.366
REMARK  3 active torsions:
REMARK  status: ('A' for Active; 'I' for Inactive)
REMARK    1  A    between atoms: C_4  and  C_13 
REMARK    2  A    between atoms: C_5  and  O_12 
REMARK    3  A    between atoms: C_6  and  C_8 
ROOT
HETATM    1  C   UNL     1     -27.933   8.682   1.254  1.00  0.00     0.048 C 
HETATM    2  C   UNL     1     -26.466   8.603   0.943  1.00  0.00    -0.061 A 
HETATM    3  C   UNL     1     -25.519   9.214   1.768  1.00  0.00     0.017 A 
HETATM    4  C   UNL     1     -24.132   9.135   1.519  1.00  0.00    -0.016 A 
HETATM    5  C   UNL     1     -23.743   8.404   0.360  1.00  0.00     0.079 A 
HETATM    6  C   UNL     1     -24.674   7.817  -0.537  1.00  0.00    -0.016 A 
HETATM    7  C   UNL     1     -26.035   7.914  -0.190  1.00  0.00     0.017 A 
ENDROOT
BRANCH   4   8
HETATM    8  C   UNL     1     -23.147   9.826   2.501  1.00  0.00    -0.021 C 
HETATM    9  C   UNL     1     -21.895   8.966   2.842  1.00  0.00     0.019 C 
HETATM   10  C   UNL     1     -22.584  11.136   1.904  1.00  0.00     0.019 C 
HETATM   11  C   UNL     1     -23.829  10.091   3.865  1.00  0.00     0.019 C 
ENDBRANCH   4   8
BRANCH   5  12
HETATM   12  O   UNL     1     -22.425   8.181   0.074  1.00  0.00    -0.360 OA
HETATM   13  H   UNL     1     -22.093   8.836  -0.548  1.00  0.00     0.217 HD
ENDBRANCH   5  12
BRANCH   6  14
HETATM   14  C   UNL     1     -24.280   7.043  -1.825  1.00  0.00    -0.021 C 
HETATM   15  C   UNL     1     -23.828   5.627  -1.416  1.00  0.00     0.019 C 
HETATM   16  C   UNL     1     -25.475   6.908  -2.809  1.00  0.00     0.019 C 
HETATM   17  C   UNL     1     -23.155   7.692  -2.667  1.00  0.00     0.019 C 
ENDBRANCH   6  14
TORSDOF 3
ENDMDL
MODEL 7
REMARK VINA RESULT:      -5.7      2.170      3.753
REMARK  3 active torsions:
REMARK  status: ('A' for Active; 'I' for Inactive)
REMARK    1  A    between atoms: C_4  and  C_13 
REMARK    2  A    between atoms: C_5  and  O_12 
REMARK    3  A    between atoms: C_6  and  C_8 
ROOT
HETATM    1  C   UNL     1     -24.210 -12.812  -1.054  1.00  0.00     0.048 C 
HETATM    2  C   UNL     1     -23.339 -11.670  -1.490  1.00  0.00    -0.061 A 
HETATM    3  C   UNL     1     -23.210 -10.521  -0.706  1.00  0.00     0.017 A 
HETATM    4  C   UNL     1     -22.378  -9.442  -1.073  1.00  0.00    -0.016 A 
HETATM    5  C   UNL     1     -21.678  -9.580  -2.306  1.00  0.00     0.079 A 
HETATM    6  C   UNL     1     -21.825 -10.704  -3.161  1.00  0.00    -0.016 A 
HETATM    7  C   UNL     1     -22.647 -11.749  -2.698  1.00  0.00     0.017 A 
ENDROOT
BRANCH   4   8
HETATM    8  C   UNL     1     -22.277  -8.211  -0.131  1.00  0.00    -0.021 C 
HETATM    9  C   UNL     1     -23.479  -8.072   0.849  1.00  0.00     0.019 C 
HETATM   10  C   UNL     1     -21.027  -8.297   0.775  1.00  0.00     0.019 C 
HETATM   11  C   UNL     1     -22.277  -6.896  -0.947  1.00  0.00     0.019 C 
ENDBRANCH   4   8
BRANCH   5  12
HETATM   12  O   UNL     1     -20.772  -8.641  -2.714  1.00  0.00    -0.360 OA
HETATM   13  H   UNL     1     -20.865  -7.830  -2.205  1.00  0.00     0.217 HD
ENDBRANCH   5  12
BRANCH   6  14
HETATM   14  C   UNL     1     -21.101 -10.866  -4.526  1.00  0.00    -0.021 C 
HETATM   15  C   UNL     1     -19.651 -11.315  -4.252  1.00  0.00     0.019 C 
HETATM   16  C   UNL     1     -21.782 -11.939  -5.420  1.00  0.00     0.019 C 
HETATM   17  C   UNL     1     -21.062  -9.594  -5.408  1.00  0.00     0.019 C 
ENDBRANCH   6  14
TORSDOF 3
ENDMDL
MODEL 8
REMARK VINA RESULT:      -5.7      1.971      5.340
REMARK  3 active torsions:
REMARK  status: ('A' for Active; 'I' for Inactive)
REMARK    1  A    between atoms: C_4  and  C_13 
REMARK    2  A    between atoms: C_5  and  O_12 
REMARK    3  A    between atoms: C_6  and  C_8 
ROOT
HETATM    1  C   UNL     1     -18.470 -10.329  -4.363  1.00  0.00     0.048 C 
HETATM    2  C   UNL     1     -19.416  -9.211  -4.033  1.00  0.00    -0.061 A 
HETATM    3  C   UNL     1     -19.616  -8.150  -4.919  1.00  0.00     0.017 A 
HETATM    4  C   UNL     1     -20.519  -7.099  -4.652  1.00  0.00    -0.016 A 
HETATM    5  C   UNL     1     -21.213  -7.168  -3.410  1.00  0.00     0.079 A 
HETATM    6  C   UNL     1     -20.997  -8.197  -2.455  1.00  0.00    -0.016 A 
HETATM    7  C   UNL     1     -20.107  -9.223  -2.822  1.00  0.00     0.017 A 
ENDROOT
BRANCH   4   8
HETATM    8  C   UNL     1     -20.695  -5.969  -5.703  1.00  0.00    -0.021 C 
HETATM    9  C   UNL     1     -22.179  -5.699  -6.089  1.00  0.00     0.019 C 
HETATM   10  C   UNL     1     -20.166  -4.617  -5.170  1.00  0.00     0.019 C 
HETATM   11  C   UNL     1     -20.003  -6.346  -7.034  1.00  0.00     0.019 C 
ENDBRANCH   4   8
BRANCH   5  12
HETATM   12  O   UNL     1     -22.180  -6.256  -3.089  1.00  0.00    -0.360 OA
HETATM   13  H   UNL     1     -21.887  -5.361  -3.284  1.00  0.00     0.217 HD
ENDBRANCH   5  12
BRANCH   6  14
HETATM   14  C   UNL     1     -21.716  -8.279  -1.080  1.00  0.00    -0.021 C 
HETATM   15  C   UNL     1     -22.689  -9.474  -1.116  1.00  0.00     0.019 C 
HETATM   16  C   UNL     1     -20.713  -8.503   0.085  1.00  0.00     0.019 C 
HETATM   17  C   UNL     1     -22.508  -7.013  -0.672  1.00  0.00     0.019 C 
ENDBRANCH   6  14
TORSDOF 3
ENDMDL
MODEL 9
REMARK VINA RESULT:      -5.6      2.149      4.624
REMARK  3 active torsions:
REMARK  status: ('A' for Active; 'I' for Inactive)
REMARK    1  A    between atoms: C_4  and  C_13 
REMARK    2  A    between atoms: C_5  and  O_12 
REMARK    3  A    between atoms: C_6  and  C_8 
ROOT
HETATM    1  C   UNL     1     -22.333  -6.710  -1.108  1.00  0.00     0.048 C 
HETATM    2  C   UNL     1     -21.514  -7.124  -2.296  1.00  0.00    -0.061 A 
HETATM    3  C   UNL     1     -20.729  -8.279  -2.264  1.00  0.00     0.017 A 
HETATM    4  C   UNL     1     -19.970  -8.711  -3.373  1.00  0.00    -0.016 A 
HETATM    5  C   UNL     1     -20.036  -7.892  -4.536  1.00  0.00     0.079 A 
HETATM    6  C   UNL     1     -20.775  -6.680  -4.593  1.00  0.00    -0.016 A 
HETATM    7  C   UNL     1     -21.531  -6.346  -3.453  1.00  0.00     0.017 A 
ENDROOT
BRANCH   4   8
HETATM    8  C   UNL     1     -19.141 -10.019  -3.257  1.00  0.00    -0.021 C 
HETATM    9  C   UNL     1     -19.269 -10.722  -1.875  1.00  0.00     0.019 C 
HETATM   10  C   UNL     1     -19.606 -11.073  -4.289  1.00  0.00     0.019 C 
HETATM   11  C   UNL     1     -17.629  -9.725  -3.413  1.00  0.00     0.019 C 
ENDBRANCH   4   8
BRANCH   5  12
HETATM   12  O   UNL     1     -19.419  -8.263  -5.699  1.00  0.00    -0.360 OA
HETATM   13  H   UNL     1     -19.784  -9.088  -6.033  1.00  0.00     0.217 HD
ENDBRANCH   5  12
BRANCH   6  14
HETATM   14  C   UNL     1     -20.838  -5.751  -5.836  1.00  0.00    -0.021 C 
HETATM   15  C   UNL     1     -20.070  -4.455  -5.509  1.00  0.00     0.019 C 
HETATM   16  C   UNL     1     -20.182  -6.406  -7.083  1.00  0.00     0.019 C 
HETATM   17  C   UNL     1     -22.265  -5.370  -6.303  1.00  0.00     0.019 C 
ENDBRANCH   6  14
TORSDOF 3
ENDMDL
