MODEL 1
REMARK VINA RESULT:      -7.0      0.000      0.000
REMARK  6 active torsions:
REMARK  status: ('A' for Active; 'I' for Inactive)
REMARK    1  A    between atoms: C_6  and  O_7 
REMARK    2  A    between atoms: O_7  and  C_8 
REMARK    3  A    between atoms: C_8  and  C_9 
REMARK    4  A    between atoms: C_9  and  C_10 
REMARK    5  A    between atoms: C_9  and  O_12 
REMARK    6  A    between atoms: C_10  and  O_11 
ROOT
HETATM    1  O   UNL     1     -22.316  -3.654 -12.685  1.00  0.00    -0.349 OA
ENDROOT
BRANCH   1   2
HETATM    2  C   UNL     1     -21.948  -3.808 -11.376  1.00  0.00     0.069 A 
HETATM    3  C   UNL     1     -20.648  -4.052 -10.928  1.00  0.00     0.038 A 
HETATM    4  C   UNL     1     -20.387  -4.162  -9.558  1.00  0.00     0.026 A 
HETATM    5  C   UNL     1     -21.425  -4.025  -8.638  1.00  0.00     0.034 A 
HETATM    6  C   UNL     1     -22.721  -3.767  -9.076  1.00  0.00     0.026 A 
HETATM    7 CL   UNL     1     -21.100  -4.163  -6.955  1.00  0.00    -0.084 Cl
HETATM    8  C   UNL     1     -22.978  -3.651 -10.444  1.00  0.00     0.038 A 
ENDBRANCH   1   2
BRANCH   1   9
HETATM    9  C   UNL     1     -23.145  -2.519 -12.969  1.00  0.00     0.209 C 
BRANCH   9  10
HETATM   10  C   UNL     1     -23.422  -2.473 -14.475  1.00  0.00     0.166 C 
BRANCH  10  11
HETATM   11  C   UNL     1     -23.627  -1.053 -15.009  1.00  0.00     0.198 C 
BRANCH  11  12
HETATM   12  O   UNL     1     -24.924  -0.590 -14.625  1.00  0.00    -0.398 OA
HETATM   13  H   UNL     1     -25.543  -0.961 -15.286  1.00  0.00     0.209 HD
ENDBRANCH  11  12
ENDBRANCH  10  11
BRANCH  10  14
HETATM   14  O   UNL     1     -22.322  -3.056 -15.197  1.00  0.00    -0.391 OA
HETATM   15  H   UNL     1     -22.260  -3.984 -14.899  1.00  0.00     0.210 HD
ENDBRANCH  10  14
ENDBRANCH   9  10
ENDBRANCH   1   9
TORSDOF 6
ENDMDL
MODEL 2
REMARK VINA RESULT:      -6.8      1.131      2.155
REMARK  6 active torsions:
REMARK  status: ('A' for Active; 'I' for Inactive)
REMARK    1  A    between atoms: C_6  and  O_7 
REMARK    2  A    between atoms: O_7  and  C_8 
REMARK    3  A    between atoms: C_8  and  C_9 
REMARK    4  A    between atoms: C_9  and  C_10 
REMARK    5  A    between atoms: C_9  and  O_12 
REMARK    6  A    between atoms: C_10  and  O_11 
ROOT
HETATM    1  O   UNL     1     -23.622  -4.167 -12.281  1.00  0.00    -0.349 OA
ENDROOT
BRANCH   1   2
HETATM    2  C   UNL     1     -22.752  -4.146 -11.224  1.00  0.00     0.069 A 
HETATM    3  C   UNL     1     -23.120  -4.094  -9.878  1.00  0.00     0.038 A 
HETATM    4  C   UNL     1     -22.139  -4.109  -8.882  1.00  0.00     0.026 A 
HETATM    5  C   UNL     1     -20.791  -4.177  -9.231  1.00  0.00     0.034 A 
HETATM    6  C   UNL     1     -20.417  -4.244 -10.571  1.00  0.00     0.026 A 
HETATM    7 CL   UNL     1     -19.589  -4.191  -8.003  1.00  0.00    -0.084 Cl
HETATM    8  C   UNL     1     -21.399  -4.236 -11.565  1.00  0.00     0.038 A 
ENDBRANCH   1   2
BRANCH   1   9
HETATM    9  C   UNL     1     -24.458  -3.011 -12.420  1.00  0.00     0.209 C 
BRANCH   9  10
HETATM   10  C   UNL     1     -23.837  -2.072 -13.459  1.00  0.00     0.166 C 
BRANCH  10  11
HETATM   11  C   UNL     1     -23.062  -2.808 -14.554  1.00  0.00     0.198 C 
BRANCH  11  12
HETATM   12  O   UNL     1     -23.811  -3.953 -14.970  1.00  0.00    -0.398 OA
HETATM   13  H   UNL     1     -24.594  -3.599 -15.439  1.00  0.00     0.209 HD
ENDBRANCH  11  12
ENDBRANCH  10  11
BRANCH  10  14
HETATM   14  O   UNL     1     -24.865  -1.295 -14.100  1.00  0.00    -0.391 OA
HETATM   15  H   UNL     1     -25.694  -1.803 -14.000  1.00  0.00     0.210 HD
ENDBRANCH  10  14
ENDBRANCH   9  10
ENDBRANCH   1   9
TORSDOF 6
ENDMDL
MODEL 3
REMARK VINA RESULT:      -6.5      1.376      1.671
REMARK  6 active torsions:
REMARK  status: ('A' for Active; 'I' for Inactive)
REMARK    1  A    between atoms: C_6  and  O_7 
REMARK    2  A    between atoms: O_7  and  C_8 
REMARK    3  A    between atoms: C_8  and  C_9 
REMARK    4  A    between atoms: C_9  and  C_10 
REMARK    5  A    between atoms: C_9  and  O_12 
REMARK    6  A    between atoms: C_10  and  O_11 
ROOT
HETATM    1  O   UNL     1     -23.097  -3.683 -11.350  1.00  0.00    -0.349 OA
ENDROOT
BRANCH   1   2
HETATM    2  C   UNL     1     -22.235  -3.951 -10.321  1.00  0.00     0.069 A 
HETATM    3  C   UNL     1     -20.904  -4.348 -10.468  1.00  0.00     0.038 A 
HETATM    4  C   UNL     1     -20.108  -4.563  -9.338  1.00  0.00     0.026 A 
HETATM    5  C   UNL     1     -20.642  -4.379  -8.064  1.00  0.00     0.034 A 
HETATM    6  C   UNL     1     -21.963  -3.969  -7.910  1.00  0.00     0.026 A 
HETATM    7 CL   UNL     1     -19.660  -4.649  -6.679  1.00  0.00    -0.084 Cl
HETATM    8  C   UNL     1     -22.755  -3.747  -9.039  1.00  0.00     0.038 A 
ENDBRANCH   1   2
BRANCH   1   9
HETATM    9  C   UNL     1     -22.569  -2.874 -12.409  1.00  0.00     0.209 C 
BRANCH   9  10
HETATM   10  C   UNL     1     -23.603  -2.798 -13.537  1.00  0.00     0.166 C 
BRANCH  10  11
HETATM   11  C   UNL     1     -23.042  -2.212 -14.835  1.00  0.00     0.198 C 
BRANCH  11  12
HETATM   12  O   UNL     1     -22.165  -3.166 -15.439  1.00  0.00    -0.398 OA
HETATM   13  H   UNL     1     -22.454  -4.039 -15.104  1.00  0.00     0.209 HD
ENDBRANCH  11  12
ENDBRANCH  10  11
BRANCH  10  14
HETATM   14  O   UNL     1     -24.106  -4.113 -13.834  1.00  0.00    -0.391 OA
HETATM   15  H   UNL     1     -23.982  -4.244 -14.794  1.00  0.00     0.210 HD
ENDBRANCH  10  14
ENDBRANCH   9  10
ENDBRANCH   1   9
TORSDOF 6
ENDMDL
MODEL 4
REMARK VINA RESULT:      -6.3     11.814     12.891
REMARK  6 active torsions:
REMARK  status: ('A' for Active; 'I' for Inactive)
REMARK    1  A    between atoms: C_6  and  O_7 
REMARK    2  A    between atoms: O_7  and  C_8 
REMARK    3  A    between atoms: C_8  and  C_9 
REMARK    4  A    between atoms: C_9  and  C_10 
REMARK    5  A    between atoms: C_9  and  O_12 
REMARK    6  A    between atoms: C_10  and  O_11 
ROOT
HETATM    1  O   UNL     1     -34.600  -0.994 -11.643  1.00  0.00    -0.349 OA
ENDROOT
BRANCH   1   2
HETATM    2  C   UNL     1     -34.432  -2.332 -11.409  1.00  0.00     0.069 A 
HETATM    3  C   UNL     1     -33.212  -3.009 -11.447  1.00  0.00     0.038 A 
HETATM    4  C   UNL     1     -33.160  -4.377 -11.159  1.00  0.00     0.026 A 
HETATM    5  C   UNL     1     -34.326  -5.065 -10.831  1.00  0.00     0.034 A 
HETATM    6  C   UNL     1     -35.545  -4.394 -10.777  1.00  0.00     0.026 A 
HETATM    7 CL   UNL     1     -34.257  -6.747 -10.481  1.00  0.00    -0.084 Cl
HETATM    8  C   UNL     1     -35.594  -3.026 -11.057  1.00  0.00     0.038 A 
ENDBRANCH   1   2
BRANCH   1   9
HETATM    9  C   UNL     1     -35.950  -0.515 -11.576  1.00  0.00     0.209 C 
BRANCH   9  10
HETATM   10  C   UNL     1     -36.358   0.011 -12.956  1.00  0.00     0.166 C 
BRANCH  10  11
HETATM   11  C   UNL     1     -35.226  -0.044 -13.985  1.00  0.00     0.198 C 
BRANCH  11  12
HETATM   12  O   UNL     1     -35.210  -1.337 -14.595  1.00  0.00    -0.398 OA
HETATM   13  H   UNL     1     -35.214  -1.173 -15.561  1.00  0.00     0.209 HD
ENDBRANCH  11  12
ENDBRANCH  10  11
BRANCH  10  14
HETATM   14  O   UNL     1     -37.455  -0.763 -13.474  1.00  0.00    -0.391 OA
HETATM   15  H   UNL     1     -37.340  -1.668 -13.126  1.00  0.00     0.210 HD
ENDBRANCH  10  14
ENDBRANCH   9  10
ENDBRANCH   1   9
TORSDOF 6
ENDMDL
MODEL 5
REMARK VINA RESULT:      -6.1     11.561     12.688
REMARK  6 active torsions:
REMARK  status: ('A' for Active; 'I' for Inactive)
REMARK    1  A    between atoms: C_6  and  O_7 
REMARK    2  A    between atoms: O_7  and  C_8 
REMARK    3  A    between atoms: C_8  and  C_9 
REMARK    4  A    between atoms: C_9  and  C_10 
REMARK    5  A    between atoms: C_9  and  O_12 
REMARK    6  A    between atoms: C_10  and  O_11 
ROOT
HETATM    1  O   UNL     1     -34.361  -0.959 -11.725  1.00  0.00    -0.349 OA
ENDROOT
BRANCH   1   2
HETATM    2  C   UNL     1     -34.435  -2.284 -11.389  1.00  0.00     0.069 A 
HETATM    3  C   UNL     1     -35.605  -2.962 -11.041  1.00  0.00     0.038 A 
HETATM    4  C   UNL     1     -35.562  -4.329 -10.747  1.00  0.00     0.026 A 
HETATM    5  C   UNL     1     -34.351  -5.016 -10.803  1.00  0.00     0.034 A 
HETATM    6  C   UNL     1     -33.183  -4.350 -11.164  1.00  0.00     0.026 A 
HETATM    7 CL   UNL     1     -34.302  -6.695 -10.437  1.00  0.00    -0.084 Cl
HETATM    8  C   UNL     1     -33.229  -2.987 -11.465  1.00  0.00     0.038 A 
ENDBRANCH   1   2
BRANCH   1   9
HETATM    9  C   UNL     1     -35.608  -0.329 -12.050  1.00  0.00     0.209 C 
BRANCH   9  10
HETATM   10  C   UNL     1     -35.683  -0.134 -13.567  1.00  0.00     0.166 C 
BRANCH  10  11
HETATM   11  C   UNL     1     -34.850   1.048 -14.068  1.00  0.00     0.198 C 
BRANCH  11  12
HETATM   12  O   UNL     1     -35.588   1.750 -15.071  1.00  0.00    -0.398 OA
HETATM   13  H   UNL     1     -36.443   1.984 -14.655  1.00  0.00     0.209 HD
ENDBRANCH  11  12
ENDBRANCH  10  11
BRANCH  10  14
HETATM   14  O   UNL     1     -35.212  -1.316 -14.240  1.00  0.00    -0.391 OA
HETATM   15  H   UNL     1     -34.600  -1.008 -14.937  1.00  0.00     0.210 HD
ENDBRANCH  10  14
ENDBRANCH   9  10
ENDBRANCH   1   9
TORSDOF 6
ENDMDL
MODEL 6
REMARK VINA RESULT:      -5.8      4.225      6.510
REMARK  6 active torsions:
REMARK  status: ('A' for Active; 'I' for Inactive)
REMARK    1  A    between atoms: C_6  and  O_7 
REMARK    2  A    between atoms: O_7  and  C_8 
REMARK    3  A    between atoms: C_8  and  C_9 
REMARK    4  A    between atoms: C_9  and  C_10 
REMARK    5  A    between atoms: C_9  and  O_12 
REMARK    6  A    between atoms: C_10  and  O_11 
ROOT
HETATM    1  O   UNL     1     -22.313  -4.562  -7.807  1.00  0.00    -0.349 OA
ENDROOT
BRANCH   1   2
HETATM    2  C   UNL     1     -22.539  -4.077  -9.067  1.00  0.00     0.069 A 
HETATM    3  C   UNL     1     -21.559  -3.888 -10.044  1.00  0.00     0.038 A 
HETATM    4  C   UNL     1     -21.916  -3.413 -11.311  1.00  0.00     0.026 A 
HETATM    5  C   UNL     1     -23.249  -3.130 -11.600  1.00  0.00     0.034 A 
HETATM    6  C   UNL     1     -24.233  -3.330 -10.636  1.00  0.00     0.026 A 
HETATM    7 CL   UNL     1     -23.681  -2.544 -13.157  1.00  0.00    -0.084 Cl
HETATM    8  C   UNL     1     -23.877  -3.811  -9.373  1.00  0.00     0.038 A 
ENDBRANCH   1   2
BRANCH   1   9
HETATM    9  C   UNL     1     -21.206  -3.981  -7.106  1.00  0.00     0.209 C 
BRANCH   9  10
HETATM   10  C   UNL     1     -20.364  -5.105  -6.493  1.00  0.00     0.166 C 
BRANCH  10  11
HETATM   11  C   UNL     1     -20.862  -5.554  -5.117  1.00  0.00     0.198 C 
BRANCH  11  12
HETATM   12  O   UNL     1     -22.250  -5.885  -5.206  1.00  0.00    -0.398 OA
HETATM   13  H   UNL     1     -22.721  -5.030  -5.283  1.00  0.00     0.209 HD
ENDBRANCH  11  12
ENDBRANCH  10  11
BRANCH  10  14
HETATM   14  O   UNL     1     -20.374  -6.256  -7.357  1.00  0.00    -0.391 OA
HETATM   15  H   UNL     1     -19.965  -5.971  -8.198  1.00  0.00     0.210 HD
ENDBRANCH  10  14
ENDBRANCH   9  10
ENDBRANCH   1   9
TORSDOF 6
ENDMDL
MODEL 7
REMARK VINA RESULT:      -5.6      3.865      6.474
REMARK  6 active torsions:
REMARK  status: ('A' for Active; 'I' for Inactive)
REMARK    1  A    between atoms: C_6  and  O_7 
REMARK    2  A    between atoms: O_7  and  C_8 
REMARK    3  A    between atoms: C_8  and  C_9 
REMARK    4  A    between atoms: C_9  and  C_10 
REMARK    5  A    between atoms: C_9  and  O_12 
REMARK    6  A    between atoms: C_10  and  O_11 
ROOT
HETATM    1  O   UNL     1     -23.190  -4.078  -8.696  1.00  0.00    -0.349 OA
ENDROOT
BRANCH   1   2
HETATM    2  C   UNL     1     -23.206  -3.778 -10.032  1.00  0.00     0.069 A 
HETATM    3  C   UNL     1     -24.336  -3.396 -10.757  1.00  0.00     0.038 A 
HETATM    4  C   UNL     1     -24.224  -3.083 -12.116  1.00  0.00     0.026 A 
HETATM    5  C   UNL     1     -22.983  -3.151 -12.747  1.00  0.00     0.034 A 
HETATM    6  C   UNL     1     -21.849  -3.517 -12.027  1.00  0.00     0.026 A 
HETATM    7 CL   UNL     1     -22.851  -2.768 -14.418  1.00  0.00    -0.084 Cl
HETATM    8  C   UNL     1     -21.962  -3.822 -10.668  1.00  0.00     0.038 A 
ENDBRANCH   1   2
BRANCH   1   9
HETATM    9  C   UNL     1     -21.935  -3.886  -8.031  1.00  0.00     0.209 C 
BRANCH   9  10
HETATM   10  C   UNL     1     -21.568  -5.172  -7.284  1.00  0.00     0.166 C 
BRANCH  10  11
HETATM   11  C   UNL     1     -20.081  -5.267  -6.934  1.00  0.00     0.198 C 
BRANCH  11  12
HETATM   12  O   UNL     1     -19.676  -6.637  -6.975  1.00  0.00    -0.398 OA
HETATM   13  H   UNL     1     -20.244  -7.060  -7.652  1.00  0.00     0.209 HD
ENDBRANCH  11  12
ENDBRANCH  10  11
BRANCH  10  14
HETATM   14  O   UNL     1     -22.311  -5.257  -6.054  1.00  0.00    -0.391 OA
HETATM   15  H   UNL     1     -23.122  -5.762  -6.258  1.00  0.00     0.210 HD
ENDBRANCH  10  14
ENDBRANCH   9  10
ENDBRANCH   1   9
TORSDOF 6
ENDMDL
MODEL 8
REMARK VINA RESULT:      -5.6      5.290      7.747
REMARK  6 active torsions:
REMARK  status: ('A' for Active; 'I' for Inactive)
REMARK    1  A    between atoms: C_6  and  O_7 
REMARK    2  A    between atoms: O_7  and  C_8 
REMARK    3  A    between atoms: C_8  and  C_9 
REMARK    4  A    between atoms: C_9  and  C_10 
REMARK    5  A    between atoms: C_9  and  O_12 
REMARK    6  A    between atoms: C_10  and  O_11 
ROOT
HETATM    1  O   UNL     1     -20.903  -4.980  -5.915  1.00  0.00    -0.349 OA
ENDROOT
BRANCH   1   2
HETATM    2  C   UNL     1     -20.985  -4.668  -7.244  1.00  0.00     0.069 A 
HETATM    3  C   UNL     1     -19.963  -4.851  -8.179  1.00  0.00     0.038 A 
HETATM    4  C   UNL     1     -20.174  -4.522  -9.522  1.00  0.00     0.026 A 
HETATM    5  C   UNL     1     -21.406  -4.013  -9.930  1.00  0.00     0.034 A 
HETATM    6  C   UNL     1     -22.434  -3.842  -9.007  1.00  0.00     0.026 A 
HETATM    7 CL   UNL     1     -21.660  -3.607 -11.581  1.00  0.00    -0.084 Cl
HETATM    8  C   UNL     1     -22.224  -4.178  -7.667  1.00  0.00     0.038 A 
ENDBRANCH   1   2
BRANCH   1   9
HETATM    9  C   UNL     1     -20.834  -6.379  -5.607  1.00  0.00     0.209 C 
BRANCH   9  10
HETATM   10  C   UNL     1     -21.812  -6.684  -4.468  1.00  0.00     0.166 C 
BRANCH  10  11
HETATM   11  C   UNL     1     -21.381  -6.093  -3.124  1.00  0.00     0.198 C 
BRANCH  11  12
HETATM   12  O   UNL     1     -22.538  -5.884  -2.311  1.00  0.00    -0.398 OA
HETATM   13  H   UNL     1     -22.217  -5.422  -1.509  1.00  0.00     0.209 HD
ENDBRANCH  11  12
ENDBRANCH  10  11
BRANCH  10  14
HETATM   14  O   UNL     1     -23.113  -6.153  -4.780  1.00  0.00    -0.391 OA
HETATM   15  H   UNL     1     -22.960  -5.348  -5.312  1.00  0.00     0.210 HD
ENDBRANCH  10  14
ENDBRANCH   9  10
ENDBRANCH   1   9
TORSDOF 6
ENDMDL
MODEL 9
REMARK VINA RESULT:      -5.6      4.585      7.066
REMARK  6 active torsions:
REMARK  status: ('A' for Active; 'I' for Inactive)
REMARK    1  A    between atoms: C_6  and  O_7 
REMARK    2  A    between atoms: O_7  and  C_8 
REMARK    3  A    between atoms: C_8  and  C_9 
REMARK    4  A    between atoms: C_9  and  C_10 
REMARK    5  A    between atoms: C_9  and  O_12 
REMARK    6  A    between atoms: C_10  and  O_11 
ROOT
HETATM    1  O   UNL     1     -21.444  -4.952  -7.136  1.00  0.00    -0.349 OA
ENDROOT
BRANCH   1   2
HETATM    2  C   UNL     1     -21.714  -4.574  -8.424  1.00  0.00     0.069 A 
HETATM    3  C   UNL     1     -22.971  -4.202  -8.906  1.00  0.00     0.038 A 
HETATM    4  C   UNL     1     -23.120  -3.804 -10.239  1.00  0.00     0.026 A 
HETATM    5  C   UNL     1     -22.014  -3.775 -11.086  1.00  0.00     0.034 A 
HETATM    6  C   UNL     1     -20.755  -4.130 -10.608  1.00  0.00     0.026 A 
HETATM    7 CL   UNL     1     -22.203  -3.287 -12.724  1.00  0.00    -0.084 Cl
HETATM    8  C   UNL     1     -20.607  -4.520  -9.275  1.00  0.00     0.038 A 
ENDBRANCH   1   2
BRANCH   1   9
HETATM    9  C   UNL     1     -20.250  -5.724  -6.953  1.00  0.00     0.209 C 
BRANCH   9  10
HETATM   10  C   UNL     1     -20.450  -6.672  -5.766  1.00  0.00     0.166 C 
BRANCH  10  11
HETATM   11  C   UNL     1     -21.222  -6.038  -4.607  1.00  0.00     0.198 C 
BRANCH  11  12
HETATM   12  O   UNL     1     -22.625  -6.159  -4.855  1.00  0.00    -0.398 OA
HETATM   13  H   UNL     1     -22.819  -5.530  -5.580  1.00  0.00     0.209 HD
ENDBRANCH  11  12
ENDBRANCH  10  11
BRANCH  10  14
HETATM   14  O   UNL     1     -21.179  -7.841  -6.187  1.00  0.00    -0.391 OA
HETATM   15  H   UNL     1     -21.985  -7.515  -6.632  1.00  0.00     0.210 HD
ENDBRANCH  10  14
ENDBRANCH   9  10
ENDBRANCH   1   9
TORSDOF 6
ENDMDL
