MODEL 1
REMARK VINA RESULT:      -8.5      0.000      0.000
REMARK  5 active torsions:
REMARK  status: ('A' for Active; 'I' for Inactive)
REMARK    1  A    between atoms: C_4  and  S_26 
REMARK    2  A    between atoms: C_5  and  N_8 
REMARK    3  A    between atoms: N_8  and  C_9 
REMARK    4  A    between atoms: C_12  and  O_15 
REMARK    5  A    between atoms: S_26  and  O_29 
ROOT
HETATM    1  C   UNL     1     -20.572  -8.635  -4.144  1.00  0.00     0.048 C 
HETATM    2  C   UNL     1     -20.968  -8.849  -2.814  1.00  0.00     0.059 C 
HETATM    3  C   UNL     1     -21.618  -7.845  -2.098  1.00  0.00     0.064 C 
HETATM    4  C   UNL     1     -21.653  -6.544  -2.603  1.00  0.00     0.081 C 
HETATM    5  C   UNL     1     -21.134  -6.278  -3.864  1.00  0.00     0.040 C 
HETATM    6  C   UNL     1     -20.654  -7.328  -4.652  1.00  0.00     0.033 C 
HETATM    7  C   UNL     1     -22.419  -8.227  -0.918  1.00  0.00     0.197 C 
HETATM    8  O   UNL     1     -22.977  -7.366  -0.245  1.00  0.00    -0.286 OA
HETATM    9  C   UNL     1     -22.593  -9.664  -0.629  1.00  0.00     0.029 C 
HETATM   10  C   UNL     1     -23.705 -10.129   0.073  1.00  0.00     0.016 C 
HETATM   11  C   UNL     1     -23.813 -11.492   0.362  1.00  0.00     0.001 C 
HETATM   12  C   UNL     1     -22.780 -12.370   0.021  1.00  0.00     0.001 C 
HETATM   13  C   UNL     1     -21.683 -11.908  -0.703  1.00  0.00     0.016 C 
HETATM   14  C   UNL     1     -21.641 -10.568  -1.091  1.00  0.00     0.029 C 
HETATM   15  C   UNL     1     -20.698 -10.132  -2.129  1.00  0.00     0.196 C 
HETATM   16  O   UNL     1     -19.744 -10.828  -2.454  1.00  0.00    -0.286 OA
ENDROOT
BRANCH   1  17
HETATM   17  N   UNL     1     -20.364  -9.731  -5.023  1.00  0.00    -0.354 N 
HETATM   18  H   UNL     1     -20.870 -10.561  -4.688  1.00  0.00     0.166 HD
BRANCH  17  19
HETATM   19  C   UNL     1     -19.125 -10.169  -5.549  1.00  0.00     0.056 A 
HETATM   20  C   UNL     1     -18.936 -11.416  -6.162  1.00  0.00     0.115 A 
HETATM   21  C   UNL     1     -17.637 -11.923  -6.355  1.00  0.00     0.035 A 
HETATM   22  C   UNL     1     -16.512 -11.162  -6.017  1.00  0.00    -0.060 A 
HETATM   23  C   UNL     1     -15.124 -11.681  -6.232  1.00  0.00     0.048 C 
HETATM   24  C   UNL     1     -16.701  -9.889  -5.475  1.00  0.00     0.009 A 
HETATM   25  C   UNL     1     -17.986  -9.416  -5.222  1.00  0.00     0.031 A 
BRANCH  20  26
HETATM   26  S   UNL     1     -20.256 -12.395  -6.861  1.00  0.00     0.327 S 
HETATM   27  O   UNL     1     -21.408 -11.509  -6.996  1.00  0.00    -0.191 OA
HETATM   28  O   UNL     1     -19.739 -12.900  -8.136  1.00  0.00    -0.191 OA
BRANCH  26  29
HETATM   29  O   UNL     1     -20.609 -13.485  -5.937  1.00  0.00    -0.086 OA
HETATM   30 NA   UNL     2     -20.572 -12.509  -4.102  1.00  0.00     0.000 Na
ENDBRANCH  26  29
ENDBRANCH  20  26
ENDBRANCH  17  19
ENDBRANCH   1  17
BRANCH   4  31
HETATM   31  O   UNL     1     -22.218  -5.498  -1.929  1.00  0.00    -0.360 OA
HETATM   32  H   UNL     1     -22.999  -5.836  -1.434  1.00  0.00     0.217 HD
ENDBRANCH   4  31
TORSDOF 5
ENDMDL
MODEL 2
REMARK VINA RESULT:      -8.3      3.250      5.106
REMARK  5 active torsions:
REMARK  status: ('A' for Active; 'I' for Inactive)
REMARK    1  A    between atoms: C_4  and  S_26 
REMARK    2  A    between atoms: C_5  and  N_8 
REMARK    3  A    between atoms: N_8  and  C_9 
REMARK    4  A    between atoms: C_12  and  O_15 
REMARK    5  A    between atoms: S_26  and  O_29 
ROOT
HETATM    1  C   UNL     1     -20.441 -10.544  -0.879  1.00  0.00     0.048 C 
HETATM    2  C   UNL     1     -21.124  -9.540  -1.584  1.00  0.00     0.059 C 
HETATM    3  C   UNL     1     -21.657  -8.440  -0.914  1.00  0.00     0.064 C 
HETATM    4  C   UNL     1     -21.739  -8.451   0.480  1.00  0.00     0.081 C 
HETATM    5  C   UNL     1     -21.195  -9.509   1.197  1.00  0.00     0.040 C 
HETATM    6  C   UNL     1     -20.498 -10.516   0.524  1.00  0.00     0.033 C 
HETATM    7  C   UNL     1     -21.940  -7.214  -1.686  1.00  0.00     0.197 C 
HETATM    8  O   UNL     1     -22.439  -6.238  -1.134  1.00  0.00    -0.286 OA
HETATM    9  C   UNL     1     -21.529  -7.172  -3.103  1.00  0.00     0.029 C 
HETATM   10  C   UNL     1     -21.252  -5.961  -3.737  1.00  0.00     0.016 C 
HETATM   11  C   UNL     1     -20.905  -5.961  -5.091  1.00  0.00     0.001 C 
HETATM   12  C   UNL     1     -20.913  -7.151  -5.823  1.00  0.00     0.001 C 
HETATM   13  C   UNL     1     -21.164  -8.363  -5.181  1.00  0.00     0.016 C 
HETATM   14  C   UNL     1     -21.391  -8.366  -3.804  1.00  0.00     0.029 C 
HETATM   15  C   UNL     1     -21.313  -9.624  -3.049  1.00  0.00     0.196 C 
HETATM   16  O   UNL     1     -21.355 -10.709  -3.615  1.00  0.00    -0.286 OA
ENDROOT
BRANCH   1  17
HETATM   17  N   UNL     1     -19.506 -11.384  -1.540  1.00  0.00    -0.354 N 
HETATM   18  H   UNL     1     -19.946 -12.277  -1.801  1.00  0.00     0.166 HD
BRANCH  17  19
HETATM   19  C   UNL     1     -18.182 -11.665  -1.126  1.00  0.00     0.056 A 
HETATM   20  C   UNL     1     -17.055 -11.479  -1.940  1.00  0.00     0.115 A 
HETATM   21  C   UNL     1     -15.828 -12.082  -1.603  1.00  0.00     0.035 A 
HETATM   22  C   UNL     1     -15.687 -12.807  -0.414  1.00  0.00    -0.060 A 
HETATM   23  C   UNL     1     -14.385 -13.440  -0.035  1.00  0.00     0.048 C 
HETATM   24  C   UNL     1     -16.791 -12.928   0.433  1.00  0.00     0.009 A 
HETATM   25  C   UNL     1     -18.021 -12.389   0.066  1.00  0.00     0.031 A 
BRANCH  20  26
HETATM   26  S   UNL     1     -17.015 -10.392  -3.356  1.00  0.00     0.327 S 
HETATM   27  O   UNL     1     -17.500 -11.168  -4.493  1.00  0.00    -0.191 OA
HETATM   28  O   UNL     1     -17.867  -9.254  -3.003  1.00  0.00    -0.191 OA
BRANCH  26  29
HETATM   29  O   UNL     1     -15.628  -9.981  -3.628  1.00  0.00    -0.086 OA
HETATM   30 NA   UNL     2     -15.385  -8.410  -2.288  1.00  0.00     0.000 Na
ENDBRANCH  26  29
ENDBRANCH  20  26
ENDBRANCH  17  19
ENDBRANCH   1  17
BRANCH   4  31
HETATM   31  O   UNL     1     -22.304  -7.436   1.200  1.00  0.00    -0.360 OA
HETATM   32  H   UNL     1     -22.613  -7.803   2.060  1.00  0.00     0.217 HD
ENDBRANCH   4  31
TORSDOF 5
ENDMDL
MODEL 3
REMARK VINA RESULT:      -8.3      2.224      2.914
REMARK  5 active torsions:
REMARK  status: ('A' for Active; 'I' for Inactive)
REMARK    1  A    between atoms: C_4  and  S_26 
REMARK    2  A    between atoms: C_5  and  N_8 
REMARK    3  A    between atoms: N_8  and  C_9 
REMARK    4  A    between atoms: C_12  and  O_15 
REMARK    5  A    between atoms: S_26  and  O_29 
ROOT
HETATM    1  C   UNL     1     -19.984  -8.112  -4.475  1.00  0.00     0.048 C 
HETATM    2  C   UNL     1     -20.211  -8.357  -3.111  1.00  0.00     0.059 C 
HETATM    3  C   UNL     1     -21.205  -7.665  -2.422  1.00  0.00     0.064 C 
HETATM    4  C   UNL     1     -21.807  -6.551  -3.009  1.00  0.00     0.081 C 
HETATM    5  C   UNL     1     -21.490  -6.201  -4.315  1.00  0.00     0.040 C 
HETATM    6  C   UNL     1     -20.632  -7.013  -5.061  1.00  0.00     0.033 C 
HETATM    7  C   UNL     1     -21.730  -8.245  -1.170  1.00  0.00     0.197 C 
HETATM    8  O   UNL     1     -22.582  -7.647  -0.521  1.00  0.00    -0.286 OA
HETATM    9  C   UNL     1     -21.265  -9.590  -0.776  1.00  0.00     0.029 C 
HETATM   10  C   UNL     1     -22.051 -10.418   0.025  1.00  0.00     0.016 C 
HETATM   11  C   UNL     1     -21.558 -11.669   0.409  1.00  0.00     0.001 C 
HETATM   12  C   UNL     1     -20.259 -12.053   0.062  1.00  0.00     0.001 C 
HETATM   13  C   UNL     1     -19.487 -11.235  -0.761  1.00  0.00     0.016 C 
HETATM   14  C   UNL     1     -20.033 -10.043  -1.239  1.00  0.00     0.029 C 
HETATM   15  C   UNL     1     -19.398  -9.341  -2.362  1.00  0.00     0.196 C 
HETATM   16  O   UNL     1     -18.249  -9.593  -2.700  1.00  0.00    -0.286 OA
ENDROOT
BRANCH   1  17
HETATM   17  N   UNL     1     -19.354  -9.090  -5.290  1.00  0.00    -0.354 N 
HETATM   18  H   UNL     1     -19.096  -8.686  -6.201  1.00  0.00     0.166 HD
BRANCH  17  19
HETATM   19  C   UNL     1     -19.799 -10.413  -5.520  1.00  0.00     0.056 A 
HETATM   20  C   UNL     1     -18.979 -11.436  -6.017  1.00  0.00     0.115 A 
HETATM   21  C   UNL     1     -19.549 -12.615  -6.535  1.00  0.00     0.035 A 
HETATM   22  C   UNL     1     -20.932 -12.825  -6.489  1.00  0.00    -0.060 A 
HETATM   23  C   UNL     1     -21.550 -14.079  -7.020  1.00  0.00     0.048 C 
HETATM   24  C   UNL     1     -21.742 -11.836  -5.925  1.00  0.00     0.009 A 
HETATM   25  C   UNL     1     -21.184 -10.642  -5.475  1.00  0.00     0.031 A 
BRANCH  20  26
HETATM   26  S   UNL     1     -17.196 -11.419  -5.926  1.00  0.00     0.327 S 
HETATM   27  O   UNL     1     -16.840 -11.900  -4.595  1.00  0.00    -0.191 OA
HETATM   28  O   UNL     1     -16.738 -12.285  -7.015  1.00  0.00    -0.191 OA
BRANCH  26  29
HETATM   29  O   UNL     1     -16.704 -10.039  -6.073  1.00  0.00    -0.086 OA
HETATM   30 NA   UNL     2     -16.374  -9.498  -4.092  1.00  0.00     0.000 Na
ENDBRANCH  26  29
ENDBRANCH  20  26
ENDBRANCH  17  19
ENDBRANCH   1  17
BRANCH   4  31
HETATM   31  O   UNL     1     -22.744  -5.788  -2.371  1.00  0.00    -0.360 OA
HETATM   32  H   UNL     1     -22.590  -4.845  -2.609  1.00  0.00     0.217 HD
ENDBRANCH   4  31
TORSDOF 5
ENDMDL
MODEL 4
REMARK VINA RESULT:      -7.9      2.998      7.101
REMARK  5 active torsions:
REMARK  status: ('A' for Active; 'I' for Inactive)
REMARK    1  A    between atoms: C_4  and  S_26 
REMARK    2  A    between atoms: C_5  and  N_8 
REMARK    3  A    between atoms: N_8  and  C_9 
REMARK    4  A    between atoms: C_12  and  O_15 
REMARK    5  A    between atoms: S_26  and  O_29 
ROOT
HETATM    1  C   UNL     1     -17.758  -9.592  -4.032  1.00  0.00     0.048 C 
HETATM    2  C   UNL     1     -17.362 -10.653  -4.862  1.00  0.00     0.059 C 
HETATM    3  C   UNL     1     -16.491 -11.634  -4.393  1.00  0.00     0.064 C 
HETATM    4  C   UNL     1     -15.809 -11.437  -3.191  1.00  0.00     0.081 C 
HETATM    5  C   UNL     1     -16.079 -10.316  -2.417  1.00  0.00     0.040 C 
HETATM    6  C   UNL     1     -17.091  -9.433  -2.806  1.00  0.00     0.033 C 
HETATM    7  C   UNL     1     -16.463 -12.940  -5.082  1.00  0.00     0.197 C 
HETATM    8  O   UNL     1     -15.685 -13.815  -4.715  1.00  0.00    -0.286 OA
HETATM    9  C   UNL     1     -17.446 -13.183  -6.155  1.00  0.00     0.029 C 
HETATM   10  C   UNL     1     -17.860 -14.476  -6.474  1.00  0.00     0.016 C 
HETATM   11  C   UNL     1     -18.762 -14.668  -7.524  1.00  0.00     0.001 C 
HETATM   12  C   UNL     1     -19.185 -13.584  -8.299  1.00  0.00     0.001 C 
HETATM   13  C   UNL     1     -18.792 -12.290  -7.961  1.00  0.00     0.016 C 
HETATM   14  C   UNL     1     -17.987 -12.097  -6.837  1.00  0.00     0.029 C 
HETATM   15  C   UNL     1     -17.842 -10.755  -6.258  1.00  0.00     0.196 C 
HETATM   16  O   UNL     1     -18.153  -9.753  -6.890  1.00  0.00    -0.286 OA
ENDROOT
BRANCH   1  17
HETATM   17  N   UNL     1     -18.961  -8.882  -4.287  1.00  0.00    -0.354 N 
HETATM   18  H   UNL     1     -18.761  -7.998  -4.774  1.00  0.00     0.166 HD
BRANCH  17  19
HETATM   19  C   UNL     1     -20.009  -8.637  -3.369  1.00  0.00     0.056 A 
HETATM   20  C   UNL     1     -20.939  -7.596  -3.507  1.00  0.00     0.115 A 
HETATM   21  C   UNL     1     -21.730  -7.201  -2.411  1.00  0.00     0.035 A 
HETATM   22  C   UNL     1     -21.665  -7.887  -1.194  1.00  0.00    -0.060 A 
HETATM   23  C   UNL     1     -22.512  -7.489  -0.026  1.00  0.00     0.048 C 
HETATM   24  C   UNL     1     -20.792  -8.971  -1.080  1.00  0.00     0.009 A 
HETATM   25  C   UNL     1     -19.961  -9.319  -2.142  1.00  0.00     0.031 A 
BRANCH  20  26
HETATM   26  S   UNL     1     -21.307  -6.785  -5.055  1.00  0.00     0.327 S 
HETATM   27  O   UNL     1     -22.682  -6.304  -4.958  1.00  0.00    -0.191 OA
HETATM   28  O   UNL     1     -20.310  -5.721  -5.188  1.00  0.00    -0.191 OA
BRANCH  26  29
HETATM   29  O   UNL     1     -21.228  -7.758  -6.156  1.00  0.00    -0.086 OA
HETATM   30 NA   UNL     2     -19.806  -6.879  -7.393  1.00  0.00     0.000 Na
ENDBRANCH  26  29
ENDBRANCH  20  26
ENDBRANCH  17  19
ENDBRANCH   1  17
BRANCH   4  31
HETATM   31  O   UNL     1     -14.895 -12.327  -2.699  1.00  0.00    -0.360 OA
HETATM   32  H   UNL     1     -14.609 -12.016  -1.810  1.00  0.00     0.217 HD
ENDBRANCH   4  31
TORSDOF 5
ENDMDL
MODEL 5
REMARK VINA RESULT:      -7.8      2.006      3.964
REMARK  5 active torsions:
REMARK  status: ('A' for Active; 'I' for Inactive)
REMARK    1  A    between atoms: C_4  and  S_26 
REMARK    2  A    between atoms: C_5  and  N_8 
REMARK    3  A    between atoms: N_8  and  C_9 
REMARK    4  A    between atoms: C_12  and  O_15 
REMARK    5  A    between atoms: S_26  and  O_29 
ROOT
HETATM    1  C   UNL     1     -20.745 -11.002  -1.753  1.00  0.00     0.048 C 
HETATM    2  C   UNL     1     -21.329  -9.794  -2.165  1.00  0.00     0.059 C 
HETATM    3  C   UNL     1     -21.621  -8.794  -1.238  1.00  0.00     0.064 C 
HETATM    4  C   UNL     1     -21.573  -9.081   0.128  1.00  0.00     0.081 C 
HETATM    5  C   UNL     1     -21.133 -10.326   0.558  1.00  0.00     0.040 C 
HETATM    6  C   UNL     1     -20.664 -11.256  -0.374  1.00  0.00     0.033 C 
HETATM    7  C   UNL     1     -21.784  -7.409  -1.722  1.00  0.00     0.197 C 
HETATM    8  O   UNL     1     -22.073  -6.511  -0.938  1.00  0.00    -0.286 OA
HETATM    9  C   UNL     1     -21.507  -7.131  -3.145  1.00  0.00     0.029 C 
HETATM   10  C   UNL     1     -21.108  -5.863  -3.568  1.00  0.00     0.016 C 
HETATM   11  C   UNL     1     -20.894  -5.630  -4.929  1.00  0.00     0.001 C 
HETATM   12  C   UNL     1     -21.154  -6.633  -5.867  1.00  0.00     0.001 C 
HETATM   13  C   UNL     1     -21.526  -7.907  -5.440  1.00  0.00     0.016 C 
HETATM   14  C   UNL     1     -21.620  -8.163  -4.072  1.00  0.00     0.029 C 
HETATM   15  C   UNL     1     -21.666  -9.549  -3.585  1.00  0.00     0.196 C 
HETATM   16  O   UNL     1     -21.927 -10.478  -4.337  1.00  0.00    -0.286 OA
ENDROOT
BRANCH   1  17
HETATM   17  N   UNL     1     -20.016 -11.804  -2.671  1.00  0.00    -0.354 N 
HETATM   18  H   UNL     1     -20.213 -12.801  -2.512  1.00  0.00     0.166 HD
BRANCH  17  19
HETATM   19  C   UNL     1     -18.644 -11.684  -2.993  1.00  0.00     0.056 A 
HETATM   20  C   UNL     1     -18.096 -12.067  -4.226  1.00  0.00     0.115 A 
HETATM   21  C   UNL     1     -16.705 -12.239  -4.363  1.00  0.00     0.035 A 
HETATM   22  C   UNL     1     -15.839 -11.954  -3.302  1.00  0.00    -0.060 A 
HETATM   23  C   UNL     1     -14.357 -12.116  -3.437  1.00  0.00     0.048 C 
HETATM   24  C   UNL     1     -16.380 -11.501  -2.096  1.00  0.00     0.009 A 
HETATM   25  C   UNL     1     -17.760 -11.396  -1.941  1.00  0.00     0.031 A 
BRANCH  20  26
HETATM   26  S   UNL     1     -19.044 -12.235  -5.730  1.00  0.00     0.327 S 
HETATM   27  O   UNL     1     -19.351 -10.883  -6.185  1.00  0.00    -0.191 OA
HETATM   28  O   UNL     1     -18.193 -12.996  -6.648  1.00  0.00    -0.191 OA
BRANCH  26  29
HETATM   29  O   UNL     1     -20.309 -12.932  -5.444  1.00  0.00    -0.086 OA
HETATM   30 NA   UNL     2     -21.690 -11.703  -6.396  1.00  0.00     0.000 Na
ENDBRANCH  26  29
ENDBRANCH  20  26
ENDBRANCH  17  19
ENDBRANCH   1  17
BRANCH   4  31
HETATM   31  O   UNL     1     -21.904  -8.170   1.091  1.00  0.00    -0.360 OA
HETATM   32  H   UNL     1     -21.368  -7.358   0.946  1.00  0.00     0.217 HD
ENDBRANCH   4  31
TORSDOF 5
ENDMDL
MODEL 6
REMARK VINA RESULT:      -7.8      2.910      4.974
REMARK  5 active torsions:
REMARK  status: ('A' for Active; 'I' for Inactive)
REMARK    1  A    between atoms: C_4  and  S_26 
REMARK    2  A    between atoms: C_5  and  N_8 
REMARK    3  A    between atoms: N_8  and  C_9 
REMARK    4  A    between atoms: C_12  and  O_15 
REMARK    5  A    between atoms: S_26  and  O_29 
ROOT
HETATM    1  C   UNL     1     -20.605 -10.749  -1.215  1.00  0.00     0.048 C 
HETATM    2  C   UNL     1     -21.262  -9.655  -1.799  1.00  0.00     0.059 C 
HETATM    3  C   UNL     1     -21.660  -8.569  -1.021  1.00  0.00     0.064 C 
HETATM    4  C   UNL     1     -21.640  -8.670   0.371  1.00  0.00     0.081 C 
HETATM    5  C   UNL     1     -21.125  -9.809   0.975  1.00  0.00     0.040 C 
HETATM    6  C   UNL     1     -20.555 -10.814   0.187  1.00  0.00     0.033 C 
HETATM    7  C   UNL     1     -21.907  -7.276  -1.690  1.00  0.00     0.197 C 
HETATM    8  O   UNL     1     -22.291  -6.308  -1.040  1.00  0.00    -0.286 OA
HETATM    9  C   UNL     1     -21.600  -7.165  -3.130  1.00  0.00     0.029 C 
HETATM   10  C   UNL     1     -21.282  -5.936  -3.706  1.00  0.00     0.016 C 
HETATM   11  C   UNL     1     -21.037  -5.867  -5.081  1.00  0.00     0.001 C 
HETATM   12  C   UNL     1     -21.187  -7.001  -5.883  1.00  0.00     0.001 C 
HETATM   13  C   UNL     1     -21.479  -8.233  -5.300  1.00  0.00     0.016 C 
HETATM   14  C   UNL     1     -21.603  -8.316  -3.913  1.00  0.00     0.029 C 
HETATM   15  C   UNL     1     -21.564  -9.625  -3.247  1.00  0.00     0.196 C 
HETATM   16  O   UNL     1     -21.728 -10.662  -3.876  1.00  0.00    -0.286 OA
ENDROOT
BRANCH   1  17
HETATM   17  N   UNL     1     -19.786 -11.605  -1.999  1.00  0.00    -0.354 N 
HETATM   18  H   UNL     1     -19.647 -12.506  -1.522  1.00  0.00     0.166 HD
BRANCH  17  19
HETATM   19  C   UNL     1     -18.566 -11.262  -2.630  1.00  0.00     0.056 A 
HETATM   20  C   UNL     1     -17.317 -11.319  -1.995  1.00  0.00     0.115 A 
HETATM   21  C   UNL     1     -16.207 -10.656  -2.551  1.00  0.00     0.035 A 
HETATM   22  C   UNL     1     -16.305 -10.000  -3.784  1.00  0.00    -0.060 A 
HETATM   23  C   UNL     1     -15.129  -9.305  -4.396  1.00  0.00     0.048 C 
HETATM   24  C   UNL     1     -17.532 -10.008  -4.451  1.00  0.00     0.009 A 
HETATM   25  C   UNL     1     -18.646 -10.605  -3.868  1.00  0.00     0.031 A 
BRANCH  20  26
HETATM   26  S   UNL     1     -16.977 -12.309  -0.548  1.00  0.00     0.327 S 
HETATM   27  O   UNL     1     -17.869 -11.832   0.504  1.00  0.00    -0.191 OA
HETATM   28  O   UNL     1     -17.220 -13.695  -0.954  1.00  0.00    -0.191 OA
BRANCH  26  29
HETATM   29  O   UNL     1     -15.587 -12.095  -0.115  1.00  0.00    -0.086 OA
HETATM   30 NA   UNL     2     -15.848 -11.494   1.858  1.00  0.00     0.000 Na
ENDBRANCH  26  29
ENDBRANCH  20  26
ENDBRANCH  17  19
ENDBRANCH   1  17
BRANCH   4  31
HETATM   31  O   UNL     1     -22.073  -7.670   1.196  1.00  0.00    -0.360 OA
HETATM   32  H   UNL     1     -22.661  -7.074   0.677  1.00  0.00     0.217 HD
ENDBRANCH   4  31
TORSDOF 5
ENDMDL
MODEL 7
REMARK VINA RESULT:      -7.7      1.912      2.380
REMARK  5 active torsions:
REMARK  status: ('A' for Active; 'I' for Inactive)
REMARK    1  A    between atoms: C_4  and  S_26 
REMARK    2  A    between atoms: C_5  and  N_8 
REMARK    3  A    between atoms: N_8  and  C_9 
REMARK    4  A    between atoms: C_12  and  O_15 
REMARK    5  A    between atoms: S_26  and  O_29 
ROOT
HETATM    1  C   UNL     1     -19.514 -10.080  -2.316  1.00  0.00     0.048 C 
HETATM    2  C   UNL     1     -20.350 -10.247  -1.200  1.00  0.00     0.059 C 
HETATM    3  C   UNL     1     -21.339  -9.310  -0.908  1.00  0.00     0.064 C 
HETATM    4  C   UNL     1     -21.343  -8.079  -1.566  1.00  0.00     0.081 C 
HETATM    5  C   UNL     1     -20.428  -7.835  -2.582  1.00  0.00     0.040 C 
HETATM    6  C   UNL     1     -19.561  -8.851  -2.994  1.00  0.00     0.033 C 
HETATM    7  C   UNL     1     -22.469  -9.722  -0.052  1.00  0.00     0.197 C 
HETATM    8  O   UNL     1     -23.341  -8.913   0.251  1.00  0.00    -0.286 OA
HETATM    9  C   UNL     1     -22.559 -11.140   0.350  1.00  0.00     0.029 C 
HETATM   10  C   UNL     1     -23.787 -11.723   0.664  1.00  0.00     0.016 C 
HETATM   11  C   UNL     1     -23.825 -13.057   1.079  1.00  0.00     0.001 C 
HETATM   12  C   UNL     1     -22.639 -13.777   1.254  1.00  0.00     0.001 C 
HETATM   13  C   UNL     1     -21.417 -13.200   0.914  1.00  0.00     0.016 C 
HETATM   14  C   UNL     1     -21.400 -11.908   0.386  1.00  0.00     0.029 C 
HETATM   15  C   UNL     1     -20.198 -11.408  -0.295  1.00  0.00     0.196 C 
HETATM   16  O   UNL     1     -19.114 -11.960  -0.158  1.00  0.00    -0.286 OA
ENDROOT
BRANCH   1  17
HETATM   17  N   UNL     1     -18.858 -11.195  -2.903  1.00  0.00    -0.354 N 
HETATM   18  H   UNL     1     -18.759 -11.956  -2.217  1.00  0.00     0.166 HD
BRANCH  17  19
HETATM   19  C   UNL     1     -17.679 -11.166  -3.684  1.00  0.00     0.056 A 
HETATM   20  C   UNL     1     -17.644 -11.470  -5.053  1.00  0.00     0.115 A 
HETATM   21  C   UNL     1     -16.418 -11.751  -5.687  1.00  0.00     0.035 A 
HETATM   22  C   UNL     1     -15.210 -11.653  -4.989  1.00  0.00    -0.060 A 
HETATM   23  C   UNL     1     -13.898 -11.933  -5.653  1.00  0.00     0.048 C 
HETATM   24  C   UNL     1     -15.240 -11.278  -3.644  1.00  0.00     0.009 A 
HETATM   25  C   UNL     1     -16.457 -11.067  -3.000  1.00  0.00     0.031 A 
BRANCH  20  26
HETATM   26  S   UNL     1     -19.068 -11.400  -6.128  1.00  0.00     0.327 S 
HETATM   27  O   UNL     1     -18.572 -11.558  -7.492  1.00  0.00    -0.191 OA
HETATM   28  O   UNL     1     -19.949 -12.484  -5.685  1.00  0.00    -0.191 OA
BRANCH  26  29
HETATM   29  O   UNL     1     -19.713 -10.082  -6.014  1.00  0.00    -0.086 OA
HETATM   30 NA   UNL     2     -18.246  -8.828  -6.788  1.00  0.00     0.000 Na
ENDBRANCH  26  29
ENDBRANCH  20  26
ENDBRANCH  17  19
ENDBRANCH   1  17
BRANCH   4  31
HETATM   31  O   UNL     1     -22.244  -7.090  -1.289  1.00  0.00    -0.360 OA
HETATM   32  H   UNL     1     -22.188  -6.881  -0.329  1.00  0.00     0.217 HD
ENDBRANCH   4  31
TORSDOF 5
ENDMDL
MODEL 8
REMARK VINA RESULT:      -7.7      3.075      7.566
REMARK  5 active torsions:
REMARK  status: ('A' for Active; 'I' for Inactive)
REMARK    1  A    between atoms: C_4  and  S_26 
REMARK    2  A    between atoms: C_5  and  N_8 
REMARK    3  A    between atoms: N_8  and  C_9 
REMARK    4  A    between atoms: C_12  and  O_15 
REMARK    5  A    between atoms: S_26  and  O_29 
ROOT
HETATM    1  C   UNL     1     -17.797 -10.966  -3.519  1.00  0.00     0.048 C 
HETATM    2  C   UNL     1     -17.425 -11.376  -4.810  1.00  0.00     0.059 C 
HETATM    3  C   UNL     1     -16.154 -11.893  -5.051  1.00  0.00     0.064 C 
HETATM    4  C   UNL     1     -15.160 -11.771  -4.078  1.00  0.00     0.081 C 
HETATM    5  C   UNL     1     -15.471 -11.233  -2.836  1.00  0.00     0.040 C 
HETATM    6  C   UNL     1     -16.793 -10.891  -2.540  1.00  0.00     0.033 C 
HETATM    7  C   UNL     1     -15.947 -12.726  -6.252  1.00  0.00     0.197 C 
HETATM    8  O   UNL     1     -14.833 -13.169  -6.513  1.00  0.00    -0.286 OA
HETATM    9  C   UNL     1     -17.126 -13.073  -7.071  1.00  0.00     0.029 C 
HETATM   10  C   UNL     1     -17.146 -14.229  -7.851  1.00  0.00     0.016 C 
HETATM   11  C   UNL     1     -18.265 -14.502  -8.643  1.00  0.00     0.001 C 
HETATM   12  C   UNL     1     -19.319 -13.587  -8.715  1.00  0.00     0.001 C 
HETATM   13  C   UNL     1     -19.309 -12.446  -7.914  1.00  0.00     0.016 C 
HETATM   14  C   UNL     1     -18.242 -12.243  -7.037  1.00  0.00     0.029 C 
HETATM   15  C   UNL     1     -18.360 -11.261  -5.951  1.00  0.00     0.196 C 
HETATM   16  O   UNL     1     -19.233 -10.402  -5.963  1.00  0.00    -0.286 OA
ENDROOT
BRANCH   1  17
HETATM   17  N   UNL     1     -19.166 -10.901  -3.147  1.00  0.00    -0.354 N 
HETATM   18  H   UNL     1     -19.769 -11.116  -3.952  1.00  0.00     0.166 HD
BRANCH  17  19
HETATM   19  C   UNL     1     -19.792  -9.870  -2.406  1.00  0.00     0.056 A 
HETATM   20  C   UNL     1     -20.493 -10.085  -1.210  1.00  0.00     0.115 A 
HETATM   21  C   UNL     1     -21.363  -9.098  -0.711  1.00  0.00     0.035 A 
HETATM   22  C   UNL     1     -21.484  -7.858  -1.348  1.00  0.00    -0.060 A 
HETATM   23  C   UNL     1     -22.394  -6.793  -0.819  1.00  0.00     0.048 C 
HETATM   24  C   UNL     1     -20.729  -7.618  -2.498  1.00  0.00     0.009 A 
HETATM   25  C   UNL     1     -19.920  -8.619  -3.029  1.00  0.00     0.031 A 
BRANCH  20  26
HETATM   26  S   UNL     1     -20.264 -11.512  -0.162  1.00  0.00     0.327 S 
HETATM   27  O   UNL     1     -20.862 -12.645  -0.861  1.00  0.00    -0.191 OA
HETATM   28  O   UNL     1     -18.817 -11.628   0.034  1.00  0.00    -0.191 OA
BRANCH  26  29
HETATM   29  O   UNL     1     -20.980 -11.314   1.109  1.00  0.00    -0.086 OA
HETATM   30 NA   UNL     2     -19.630 -10.147   2.176  1.00  0.00     0.000 Na
ENDBRANCH  26  29
ENDBRANCH  20  26
ENDBRANCH  17  19
ENDBRANCH   1  17
BRANCH   4  31
HETATM   31  O   UNL     1     -13.876 -12.198  -4.267  1.00  0.00    -0.360 OA
HETATM   32  H   UNL     1     -13.901 -13.029  -4.795  1.00  0.00     0.217 HD
ENDBRANCH   4  31
TORSDOF 5
ENDMDL
MODEL 9
REMARK VINA RESULT:      -7.7      2.432      7.312
REMARK  5 active torsions:
REMARK  status: ('A' for Active; 'I' for Inactive)
REMARK    1  A    between atoms: C_4  and  S_26 
REMARK    2  A    between atoms: C_5  and  N_8 
REMARK    3  A    between atoms: N_8  and  C_9 
REMARK    4  A    between atoms: C_12  and  O_15 
REMARK    5  A    between atoms: S_26  and  O_29 
ROOT
HETATM    1  C   UNL     1     -19.810 -10.813  -4.718  1.00  0.00     0.048 C 
HETATM    2  C   UNL     1     -18.766 -11.696  -5.036  1.00  0.00     0.059 C 
HETATM    3  C   UNL     1     -18.767 -12.390  -6.245  1.00  0.00     0.064 C 
HETATM    4  C   UNL     1     -19.920 -12.409  -7.032  1.00  0.00     0.081 C 
HETATM    5  C   UNL     1     -21.024 -11.653  -6.660  1.00  0.00     0.040 C 
HETATM    6  C   UNL     1     -20.946 -10.814  -5.545  1.00  0.00     0.033 C 
HETATM    7  C   UNL     1     -17.487 -12.922  -6.753  1.00  0.00     0.197 C 
HETATM    8  O   UNL     1     -17.456 -13.566  -7.797  1.00  0.00    -0.286 OA
HETATM    9  C   UNL     1     -16.251 -12.587  -6.018  1.00  0.00     0.029 C 
HETATM   10  C   UNL     1     -15.014 -12.561  -6.662  1.00  0.00     0.016 C 
HETATM   11  C   UNL     1     -13.862 -12.278  -5.922  1.00  0.00     0.001 C 
HETATM   12  C   UNL     1     -13.938 -12.101  -4.537  1.00  0.00     0.001 C 
HETATM   13  C   UNL     1     -15.178 -12.101  -3.901  1.00  0.00     0.016 C 
HETATM   14  C   UNL     1     -16.333 -12.265  -4.667  1.00  0.00     0.029 C 
HETATM   15  C   UNL     1     -17.646 -11.929  -4.098  1.00  0.00     0.196 C 
HETATM   16  O   UNL     1     -17.800 -11.798  -2.891  1.00  0.00    -0.286 OA
ENDROOT
BRANCH   1  17
HETATM   17  N   UNL     1     -19.615  -9.770  -3.774  1.00  0.00    -0.354 N 
HETATM   18  H   UNL     1     -18.697  -9.865  -3.318  1.00  0.00     0.166 HD
BRANCH  17  19
HETATM   19  C   UNL     1     -20.537  -9.334  -2.794  1.00  0.00     0.056 A 
HETATM   20  C   UNL     1     -21.112  -8.055  -2.779  1.00  0.00     0.115 A 
HETATM   21  C   UNL     1     -21.744  -7.573  -1.617  1.00  0.00     0.035 A 
HETATM   22  C   UNL     1     -21.882  -8.386  -0.486  1.00  0.00    -0.060 A 
HETATM   23  C   UNL     1     -22.565  -7.894   0.752  1.00  0.00     0.048 C 
HETATM   24  C   UNL     1     -21.374  -9.686  -0.527  1.00  0.00     0.009 A 
HETATM   25  C   UNL     1     -20.690 -10.138  -1.653  1.00  0.00     0.031 A 
BRANCH  20  26
HETATM   26  S   UNL     1     -21.226  -6.995  -4.212  1.00  0.00     0.327 S 
HETATM   27  O   UNL     1     -22.436  -7.389  -4.928  1.00  0.00    -0.191 OA
HETATM   28  O   UNL     1     -21.261  -5.628  -3.688  1.00  0.00    -0.191 OA
BRANCH  26  29
HETATM   29  O   UNL     1     -20.067  -7.222  -5.091  1.00  0.00    -0.086 OA
HETATM   30 NA   UNL     2     -20.985  -7.489  -6.937  1.00  0.00     0.000 Na
ENDBRANCH  26  29
ENDBRANCH  20  26
ENDBRANCH  17  19
ENDBRANCH   1  17
BRANCH   4  31
HETATM   31  O   UNL     1     -20.014 -13.117  -8.197  1.00  0.00    -0.360 OA
HETATM   32  H   UNL     1     -19.200 -13.663  -8.293  1.00  0.00     0.217 HD
ENDBRANCH   4  31
TORSDOF 5
ENDMDL
