MODEL 1
REMARK VINA RESULT:      -6.3      0.000      0.000
REMARK  5 active torsions:
REMARK  status: ('A' for Active; 'I' for Inactive)
REMARK    1  A    between atoms: C_5  and  C_14 
REMARK    2  A    between atoms: C_6  and  O_8 
REMARK    3  A    between atoms: O_8  and  C_9 
REMARK    4  A    between atoms: C_9  and  C_11 
REMARK    5  A    between atoms: C_11  and  O_13 
ROOT
HETATM    1  C   UNL     1     -37.720  -0.418 -10.126  1.00  0.00     0.010 C 
HETATM    2  C   UNL     1     -36.326  -0.534 -10.743  1.00  0.00    -0.016 C 
HETATM    3  C   UNL     1     -35.451  -1.486  -9.915  1.00  0.00     0.005 C 
HETATM    4  C   UNL     1     -34.098  -1.740 -10.581  1.00  0.00     0.008 C 
HETATM    5  C   UNL     1     -34.248  -2.293 -12.019  1.00  0.00     0.018 C 
HETATM    6  C   UNL     1     -35.023  -1.213 -12.823  1.00  0.00     0.136 C 
HETATM    7  C   UNL     1     -36.411  -0.960 -12.217  1.00  0.00     0.037 C 
ENDROOT
BRANCH   6   8
HETATM    8  O   UNL     1     -35.194  -1.566 -14.204  1.00  0.00    -0.314 OA
BRANCH   8   9
HETATM    9  C   UNL     1     -35.355  -0.539 -15.085  1.00  0.00     0.287 C 
HETATM   10  O   UNL     1     -34.598   0.416 -15.212  1.00  0.00    -0.262 OA
BRANCH   9  11
HETATM   11  C   UNL     1     -36.627  -0.731 -15.919  1.00  0.00     0.213 C 
HETATM   12  C   UNL     1     -37.678   0.304 -15.555  1.00  0.00     0.050 C 
BRANCH  11  13
HETATM   13  O   UNL     1     -36.372  -0.631 -17.320  1.00  0.00    -0.386 OA
HETATM   14  H   UNL     1     -35.423  -0.422 -17.420  1.00  0.00     0.210 HD
ENDBRANCH  11  13
ENDBRANCH   9  11
ENDBRANCH   8   9
ENDBRANCH   6   8
BRANCH   5  15
HETATM   15  C   UNL     1     -34.859  -3.737 -12.045  1.00  0.00    -0.016 C 
HETATM   16  C   UNL     1     -34.415  -4.590 -13.239  1.00  0.00     0.010 C 
HETATM   17  C   UNL     1     -34.512  -4.517 -10.767  1.00  0.00     0.010 C 
ENDBRANCH   5  15
TORSDOF 5
ENDMDL
MODEL 2
REMARK VINA RESULT:      -5.8     12.519     14.148
REMARK  5 active torsions:
REMARK  status: ('A' for Active; 'I' for Inactive)
REMARK    1  A    between atoms: C_5  and  C_14 
REMARK    2  A    between atoms: C_6  and  O_8 
REMARK    3  A    between atoms: O_8  and  C_9 
REMARK    4  A    between atoms: C_9  and  C_11 
REMARK    5  A    between atoms: C_11  and  O_13 
ROOT
HETATM    1  C   UNL     1     -22.026  -6.555  -5.270  1.00  0.00     0.010 C 
HETATM    2  C   UNL     1     -22.232  -5.251  -6.042  1.00  0.00    -0.016 C 
HETATM    3  C   UNL     1     -20.891  -4.534  -6.249  1.00  0.00     0.005 C 
HETATM    4  C   UNL     1     -21.037  -3.301  -7.142  1.00  0.00     0.008 C 
HETATM    5  C   UNL     1     -21.659  -3.645  -8.518  1.00  0.00     0.018 C 
HETATM    6  C   UNL     1     -23.064  -4.237  -8.225  1.00  0.00     0.136 C 
HETATM    7  C   UNL     1     -22.964  -5.508  -7.369  1.00  0.00     0.037 C 
ENDROOT
BRANCH   6   8
HETATM    8  O   UNL     1     -23.792  -4.558  -9.420  1.00  0.00    -0.314 OA
BRANCH   8   9
HETATM    9  C   UNL     1     -24.461  -3.536 -10.024  1.00  0.00     0.287 C 
HETATM   10  O   UNL     1     -25.248  -2.775  -9.474  1.00  0.00    -0.262 OA
BRANCH   9  11
HETATM   11  C   UNL     1     -24.096  -3.450 -11.511  1.00  0.00     0.213 C 
HETATM   12  C   UNL     1     -23.711  -4.814 -12.057  1.00  0.00     0.050 C 
BRANCH  11  13
HETATM   13  O   UNL     1     -25.173  -2.944 -12.301  1.00  0.00    -0.386 OA
HETATM   14  H   UNL     1     -25.979  -3.010 -11.753  1.00  0.00     0.210 HD
ENDBRANCH  11  13
ENDBRANCH   9  11
ENDBRANCH   8   9
ENDBRANCH   6   8
BRANCH   5  15
HETATM   15  C   UNL     1     -20.711  -4.530  -9.399  1.00  0.00    -0.016 C 
HETATM   16  C   UNL     1     -20.490  -3.996 -10.819  1.00  0.00     0.010 C 
HETATM   17  C   UNL     1     -19.329  -4.695  -8.748  1.00  0.00     0.010 C 
ENDBRANCH   5  15
TORSDOF 5
ENDMDL
MODEL 3
REMARK VINA RESULT:      -5.8     18.683     20.750
REMARK  5 active torsions:
REMARK  status: ('A' for Active; 'I' for Inactive)
REMARK    1  A    between atoms: C_5  and  C_14 
REMARK    2  A    between atoms: C_6  and  O_8 
REMARK    3  A    between atoms: O_8  and  C_9 
REMARK    4  A    between atoms: C_9  and  C_11 
REMARK    5  A    between atoms: C_11  and  O_13 
ROOT
HETATM    1  C   UNL     1     -22.285  -6.087  -1.939  1.00  0.00     0.010 C 
HETATM    2  C   UNL     1     -21.614  -7.216  -1.155  1.00  0.00    -0.016 C 
HETATM    3  C   UNL     1     -22.601  -7.833  -0.154  1.00  0.00     0.005 C 
HETATM    4  C   UNL     1     -22.011  -9.058   0.545  1.00  0.00     0.008 C 
HETATM    5  C   UNL     1     -21.550 -10.141  -0.462  1.00  0.00     0.018 C 
HETATM    6  C   UNL     1     -20.458  -9.477  -1.345  1.00  0.00     0.136 C 
HETATM    7  C   UNL     1     -21.020  -8.267  -2.105  1.00  0.00     0.037 C 
ENDROOT
BRANCH   6   8
HETATM    8  O   UNL     1     -19.892 -10.385  -2.302  1.00  0.00    -0.314 OA
BRANCH   8   9
HETATM    9  C   UNL     1     -18.551 -10.612  -2.214  1.00  0.00     0.287 C 
HETATM   10  O   UNL     1     -18.025 -11.572  -1.664  1.00  0.00    -0.262 OA
BRANCH   9  11
HETATM   11  C   UNL     1     -17.763  -9.494  -2.906  1.00  0.00     0.213 C 
HETATM   12  C   UNL     1     -16.269  -9.761  -2.842  1.00  0.00     0.050 C 
BRANCH  11  13
HETATM   13  O   UNL     1     -18.129  -9.347  -4.278  1.00  0.00    -0.386 OA
HETATM   14  H   UNL     1     -17.623 -10.016  -4.778  1.00  0.00     0.210 HD
ENDBRANCH  11  13
ENDBRANCH   9  11
ENDBRANCH   8   9
ENDBRANCH   6   8
BRANCH   5  15
HETATM   15  C   UNL     1     -22.750 -10.795  -1.230  1.00  0.00    -0.016 C 
HETATM   16  C   UNL     1     -22.424 -12.145  -1.878  1.00  0.00     0.010 C 
HETATM   17  C   UNL     1     -23.960 -11.008  -0.306  1.00  0.00     0.010 C 
ENDBRANCH   5  15
TORSDOF 5
ENDMDL
MODEL 4
REMARK VINA RESULT:      -5.7     17.682     19.373
REMARK  5 active torsions:
REMARK  status: ('A' for Active; 'I' for Inactive)
REMARK    1  A    between atoms: C_5  and  C_14 
REMARK    2  A    between atoms: C_6  and  O_8 
REMARK    3  A    between atoms: O_8  and  C_9 
REMARK    4  A    between atoms: C_9  and  C_11 
REMARK    5  A    between atoms: C_11  and  O_13 
ROOT
HETATM    1  C   UNL     1     -20.315  -4.612  -5.641  1.00  0.00     0.010 C 
HETATM    2  C   UNL     1     -20.997  -5.901  -5.180  1.00  0.00    -0.016 C 
HETATM    3  C   UNL     1     -20.543  -7.085  -6.045  1.00  0.00     0.005 C 
HETATM    4  C   UNL     1     -21.091  -8.414  -5.522  1.00  0.00     0.008 C 
HETATM    5  C   UNL     1     -20.699  -8.669  -4.047  1.00  0.00     0.018 C 
HETATM    6  C   UNL     1     -21.310  -7.502  -3.225  1.00  0.00     0.136 C 
HETATM    7  C   UNL     1     -20.750  -6.148  -3.684  1.00  0.00     0.037 C 
ENDROOT
BRANCH   6   8
HETATM    8  O   UNL     1     -21.072  -7.631  -1.815  1.00  0.00    -0.314 OA
BRANCH   8   9
HETATM    9  C   UNL     1     -22.087  -7.263  -0.984  1.00  0.00     0.287 C 
HETATM   10  O   UNL     1     -22.622  -6.160  -0.958  1.00  0.00    -0.262 OA
BRANCH   9  11
HETATM   11  C   UNL     1     -22.490  -8.423  -0.068  1.00  0.00     0.213 C 
HETATM   12  C   UNL     1     -21.356  -8.796   0.870  1.00  0.00     0.050 C 
BRANCH  11  13
HETATM   13  O   UNL     1     -23.637  -8.112   0.723  1.00  0.00    -0.386 OA
HETATM   14  H   UNL     1     -23.903  -8.937   1.171  1.00  0.00     0.210 HD
ENDBRANCH  11  13
ENDBRANCH   9  11
ENDBRANCH   8   9
ENDBRANCH   6   8
BRANCH   5  15
HETATM   15  C   UNL     1     -19.158  -8.902  -3.868  1.00  0.00    -0.016 C 
HETATM   16  C   UNL     1     -18.783  -9.713  -2.623  1.00  0.00     0.010 C 
HETATM   17  C   UNL     1     -18.553  -9.618  -5.085  1.00  0.00     0.010 C 
ENDBRANCH   5  15
TORSDOF 5
ENDMDL
MODEL 5
REMARK VINA RESULT:      -5.7     17.250     19.627
REMARK  5 active torsions:
REMARK  status: ('A' for Active; 'I' for Inactive)
REMARK    1  A    between atoms: C_5  and  C_14 
REMARK    2  A    between atoms: C_6  and  O_8 
REMARK    3  A    between atoms: O_8  and  C_9 
REMARK    4  A    between atoms: C_9  and  C_11 
REMARK    5  A    between atoms: C_11  and  O_13 
ROOT
HETATM    1  C   UNL     1     -19.134 -11.737   0.225  1.00  0.00     0.010 C 
HETATM    2  C   UNL     1     -20.390 -11.374  -0.568  1.00  0.00    -0.016 C 
HETATM    3  C   UNL     1     -21.555 -11.071   0.384  1.00  0.00     0.005 C 
HETATM    4  C   UNL     1     -22.787 -10.564  -0.368  1.00  0.00     0.008 C 
HETATM    5  C   UNL     1     -22.476  -9.310  -1.222  1.00  0.00     0.018 C 
HETATM    6  C   UNL     1     -21.389  -9.739  -2.245  1.00  0.00     0.136 C 
HETATM    7  C   UNL     1     -20.113 -10.211  -1.534  1.00  0.00     0.037 C 
ENDROOT
BRANCH   6   8
HETATM    8  O   UNL     1     -21.033  -8.683  -3.151  1.00  0.00    -0.314 OA
BRANCH   8   9
HETATM    9  C   UNL     1     -21.325  -8.880  -4.467  1.00  0.00     0.287 C 
HETATM   10  O   UNL     1     -21.334  -9.962  -5.042  1.00  0.00    -0.262 OA
BRANCH   9  11
HETATM   11  C   UNL     1     -21.654  -7.551  -5.157  1.00  0.00     0.213 C 
HETATM   12  C   UNL     1     -21.150  -6.374  -4.339  1.00  0.00     0.050 C 
BRANCH  11  13
HETATM   13  O   UNL     1     -21.079  -7.464  -6.461  1.00  0.00    -0.386 OA
HETATM   14  H   UNL     1     -21.102  -8.364  -6.839  1.00  0.00     0.210 HD
ENDBRANCH  11  13
ENDBRANCH   9  11
ENDBRANCH   8   9
ENDBRANCH   6   8
BRANCH   5  15
HETATM   15  C   UNL     1     -22.136  -8.056  -0.344  1.00  0.00    -0.016 C 
HETATM   16  C   UNL     1     -22.314  -6.715  -1.064  1.00  0.00     0.010 C 
HETATM   17  C   UNL     1     -22.993  -8.013   0.930  1.00  0.00     0.010 C 
ENDBRANCH   5  15
TORSDOF 5
ENDMDL
MODEL 6
REMARK VINA RESULT:      -5.6      2.016      4.649
REMARK  5 active torsions:
REMARK  status: ('A' for Active; 'I' for Inactive)
REMARK    1  A    between atoms: C_5  and  C_14 
REMARK    2  A    between atoms: C_6  and  O_8 
REMARK    3  A    between atoms: O_8  and  C_9 
REMARK    4  A    between atoms: C_9  and  C_11 
REMARK    5  A    between atoms: C_11  and  O_13 
ROOT
HETATM    1  C   UNL     1     -36.755  -0.065  -8.976  1.00  0.00     0.010 C 
HETATM    2  C   UNL     1     -36.936  -0.754 -10.329  1.00  0.00    -0.016 C 
HETATM    3  C   UNL     1     -37.763   0.130 -11.274  1.00  0.00     0.005 C 
HETATM    4  C   UNL     1     -37.842  -0.460 -12.682  1.00  0.00     0.008 C 
HETATM    5  C   UNL     1     -36.441  -0.703 -13.294  1.00  0.00     0.018 C 
HETATM    6  C   UNL     1     -35.723  -1.710 -12.354  1.00  0.00     0.136 C 
HETATM    7  C   UNL     1     -35.578  -1.139 -10.936  1.00  0.00     0.037 C 
ENDROOT
BRANCH   6   8
HETATM    8  O   UNL     1     -34.418  -2.077 -12.826  1.00  0.00    -0.314 OA
BRANCH   8   9
HETATM    9  C   UNL     1     -34.139  -3.409 -12.885  1.00  0.00     0.287 C 
HETATM   10  O   UNL     1     -34.609  -4.201 -13.694  1.00  0.00    -0.262 OA
BRANCH   9  11
HETATM   11  C   UNL     1     -33.138  -3.805 -11.794  1.00  0.00     0.213 C 
HETATM   12  C   UNL     1     -33.844  -4.459 -10.619  1.00  0.00     0.050 C 
BRANCH  11  13
HETATM   13  O   UNL     1     -32.146  -4.712 -12.276  1.00  0.00    -0.386 OA
HETATM   14  H   UNL     1     -32.115  -5.457 -11.646  1.00  0.00     0.210 HD
ENDBRANCH  11  13
ENDBRANCH   9  11
ENDBRANCH   8   9
ENDBRANCH   6   8
BRANCH   5  15
HETATM   15  C   UNL     1     -35.672   0.633 -13.583  1.00  0.00    -0.016 C 
HETATM   16  C   UNL     1     -34.228   0.654 -13.070  1.00  0.00     0.010 C 
HETATM   17  C   UNL     1     -35.631   0.944 -15.087  1.00  0.00     0.010 C 
ENDBRANCH   5  15
TORSDOF 5
ENDMDL
MODEL 7
REMARK VINA RESULT:      -5.5     26.135     28.125
REMARK  5 active torsions:
REMARK  status: ('A' for Active; 'I' for Inactive)
REMARK    1  A    between atoms: C_5  and  C_14 
REMARK    2  A    between atoms: C_6  and  O_8 
REMARK    3  A    between atoms: O_8  and  C_9 
REMARK    4  A    between atoms: C_9  and  C_11 
REMARK    5  A    between atoms: C_11  and  O_13 
ROOT
HETATM    1  C   UNL     1     -14.087  11.085   1.229  1.00  0.00     0.010 C 
HETATM    2  C   UNL     1     -14.794   9.956   1.980  1.00  0.00    -0.016 C 
HETATM    3  C   UNL     1     -13.768   9.054   2.680  1.00  0.00     0.005 C 
HETATM    4  C   UNL     1     -14.443   8.000   3.559  1.00  0.00     0.008 C 
HETATM    5  C   UNL     1     -15.381   8.633   4.616  1.00  0.00     0.018 C 
HETATM    6  C   UNL     1     -16.466   9.414   3.824  1.00  0.00     0.136 C 
HETATM    7  C   UNL     1     -15.836  10.517   2.961  1.00  0.00     0.037 C 
ENDROOT
BRANCH   6   8
HETATM    8  O   UNL     1     -17.449  10.018   4.678  1.00  0.00    -0.314 OA
BRANCH   8   9
HETATM    9  C   UNL     1     -18.665   9.407   4.740  1.00  0.00     0.287 C 
HETATM   10  O   UNL     1     -19.261   9.109   5.769  1.00  0.00    -0.262 OA
BRANCH   9  11
HETATM   11  C   UNL     1     -19.213   9.137   3.334  1.00  0.00     0.213 C 
HETATM   12  C   UNL     1     -20.246   8.025   3.357  1.00  0.00     0.050 C 
BRANCH  11  13
HETATM   13  O   UNL     1     -19.819  10.295   2.760  1.00  0.00    -0.386 OA
HETATM   14  H   UNL     1     -19.693  10.230   1.794  1.00  0.00     0.210 HD
ENDBRANCH  11  13
ENDBRANCH   9  11
ENDBRANCH   8   9
ENDBRANCH   6   8
BRANCH   5  15
HETATM   15  C   UNL     1     -14.597   9.454   5.697  1.00  0.00    -0.016 C 
HETATM   16  C   UNL     1     -15.211   9.396   7.101  1.00  0.00     0.010 C 
HETATM   17  C   UNL     1     -13.139   8.984   5.813  1.00  0.00     0.010 C 
ENDBRANCH   5  15
TORSDOF 5
ENDMDL
MODEL 8
REMARK VINA RESULT:      -5.3     19.537     21.183
REMARK  5 active torsions:
REMARK  status: ('A' for Active; 'I' for Inactive)
REMARK    1  A    between atoms: C_5  and  C_14 
REMARK    2  A    between atoms: C_6  and  O_8 
REMARK    3  A    between atoms: O_8  and  C_9 
REMARK    4  A    between atoms: C_9  and  C_11 
REMARK    5  A    between atoms: C_11  and  O_13 
ROOT
HETATM    1  C   UNL     1     -22.821 -13.530   1.747  1.00  0.00     0.010 C 
HETATM    2  C   UNL     1     -22.703 -12.814   0.402  1.00  0.00    -0.016 C 
HETATM    3  C   UNL     1     -23.807 -11.756   0.260  1.00  0.00     0.005 C 
HETATM    4  C   UNL     1     -23.635 -10.920  -1.008  1.00  0.00     0.008 C 
HETATM    5  C   UNL     1     -22.249 -10.233  -1.073  1.00  0.00     0.018 C 
HETATM    6  C   UNL     1     -21.196 -11.375  -1.062  1.00  0.00     0.136 C 
HETATM    7  C   UNL     1     -21.300 -12.214   0.219  1.00  0.00     0.037 C 
ENDROOT
BRANCH   6   8
HETATM    8  O   UNL     1     -19.849 -10.889  -1.173  1.00  0.00    -0.314 OA
BRANCH   8   9
HETATM    9  C   UNL     1     -19.319 -10.830  -2.426  1.00  0.00     0.287 C 
HETATM   10  O   UNL     1     -19.319 -11.742  -3.244  1.00  0.00    -0.262 OA
BRANCH   9  11
HETATM   11  C   UNL     1     -18.710  -9.449  -2.695  1.00  0.00     0.213 C 
HETATM   12  C   UNL     1     -17.207  -9.546  -2.897  1.00  0.00     0.050 C 
BRANCH  11  13
HETATM   13  O   UNL     1     -19.274  -8.828  -3.850  1.00  0.00    -0.386 OA
HETATM   14  H   UNL     1     -18.527  -8.571  -4.425  1.00  0.00     0.210 HD
ENDBRANCH  11  13
ENDBRANCH   9  11
ENDBRANCH   8   9
ENDBRANCH   6   8
BRANCH   5  15
HETATM   15  C   UNL     1     -22.075  -9.129   0.027  1.00  0.00    -0.016 C 
HETATM   16  C   UNL     1     -21.124  -7.993  -0.364  1.00  0.00     0.010 C 
HETATM   17  C   UNL     1     -23.422  -8.494   0.404  1.00  0.00     0.010 C 
ENDBRANCH   5  15
TORSDOF 5
ENDMDL
MODEL 9
REMARK VINA RESULT:      -5.1     16.397     18.302
REMARK  5 active torsions:
REMARK  status: ('A' for Active; 'I' for Inactive)
REMARK    1  A    between atoms: C_5  and  C_14 
REMARK    2  A    between atoms: C_6  and  O_8 
REMARK    3  A    between atoms: O_8  and  C_9 
REMARK    4  A    between atoms: C_9  and  C_11 
REMARK    5  A    between atoms: C_11  and  O_13 
ROOT
HETATM    1  C   UNL     1     -22.229   8.495  -4.128  1.00  0.00     0.010 C 
HETATM    2  C   UNL     1     -23.270   7.702  -3.335  1.00  0.00    -0.016 C 
HETATM    3  C   UNL     1     -22.665   7.192  -2.020  1.00  0.00     0.005 C 
HETATM    4  C   UNL     1     -23.715   6.520  -1.134  1.00  0.00     0.008 C 
HETATM    5  C   UNL     1     -24.908   7.458  -0.826  1.00  0.00     0.018 C 
HETATM    6  C   UNL     1     -25.545   7.816  -2.197  1.00  0.00     0.136 C 
HETATM    7  C   UNL     1     -24.538   8.538  -3.104  1.00  0.00     0.037 C 
ENDROOT
BRANCH   6   8
HETATM    8  O   UNL     1     -26.709   8.647  -2.068  1.00  0.00    -0.314 OA
BRANCH   8   9
HETATM    9  C   UNL     1     -27.870   8.161  -2.587  1.00  0.00     0.287 C 
HETATM   10  O   UNL     1     -27.968   7.195  -3.335  1.00  0.00    -0.262 OA
BRANCH   9  11
HETATM   11  C   UNL     1     -29.070   8.986  -2.106  1.00  0.00     0.213 C 
HETATM   12  C   UNL     1     -28.695   9.846  -0.912  1.00  0.00     0.050 C 
BRANCH  11  13
HETATM   13  O   UNL     1     -29.579   9.842  -3.129  1.00  0.00    -0.386 OA
HETATM   14  H   UNL     1     -29.608   9.315  -3.950  1.00  0.00     0.210 HD
ENDBRANCH  11  13
ENDBRANCH   9  11
ENDBRANCH   8   9
ENDBRANCH   6   8
BRANCH   5  15
HETATM   15  C   UNL     1     -24.499   8.671   0.079  1.00  0.00    -0.016 C 
HETATM   16  C   UNL     1     -25.514   9.009   1.177  1.00  0.00     0.010 C 
HETATM   17  C   UNL     1     -23.144   8.431   0.762  1.00  0.00     0.010 C 
ENDBRANCH   5  15
TORSDOF 5
ENDMDL
