MODEL 1
REMARK VINA RESULT:      -1.1      0.000      0.000
REMARK WARNING: 32 MAX_TORS EXCEEDED!!!
REMARK  66 active torsions:
REMARK  status: ('A' for Active; 'I' for Inactive)
REMARK    1  A    between atoms: C_2  and  C_3 
REMARK    2  A    between atoms: C_3  and  C_4 
REMARK    3  A    between atoms: C_4  and  C_5 
REMARK    4  A    between atoms: C_5  and  C_6 
REMARK    5  A    between atoms: C_6  and  C_7 
REMARK    6  A    between atoms: C_7  and  C_8 
REMARK    7  A    between atoms: C_8  and  C_9 
REMARK    8  A    between atoms: C_9  and  C_10 
REMARK    9  A    between atoms: C_10  and  C_11 
REMARK   10  A    between atoms: C_11  and  C_12 
REMARK   11  A    between atoms: C_12  and  C_13 
REMARK   12  A    between atoms: C_13  and  C_14 
REMARK       I    between atoms: C_14  and  N_16 
REMARK   13  A    between atoms: N_16  and  C_17 
REMARK   14  A    between atoms: C_17  and  C_18 
REMARK   15  A    between atoms: C_18  and  C_19 
REMARK   16  A    between atoms: C_19  and  N_20 
REMARK   17  A    between atoms: N_20  and  C_23 
REMARK   18  A    between atoms: C_23  and  C_24 
REMARK   19  A    between atoms: C_24  and  C_25 
REMARK   20  A    between atoms: C_24  and  O_83 
REMARK   21  A    between atoms: C_25  and  O_26 
REMARK   22  A    between atoms: O_26  and  P_27 
REMARK   23  A    between atoms: P_27  and  O_29 
REMARK   24  A    between atoms: P_27  and  O_56 
REMARK   25  A    between atoms: O_29  and  C_30 
REMARK   26  A    between atoms: C_30  and  C_31 
REMARK   27  A    between atoms: C_31  and  C_32 
REMARK   28  A    between atoms: C_31  and  O_55 
REMARK   29  A    between atoms: C_32  and  N_33 
REMARK   30  A    between atoms: N_33  and  C_36 
REMARK   31  A    between atoms: C_36  and  C_37 
REMARK   32  A    between atoms: C_37  and  C_38 
REMARK   33  A    between atoms: C_38  and  N_39 
REMARK       I    between atoms: N_39  and  C_40 
REMARK   34  A    between atoms: C_40  and  C_42 
REMARK   35  A    between atoms: C_42  and  C_43 
REMARK   36  A    between atoms: C_43  and  C_44 
REMARK   37  A    between atoms: C_44  and  C_45 
REMARK   38  A    between atoms: C_45  and  C_46 
REMARK   39  A    between atoms: C_46  and  C_47 
REMARK   40  A    between atoms: C_47  and  C_48 
REMARK   41  A    between atoms: C_48  and  C_49 
REMARK   42  A    between atoms: C_49  and  C_50 
REMARK   43  A    between atoms: C_50  and  C_51 
REMARK   44  A    between atoms: C_51  and  C_52 
REMARK   45  A    between atoms: C_52  and  C_53 
REMARK   46  A    between atoms: O_56  and  C_57 
REMARK   47  A    between atoms: C_57  and  C_58 
REMARK   48  A    between atoms: C_58  and  C_59 
REMARK   49  A    between atoms: C_58  and  O_82 
REMARK   50  A    between atoms: C_59  and  N_60 
REMARK   51  A    between atoms: N_60  and  C_63 
REMARK   52  A    between atoms: C_63  and  C_64 
REMARK   53  A    between atoms: C_64  and  C_65 
REMARK   54  A    between atoms: C_65  and  N_66 
REMARK       I    between atoms: N_66  and  C_67 
REMARK   55  A    between atoms: C_67  and  C_69 
REMARK   56  A    between atoms: C_69  and  C_70 
REMARK   57  A    between atoms: C_70  and  C_71 
REMARK   58  A    between atoms: C_71  and  C_72 
REMARK   59  A    between atoms: C_72  and  C_73 
REMARK   60  A    between atoms: C_73  and  C_74 
REMARK   61  A    between atoms: C_74  and  C_75 
REMARK   62  A    between atoms: C_75  and  C_76 
REMARK   63  A    between atoms: C_76  and  C_77 
REMARK   64  A    between atoms: C_77  and  C_78 
REMARK   65  A    between atoms: C_78  and  C_79 
REMARK   66  A    between atoms: C_79  and  C_80 
ROOT
HETATM    1 CL   UNL     2     -17.596  -3.713   5.427  1.00  0.00     0.000 Cl
ENDROOT
TORSDOF 66
ENDMDL
MODEL 2
REMARK VINA RESULT:      -1.1     22.778     22.778
REMARK WARNING: 32 MAX_TORS EXCEEDED!!!
REMARK  66 active torsions:
REMARK  status: ('A' for Active; 'I' for Inactive)
REMARK    1  A    between atoms: C_2  and  C_3 
REMARK    2  A    between atoms: C_3  and  C_4 
REMARK    3  A    between atoms: C_4  and  C_5 
REMARK    4  A    between atoms: C_5  and  C_6 
REMARK    5  A    between atoms: C_6  and  C_7 
REMARK    6  A    between atoms: C_7  and  C_8 
REMARK    7  A    between atoms: C_8  and  C_9 
REMARK    8  A    between atoms: C_9  and  C_10 
REMARK    9  A    between atoms: C_10  and  C_11 
REMARK   10  A    between atoms: C_11  and  C_12 
REMARK   11  A    between atoms: C_12  and  C_13 
REMARK   12  A    between atoms: C_13  and  C_14 
REMARK       I    between atoms: C_14  and  N_16 
REMARK   13  A    between atoms: N_16  and  C_17 
REMARK   14  A    between atoms: C_17  and  C_18 
REMARK   15  A    between atoms: C_18  and  C_19 
REMARK   16  A    between atoms: C_19  and  N_20 
REMARK   17  A    between atoms: N_20  and  C_23 
REMARK   18  A    between atoms: C_23  and  C_24 
REMARK   19  A    between atoms: C_24  and  C_25 
REMARK   20  A    between atoms: C_24  and  O_83 
REMARK   21  A    between atoms: C_25  and  O_26 
REMARK   22  A    between atoms: O_26  and  P_27 
REMARK   23  A    between atoms: P_27  and  O_29 
REMARK   24  A    between atoms: P_27  and  O_56 
REMARK   25  A    between atoms: O_29  and  C_30 
REMARK   26  A    between atoms: C_30  and  C_31 
REMARK   27  A    between atoms: C_31  and  C_32 
REMARK   28  A    between atoms: C_31  and  O_55 
REMARK   29  A    between atoms: C_32  and  N_33 
REMARK   30  A    between atoms: N_33  and  C_36 
REMARK   31  A    between atoms: C_36  and  C_37 
REMARK   32  A    between atoms: C_37  and  C_38 
REMARK   33  A    between atoms: C_38  and  N_39 
REMARK       I    between atoms: N_39  and  C_40 
REMARK   34  A    between atoms: C_40  and  C_42 
REMARK   35  A    between atoms: C_42  and  C_43 
REMARK   36  A    between atoms: C_43  and  C_44 
REMARK   37  A    between atoms: C_44  and  C_45 
REMARK   38  A    between atoms: C_45  and  C_46 
REMARK   39  A    between atoms: C_46  and  C_47 
REMARK   40  A    between atoms: C_47  and  C_48 
REMARK   41  A    between atoms: C_48  and  C_49 
REMARK   42  A    between atoms: C_49  and  C_50 
REMARK   43  A    between atoms: C_50  and  C_51 
REMARK   44  A    between atoms: C_51  and  C_52 
REMARK   45  A    between atoms: C_52  and  C_53 
REMARK   46  A    between atoms: O_56  and  C_57 
REMARK   47  A    between atoms: C_57  and  C_58 
REMARK   48  A    between atoms: C_58  and  C_59 
REMARK   49  A    between atoms: C_58  and  O_82 
REMARK   50  A    between atoms: C_59  and  N_60 
REMARK   51  A    between atoms: N_60  and  C_63 
REMARK   52  A    between atoms: C_63  and  C_64 
REMARK   53  A    between atoms: C_64  and  C_65 
REMARK   54  A    between atoms: C_65  and  N_66 
REMARK       I    between atoms: N_66  and  C_67 
REMARK   55  A    between atoms: C_67  and  C_69 
REMARK   56  A    between atoms: C_69  and  C_70 
REMARK   57  A    between atoms: C_70  and  C_71 
REMARK   58  A    between atoms: C_71  and  C_72 
REMARK   59  A    between atoms: C_72  and  C_73 
REMARK   60  A    between atoms: C_73  and  C_74 
REMARK   61  A    between atoms: C_74  and  C_75 
REMARK   62  A    between atoms: C_75  and  C_76 
REMARK   63  A    between atoms: C_76  and  C_77 
REMARK   64  A    between atoms: C_77  and  C_78 
REMARK   65  A    between atoms: C_78  and  C_79 
REMARK   66  A    between atoms: C_79  and  C_80 
ROOT
HETATM    1 CL   UNL     2     -32.950  -3.303 -11.393  1.00  0.00     0.000 Cl
ENDROOT
TORSDOF 66
ENDMDL
MODEL 3
REMARK VINA RESULT:      -1.0     22.425     22.425
REMARK WARNING: 32 MAX_TORS EXCEEDED!!!
REMARK  66 active torsions:
REMARK  status: ('A' for Active; 'I' for Inactive)
REMARK    1  A    between atoms: C_2  and  C_3 
REMARK    2  A    between atoms: C_3  and  C_4 
REMARK    3  A    between atoms: C_4  and  C_5 
REMARK    4  A    between atoms: C_5  and  C_6 
REMARK    5  A    between atoms: C_6  and  C_7 
REMARK    6  A    between atoms: C_7  and  C_8 
REMARK    7  A    between atoms: C_8  and  C_9 
REMARK    8  A    between atoms: C_9  and  C_10 
REMARK    9  A    between atoms: C_10  and  C_11 
REMARK   10  A    between atoms: C_11  and  C_12 
REMARK   11  A    between atoms: C_12  and  C_13 
REMARK   12  A    between atoms: C_13  and  C_14 
REMARK       I    between atoms: C_14  and  N_16 
REMARK   13  A    between atoms: N_16  and  C_17 
REMARK   14  A    between atoms: C_17  and  C_18 
REMARK   15  A    between atoms: C_18  and  C_19 
REMARK   16  A    between atoms: C_19  and  N_20 
REMARK   17  A    between atoms: N_20  and  C_23 
REMARK   18  A    between atoms: C_23  and  C_24 
REMARK   19  A    between atoms: C_24  and  C_25 
REMARK   20  A    between atoms: C_24  and  O_83 
REMARK   21  A    between atoms: C_25  and  O_26 
REMARK   22  A    between atoms: O_26  and  P_27 
REMARK   23  A    between atoms: P_27  and  O_29 
REMARK   24  A    between atoms: P_27  and  O_56 
REMARK   25  A    between atoms: O_29  and  C_30 
REMARK   26  A    between atoms: C_30  and  C_31 
REMARK   27  A    between atoms: C_31  and  C_32 
REMARK   28  A    between atoms: C_31  and  O_55 
REMARK   29  A    between atoms: C_32  and  N_33 
REMARK   30  A    between atoms: N_33  and  C_36 
REMARK   31  A    between atoms: C_36  and  C_37 
REMARK   32  A    between atoms: C_37  and  C_38 
REMARK   33  A    between atoms: C_38  and  N_39 
REMARK       I    between atoms: N_39  and  C_40 
REMARK   34  A    between atoms: C_40  and  C_42 
REMARK   35  A    between atoms: C_42  and  C_43 
REMARK   36  A    between atoms: C_43  and  C_44 
REMARK   37  A    between atoms: C_44  and  C_45 
REMARK   38  A    between atoms: C_45  and  C_46 
REMARK   39  A    between atoms: C_46  and  C_47 
REMARK   40  A    between atoms: C_47  and  C_48 
REMARK   41  A    between atoms: C_48  and  C_49 
REMARK   42  A    between atoms: C_49  and  C_50 
REMARK   43  A    between atoms: C_50  and  C_51 
REMARK   44  A    between atoms: C_51  and  C_52 
REMARK   45  A    between atoms: C_52  and  C_53 
REMARK   46  A    between atoms: O_56  and  C_57 
REMARK   47  A    between atoms: C_57  and  C_58 
REMARK   48  A    between atoms: C_58  and  C_59 
REMARK   49  A    between atoms: C_58  and  O_82 
REMARK   50  A    between atoms: C_59  and  N_60 
REMARK   51  A    between atoms: N_60  and  C_63 
REMARK   52  A    between atoms: C_63  and  C_64 
REMARK   53  A    between atoms: C_64  and  C_65 
REMARK   54  A    between atoms: C_65  and  N_66 
REMARK       I    between atoms: N_66  and  C_67 
REMARK   55  A    between atoms: C_67  and  C_69 
REMARK   56  A    between atoms: C_69  and  C_70 
REMARK   57  A    between atoms: C_70  and  C_71 
REMARK   58  A    between atoms: C_71  and  C_72 
REMARK   59  A    between atoms: C_72  and  C_73 
REMARK   60  A    between atoms: C_73  and  C_74 
REMARK   61  A    between atoms: C_74  and  C_75 
REMARK   62  A    between atoms: C_75  and  C_76 
REMARK   63  A    between atoms: C_76  and  C_77 
REMARK   64  A    between atoms: C_77  and  C_78 
REMARK   65  A    between atoms: C_78  and  C_79 
REMARK   66  A    between atoms: C_79  and  C_80 
ROOT
HETATM    1 CL   UNL     2     -37.016   0.580  -4.933  1.00  0.00     0.000 Cl
ENDROOT
TORSDOF 66
ENDMDL
MODEL 4
REMARK VINA RESULT:      -1.0     24.572     24.572
REMARK WARNING: 32 MAX_TORS EXCEEDED!!!
REMARK  66 active torsions:
REMARK  status: ('A' for Active; 'I' for Inactive)
REMARK    1  A    between atoms: C_2  and  C_3 
REMARK    2  A    between atoms: C_3  and  C_4 
REMARK    3  A    between atoms: C_4  and  C_5 
REMARK    4  A    between atoms: C_5  and  C_6 
REMARK    5  A    between atoms: C_6  and  C_7 
REMARK    6  A    between atoms: C_7  and  C_8 
REMARK    7  A    between atoms: C_8  and  C_9 
REMARK    8  A    between atoms: C_9  and  C_10 
REMARK    9  A    between atoms: C_10  and  C_11 
REMARK   10  A    between atoms: C_11  and  C_12 
REMARK   11  A    between atoms: C_12  and  C_13 
REMARK   12  A    between atoms: C_13  and  C_14 
REMARK       I    between atoms: C_14  and  N_16 
REMARK   13  A    between atoms: N_16  and  C_17 
REMARK   14  A    between atoms: C_17  and  C_18 
REMARK   15  A    between atoms: C_18  and  C_19 
REMARK   16  A    between atoms: C_19  and  N_20 
REMARK   17  A    between atoms: N_20  and  C_23 
REMARK   18  A    between atoms: C_23  and  C_24 
REMARK   19  A    between atoms: C_24  and  C_25 
REMARK   20  A    between atoms: C_24  and  O_83 
REMARK   21  A    between atoms: C_25  and  O_26 
REMARK   22  A    between atoms: O_26  and  P_27 
REMARK   23  A    between atoms: P_27  and  O_29 
REMARK   24  A    between atoms: P_27  and  O_56 
REMARK   25  A    between atoms: O_29  and  C_30 
REMARK   26  A    between atoms: C_30  and  C_31 
REMARK   27  A    between atoms: C_31  and  C_32 
REMARK   28  A    between atoms: C_31  and  O_55 
REMARK   29  A    between atoms: C_32  and  N_33 
REMARK   30  A    between atoms: N_33  and  C_36 
REMARK   31  A    between atoms: C_36  and  C_37 
REMARK   32  A    between atoms: C_37  and  C_38 
REMARK   33  A    between atoms: C_38  and  N_39 
REMARK       I    between atoms: N_39  and  C_40 
REMARK   34  A    between atoms: C_40  and  C_42 
REMARK   35  A    between atoms: C_42  and  C_43 
REMARK   36  A    between atoms: C_43  and  C_44 
REMARK   37  A    between atoms: C_44  and  C_45 
REMARK   38  A    between atoms: C_45  and  C_46 
REMARK   39  A    between atoms: C_46  and  C_47 
REMARK   40  A    between atoms: C_47  and  C_48 
REMARK   41  A    between atoms: C_48  and  C_49 
REMARK   42  A    between atoms: C_49  and  C_50 
REMARK   43  A    between atoms: C_50  and  C_51 
REMARK   44  A    between atoms: C_51  and  C_52 
REMARK   45  A    between atoms: C_52  and  C_53 
REMARK   46  A    between atoms: O_56  and  C_57 
REMARK   47  A    between atoms: C_57  and  C_58 
REMARK   48  A    between atoms: C_58  and  C_59 
REMARK   49  A    between atoms: C_58  and  O_82 
REMARK   50  A    between atoms: C_59  and  N_60 
REMARK   51  A    between atoms: N_60  and  C_63 
REMARK   52  A    between atoms: C_63  and  C_64 
REMARK   53  A    between atoms: C_64  and  C_65 
REMARK   54  A    between atoms: C_65  and  N_66 
REMARK       I    between atoms: N_66  and  C_67 
REMARK   55  A    between atoms: C_67  and  C_69 
REMARK   56  A    between atoms: C_69  and  C_70 
REMARK   57  A    between atoms: C_70  and  C_71 
REMARK   58  A    between atoms: C_71  and  C_72 
REMARK   59  A    between atoms: C_72  and  C_73 
REMARK   60  A    between atoms: C_73  and  C_74 
REMARK   61  A    between atoms: C_74  and  C_75 
REMARK   62  A    between atoms: C_75  and  C_76 
REMARK   63  A    between atoms: C_76  and  C_77 
REMARK   64  A    between atoms: C_77  and  C_78 
REMARK   65  A    between atoms: C_78  and  C_79 
REMARK   66  A    between atoms: C_79  and  C_80 
ROOT
HETATM    1 CL   UNL     2     -29.817   7.421 -12.752  1.00  0.00     0.000 Cl
ENDROOT
TORSDOF 66
ENDMDL
MODEL 5
REMARK VINA RESULT:      -1.0      8.999      8.999
REMARK WARNING: 32 MAX_TORS EXCEEDED!!!
REMARK  66 active torsions:
REMARK  status: ('A' for Active; 'I' for Inactive)
REMARK    1  A    between atoms: C_2  and  C_3 
REMARK    2  A    between atoms: C_3  and  C_4 
REMARK    3  A    between atoms: C_4  and  C_5 
REMARK    4  A    between atoms: C_5  and  C_6 
REMARK    5  A    between atoms: C_6  and  C_7 
REMARK    6  A    between atoms: C_7  and  C_8 
REMARK    7  A    between atoms: C_8  and  C_9 
REMARK    8  A    between atoms: C_9  and  C_10 
REMARK    9  A    between atoms: C_10  and  C_11 
REMARK   10  A    between atoms: C_11  and  C_12 
REMARK   11  A    between atoms: C_12  and  C_13 
REMARK   12  A    between atoms: C_13  and  C_14 
REMARK       I    between atoms: C_14  and  N_16 
REMARK   13  A    between atoms: N_16  and  C_17 
REMARK   14  A    between atoms: C_17  and  C_18 
REMARK   15  A    between atoms: C_18  and  C_19 
REMARK   16  A    between atoms: C_19  and  N_20 
REMARK   17  A    between atoms: N_20  and  C_23 
REMARK   18  A    between atoms: C_23  and  C_24 
REMARK   19  A    between atoms: C_24  and  C_25 
REMARK   20  A    between atoms: C_24  and  O_83 
REMARK   21  A    between atoms: C_25  and  O_26 
REMARK   22  A    between atoms: O_26  and  P_27 
REMARK   23  A    between atoms: P_27  and  O_29 
REMARK   24  A    between atoms: P_27  and  O_56 
REMARK   25  A    between atoms: O_29  and  C_30 
REMARK   26  A    between atoms: C_30  and  C_31 
REMARK   27  A    between atoms: C_31  and  C_32 
REMARK   28  A    between atoms: C_31  and  O_55 
REMARK   29  A    between atoms: C_32  and  N_33 
REMARK   30  A    between atoms: N_33  and  C_36 
REMARK   31  A    between atoms: C_36  and  C_37 
REMARK   32  A    between atoms: C_37  and  C_38 
REMARK   33  A    between atoms: C_38  and  N_39 
REMARK       I    between atoms: N_39  and  C_40 
REMARK   34  A    between atoms: C_40  and  C_42 
REMARK   35  A    between atoms: C_42  and  C_43 
REMARK   36  A    between atoms: C_43  and  C_44 
REMARK   37  A    between atoms: C_44  and  C_45 
REMARK   38  A    between atoms: C_45  and  C_46 
REMARK   39  A    between atoms: C_46  and  C_47 
REMARK   40  A    between atoms: C_47  and  C_48 
REMARK   41  A    between atoms: C_48  and  C_49 
REMARK   42  A    between atoms: C_49  and  C_50 
REMARK   43  A    between atoms: C_50  and  C_51 
REMARK   44  A    between atoms: C_51  and  C_52 
REMARK   45  A    between atoms: C_52  and  C_53 
REMARK   46  A    between atoms: O_56  and  C_57 
REMARK   47  A    between atoms: C_57  and  C_58 
REMARK   48  A    between atoms: C_58  and  C_59 
REMARK   49  A    between atoms: C_58  and  O_82 
REMARK   50  A    between atoms: C_59  and  N_60 
REMARK   51  A    between atoms: N_60  and  C_63 
REMARK   52  A    between atoms: C_63  and  C_64 
REMARK   53  A    between atoms: C_64  and  C_65 
REMARK   54  A    between atoms: C_65  and  N_66 
REMARK       I    between atoms: N_66  and  C_67 
REMARK   55  A    between atoms: C_67  and  C_69 
REMARK   56  A    between atoms: C_69  and  C_70 
REMARK   57  A    between atoms: C_70  and  C_71 
REMARK   58  A    between atoms: C_71  and  C_72 
REMARK   59  A    between atoms: C_72  and  C_73 
REMARK   60  A    between atoms: C_73  and  C_74 
REMARK   61  A    between atoms: C_74  and  C_75 
REMARK   62  A    between atoms: C_75  and  C_76 
REMARK   63  A    between atoms: C_76  and  C_77 
REMARK   64  A    between atoms: C_77  and  C_78 
REMARK   65  A    between atoms: C_78  and  C_79 
REMARK   66  A    between atoms: C_79  and  C_80 
ROOT
HETATM    1 CL   UNL     2     -22.241  -6.151  -1.886  1.00  0.00     0.000 Cl
ENDROOT
TORSDOF 66
ENDMDL
MODEL 6
REMARK VINA RESULT:      -0.9     22.033     22.033
REMARK WARNING: 32 MAX_TORS EXCEEDED!!!
REMARK  66 active torsions:
REMARK  status: ('A' for Active; 'I' for Inactive)
REMARK    1  A    between atoms: C_2  and  C_3 
REMARK    2  A    between atoms: C_3  and  C_4 
REMARK    3  A    between atoms: C_4  and  C_5 
REMARK    4  A    between atoms: C_5  and  C_6 
REMARK    5  A    between atoms: C_6  and  C_7 
REMARK    6  A    between atoms: C_7  and  C_8 
REMARK    7  A    between atoms: C_8  and  C_9 
REMARK    8  A    between atoms: C_9  and  C_10 
REMARK    9  A    between atoms: C_10  and  C_11 
REMARK   10  A    between atoms: C_11  and  C_12 
REMARK   11  A    between atoms: C_12  and  C_13 
REMARK   12  A    between atoms: C_13  and  C_14 
REMARK       I    between atoms: C_14  and  N_16 
REMARK   13  A    between atoms: N_16  and  C_17 
REMARK   14  A    between atoms: C_17  and  C_18 
REMARK   15  A    between atoms: C_18  and  C_19 
REMARK   16  A    between atoms: C_19  and  N_20 
REMARK   17  A    between atoms: N_20  and  C_23 
REMARK   18  A    between atoms: C_23  and  C_24 
REMARK   19  A    between atoms: C_24  and  C_25 
REMARK   20  A    between atoms: C_24  and  O_83 
REMARK   21  A    between atoms: C_25  and  O_26 
REMARK   22  A    between atoms: O_26  and  P_27 
REMARK   23  A    between atoms: P_27  and  O_29 
REMARK   24  A    between atoms: P_27  and  O_56 
REMARK   25  A    between atoms: O_29  and  C_30 
REMARK   26  A    between atoms: C_30  and  C_31 
REMARK   27  A    between atoms: C_31  and  C_32 
REMARK   28  A    between atoms: C_31  and  O_55 
REMARK   29  A    between atoms: C_32  and  N_33 
REMARK   30  A    between atoms: N_33  and  C_36 
REMARK   31  A    between atoms: C_36  and  C_37 
REMARK   32  A    between atoms: C_37  and  C_38 
REMARK   33  A    between atoms: C_38  and  N_39 
REMARK       I    between atoms: N_39  and  C_40 
REMARK   34  A    between atoms: C_40  and  C_42 
REMARK   35  A    between atoms: C_42  and  C_43 
REMARK   36  A    between atoms: C_43  and  C_44 
REMARK   37  A    between atoms: C_44  and  C_45 
REMARK   38  A    between atoms: C_45  and  C_46 
REMARK   39  A    between atoms: C_46  and  C_47 
REMARK   40  A    between atoms: C_47  and  C_48 
REMARK   41  A    between atoms: C_48  and  C_49 
REMARK   42  A    between atoms: C_49  and  C_50 
REMARK   43  A    between atoms: C_50  and  C_51 
REMARK   44  A    between atoms: C_51  and  C_52 
REMARK   45  A    between atoms: C_52  and  C_53 
REMARK   46  A    between atoms: O_56  and  C_57 
REMARK   47  A    between atoms: C_57  and  C_58 
REMARK   48  A    between atoms: C_58  and  C_59 
REMARK   49  A    between atoms: C_58  and  O_82 
REMARK   50  A    between atoms: C_59  and  N_60 
REMARK   51  A    between atoms: N_60  and  C_63 
REMARK   52  A    between atoms: C_63  and  C_64 
REMARK   53  A    between atoms: C_64  and  C_65 
REMARK   54  A    between atoms: C_65  and  N_66 
REMARK       I    between atoms: N_66  and  C_67 
REMARK   55  A    between atoms: C_67  and  C_69 
REMARK   56  A    between atoms: C_69  and  C_70 
REMARK   57  A    between atoms: C_70  and  C_71 
REMARK   58  A    between atoms: C_71  and  C_72 
REMARK   59  A    between atoms: C_72  and  C_73 
REMARK   60  A    between atoms: C_73  and  C_74 
REMARK   61  A    between atoms: C_74  and  C_75 
REMARK   62  A    between atoms: C_75  and  C_76 
REMARK   63  A    between atoms: C_76  and  C_77 
REMARK   64  A    between atoms: C_77  and  C_78 
REMARK   65  A    between atoms: C_78  and  C_79 
REMARK   66  A    between atoms: C_79  and  C_80 
ROOT
HETATM    1 CL   UNL     2     -27.117   7.218 -11.166  1.00  0.00     0.000 Cl
ENDROOT
TORSDOF 66
ENDMDL
MODEL 7
REMARK VINA RESULT:      -0.9      8.631      8.631
REMARK WARNING: 32 MAX_TORS EXCEEDED!!!
REMARK  66 active torsions:
REMARK  status: ('A' for Active; 'I' for Inactive)
REMARK    1  A    between atoms: C_2  and  C_3 
REMARK    2  A    between atoms: C_3  and  C_4 
REMARK    3  A    between atoms: C_4  and  C_5 
REMARK    4  A    between atoms: C_5  and  C_6 
REMARK    5  A    between atoms: C_6  and  C_7 
REMARK    6  A    between atoms: C_7  and  C_8 
REMARK    7  A    between atoms: C_8  and  C_9 
REMARK    8  A    between atoms: C_9  and  C_10 
REMARK    9  A    between atoms: C_10  and  C_11 
REMARK   10  A    between atoms: C_11  and  C_12 
REMARK   11  A    between atoms: C_12  and  C_13 
REMARK   12  A    between atoms: C_13  and  C_14 
REMARK       I    between atoms: C_14  and  N_16 
REMARK   13  A    between atoms: N_16  and  C_17 
REMARK   14  A    between atoms: C_17  and  C_18 
REMARK   15  A    between atoms: C_18  and  C_19 
REMARK   16  A    between atoms: C_19  and  N_20 
REMARK   17  A    between atoms: N_20  and  C_23 
REMARK   18  A    between atoms: C_23  and  C_24 
REMARK   19  A    between atoms: C_24  and  C_25 
REMARK   20  A    between atoms: C_24  and  O_83 
REMARK   21  A    between atoms: C_25  and  O_26 
REMARK   22  A    between atoms: O_26  and  P_27 
REMARK   23  A    between atoms: P_27  and  O_29 
REMARK   24  A    between atoms: P_27  and  O_56 
REMARK   25  A    between atoms: O_29  and  C_30 
REMARK   26  A    between atoms: C_30  and  C_31 
REMARK   27  A    between atoms: C_31  and  C_32 
REMARK   28  A    between atoms: C_31  and  O_55 
REMARK   29  A    between atoms: C_32  and  N_33 
REMARK   30  A    between atoms: N_33  and  C_36 
REMARK   31  A    between atoms: C_36  and  C_37 
REMARK   32  A    between atoms: C_37  and  C_38 
REMARK   33  A    between atoms: C_38  and  N_39 
REMARK       I    between atoms: N_39  and  C_40 
REMARK   34  A    between atoms: C_40  and  C_42 
REMARK   35  A    between atoms: C_42  and  C_43 
REMARK   36  A    between atoms: C_43  and  C_44 
REMARK   37  A    between atoms: C_44  and  C_45 
REMARK   38  A    between atoms: C_45  and  C_46 
REMARK   39  A    between atoms: C_46  and  C_47 
REMARK   40  A    between atoms: C_47  and  C_48 
REMARK   41  A    between atoms: C_48  and  C_49 
REMARK   42  A    between atoms: C_49  and  C_50 
REMARK   43  A    between atoms: C_50  and  C_51 
REMARK   44  A    between atoms: C_51  and  C_52 
REMARK   45  A    between atoms: C_52  and  C_53 
REMARK   46  A    between atoms: O_56  and  C_57 
REMARK   47  A    between atoms: C_57  and  C_58 
REMARK   48  A    between atoms: C_58  and  C_59 
REMARK   49  A    between atoms: C_58  and  O_82 
REMARK   50  A    between atoms: C_59  and  N_60 
REMARK   51  A    between atoms: N_60  and  C_63 
REMARK   52  A    between atoms: C_63  and  C_64 
REMARK   53  A    between atoms: C_64  and  C_65 
REMARK   54  A    between atoms: C_65  and  N_66 
REMARK       I    between atoms: N_66  and  C_67 
REMARK   55  A    between atoms: C_67  and  C_69 
REMARK   56  A    between atoms: C_69  and  C_70 
REMARK   57  A    between atoms: C_70  and  C_71 
REMARK   58  A    between atoms: C_71  and  C_72 
REMARK   59  A    between atoms: C_72  and  C_73 
REMARK   60  A    between atoms: C_73  and  C_74 
REMARK   61  A    between atoms: C_74  and  C_75 
REMARK   62  A    between atoms: C_75  and  C_76 
REMARK   63  A    between atoms: C_76  and  C_77 
REMARK   64  A    between atoms: C_77  and  C_78 
REMARK   65  A    between atoms: C_78  and  C_79 
REMARK   66  A    between atoms: C_79  and  C_80 
ROOT
HETATM    1 CL   UNL     2     -23.253  -8.078   0.584  1.00  0.00     0.000 Cl
ENDROOT
TORSDOF 66
ENDMDL
MODEL 8
REMARK VINA RESULT:      -0.9     13.703     13.703
REMARK WARNING: 32 MAX_TORS EXCEEDED!!!
REMARK  66 active torsions:
REMARK  status: ('A' for Active; 'I' for Inactive)
REMARK    1  A    between atoms: C_2  and  C_3 
REMARK    2  A    between atoms: C_3  and  C_4 
REMARK    3  A    between atoms: C_4  and  C_5 
REMARK    4  A    between atoms: C_5  and  C_6 
REMARK    5  A    between atoms: C_6  and  C_7 
REMARK    6  A    between atoms: C_7  and  C_8 
REMARK    7  A    between atoms: C_8  and  C_9 
REMARK    8  A    between atoms: C_9  and  C_10 
REMARK    9  A    between atoms: C_10  and  C_11 
REMARK   10  A    between atoms: C_11  and  C_12 
REMARK   11  A    between atoms: C_12  and  C_13 
REMARK   12  A    between atoms: C_13  and  C_14 
REMARK       I    between atoms: C_14  and  N_16 
REMARK   13  A    between atoms: N_16  and  C_17 
REMARK   14  A    between atoms: C_17  and  C_18 
REMARK   15  A    between atoms: C_18  and  C_19 
REMARK   16  A    between atoms: C_19  and  N_20 
REMARK   17  A    between atoms: N_20  and  C_23 
REMARK   18  A    between atoms: C_23  and  C_24 
REMARK   19  A    between atoms: C_24  and  C_25 
REMARK   20  A    between atoms: C_24  and  O_83 
REMARK   21  A    between atoms: C_25  and  O_26 
REMARK   22  A    between atoms: O_26  and  P_27 
REMARK   23  A    between atoms: P_27  and  O_29 
REMARK   24  A    between atoms: P_27  and  O_56 
REMARK   25  A    between atoms: O_29  and  C_30 
REMARK   26  A    between atoms: C_30  and  C_31 
REMARK   27  A    between atoms: C_31  and  C_32 
REMARK   28  A    between atoms: C_31  and  O_55 
REMARK   29  A    between atoms: C_32  and  N_33 
REMARK   30  A    between atoms: N_33  and  C_36 
REMARK   31  A    between atoms: C_36  and  C_37 
REMARK   32  A    between atoms: C_37  and  C_38 
REMARK   33  A    between atoms: C_38  and  N_39 
REMARK       I    between atoms: N_39  and  C_40 
REMARK   34  A    between atoms: C_40  and  C_42 
REMARK   35  A    between atoms: C_42  and  C_43 
REMARK   36  A    between atoms: C_43  and  C_44 
REMARK   37  A    between atoms: C_44  and  C_45 
REMARK   38  A    between atoms: C_45  and  C_46 
REMARK   39  A    between atoms: C_46  and  C_47 
REMARK   40  A    between atoms: C_47  and  C_48 
REMARK   41  A    between atoms: C_48  and  C_49 
REMARK   42  A    between atoms: C_49  and  C_50 
REMARK   43  A    between atoms: C_50  and  C_51 
REMARK   44  A    between atoms: C_51  and  C_52 
REMARK   45  A    between atoms: C_52  and  C_53 
REMARK   46  A    between atoms: O_56  and  C_57 
REMARK   47  A    between atoms: C_57  and  C_58 
REMARK   48  A    between atoms: C_58  and  C_59 
REMARK   49  A    between atoms: C_58  and  O_82 
REMARK   50  A    between atoms: C_59  and  N_60 
REMARK   51  A    between atoms: N_60  and  C_63 
REMARK   52  A    between atoms: C_63  and  C_64 
REMARK   53  A    between atoms: C_64  and  C_65 
REMARK   54  A    between atoms: C_65  and  N_66 
REMARK       I    between atoms: N_66  and  C_67 
REMARK   55  A    between atoms: C_67  and  C_69 
REMARK   56  A    between atoms: C_69  and  C_70 
REMARK   57  A    between atoms: C_70  and  C_71 
REMARK   58  A    between atoms: C_71  and  C_72 
REMARK   59  A    between atoms: C_72  and  C_73 
REMARK   60  A    between atoms: C_73  and  C_74 
REMARK   61  A    between atoms: C_74  and  C_75 
REMARK   62  A    between atoms: C_75  and  C_76 
REMARK   63  A    between atoms: C_76  and  C_77 
REMARK   64  A    between atoms: C_77  and  C_78 
REMARK   65  A    between atoms: C_78  and  C_79 
REMARK   66  A    between atoms: C_79  and  C_80 
ROOT
HETATM    1 CL   UNL     2     -12.854   9.133   5.900  1.00  0.00     0.000 Cl
ENDROOT
TORSDOF 66
ENDMDL
MODEL 9
REMARK VINA RESULT:      -0.9     22.935     22.935
REMARK WARNING: 32 MAX_TORS EXCEEDED!!!
REMARK  66 active torsions:
REMARK  status: ('A' for Active; 'I' for Inactive)
REMARK    1  A    between atoms: C_2  and  C_3 
REMARK    2  A    between atoms: C_3  and  C_4 
REMARK    3  A    between atoms: C_4  and  C_5 
REMARK    4  A    between atoms: C_5  and  C_6 
REMARK    5  A    between atoms: C_6  and  C_7 
REMARK    6  A    between atoms: C_7  and  C_8 
REMARK    7  A    between atoms: C_8  and  C_9 
REMARK    8  A    between atoms: C_9  and  C_10 
REMARK    9  A    between atoms: C_10  and  C_11 
REMARK   10  A    between atoms: C_11  and  C_12 
REMARK   11  A    between atoms: C_12  and  C_13 
REMARK   12  A    between atoms: C_13  and  C_14 
REMARK       I    between atoms: C_14  and  N_16 
REMARK   13  A    between atoms: N_16  and  C_17 
REMARK   14  A    between atoms: C_17  and  C_18 
REMARK   15  A    between atoms: C_18  and  C_19 
REMARK   16  A    between atoms: C_19  and  N_20 
REMARK   17  A    between atoms: N_20  and  C_23 
REMARK   18  A    between atoms: C_23  and  C_24 
REMARK   19  A    between atoms: C_24  and  C_25 
REMARK   20  A    between atoms: C_24  and  O_83 
REMARK   21  A    between atoms: C_25  and  O_26 
REMARK   22  A    between atoms: O_26  and  P_27 
REMARK   23  A    between atoms: P_27  and  O_29 
REMARK   24  A    between atoms: P_27  and  O_56 
REMARK   25  A    between atoms: O_29  and  C_30 
REMARK   26  A    between atoms: C_30  and  C_31 
REMARK   27  A    between atoms: C_31  and  C_32 
REMARK   28  A    between atoms: C_31  and  O_55 
REMARK   29  A    between atoms: C_32  and  N_33 
REMARK   30  A    between atoms: N_33  and  C_36 
REMARK   31  A    between atoms: C_36  and  C_37 
REMARK   32  A    between atoms: C_37  and  C_38 
REMARK   33  A    between atoms: C_38  and  N_39 
REMARK       I    between atoms: N_39  and  C_40 
REMARK   34  A    between atoms: C_40  and  C_42 
REMARK   35  A    between atoms: C_42  and  C_43 
REMARK   36  A    between atoms: C_43  and  C_44 
REMARK   37  A    between atoms: C_44  and  C_45 
REMARK   38  A    between atoms: C_45  and  C_46 
REMARK   39  A    between atoms: C_46  and  C_47 
REMARK   40  A    between atoms: C_47  and  C_48 
REMARK   41  A    between atoms: C_48  and  C_49 
REMARK   42  A    between atoms: C_49  and  C_50 
REMARK   43  A    between atoms: C_50  and  C_51 
REMARK   44  A    between atoms: C_51  and  C_52 
REMARK   45  A    between atoms: C_52  and  C_53 
REMARK   46  A    between atoms: O_56  and  C_57 
REMARK   47  A    between atoms: C_57  and  C_58 
REMARK   48  A    between atoms: C_58  and  C_59 
REMARK   49  A    between atoms: C_58  and  O_82 
REMARK   50  A    between atoms: C_59  and  N_60 
REMARK   51  A    between atoms: N_60  and  C_63 
REMARK   52  A    between atoms: C_63  and  C_64 
REMARK   53  A    between atoms: C_64  and  C_65 
REMARK   54  A    between atoms: C_65  and  N_66 
REMARK       I    between atoms: N_66  and  C_67 
REMARK   55  A    between atoms: C_67  and  C_69 
REMARK   56  A    between atoms: C_69  and  C_70 
REMARK   57  A    between atoms: C_70  and  C_71 
REMARK   58  A    between atoms: C_71  and  C_72 
REMARK   59  A    between atoms: C_72  and  C_73 
REMARK   60  A    between atoms: C_73  and  C_74 
REMARK   61  A    between atoms: C_74  and  C_75 
REMARK   62  A    between atoms: C_75  and  C_76 
REMARK   63  A    between atoms: C_76  and  C_77 
REMARK   64  A    between atoms: C_77  and  C_78 
REMARK   65  A    between atoms: C_78  and  C_79 
REMARK   66  A    between atoms: C_79  and  C_80 
ROOT
HETATM    1 CL   UNL     2     -34.096  -5.171 -10.437  1.00  0.00     0.000 Cl
ENDROOT
TORSDOF 66
ENDMDL
