MODEL 1
REMARK VINA RESULT:      -6.2      0.000      0.000
REMARK  15 active torsions:
REMARK  status: ('A' for Active; 'I' for Inactive)
REMARK    1  A    between atoms: C_1  and  C_2 
REMARK    2  A    between atoms: C_1  and  O_21 
REMARK    3  A    between atoms: C_3  and  O_20 
REMARK    4  A    between atoms: C_4  and  O_19 
REMARK    5  A    between atoms: C_5  and  O_18 
REMARK    6  A    between atoms: C_6  and  O_8 
REMARK    7  A    between atoms: O_8  and  C_9 
REMARK    8  A    between atoms: C_9  and  C_10 
REMARK    9  A    between atoms: C_10  and  C_11 
REMARK   10  A    between atoms: C_10  and  O_17 
REMARK   11  A    between atoms: C_11  and  C_12 
REMARK   12  A    between atoms: C_11  and  O_16 
REMARK   13  A    between atoms: C_12  and  C_13 
REMARK   14  A    between atoms: C_12  and  O_15 
REMARK   15  A    between atoms: C_13  and  O_14 
ROOT
HETATM    1  C   UNL     1     -21.873  -4.415 -11.196  1.00  0.00     0.179 C 
HETATM    2  C   UNL     1     -23.214  -4.144 -11.905  1.00  0.00     0.180 C 
HETATM    3  C   UNL     1     -24.093  -3.198 -11.067  1.00  0.00     0.183 C 
HETATM    4  C   UNL     1     -24.250  -3.737  -9.645  1.00  0.00     0.204 C 
HETATM    5  C   UNL     1     -22.849  -3.927  -9.038  1.00  0.00     0.291 C 
HETATM    6  O   UNL     1     -22.061  -4.821  -9.821  1.00  0.00    -0.348 OA
ENDROOT
BRANCH   5   7
HETATM    7  O   UNL     1     -23.032  -4.438  -7.717  1.00  0.00    -0.356 OA
BRANCH   7   8
HETATM    8  C   UNL     1     -21.946  -4.182  -6.825  1.00  0.00     0.205 C 
BRANCH   8   9
HETATM    9  C   UNL     1     -21.138  -5.422  -6.400  1.00  0.00     0.173 C 
BRANCH   9  10
HETATM   10  C   UNL     1     -21.884  -6.379  -5.444  1.00  0.00     0.179 C 
BRANCH  10  11
HETATM   11  C   UNL     1     -21.107  -6.638  -4.135  1.00  0.00     0.173 C 
BRANCH  11  12
HETATM   12  C   UNL     1     -21.998  -6.921  -2.917  1.00  0.00     0.198 C 
BRANCH  12  13
HETATM   13  O   UNL     1     -22.364  -5.692  -2.293  1.00  0.00    -0.398 OA
HETATM   14  H   UNL     1     -21.545  -5.351  -1.878  1.00  0.00     0.209 HD
ENDBRANCH  12  13
ENDBRANCH  11  12
BRANCH  11  15
HETATM   15  O   UNL     1     -20.271  -7.801  -4.313  1.00  0.00    -0.391 OA
HETATM   16  H   UNL     1     -20.695  -8.330  -5.020  1.00  0.00     0.210 HD
ENDBRANCH  11  15
ENDBRANCH  10  11
BRANCH  10  17
HETATM   17  O   UNL     1     -23.210  -5.952  -5.101  1.00  0.00    -0.390 OA
HETATM   18  H   UNL     1     -23.177  -5.401  -4.306  1.00  0.00     0.210 HD
ENDBRANCH  10  17
ENDBRANCH   9  10
BRANCH   9  19
HETATM   19  O   UNL     1     -20.710  -6.132  -7.565  1.00  0.00    -0.391 OA
HETATM   20  H   UNL     1     -20.396  -7.016  -7.300  1.00  0.00     0.210 HD
ENDBRANCH   9  19
ENDBRANCH   8   9
ENDBRANCH   7   8
ENDBRANCH   5   7
BRANCH   4  21
HETATM   21  O   UNL     1     -24.941  -5.006  -9.676  1.00  0.00    -0.388 OA
HETATM   22  H   UNL     1     -25.404  -5.062  -8.814  1.00  0.00     0.210 HD
ENDBRANCH   4  21
BRANCH   3  23
HETATM   23  O   UNL     1     -25.373  -3.036 -11.677  1.00  0.00    -0.390 OA
HETATM   24  H   UNL     1     -25.858  -3.864 -11.497  1.00  0.00     0.210 HD
ENDBRANCH   3  23
BRANCH   1  25
HETATM   25  C   UNL     1     -20.908  -3.221 -11.270  1.00  0.00     0.198 C 
BRANCH  25  26
HETATM   26  O   UNL     1     -19.625  -3.635 -11.733  1.00  0.00    -0.398 OA
HETATM   27  H   UNL     1     -19.750  -4.153 -12.551  1.00  0.00     0.209 HD
ENDBRANCH  25  26
ENDBRANCH   1  25
BRANCH   2  28
HETATM   28  O   UNL     1     -23.907  -5.390 -12.108  1.00  0.00    -0.390 OA
HETATM   29  H   UNL     1     -24.232  -5.398 -13.033  1.00  0.00     0.210 HD
ENDBRANCH   2  28
TORSDOF 15
ENDMDL
MODEL 2
REMARK VINA RESULT:      -5.8     17.958     20.601
REMARK  15 active torsions:
REMARK  status: ('A' for Active; 'I' for Inactive)
REMARK    1  A    between atoms: C_1  and  C_2 
REMARK    2  A    between atoms: C_1  and  O_21 
REMARK    3  A    between atoms: C_3  and  O_20 
REMARK    4  A    between atoms: C_4  and  O_19 
REMARK    5  A    between atoms: C_5  and  O_18 
REMARK    6  A    between atoms: C_6  and  O_8 
REMARK    7  A    between atoms: O_8  and  C_9 
REMARK    8  A    between atoms: C_9  and  C_10 
REMARK    9  A    between atoms: C_10  and  C_11 
REMARK   10  A    between atoms: C_10  and  O_17 
REMARK   11  A    between atoms: C_11  and  C_12 
REMARK   12  A    between atoms: C_11  and  O_16 
REMARK   13  A    between atoms: C_12  and  C_13 
REMARK   14  A    between atoms: C_12  and  O_15 
REMARK   15  A    between atoms: C_13  and  O_14 
ROOT
HETATM    1  C   UNL     1     -12.391   9.046 -19.382  1.00  0.00     0.179 C 
HETATM    2  C   UNL     1     -10.885   9.359 -19.292  1.00  0.00     0.180 C 
HETATM    3  C   UNL     1     -10.252   9.406 -20.694  1.00  0.00     0.183 C 
HETATM    4  C   UNL     1     -10.565   8.122 -21.463  1.00  0.00     0.204 C 
HETATM    5  C   UNL     1     -12.092   7.946 -21.515  1.00  0.00     0.291 C 
HETATM    6  O   UNL     1     -12.653   7.887 -20.206  1.00  0.00    -0.348 OA
ENDROOT
BRANCH   5   7
HETATM    7  O   UNL     1     -12.349   6.736 -22.231  1.00  0.00    -0.356 OA
BRANCH   7   8
HETATM    8  C   UNL     1     -13.726   6.364 -22.296  1.00  0.00     0.205 C 
BRANCH   8   9
HETATM    9  C   UNL     1     -14.034   4.910 -21.892  1.00  0.00     0.173 C 
BRANCH   9  10
HETATM   10  C   UNL     1     -14.067   4.661 -20.368  1.00  0.00     0.179 C 
BRANCH  10  11
HETATM   11  C   UNL     1     -12.702   4.203 -19.808  1.00  0.00     0.173 C 
BRANCH  11  12
HETATM   12  C   UNL     1     -11.788   3.534 -20.844  1.00  0.00     0.198 C 
BRANCH  12  13
HETATM   13  O   UNL     1     -10.725   4.418 -21.191  1.00  0.00    -0.398 OA
HETATM   14  H   UNL     1     -11.153   5.266 -21.430  1.00  0.00     0.209 HD
ENDBRANCH  12  13
ENDBRANCH  11  12
BRANCH  11  15
HETATM   15  O   UNL     1     -11.992   5.358 -19.316  1.00  0.00    -0.391 OA
HETATM   16  H   UNL     1     -11.830   5.189 -18.365  1.00  0.00     0.210 HD
ENDBRANCH  11  15
ENDBRANCH  10  11
BRANCH  10  17
HETATM   17  O   UNL     1     -14.513   5.786 -19.597  1.00  0.00    -0.390 OA
HETATM   18  H   UNL     1     -14.059   6.585 -19.900  1.00  0.00     0.210 HD
ENDBRANCH  10  17
ENDBRANCH   9  10
BRANCH   9  19
HETATM   19  O   UNL     1     -15.272   4.505 -22.481  1.00  0.00    -0.391 OA
HETATM   20  H   UNL     1     -15.651   3.778 -21.952  1.00  0.00     0.210 HD
ENDBRANCH   9  19
ENDBRANCH   8   9
ENDBRANCH   7   8
ENDBRANCH   5   7
BRANCH   4  21
HETATM   21  O   UNL     1      -9.969   6.991 -20.790  1.00  0.00    -0.388 OA
HETATM   22  H   UNL     1     -10.718   6.389 -20.596  1.00  0.00     0.210 HD
ENDBRANCH   4  21
BRANCH   3  23
HETATM   23  O   UNL     1      -8.839   9.591 -20.598  1.00  0.00    -0.390 OA
HETATM   24  H   UNL     1      -8.442   8.845 -21.087  1.00  0.00     0.210 HD
ENDBRANCH   3  23
BRANCH   1  25
HETATM   25  C   UNL     1     -13.220  10.244 -19.874  1.00  0.00     0.198 C 
BRANCH  25  26
HETATM   26  O   UNL     1     -14.331  10.477 -19.012  1.00  0.00    -0.398 OA
HETATM   27  H   UNL     1     -15.139  10.508 -19.560  1.00  0.00     0.209 HD
ENDBRANCH  25  26
ENDBRANCH   1  25
BRANCH   2  28
HETATM   28  O   UNL     1     -10.233   8.345 -18.504  1.00  0.00    -0.390 OA
HETATM   29  H   UNL     1     -10.686   8.312 -17.635  1.00  0.00     0.210 HD
ENDBRANCH   2  28
TORSDOF 15
ENDMDL
MODEL 3
REMARK VINA RESULT:      -5.8      1.464      2.057
REMARK  15 active torsions:
REMARK  status: ('A' for Active; 'I' for Inactive)
REMARK    1  A    between atoms: C_1  and  C_2 
REMARK    2  A    between atoms: C_1  and  O_21 
REMARK    3  A    between atoms: C_3  and  O_20 
REMARK    4  A    between atoms: C_4  and  O_19 
REMARK    5  A    between atoms: C_5  and  O_18 
REMARK    6  A    between atoms: C_6  and  O_8 
REMARK    7  A    between atoms: O_8  and  C_9 
REMARK    8  A    between atoms: C_9  and  C_10 
REMARK    9  A    between atoms: C_10  and  C_11 
REMARK   10  A    between atoms: C_10  and  O_17 
REMARK   11  A    between atoms: C_11  and  C_12 
REMARK   12  A    between atoms: C_11  and  O_16 
REMARK   13  A    between atoms: C_12  and  C_13 
REMARK   14  A    between atoms: C_12  and  O_15 
REMARK   15  A    between atoms: C_13  and  O_14 
ROOT
HETATM    1  C   UNL     1     -22.247  -4.438 -11.065  1.00  0.00     0.179 C 
HETATM    2  C   UNL     1     -23.783  -4.407 -10.948  1.00  0.00     0.180 C 
HETATM    3  C   UNL     1     -24.234  -3.302  -9.976  1.00  0.00     0.183 C 
HETATM    4  C   UNL     1     -23.521  -3.451  -8.632  1.00  0.00     0.204 C 
HETATM    5  C   UNL     1     -22.003  -3.429  -8.881  1.00  0.00     0.291 C 
HETATM    6  O   UNL     1     -21.608  -4.472  -9.769  1.00  0.00    -0.348 OA
ENDROOT
BRANCH   5   7
HETATM    7  O   UNL     1     -21.369  -3.579  -7.609  1.00  0.00    -0.356 OA
BRANCH   7   8
HETATM    8  C   UNL     1     -20.115  -4.260  -7.646  1.00  0.00     0.205 C 
BRANCH   8   9
HETATM    9  C   UNL     1     -19.897  -5.298  -6.530  1.00  0.00     0.173 C 
BRANCH   9  10
HETATM   10  C   UNL     1     -21.009  -5.331  -5.458  1.00  0.00     0.179 C 
BRANCH  10  11
HETATM   11  C   UNL     1     -22.006  -6.491  -5.669  1.00  0.00     0.173 C 
BRANCH  11  12
HETATM   12  C   UNL     1     -21.721  -7.732  -4.812  1.00  0.00     0.198 C 
BRANCH  12  13
HETATM   13  O   UNL     1     -21.064  -8.721  -5.601  1.00  0.00    -0.398 OA
HETATM   14  H   UNL     1     -20.506  -9.230  -4.978  1.00  0.00     0.209 HD
ENDBRANCH  12  13
ENDBRANCH  11  12
BRANCH  11  15
HETATM   15  O   UNL     1     -23.328  -6.037  -5.311  1.00  0.00    -0.391 OA
HETATM   16  H   UNL     1     -23.443  -5.170  -5.750  1.00  0.00     0.210 HD
ENDBRANCH  11  15
ENDBRANCH  10  11
BRANCH  10  17
HETATM   17  O   UNL     1     -20.523  -5.397  -4.110  1.00  0.00    -0.390 OA
HETATM   18  H   UNL     1     -21.074  -4.841  -3.540  1.00  0.00     0.210 HD
ENDBRANCH  10  17
ENDBRANCH   9  10
BRANCH   9  19
HETATM   19  O   UNL     1     -19.741  -6.595  -7.111  1.00  0.00    -0.391 OA
HETATM   20  H   UNL     1     -19.872  -6.528  -8.075  1.00  0.00     0.210 HD
ENDBRANCH   9  19
ENDBRANCH   8   9
ENDBRANCH   7   8
ENDBRANCH   5   7
BRANCH   4  21
HETATM   21  O   UNL     1     -23.893  -4.705  -8.017  1.00  0.00    -0.388 OA
HETATM   22  H   UNL     1     -23.146  -5.311  -8.207  1.00  0.00     0.210 HD
ENDBRANCH   4  21
BRANCH   3  23
HETATM   23  O   UNL     1     -25.649  -3.348  -9.791  1.00  0.00    -0.390 OA
HETATM   24  H   UNL     1     -25.793  -3.888  -8.990  1.00  0.00     0.210 HD
ENDBRANCH   3  23
BRANCH   1  25
HETATM   25  C   UNL     1     -21.689  -3.275 -11.902  1.00  0.00     0.198 C 
BRANCH  25  26
HETATM   26  O   UNL     1     -21.988  -3.457 -13.283  1.00  0.00    -0.398 OA
HETATM   27  H   UNL     1     -22.954  -3.570 -13.373  1.00  0.00     0.209 HD
ENDBRANCH  25  26
ENDBRANCH   1  25
BRANCH   2  28
HETATM   28  O   UNL     1     -24.252  -5.684 -10.475  1.00  0.00    -0.390 OA
HETATM   29  H   UNL     1     -23.632  -6.366 -10.808  1.00  0.00     0.210 HD
ENDBRANCH   2  28
TORSDOF 15
ENDMDL
MODEL 4
REMARK VINA RESULT:      -5.7      1.442      6.994
REMARK  15 active torsions:
REMARK  status: ('A' for Active; 'I' for Inactive)
REMARK    1  A    between atoms: C_1  and  C_2 
REMARK    2  A    between atoms: C_1  and  O_21 
REMARK    3  A    between atoms: C_3  and  O_20 
REMARK    4  A    between atoms: C_4  and  O_19 
REMARK    5  A    between atoms: C_5  and  O_18 
REMARK    6  A    between atoms: C_6  and  O_8 
REMARK    7  A    between atoms: O_8  and  C_9 
REMARK    8  A    between atoms: C_9  and  C_10 
REMARK    9  A    between atoms: C_10  and  C_11 
REMARK   10  A    between atoms: C_10  and  O_17 
REMARK   11  A    between atoms: C_11  and  C_12 
REMARK   12  A    between atoms: C_11  and  O_16 
REMARK   13  A    between atoms: C_12  and  C_13 
REMARK   14  A    between atoms: C_12  and  O_15 
REMARK   15  A    between atoms: C_13  and  O_14 
ROOT
HETATM    1  C   UNL     1     -21.989  -6.704  -4.463  1.00  0.00     0.179 C 
HETATM    2  C   UNL     1     -20.980  -7.728  -5.019  1.00  0.00     0.180 C 
HETATM    3  C   UNL     1     -19.741  -7.018  -5.593  1.00  0.00     0.183 C 
HETATM    4  C   UNL     1     -20.160  -5.957  -6.612  1.00  0.00     0.204 C 
HETATM    5  C   UNL     1     -21.131  -4.980  -5.927  1.00  0.00     0.291 C 
HETATM    6  O   UNL     1     -22.278  -5.658  -5.420  1.00  0.00    -0.348 OA
ENDROOT
BRANCH   5   7
HETATM    7  O   UNL     1     -21.508  -4.010  -6.906  1.00  0.00    -0.356 OA
BRANCH   7   8
HETATM    8  C   UNL     1     -22.801  -4.213  -7.478  1.00  0.00     0.205 C 
BRANCH   8   9
HETATM    9  C   UNL     1     -22.829  -4.352  -9.010  1.00  0.00     0.173 C 
BRANCH   9  10
HETATM   10  C   UNL     1     -23.630  -3.253  -9.741  1.00  0.00     0.179 C 
BRANCH  10  11
HETATM   11  C   UNL     1     -23.840  -3.564 -11.240  1.00  0.00     0.173 C 
BRANCH  11  12
HETATM   12  C   UNL     1     -22.873  -2.828 -12.178  1.00  0.00     0.198 C 
BRANCH  12  13
HETATM   13  O   UNL     1     -21.821  -3.706 -12.571  1.00  0.00    -0.398 OA
HETATM   14  H   UNL     1     -21.270  -3.196 -13.200  1.00  0.00     0.209 HD
ENDBRANCH  12  13
ENDBRANCH  11  12
BRANCH  11  15
HETATM   15  O   UNL     1     -23.629  -4.975 -11.454  1.00  0.00    -0.391 OA
HETATM   16  H   UNL     1     -22.667  -5.084 -11.601  1.00  0.00     0.210 HD
ENDBRANCH  11  15
ENDBRANCH  10  11
BRANCH  10  17
HETATM   17  O   UNL     1     -24.911  -2.973  -9.159  1.00  0.00    -0.390 OA
HETATM   18  H   UNL     1     -24.788  -2.561  -8.291  1.00  0.00     0.210 HD
ENDBRANCH  10  17
ENDBRANCH   9  10
BRANCH   9  19
HETATM   19  O   UNL     1     -21.489  -4.392  -9.508  1.00  0.00    -0.391 OA
HETATM   20  H   UNL     1     -21.129  -5.290  -9.379  1.00  0.00     0.210 HD
ENDBRANCH   9  19
ENDBRANCH   8   9
ENDBRANCH   7   8
ENDBRANCH   5   7
BRANCH   4  21
HETATM   21  O   UNL     1     -20.818  -6.589  -7.733  1.00  0.00    -0.388 OA
HETATM   22  H   UNL     1     -20.496  -7.514  -7.726  1.00  0.00     0.210 HD
ENDBRANCH   4  21
BRANCH   3  23
HETATM   23  O   UNL     1     -18.861  -7.963  -6.200  1.00  0.00    -0.390 OA
HETATM   24  H   UNL     1     -19.195  -8.089  -7.109  1.00  0.00     0.210 HD
ENDBRANCH   3  23
BRANCH   1  25
HETATM   25  C   UNL     1     -21.542  -6.091  -3.127  1.00  0.00     0.198 C 
BRANCH  25  26
HETATM   26  O   UNL     1     -22.661  -5.867  -2.273  1.00  0.00    -0.398 OA
HETATM   27  H   UNL     1     -22.326  -5.572  -1.405  1.00  0.00     0.209 HD
ENDBRANCH  25  26
ENDBRANCH   1  25
BRANCH   2  28
HETATM   28  O   UNL     1     -21.610  -8.506  -6.052  1.00  0.00    -0.390 OA
HETATM   29  H   UNL     1     -22.352  -7.975  -6.410  1.00  0.00     0.210 HD
ENDBRANCH   2  28
TORSDOF 15
ENDMDL
MODEL 5
REMARK VINA RESULT:      -5.4      1.864      7.397
REMARK  15 active torsions:
REMARK  status: ('A' for Active; 'I' for Inactive)
REMARK    1  A    between atoms: C_1  and  C_2 
REMARK    2  A    between atoms: C_1  and  O_21 
REMARK    3  A    between atoms: C_3  and  O_20 
REMARK    4  A    between atoms: C_4  and  O_19 
REMARK    5  A    between atoms: C_5  and  O_18 
REMARK    6  A    between atoms: C_6  and  O_8 
REMARK    7  A    between atoms: O_8  and  C_9 
REMARK    8  A    between atoms: C_9  and  C_10 
REMARK    9  A    between atoms: C_10  and  C_11 
REMARK   10  A    between atoms: C_10  and  O_17 
REMARK   11  A    between atoms: C_11  and  C_12 
REMARK   12  A    between atoms: C_11  and  O_16 
REMARK   13  A    between atoms: C_12  and  C_13 
REMARK   14  A    between atoms: C_12  and  O_15 
REMARK   15  A    between atoms: C_13  and  O_14 
ROOT
HETATM    1  C   UNL     1     -21.802  -8.035  -2.814  1.00  0.00     0.179 C 
HETATM    2  C   UNL     1     -20.883  -9.068  -3.494  1.00  0.00     0.180 C 
HETATM    3  C   UNL     1     -19.789  -8.367  -4.319  1.00  0.00     0.183 C 
HETATM    4  C   UNL     1     -20.415  -7.369  -5.294  1.00  0.00     0.204 C 
HETATM    5  C   UNL     1     -21.273  -6.375  -4.491  1.00  0.00     0.291 C 
HETATM    6  O   UNL     1     -22.288  -7.047  -3.751  1.00  0.00    -0.348 OA
ENDROOT
BRANCH   5   7
HETATM    7  O   UNL     1     -21.848  -5.466  -5.431  1.00  0.00    -0.356 OA
BRANCH   7   8
HETATM    8  C   UNL     1     -20.899  -4.750  -6.223  1.00  0.00     0.205 C 
BRANCH   8   9
HETATM    9  C   UNL     1     -21.197  -4.716  -7.733  1.00  0.00     0.173 C 
BRANCH   9  10
HETATM   10  C   UNL     1     -22.507  -3.992  -8.113  1.00  0.00     0.179 C 
BRANCH  10  11
HETATM   11  C   UNL     1     -22.934  -4.260  -9.574  1.00  0.00     0.173 C 
BRANCH  11  12
HETATM   12  C   UNL     1     -24.437  -4.089  -9.834  1.00  0.00     0.198 C 
BRANCH  12  13
HETATM   13  O   UNL     1     -24.851  -2.786  -9.428  1.00  0.00    -0.398 OA
HETATM   14  H   UNL     1     -25.758  -2.673  -9.781  1.00  0.00     0.209 HD
ENDBRANCH  12  13
ENDBRANCH  11  12
BRANCH  11  15
HETATM   15  O   UNL     1     -22.257  -3.321 -10.435  1.00  0.00    -0.391 OA
HETATM   16  H   UNL     1     -22.904  -3.076 -11.127  1.00  0.00     0.210 HD
ENDBRANCH  11  15
ENDBRANCH  10  11
BRANCH  10  17
HETATM   17  O   UNL     1     -23.618  -4.299  -7.259  1.00  0.00    -0.390 OA
HETATM   18  H   UNL     1     -24.285  -4.790  -7.760  1.00  0.00     0.210 HD
ENDBRANCH  10  17
ENDBRANCH   9  10
BRANCH   9  19
HETATM   19  O   UNL     1     -20.094  -4.121  -8.422  1.00  0.00    -0.391 OA
HETATM   20  H   UNL     1     -20.409  -3.755  -9.269  1.00  0.00     0.210 HD
ENDBRANCH   9  19
ENDBRANCH   8   9
ENDBRANCH   7   8
ENDBRANCH   5   7
BRANCH   4  21
HETATM   21  O   UNL     1     -21.248  -8.070  -6.244  1.00  0.00    -0.388 OA
HETATM   22  H   UNL     1     -21.939  -8.505  -5.701  1.00  0.00     0.210 HD
ENDBRANCH   4  21
BRANCH   3  23
HETATM   23  O   UNL     1     -19.008  -9.326  -5.031  1.00  0.00    -0.390 OA
HETATM   24  H   UNL     1     -19.410 -10.193  -4.833  1.00  0.00     0.210 HD
ENDBRANCH   3  23
BRANCH   1  25
HETATM   25  C   UNL     1     -21.136  -7.345  -1.613  1.00  0.00     0.198 C 
BRANCH  25  26
HETATM   26  O   UNL     1     -22.117  -6.774  -0.750  1.00  0.00    -0.398 OA
HETATM   27  H   UNL     1     -22.694  -6.197  -1.287  1.00  0.00     0.209 HD
ENDBRANCH  25  26
ENDBRANCH   1  25
BRANCH   2  28
HETATM   28  O   UNL     1     -21.668  -9.912  -4.357  1.00  0.00    -0.390 OA
HETATM   29  H   UNL     1     -21.705  -9.480  -5.236  1.00  0.00     0.210 HD
ENDBRANCH   2  28
TORSDOF 15
ENDMDL
MODEL 6
REMARK VINA RESULT:      -5.0      3.331      7.726
REMARK  15 active torsions:
REMARK  status: ('A' for Active; 'I' for Inactive)
REMARK    1  A    between atoms: C_1  and  C_2 
REMARK    2  A    between atoms: C_1  and  O_21 
REMARK    3  A    between atoms: C_3  and  O_20 
REMARK    4  A    between atoms: C_4  and  O_19 
REMARK    5  A    between atoms: C_5  and  O_18 
REMARK    6  A    between atoms: C_6  and  O_8 
REMARK    7  A    between atoms: O_8  and  C_9 
REMARK    8  A    between atoms: C_9  and  C_10 
REMARK    9  A    between atoms: C_10  and  C_11 
REMARK   10  A    between atoms: C_10  and  O_17 
REMARK   11  A    between atoms: C_11  and  C_12 
REMARK   12  A    between atoms: C_11  and  O_16 
REMARK   13  A    between atoms: C_12  and  C_13 
REMARK   14  A    between atoms: C_12  and  O_15 
REMARK   15  A    between atoms: C_13  and  O_14 
ROOT
HETATM    1  C   UNL     1     -20.830 -11.143  -5.889  1.00  0.00     0.179 C 
HETATM    2  C   UNL     1     -19.382 -11.612  -6.125  1.00  0.00     0.180 C 
HETATM    3  C   UNL     1     -18.416 -10.908  -5.155  1.00  0.00     0.183 C 
HETATM    4  C   UNL     1     -18.590  -9.391  -5.237  1.00  0.00     0.204 C 
HETATM    5  C   UNL     1     -20.062  -9.052  -4.947  1.00  0.00     0.291 C 
HETATM    6  O   UNL     1     -20.934  -9.701  -5.869  1.00  0.00    -0.348 OA
ENDROOT
BRANCH   5   7
HETATM    7  O   UNL     1     -20.190  -7.633  -5.041  1.00  0.00    -0.356 OA
BRANCH   7   8
HETATM    8  C   UNL     1     -21.537  -7.156  -5.053  1.00  0.00     0.205 C 
BRANCH   8   9
HETATM    9  C   UNL     1     -21.760  -5.833  -5.807  1.00  0.00     0.173 C 
BRANCH   9  10
HETATM   10  C   UNL     1     -21.288  -5.846  -7.278  1.00  0.00     0.179 C 
BRANCH  10  11
HETATM   11  C   UNL     1     -21.447  -4.472  -7.966  1.00  0.00     0.173 C 
BRANCH  11  12
HETATM   12  C   UNL     1     -22.665  -4.368  -8.895  1.00  0.00     0.198 C 
BRANCH  12  13
HETATM   13  O   UNL     1     -23.812  -3.977  -8.143  1.00  0.00    -0.398 OA
HETATM   14  H   UNL     1     -24.542  -3.903  -8.792  1.00  0.00     0.209 HD
ENDBRANCH  12  13
ENDBRANCH  11  12
BRANCH  11  15
HETATM   15  O   UNL     1     -21.615  -3.461  -6.951  1.00  0.00    -0.391 OA
HETATM   16  H   UNL     1     -22.374  -3.752  -6.405  1.00  0.00     0.210 HD
ENDBRANCH  11  15
ENDBRANCH  10  11
BRANCH  10  17
HETATM   17  O   UNL     1     -19.934  -6.283  -7.458  1.00  0.00    -0.390 OA
HETATM   18  H   UNL     1     -19.715  -6.943  -6.784  1.00  0.00     0.210 HD
ENDBRANCH  10  17
ENDBRANCH   9  10
BRANCH   9  19
HETATM   19  O   UNL     1     -23.142  -5.475  -5.741  1.00  0.00    -0.391 OA
HETATM   20  H   UNL     1     -23.236  -4.677  -5.188  1.00  0.00     0.210 HD
ENDBRANCH   9  19
ENDBRANCH   8   9
ENDBRANCH   7   8
ENDBRANCH   5   7
BRANCH   4  21
HETATM   21  O   UNL     1     -18.237  -8.930  -6.561  1.00  0.00    -0.388 OA
HETATM   22  H   UNL     1     -19.094  -8.732  -6.995  1.00  0.00     0.210 HD
ENDBRANCH   4  21
BRANCH   3  23
HETATM   23  O   UNL     1     -17.065 -11.266  -5.448  1.00  0.00    -0.390 OA
HETATM   24  H   UNL     1     -16.836 -10.784  -6.265  1.00  0.00     0.210 HD
ENDBRANCH   3  23
BRANCH   1  25
HETATM   25  C   UNL     1     -21.450 -11.738  -4.614  1.00  0.00     0.198 C 
BRANCH  25  26
HETATM   26  O   UNL     1     -22.689 -12.379  -4.905  1.00  0.00    -0.398 OA
HETATM   27  H   UNL     1     -23.343 -12.091  -4.240  1.00  0.00     0.209 HD
ENDBRANCH  25  26
ENDBRANCH   1  25
BRANCH   2  28
HETATM   28  O   UNL     1     -18.999 -11.318  -7.481  1.00  0.00    -0.390 OA
HETATM   29  H   UNL     1     -18.022 -11.384  -7.532  1.00  0.00     0.210 HD
ENDBRANCH   2  28
TORSDOF 15
ENDMDL
MODEL 7
REMARK VINA RESULT:      -4.8      2.216      7.520
REMARK  15 active torsions:
REMARK  status: ('A' for Active; 'I' for Inactive)
REMARK    1  A    between atoms: C_1  and  C_2 
REMARK    2  A    between atoms: C_1  and  O_21 
REMARK    3  A    between atoms: C_3  and  O_20 
REMARK    4  A    between atoms: C_4  and  O_19 
REMARK    5  A    between atoms: C_5  and  O_18 
REMARK    6  A    between atoms: C_6  and  O_8 
REMARK    7  A    between atoms: O_8  and  C_9 
REMARK    8  A    between atoms: C_9  and  C_10 
REMARK    9  A    between atoms: C_10  and  C_11 
REMARK   10  A    between atoms: C_10  and  O_17 
REMARK   11  A    between atoms: C_11  and  C_12 
REMARK   12  A    between atoms: C_11  and  O_16 
REMARK   13  A    between atoms: C_12  and  C_13 
REMARK   14  A    between atoms: C_12  and  O_15 
REMARK   15  A    between atoms: C_13  and  O_14 
ROOT
HETATM    1  C   UNL     1     -19.086  -8.938  -4.600  1.00  0.00     0.179 C 
HETATM    2  C   UNL     1     -19.670  -9.470  -3.277  1.00  0.00     0.180 C 
HETATM    3  C   UNL     1     -21.192  -9.666  -3.393  1.00  0.00     0.183 C 
HETATM    4  C   UNL     1     -21.859  -8.381  -3.884  1.00  0.00     0.204 C 
HETATM    5  C   UNL     1     -21.216  -7.978  -5.222  1.00  0.00     0.291 C 
HETATM    6  O   UNL     1     -19.811  -7.785  -5.085  1.00  0.00    -0.348 OA
ENDROOT
BRANCH   5   7
HETATM    7  O   UNL     1     -21.855  -6.773  -5.646  1.00  0.00    -0.356 OA
BRANCH   7   8
HETATM    8  C   UNL     1     -20.978  -5.808  -6.229  1.00  0.00     0.205 C 
BRANCH   8   9
HETATM    9  C   UNL     1     -21.281  -5.445  -7.694  1.00  0.00     0.173 C 
BRANCH   9  10
HETATM   10  C   UNL     1     -22.370  -4.364  -7.876  1.00  0.00     0.179 C 
BRANCH  10  11
HETATM   11  C   UNL     1     -22.885  -4.276  -9.330  1.00  0.00     0.173 C 
BRANCH  11  12
HETATM   12  C   UNL     1     -24.168  -3.451  -9.495  1.00  0.00     0.198 C 
BRANCH  12  13
HETATM   13  O   UNL     1     -25.299  -4.319  -9.520  1.00  0.00    -0.398 OA
HETATM   14  H   UNL     1     -25.418  -4.574 -10.458  1.00  0.00     0.209 HD
ENDBRANCH  12  13
ENDBRANCH  11  12
BRANCH  11  15
HETATM   15  O   UNL     1     -21.876  -3.638 -10.141  1.00  0.00    -0.391 OA
HETATM   16  H   UNL     1     -21.153  -3.393  -9.528  1.00  0.00     0.210 HD
ENDBRANCH  11  15
ENDBRANCH  10  11
BRANCH  10  17
HETATM   17  O   UNL     1     -23.502  -4.518  -7.008  1.00  0.00    -0.390 OA
HETATM   18  H   UNL     1     -23.981  -5.325  -7.243  1.00  0.00     0.210 HD
ENDBRANCH  10  17
ENDBRANCH   9  10
BRANCH   9  19
HETATM   19  O   UNL     1     -20.074  -5.035  -8.342  1.00  0.00    -0.391 OA
HETATM   20  H   UNL     1     -19.424  -5.761  -8.290  1.00  0.00     0.210 HD
ENDBRANCH   9  19
ENDBRANCH   8   9
ENDBRANCH   7   8
ENDBRANCH   5   7
BRANCH   4  21
HETATM   21  O   UNL     1     -21.662  -7.327  -2.914  1.00  0.00    -0.388 OA
HETATM   22  H   UNL     1     -21.861  -7.740  -2.048  1.00  0.00     0.210 HD
ENDBRANCH   4  21
BRANCH   3  23
HETATM   23  O   UNL     1     -21.742 -10.057  -2.134  1.00  0.00    -0.390 OA
HETATM   24  H   UNL     1     -22.667  -9.744  -2.142  1.00  0.00     0.210 HD
ENDBRANCH   3  23
BRANCH   1  25
HETATM   25  C   UNL     1     -19.009 -10.015  -5.694  1.00  0.00     0.198 C 
BRANCH  25  26
HETATM   26  O   UNL     1     -17.731 -10.646  -5.693  1.00  0.00    -0.398 OA
HETATM   27  H   UNL     1     -17.831 -11.535  -6.085  1.00  0.00     0.209 HD
ENDBRANCH  25  26
ENDBRANCH   1  25
BRANCH   2  28
HETATM   28  O   UNL     1     -19.385  -8.536  -2.219  1.00  0.00    -0.390 OA
HETATM   29  H   UNL     1     -20.235  -8.131  -1.948  1.00  0.00     0.210 HD
ENDBRANCH   2  28
TORSDOF 15
ENDMDL
MODEL 8
REMARK VINA RESULT:      -4.7      3.199      9.326
REMARK  15 active torsions:
REMARK  status: ('A' for Active; 'I' for Inactive)
REMARK    1  A    between atoms: C_1  and  C_2 
REMARK    2  A    between atoms: C_1  and  O_21 
REMARK    3  A    between atoms: C_3  and  O_20 
REMARK    4  A    between atoms: C_4  and  O_19 
REMARK    5  A    between atoms: C_5  and  O_18 
REMARK    6  A    between atoms: C_6  and  O_8 
REMARK    7  A    between atoms: O_8  and  C_9 
REMARK    8  A    between atoms: C_9  and  C_10 
REMARK    9  A    between atoms: C_10  and  C_11 
REMARK   10  A    between atoms: C_10  and  O_17 
REMARK   11  A    between atoms: C_11  and  C_12 
REMARK   12  A    between atoms: C_11  and  O_16 
REMARK   13  A    between atoms: C_12  and  C_13 
REMARK   14  A    between atoms: C_12  and  O_15 
REMARK   15  A    between atoms: C_13  and  O_14 
ROOT
HETATM    1  C   UNL     1     -22.588  -9.512  -0.587  1.00  0.00     0.179 C 
HETATM    2  C   UNL     1     -21.798 -10.776  -0.200  1.00  0.00     0.180 C 
HETATM    3  C   UNL     1     -20.285 -10.547  -0.366  1.00  0.00     0.183 C 
HETATM    4  C   UNL     1     -19.975 -10.038  -1.774  1.00  0.00     0.204 C 
HETATM    5  C   UNL     1     -20.793  -8.759  -2.022  1.00  0.00     0.291 C 
HETATM    6  O   UNL     1     -22.190  -9.002  -1.880  1.00  0.00    -0.348 OA
ENDROOT
BRANCH   5   7
HETATM    7  O   UNL     1     -20.486  -8.317  -3.345  1.00  0.00    -0.356 OA
BRANCH   7   8
HETATM    8  C   UNL     1     -21.625  -7.996  -4.144  1.00  0.00     0.205 C 
BRANCH   8   9
HETATM    9  C   UNL     1     -21.553  -6.645  -4.880  1.00  0.00     0.173 C 
BRANCH   9  10
HETATM   10  C   UNL     1     -20.847  -6.699  -6.253  1.00  0.00     0.179 C 
BRANCH  10  11
HETATM   11  C   UNL     1     -20.462  -5.299  -6.781  1.00  0.00     0.173 C 
BRANCH  11  12
HETATM   12  C   UNL     1     -21.419  -4.741  -7.843  1.00  0.00     0.198 C 
BRANCH  12  13
HETATM   13  O   UNL     1     -22.482  -4.032  -7.210  1.00  0.00    -0.398 OA
HETATM   14  H   UNL     1     -22.584  -3.199  -7.715  1.00  0.00     0.209 HD
ENDBRANCH  12  13
ENDBRANCH  11  12
BRANCH  11  15
HETATM   15  O   UNL     1     -20.479  -4.367  -5.679  1.00  0.00    -0.391 OA
HETATM   16  H   UNL     1     -19.917  -3.615  -5.955  1.00  0.00     0.210 HD
ENDBRANCH  11  15
ENDBRANCH  10  11
BRANCH  10  17
HETATM   17  O   UNL     1     -19.675  -7.526  -6.280  1.00  0.00    -0.390 OA
HETATM   18  H   UNL     1     -19.554  -7.886  -7.170  1.00  0.00     0.210 HD
ENDBRANCH  10  17
ENDBRANCH   9  10
BRANCH   9  19
HETATM   19  O   UNL     1     -22.871  -6.113  -5.029  1.00  0.00    -0.391 OA
HETATM   20  H   UNL     1     -23.199  -6.324  -5.923  1.00  0.00     0.210 HD
ENDBRANCH   9  19
ENDBRANCH   8   9
ENDBRANCH   7   8
ENDBRANCH   5   7
BRANCH   4  21
HETATM   21  O   UNL     1     -20.338 -11.043  -2.747  1.00  0.00    -0.388 OA
HETATM   22  H   UNL     1     -19.611 -11.700  -2.715  1.00  0.00     0.210 HD
ENDBRANCH   4  21
BRANCH   3  23
HETATM   23  O   UNL     1     -19.566 -11.753  -0.107  1.00  0.00    -0.390 OA
HETATM   24  H   UNL     1     -20.179 -12.323   0.395  1.00  0.00     0.210 HD
ENDBRANCH   3  23
BRANCH   1  25
HETATM   25  C   UNL     1     -22.495  -8.402   0.472  1.00  0.00     0.198 C 
BRANCH  25  26
HETATM   26  O   UNL     1     -23.733  -7.705   0.586  1.00  0.00    -0.398 OA
HETATM   27  H   UNL     1     -23.537  -6.759   0.726  1.00  0.00     0.209 HD
ENDBRANCH  25  26
ENDBRANCH   1  25
BRANCH   2  28
HETATM   28  O   UNL     1     -22.212 -11.873  -1.035  1.00  0.00    -0.390 OA
HETATM   29  H   UNL     1     -21.441 -12.469  -1.141  1.00  0.00     0.210 HD
ENDBRANCH   2  28
TORSDOF 15
ENDMDL
MODEL 9
REMARK VINA RESULT:      -4.6      3.240      9.236
REMARK  15 active torsions:
REMARK  status: ('A' for Active; 'I' for Inactive)
REMARK    1  A    between atoms: C_1  and  C_2 
REMARK    2  A    between atoms: C_1  and  O_21 
REMARK    3  A    between atoms: C_3  and  O_20 
REMARK    4  A    between atoms: C_4  and  O_19 
REMARK    5  A    between atoms: C_5  and  O_18 
REMARK    6  A    between atoms: C_6  and  O_8 
REMARK    7  A    between atoms: O_8  and  C_9 
REMARK    8  A    between atoms: C_9  and  C_10 
REMARK    9  A    between atoms: C_10  and  C_11 
REMARK   10  A    between atoms: C_10  and  O_17 
REMARK   11  A    between atoms: C_11  and  C_12 
REMARK   12  A    between atoms: C_11  and  O_16 
REMARK   13  A    between atoms: C_12  and  C_13 
REMARK   14  A    between atoms: C_12  and  O_15 
REMARK   15  A    between atoms: C_13  and  O_14 
ROOT
HETATM    1  C   UNL     1     -20.492 -10.413  -0.375  1.00  0.00     0.179 C 
HETATM    2  C   UNL     1     -21.569  -9.766   0.516  1.00  0.00     0.180 C 
HETATM    3  C   UNL     1     -22.733  -9.229  -0.336  1.00  0.00     0.183 C 
HETATM    4  C   UNL     1     -22.207  -8.301  -1.432  1.00  0.00     0.204 C 
HETATM    5  C   UNL     1     -21.174  -9.073  -2.270  1.00  0.00     0.291 C 
HETATM    6  O   UNL     1     -20.098  -9.544  -1.462  1.00  0.00    -0.348 OA
ENDROOT
BRANCH   5   7
HETATM    7  O   UNL     1     -20.698  -8.177  -3.276  1.00  0.00    -0.356 OA
BRANCH   7   8
HETATM    8  C   UNL     1     -21.575  -8.015  -4.391  1.00  0.00     0.205 C 
BRANCH   8   9
HETATM    9  C   UNL     1     -21.706  -6.576  -4.921  1.00  0.00     0.173 C 
BRANCH   9  10
HETATM   10  C   UNL     1     -21.150  -6.362  -6.346  1.00  0.00     0.179 C 
BRANCH  10  11
HETATM   11  C   UNL     1     -21.126  -4.874  -6.759  1.00  0.00     0.173 C 
BRANCH  11  12
HETATM   12  C   UNL     1     -20.190  -4.561  -7.935  1.00  0.00     0.198 C 
BRANCH  12  13
HETATM   13  O   UNL     1     -18.849  -4.442  -7.466  1.00  0.00    -0.398 OA
HETATM   14  H   UNL     1     -18.296  -4.331  -8.266  1.00  0.00     0.209 HD
ENDBRANCH  12  13
ENDBRANCH  11  12
BRANCH  11  15
HETATM   15  O   UNL     1     -22.453  -4.486  -7.172  1.00  0.00    -0.391 OA
HETATM   16  H   UNL     1     -22.744  -5.167  -7.813  1.00  0.00     0.210 HD
ENDBRANCH  11  15
ENDBRANCH  10  11
BRANCH  10  17
HETATM   17  O   UNL     1     -19.838  -6.905  -6.552  1.00  0.00    -0.390 OA
HETATM   18  H   UNL     1     -19.687  -7.630  -5.929  1.00  0.00     0.210 HD
ENDBRANCH  10  17
ENDBRANCH   9  10
BRANCH   9  19
HETATM   19  O   UNL     1     -23.077  -6.172  -4.867  1.00  0.00    -0.391 OA
HETATM   20  H   UNL     1     -23.305  -5.713  -5.696  1.00  0.00     0.210 HD
ENDBRANCH   9  19
ENDBRANCH   8   9
ENDBRANCH   7   8
ENDBRANCH   5   7
BRANCH   4  21
HETATM   21  O   UNL     1     -21.579  -7.145  -0.834  1.00  0.00    -0.388 OA
HETATM   22  H   UNL     1     -22.060  -6.375  -1.206  1.00  0.00     0.210 HD
ENDBRANCH   4  21
BRANCH   3  23
HETATM   23  O   UNL     1     -23.675  -8.538   0.484  1.00  0.00    -0.390 OA
HETATM   24  H   UNL     1     -23.744  -7.640   0.107  1.00  0.00     0.210 HD
ENDBRANCH   3  23
BRANCH   1  25
HETATM   25  C   UNL     1     -20.915 -11.786  -0.921  1.00  0.00     0.198 C 
BRANCH  25  26
HETATM   26  O   UNL     1     -19.888 -12.346  -1.736  1.00  0.00    -0.398 OA
HETATM   27  H   UNL     1     -19.944 -11.934  -2.619  1.00  0.00     0.209 HD
ENDBRANCH  25  26
ENDBRANCH   1  25
BRANCH   2  28
HETATM   28  O   UNL     1     -20.983  -8.685   1.265  1.00  0.00    -0.390 OA
HETATM   29  H   UNL     1     -20.143  -8.442   0.822  1.00  0.00     0.210 HD
ENDBRANCH   2  28
TORSDOF 15
ENDMDL
