MODEL 1
REMARK VINA RESULT:      -5.0      0.000      0.000
REMARK  1 active torsions:
REMARK  status: ('A' for Active; 'I' for Inactive)
REMARK    1  A    between atoms: C_2  and  N_3 
ROOT
HETATM    1  N   UNL     1     -23.740  -3.332 -11.298  1.00  0.00    -0.329 N 
HETATM    2  C   UNL     1     -22.346  -3.602 -11.052  1.00  0.00     0.131 C 
HETATM    3  C   UNL     1     -22.342  -4.351  -9.735  1.00  0.00     0.029 C 
HETATM    4  C   UNL     1     -23.559  -3.811  -9.002  1.00  0.00     0.105 C 
HETATM    5  C   UNL     1     -24.498  -3.441 -10.124  1.00  0.00     0.223 C 
HETATM    6  O   UNL     1     -25.692  -3.222  -9.987  1.00  0.00    -0.273 OA
ENDROOT
BRANCH   1   7
HETATM    7  C   UNL     1     -24.263  -2.896 -12.492  1.00  0.00     0.083 C 
HETATM    8  C   UNL     1     -23.547  -2.605 -13.583  1.00  0.00     0.030 C 
ENDBRANCH   1   7
TORSDOF 1
ENDMDL
MODEL 2
REMARK VINA RESULT:      -4.9      1.054      3.064
REMARK  1 active torsions:
REMARK  status: ('A' for Active; 'I' for Inactive)
REMARK    1  A    between atoms: C_2  and  N_3 
ROOT
HETATM    1  N   UNL     1     -23.173  -3.626  -9.916  1.00  0.00    -0.329 N 
HETATM    2  C   UNL     1     -22.085  -3.610 -10.861  1.00  0.00     0.131 C 
HETATM    3  C   UNL     1     -22.615  -2.795 -12.023  1.00  0.00     0.029 C 
HETATM    4  C   UNL     1     -24.113  -3.047 -11.993  1.00  0.00     0.105 C 
HETATM    5  C   UNL     1     -24.390  -3.302 -10.532  1.00  0.00     0.223 C 
HETATM    6  O   UNL     1     -25.500  -3.280 -10.020  1.00  0.00    -0.273 OA
ENDROOT
BRANCH   1   7
HETATM    7  C   UNL     1     -23.079  -4.029  -8.606  1.00  0.00     0.083 C 
HETATM    8  C   UNL     1     -21.984  -3.918  -7.847  1.00  0.00     0.030 C 
ENDBRANCH   1   7
TORSDOF 1
ENDMDL
MODEL 3
REMARK VINA RESULT:      -4.6     10.118     11.017
REMARK  1 active torsions:
REMARK  status: ('A' for Active; 'I' for Inactive)
REMARK    1  A    between atoms: C_2  and  N_3 
ROOT
HETATM    1  N   UNL     1     -34.261  -4.356 -11.262  1.00  0.00    -0.329 N 
HETATM    2  C   UNL     1     -33.016  -3.682 -11.533  1.00  0.00     0.131 C 
HETATM    3  C   UNL     1     -33.187  -2.319 -10.894  1.00  0.00     0.029 C 
HETATM    4  C   UNL     1     -34.681  -2.058 -10.980  1.00  0.00     0.105 C 
HETATM    5  C   UNL     1     -35.274  -3.445 -10.932  1.00  0.00     0.223 C 
HETATM    6  O   UNL     1     -36.449  -3.691 -10.702  1.00  0.00    -0.273 OA
ENDROOT
BRANCH   1   7
HETATM    7  C   UNL     1     -34.486  -5.702 -11.424  1.00  0.00     0.083 C 
HETATM    8  C   UNL     1     -34.447  -6.609 -10.443  1.00  0.00     0.030 C 
ENDBRANCH   1   7
TORSDOF 1
ENDMDL
MODEL 4
REMARK VINA RESULT:      -4.6     10.290     11.025
REMARK  1 active torsions:
REMARK  status: ('A' for Active; 'I' for Inactive)
REMARK    1  A    between atoms: C_2  and  N_3 
ROOT
HETATM    1  N   UNL     1     -34.697  -2.098 -12.356  1.00  0.00    -0.329 N 
HETATM    2  C   UNL     1     -34.523  -2.124 -10.925  1.00  0.00     0.131 C 
HETATM    3  C   UNL     1     -33.512  -3.228 -10.695  1.00  0.00     0.029 C 
HETATM    4  C   UNL     1     -33.754  -4.192 -11.844  1.00  0.00     0.105 C 
HETATM    5  C   UNL     1     -34.260  -3.293 -12.945  1.00  0.00     0.223 C 
HETATM    6  O   UNL     1     -34.320  -3.605 -14.125  1.00  0.00    -0.273 OA
ENDROOT
BRANCH   1   7
HETATM    7  C   UNL     1     -35.324  -1.099 -13.060  1.00  0.00     0.083 C 
HETATM    8  C   UNL     1     -34.994   0.195 -13.014  1.00  0.00     0.030 C 
ENDBRANCH   1   7
TORSDOF 1
ENDMDL
MODEL 5
REMARK VINA RESULT:      -4.5     10.149     10.847
REMARK  1 active torsions:
REMARK  status: ('A' for Active; 'I' for Inactive)
REMARK    1  A    between atoms: C_2  and  N_3 
ROOT
HETATM    1  N   UNL     1     -34.270  -2.887 -11.508  1.00  0.00    -0.329 N 
HETATM    2  C   UNL     1     -32.943  -3.444 -11.580  1.00  0.00     0.131 C 
HETATM    3  C   UNL     1     -33.162  -4.938 -11.457  1.00  0.00     0.029 C 
HETATM    4  C   UNL     1     -34.418  -5.056 -10.609  1.00  0.00     0.105 C 
HETATM    5  C   UNL     1     -35.177  -3.795 -10.944  1.00  0.00     0.223 C 
HETATM    6  O   UNL     1     -36.359  -3.609 -10.697  1.00  0.00    -0.273 OA
ENDROOT
BRANCH   1   7
HETATM    7  C   UNL     1     -34.604  -1.592 -11.825  1.00  0.00     0.083 C 
HETATM    8  C   UNL     1     -35.137  -1.200 -12.987  1.00  0.00     0.030 C 
ENDBRANCH   1   7
TORSDOF 1
ENDMDL
MODEL 6
REMARK VINA RESULT:      -4.4      2.159      3.035
REMARK  1 active torsions:
REMARK  status: ('A' for Active; 'I' for Inactive)
REMARK    1  A    between atoms: C_2  and  N_3 
ROOT
HETATM    1  N   UNL     1     -22.747  -3.686 -10.516  1.00  0.00    -0.329 N 
HETATM    2  C   UNL     1     -22.112  -4.273  -9.363  1.00  0.00     0.131 C 
HETATM    3  C   UNL     1     -20.631  -4.079  -9.616  1.00  0.00     0.029 C 
HETATM    4  C   UNL     1     -20.513  -4.097 -11.131  1.00  0.00     0.105 C 
HETATM    5  C   UNL     1     -21.849  -3.561 -11.585  1.00  0.00     0.223 C 
HETATM    6  O   UNL     1     -22.087  -3.154 -12.713  1.00  0.00    -0.273 OA
ENDROOT
BRANCH   1   7
HETATM    7  C   UNL     1     -24.086  -3.397 -10.623  1.00  0.00     0.083 C 
HETATM    8  C   UNL     1     -24.934  -3.299  -9.594  1.00  0.00     0.030 C 
ENDBRANCH   1   7
TORSDOF 1
ENDMDL
MODEL 7
REMARK VINA RESULT:      -4.4      2.114      3.801
REMARK  1 active torsions:
REMARK  status: ('A' for Active; 'I' for Inactive)
REMARK    1  A    between atoms: C_2  and  N_3 
ROOT
HETATM    1  N   UNL     1     -22.776  -3.815 -10.177  1.00  0.00    -0.329 N 
HETATM    2  C   UNL     1     -24.168  -3.523 -10.403  1.00  0.00     0.131 C 
HETATM    3  C   UNL     1     -24.236  -3.160 -11.873  1.00  0.00     0.029 C 
HETATM    4  C   UNL     1     -22.870  -2.563 -12.166  1.00  0.00     0.105 C 
HETATM    5  C   UNL     1     -21.968  -3.272 -11.185  1.00  0.00     0.223 C 
HETATM    6  O   UNL     1     -20.748  -3.296 -11.256  1.00  0.00    -0.273 OA
ENDROOT
BRANCH   1   7
HETATM    7  C   UNL     1     -22.267  -4.433  -9.059  1.00  0.00     0.083 C 
HETATM    8  C   UNL     1     -21.931  -3.809  -7.925  1.00  0.00     0.030 C 
ENDBRANCH   1   7
TORSDOF 1
ENDMDL
MODEL 8
REMARK VINA RESULT:      -4.3      9.880     10.946
REMARK  1 active torsions:
REMARK  status: ('A' for Active; 'I' for Inactive)
REMARK    1  A    between atoms: C_2  and  N_3 
ROOT
HETATM    1  N   UNL     1     -34.274  -5.091 -11.154  1.00  0.00    -0.329 N 
HETATM    2  C   UNL     1     -35.370  -4.222 -10.806  1.00  0.00     0.131 C 
HETATM    3  C   UNL     1     -35.060  -2.927 -11.530  1.00  0.00     0.029 C 
HETATM    4  C   UNL     1     -33.542  -2.900 -11.597  1.00  0.00     0.105 C 
HETATM    5  C   UNL     1     -33.173  -4.362 -11.624  1.00  0.00     0.223 C 
HETATM    6  O   UNL     1     -32.077  -4.797 -11.948  1.00  0.00    -0.273 OA
ENDROOT
BRANCH   1   7
HETATM    7  C   UNL     1     -34.240  -6.448 -10.940  1.00  0.00     0.083 C 
HETATM    8  C   UNL     1     -34.801  -7.075  -9.901  1.00  0.00     0.030 C 
ENDBRANCH   1   7
TORSDOF 1
ENDMDL
MODEL 9
REMARK VINA RESULT:      -4.3      1.832      3.570
REMARK  1 active torsions:
REMARK  status: ('A' for Active; 'I' for Inactive)
REMARK    1  A    between atoms: C_2  and  N_3 
ROOT
HETATM    1  N   UNL     1     -21.906  -4.032  -9.433  1.00  0.00    -0.329 N 
HETATM    2  C   UNL     1     -20.925  -4.120 -10.486  1.00  0.00     0.131 C 
HETATM    3  C   UNL     1     -21.492  -3.253 -11.592  1.00  0.00     0.029 C 
HETATM    4  C   UNL     1     -22.996  -3.358 -11.406  1.00  0.00     0.105 C 
HETATM    5  C   UNL     1     -23.142  -3.588  -9.922  1.00  0.00     0.223 C 
HETATM    6  O   UNL     1     -24.186  -3.460  -9.298  1.00  0.00    -0.273 OA
ENDROOT
BRANCH   1   7
HETATM    7  C   UNL     1     -21.715  -4.445  -8.136  1.00  0.00     0.083 C 
HETATM    8  C   UNL     1     -21.283  -3.666  -7.139  1.00  0.00     0.030 C 
ENDBRANCH   1   7
TORSDOF 1
ENDMDL
