MODEL 1
REMARK VINA RESULT:      -6.4      0.000      0.000
REMARK  14 active torsions:
REMARK  status: ('A' for Active; 'I' for Inactive)
REMARK    1  A    between atoms: C_2  and  C_3 
REMARK    2  A    between atoms: C_3  and  C_4 
REMARK    3  A    between atoms: C_4  and  C_5 
REMARK    4  A    between atoms: C_5  and  C_6 
REMARK    5  A    between atoms: C_6  and  C_7 
REMARK    6  A    between atoms: C_7  and  C_8 
REMARK    7  A    between atoms: C_8  and  O_9 
REMARK    8  A    between atoms: O_9  and  C_10 
REMARK    9  A    between atoms: C_10  and  C_11 
REMARK   10  A    between atoms: C_11  and  C_12 
REMARK   11  A    between atoms: C_12  and  C_13 
REMARK   12  A    between atoms: C_13  and  C_14 
REMARK   13  A    between atoms: C_14  and  C_15 
REMARK   14  A    between atoms: C_15  and  C_16 
ROOT
HETATM    1  O   UNL     1     -35.304  -0.819 -10.992  1.00  0.00    -0.391 OA
ENDROOT
BRANCH   1   2
HETATM    2  C   UNL     1     -36.619  -0.440 -11.384  1.00  0.00     0.167 C 
BRANCH   2   3
HETATM    3  C   UNL     1     -37.235   0.409 -10.285  1.00  0.00     0.026 C 
BRANCH   3   4
HETATM    4  C   UNL     1     -37.091  -0.291  -8.939  1.00  0.00     0.002 C 
BRANCH   4   5
HETATM    5  C   UNL     1     -36.249   0.529  -7.969  1.00  0.00     0.000 C 
BRANCH   5   6
HETATM    6  C   UNL     1     -37.138   1.456  -7.142  1.00  0.00     0.000 C 
BRANCH   6   7
HETATM    7  C   UNL     1     -38.051   0.655  -6.217  1.00  0.00    -0.000 C 
BRANCH   7   8
HETATM    8  C   UNL     1     -37.462   0.555  -4.812  1.00  0.00    -0.005 C 
HETATM    9  C   UNL     1     -38.001  -0.661  -4.079  1.00  0.00     0.005 C 
ENDBRANCH   7   8
ENDBRANCH   6   7
ENDBRANCH   5   6
ENDBRANCH   4   5
ENDBRANCH   3   4
ENDBRANCH   2   3
ENDBRANCH   1   2
BRANCH   1  10
HETATM   10  C   UNL     1     -35.004  -2.129 -11.464  1.00  0.00     0.167 C 
BRANCH  10  11
HETATM   11  C   UNL     1     -33.721  -2.608 -10.804  1.00  0.00     0.026 C 
BRANCH  11  12
HETATM   12  C   UNL     1     -32.986  -3.574 -11.725  1.00  0.00     0.002 C 
BRANCH  12  13
HETATM   13  C   UNL     1     -33.246  -5.024 -11.335  1.00  0.00     0.000 C 
BRANCH  13  14
HETATM   14  C   UNL     1     -34.637  -5.174 -10.725  1.00  0.00     0.000 C 
BRANCH  14  15
HETATM   15  C   UNL     1     -34.743  -6.464  -9.917  1.00  0.00    -0.000 C 
BRANCH  15  16
HETATM   16  C   UNL     1     -33.774  -7.522 -10.440  1.00  0.00    -0.005 C 
HETATM   17  C   UNL     1     -34.030  -8.867  -9.782  1.00  0.00     0.005 C 
ENDBRANCH  15  16
ENDBRANCH  14  15
ENDBRANCH  13  14
ENDBRANCH  12  13
ENDBRANCH  11  12
ENDBRANCH  10  11
ENDBRANCH   1  10
TORSDOF 14
ENDMDL
MODEL 2
REMARK VINA RESULT:      -6.3      0.941      7.454
REMARK  14 active torsions:
REMARK  status: ('A' for Active; 'I' for Inactive)
REMARK    1  A    between atoms: C_2  and  C_3 
REMARK    2  A    between atoms: C_3  and  C_4 
REMARK    3  A    between atoms: C_4  and  C_5 
REMARK    4  A    between atoms: C_5  and  C_6 
REMARK    5  A    between atoms: C_6  and  C_7 
REMARK    6  A    between atoms: C_7  and  C_8 
REMARK    7  A    between atoms: C_8  and  O_9 
REMARK    8  A    between atoms: O_9  and  C_10 
REMARK    9  A    between atoms: C_10  and  C_11 
REMARK   10  A    between atoms: C_11  and  C_12 
REMARK   11  A    between atoms: C_12  and  C_13 
REMARK   12  A    between atoms: C_13  and  C_14 
REMARK   13  A    between atoms: C_14  and  C_15 
REMARK   14  A    between atoms: C_15  and  C_16 
ROOT
HETATM    1  O   UNL     1     -35.225  -0.752 -11.090  1.00  0.00    -0.391 OA
ENDROOT
BRANCH   1   2
HETATM    2  C   UNL     1     -34.965  -1.158 -12.430  1.00  0.00     0.167 C 
BRANCH   2   3
HETATM    3  C   UNL     1     -34.703  -2.655 -12.448  1.00  0.00     0.026 C 
BRANCH   3   4
HETATM    4  C   UNL     1     -33.571  -3.001 -11.488  1.00  0.00     0.002 C 
BRANCH   4   5
HETATM    5  C   UNL     1     -33.137  -4.455 -11.636  1.00  0.00     0.000 C 
BRANCH   5   6
HETATM    6  C   UNL     1     -34.330  -5.390 -11.445  1.00  0.00     0.000 C 
BRANCH   6   7
HETATM    7  C   UNL     1     -34.289  -6.053 -10.071  1.00  0.00    -0.000 C 
BRANCH   7   8
HETATM    8  C   UNL     1     -34.932  -7.437 -10.106  1.00  0.00    -0.005 C 
HETATM    9  C   UNL     1     -33.897  -8.527  -9.887  1.00  0.00     0.005 C 
ENDBRANCH   7   8
ENDBRANCH   6   7
ENDBRANCH   5   6
ENDBRANCH   4   5
ENDBRANCH   3   4
ENDBRANCH   2   3
ENDBRANCH   1   2
BRANCH   1  10
HETATM   10  C   UNL     1     -36.432  -1.343 -10.618  1.00  0.00     0.167 C 
BRANCH  10  11
HETATM   11  C   UNL     1     -37.473  -0.252 -10.432  1.00  0.00     0.026 C 
BRANCH  11  12
HETATM   12  C   UNL     1     -36.902   0.883  -9.592  1.00  0.00     0.002 C 
BRANCH  12  13
HETATM   13  C   UNL     1     -37.873   1.313  -8.500  1.00  0.00     0.000 C 
BRANCH  13  14
HETATM   14  C   UNL     1     -37.829   0.336  -7.326  1.00  0.00     0.000 C 
BRANCH  14  15
HETATM   15  C   UNL     1     -37.560   1.068  -6.016  1.00  0.00    -0.000 C 
BRANCH  15  16
HETATM   16  C   UNL     1     -37.002   0.117  -4.958  1.00  0.00    -0.005 C 
HETATM   17  C   UNL     1     -38.075  -0.274  -3.957  1.00  0.00     0.005 C 
ENDBRANCH  15  16
ENDBRANCH  14  15
ENDBRANCH  13  14
ENDBRANCH  12  13
ENDBRANCH  11  12
ENDBRANCH  10  11
ENDBRANCH   1  10
TORSDOF 14
ENDMDL
MODEL 3
REMARK VINA RESULT:      -6.2     14.310     16.637
REMARK  14 active torsions:
REMARK  status: ('A' for Active; 'I' for Inactive)
REMARK    1  A    between atoms: C_2  and  C_3 
REMARK    2  A    between atoms: C_3  and  C_4 
REMARK    3  A    between atoms: C_4  and  C_5 
REMARK    4  A    between atoms: C_5  and  C_6 
REMARK    5  A    between atoms: C_6  and  C_7 
REMARK    6  A    between atoms: C_7  and  C_8 
REMARK    7  A    between atoms: C_8  and  O_9 
REMARK    8  A    between atoms: O_9  and  C_10 
REMARK    9  A    between atoms: C_10  and  C_11 
REMARK   10  A    between atoms: C_11  and  C_12 
REMARK   11  A    between atoms: C_12  and  C_13 
REMARK   12  A    between atoms: C_13  and  C_14 
REMARK   13  A    between atoms: C_14  and  C_15 
REMARK   14  A    between atoms: C_15  and  C_16 
ROOT
HETATM    1  O   UNL     1     -20.947  -7.036  -6.360  1.00  0.00    -0.391 OA
ENDROOT
BRANCH   1   2
HETATM    2  C   UNL     1     -21.278  -5.659  -6.215  1.00  0.00     0.167 C 
BRANCH   2   3
HETATM    3  C   UNL     1     -20.002  -4.868  -5.978  1.00  0.00     0.026 C 
BRANCH   3   4
HETATM    4  C   UNL     1     -19.221  -4.731  -7.279  1.00  0.00     0.002 C 
BRANCH   4   5
HETATM    5  C   UNL     1     -19.924  -3.800  -8.259  1.00  0.00     0.000 C 
BRANCH   5   6
HETATM    6  C   UNL     1     -20.259  -4.539  -9.553  1.00  0.00     0.000 C 
BRANCH   6   7
HETATM    7  C   UNL     1     -21.562  -4.021 -10.156  1.00  0.00    -0.000 C 
BRANCH   7   8
HETATM    8  C   UNL     1     -21.509  -4.037 -11.682  1.00  0.00    -0.005 C 
HETATM    9  C   UNL     1     -22.417  -2.971 -12.271  1.00  0.00     0.005 C 
ENDBRANCH   7   8
ENDBRANCH   6   7
ENDBRANCH   5   6
ENDBRANCH   4   5
ENDBRANCH   3   4
ENDBRANCH   2   3
ENDBRANCH   1   2
BRANCH   1  10
HETATM   10  C   UNL     1     -21.480  -7.792  -5.277  1.00  0.00     0.167 C 
BRANCH  10  11
HETATM   11  C   UNL     1     -20.364  -8.091  -4.290  1.00  0.00     0.026 C 
BRANCH  11  12
HETATM   12  C   UNL     1     -20.868  -7.923  -2.862  1.00  0.00     0.002 C 
BRANCH  12  13
HETATM   13  C   UNL     1     -21.465  -6.539  -2.639  1.00  0.00     0.000 C 
BRANCH  13  14
HETATM   14  C   UNL     1     -22.315  -6.519  -1.371  1.00  0.00     0.000 C 
BRANCH  14  15
HETATM   15  C   UNL     1     -21.871  -7.607  -0.398  1.00  0.00    -0.000 C 
BRANCH  15  16
HETATM   16  C   UNL     1     -23.067  -8.217   0.330  1.00  0.00    -0.005 C 
HETATM   17  C   UNL     1     -23.272  -9.665  -0.078  1.00  0.00     0.005 C 
ENDBRANCH  15  16
ENDBRANCH  14  15
ENDBRANCH  13  14
ENDBRANCH  12  13
ENDBRANCH  11  12
ENDBRANCH  10  11
ENDBRANCH   1  10
TORSDOF 14
ENDMDL
MODEL 4
REMARK VINA RESULT:      -6.2     13.396     15.630
REMARK  14 active torsions:
REMARK  status: ('A' for Active; 'I' for Inactive)
REMARK    1  A    between atoms: C_2  and  C_3 
REMARK    2  A    between atoms: C_3  and  C_4 
REMARK    3  A    between atoms: C_4  and  C_5 
REMARK    4  A    between atoms: C_5  and  C_6 
REMARK    5  A    between atoms: C_6  and  C_7 
REMARK    6  A    between atoms: C_7  and  C_8 
REMARK    7  A    between atoms: C_8  and  O_9 
REMARK    8  A    between atoms: O_9  and  C_10 
REMARK    9  A    between atoms: C_10  and  C_11 
REMARK   10  A    between atoms: C_11  and  C_12 
REMARK   11  A    between atoms: C_12  and  C_13 
REMARK   12  A    between atoms: C_13  and  C_14 
REMARK   13  A    between atoms: C_14  and  C_15 
REMARK   14  A    between atoms: C_15  and  C_16 
ROOT
HETATM    1  O   UNL     1     -20.926  -6.272  -7.248  1.00  0.00    -0.391 OA
ENDROOT
BRANCH   1   2
HETATM    2  C   UNL     1     -20.532  -6.680  -5.942  1.00  0.00     0.167 C 
BRANCH   2   3
HETATM    3  C   UNL     1     -21.680  -6.425  -4.980  1.00  0.00     0.026 C 
BRANCH   3   4
HETATM    4  C   UNL     1     -21.139  -6.044  -3.607  1.00  0.00     0.002 C 
BRANCH   4   5
HETATM    5  C   UNL     1     -22.182  -6.253  -2.516  1.00  0.00     0.000 C 
BRANCH   5   6
HETATM    6  C   UNL     1     -21.642  -7.180  -1.429  1.00  0.00     0.000 C 
BRANCH   6   7
HETATM    7  C   UNL     1     -22.648  -7.330  -0.291  1.00  0.00    -0.000 C 
BRANCH   7   8
HETATM    8  C   UNL     1     -22.478  -8.669   0.422  1.00  0.00    -0.005 C 
HETATM    9  C   UNL     1     -21.165  -8.719   1.185  1.00  0.00     0.005 C 
ENDBRANCH   7   8
ENDBRANCH   6   7
ENDBRANCH   5   6
ENDBRANCH   4   5
ENDBRANCH   3   4
ENDBRANCH   2   3
ENDBRANCH   1   2
BRANCH   1  10
HETATM   10  C   UNL     1     -21.649  -5.047  -7.188  1.00  0.00     0.167 C 
BRANCH  10  11
HETATM   11  C   UNL     1     -21.014  -4.054  -8.149  1.00  0.00     0.026 C 
BRANCH  11  12
HETATM   12  C   UNL     1     -20.015  -4.765  -9.053  1.00  0.00     0.002 C 
BRANCH  12  13
HETATM   13  C   UNL     1     -20.313  -4.507 -10.525  1.00  0.00     0.000 C 
BRANCH  13  14
HETATM   14  C   UNL     1     -21.560  -3.639 -10.676  1.00  0.00     0.000 C 
BRANCH  14  15
HETATM   15  C   UNL     1     -22.634  -4.360 -11.483  1.00  0.00    -0.000 C 
BRANCH  15  16
HETATM   16  C   UNL     1     -23.693  -4.972 -10.569  1.00  0.00    -0.005 C 
HETATM   17  C   UNL     1     -24.447  -3.894  -9.810  1.00  0.00     0.005 C 
ENDBRANCH  15  16
ENDBRANCH  14  15
ENDBRANCH  13  14
ENDBRANCH  12  13
ENDBRANCH  11  12
ENDBRANCH  10  11
ENDBRANCH   1  10
TORSDOF 14
ENDMDL
MODEL 5
REMARK VINA RESULT:      -6.1     13.833     16.111
REMARK  14 active torsions:
REMARK  status: ('A' for Active; 'I' for Inactive)
REMARK    1  A    between atoms: C_2  and  C_3 
REMARK    2  A    between atoms: C_3  and  C_4 
REMARK    3  A    between atoms: C_4  and  C_5 
REMARK    4  A    between atoms: C_5  and  C_6 
REMARK    5  A    between atoms: C_6  and  C_7 
REMARK    6  A    between atoms: C_7  and  C_8 
REMARK    7  A    between atoms: C_8  and  O_9 
REMARK    8  A    between atoms: O_9  and  C_10 
REMARK    9  A    between atoms: C_10  and  C_11 
REMARK   10  A    between atoms: C_11  and  C_12 
REMARK   11  A    between atoms: C_12  and  C_13 
REMARK   12  A    between atoms: C_13  and  C_14 
REMARK   13  A    between atoms: C_14  and  C_15 
REMARK   14  A    between atoms: C_15  and  C_16 
ROOT
HETATM    1  O   UNL     1     -20.759  -7.005  -6.075  1.00  0.00    -0.391 OA
ENDROOT
BRANCH   1   2
HETATM    2  C   UNL     1     -21.341  -7.679  -4.965  1.00  0.00     0.167 C 
BRANCH   2   3
HETATM    3  C   UNL     1     -21.661  -6.661  -3.883  1.00  0.00     0.026 C 
BRANCH   3   4
HETATM    4  C   UNL     1     -21.316  -7.226  -2.511  1.00  0.00     0.002 C 
BRANCH   4   5
HETATM    5  C   UNL     1     -22.310  -6.767  -1.451  1.00  0.00     0.000 C 
BRANCH   5   6
HETATM    6  C   UNL     1     -22.035  -7.468  -0.122  1.00  0.00     0.000 C 
BRANCH   6   7
HETATM    7  C   UNL     1     -23.157  -8.444   0.222  1.00  0.00    -0.000 C 
BRANCH   7   8
HETATM    8  C   UNL     1     -22.913  -9.811  -0.412  1.00  0.00    -0.005 C 
HETATM    9  C   UNL     1     -24.030 -10.781  -0.065  1.00  0.00     0.005 C 
ENDBRANCH   7   8
ENDBRANCH   6   7
ENDBRANCH   5   6
ENDBRANCH   4   5
ENDBRANCH   3   4
ENDBRANCH   2   3
ENDBRANCH   1   2
BRANCH   1  10
HETATM   10  C   UNL     1     -20.349  -5.694  -5.701  1.00  0.00     0.167 C 
BRANCH  10  11
HETATM   11  C   UNL     1     -20.024  -4.903  -6.957  1.00  0.00     0.026 C 
BRANCH  11  12
HETATM   12  C   UNL     1     -21.081  -3.830  -7.190  1.00  0.00     0.002 C 
BRANCH  12  13
HETATM   13  C   UNL     1     -21.723  -3.968  -8.565  1.00  0.00     0.000 C 
BRANCH  13  14
HETATM   14  C   UNL     1     -20.657  -4.196  -9.634  1.00  0.00     0.000 C 
BRANCH  14  15
HETATM   15  C   UNL     1     -21.289  -4.338 -11.015  1.00  0.00    -0.000 C 
BRANCH  15  16
HETATM   16  C   UNL     1     -21.497  -2.974 -11.669  1.00  0.00    -0.005 C 
HETATM   17  C   UNL     1     -22.972  -2.706 -11.915  1.00  0.00     0.005 C 
ENDBRANCH  15  16
ENDBRANCH  14  15
ENDBRANCH  13  14
ENDBRANCH  12  13
ENDBRANCH  11  12
ENDBRANCH  10  11
ENDBRANCH   1  10
TORSDOF 14
ENDMDL
MODEL 6
REMARK VINA RESULT:      -6.0      2.370      5.087
REMARK  14 active torsions:
REMARK  status: ('A' for Active; 'I' for Inactive)
REMARK    1  A    between atoms: C_2  and  C_3 
REMARK    2  A    between atoms: C_3  and  C_4 
REMARK    3  A    between atoms: C_4  and  C_5 
REMARK    4  A    between atoms: C_5  and  C_6 
REMARK    5  A    between atoms: C_6  and  C_7 
REMARK    6  A    between atoms: C_7  and  C_8 
REMARK    7  A    between atoms: C_8  and  O_9 
REMARK    8  A    between atoms: O_9  and  C_10 
REMARK    9  A    between atoms: C_10  and  C_11 
REMARK   10  A    between atoms: C_11  and  C_12 
REMARK   11  A    between atoms: C_12  and  C_13 
REMARK   12  A    between atoms: C_13  and  C_14 
REMARK   13  A    between atoms: C_14  and  C_15 
REMARK   14  A    between atoms: C_15  and  C_16 
ROOT
HETATM    1  O   UNL     1     -35.369  -1.068  -9.611  1.00  0.00    -0.391 OA
ENDROOT
BRANCH   1   2
HETATM    2  C   UNL     1     -36.731  -0.655  -9.611  1.00  0.00     0.167 C 
BRANCH   2   3
HETATM    3  C   UNL     1     -36.936   0.361 -10.722  1.00  0.00     0.026 C 
BRANCH   3   4
HETATM    4  C   UNL     1     -38.017  -0.122 -11.682  1.00  0.00     0.002 C 
BRANCH   4   5
HETATM    5  C   UNL     1     -37.473  -0.300 -13.094  1.00  0.00     0.000 C 
BRANCH   5   6
HETATM    6  C   UNL     1     -36.049   0.246 -13.191  1.00  0.00     0.000 C 
BRANCH   6   7
HETATM    7  C   UNL     1     -35.695   0.592 -14.635  1.00  0.00    -0.000 C 
BRANCH   7   8
HETATM    8  C   UNL     1     -35.440  -0.669 -15.458  1.00  0.00    -0.005 C 
HETATM    9  C   UNL     1     -36.442  -0.792 -16.593  1.00  0.00     0.005 C 
ENDBRANCH   7   8
ENDBRANCH   6   7
ENDBRANCH   5   6
ENDBRANCH   4   5
ENDBRANCH   3   4
ENDBRANCH   2   3
ENDBRANCH   1   2
BRANCH   1  10
HETATM   10  C   UNL     1     -35.166  -2.112 -10.559  1.00  0.00     0.167 C 
BRANCH  10  11
HETATM   11  C   UNL     1     -33.689  -2.467 -10.592  1.00  0.00     0.026 C 
BRANCH  11  12
HETATM   12  C   UNL     1     -33.368  -3.259 -11.853  1.00  0.00     0.002 C 
BRANCH  12  13
HETATM   13  C   UNL     1     -32.981  -4.696 -11.526  1.00  0.00     0.000 C 
BRANCH  13  14
HETATM   14  C   UNL     1     -34.222  -5.585 -11.466  1.00  0.00     0.000 C 
BRANCH  14  15
HETATM   15  C   UNL     1     -34.398  -6.183 -10.074  1.00  0.00    -0.000 C 
BRANCH  15  16
HETATM   16  C   UNL     1     -34.959  -7.601 -10.151  1.00  0.00    -0.005 C 
HETATM   17  C   UNL     1     -33.886  -8.630  -9.837  1.00  0.00     0.005 C 
ENDBRANCH  15  16
ENDBRANCH  14  15
ENDBRANCH  13  14
ENDBRANCH  12  13
ENDBRANCH  11  12
ENDBRANCH  10  11
ENDBRANCH   1  10
TORSDOF 14
ENDMDL
MODEL 7
REMARK VINA RESULT:      -6.0     12.879     15.597
REMARK  14 active torsions:
REMARK  status: ('A' for Active; 'I' for Inactive)
REMARK    1  A    between atoms: C_2  and  C_3 
REMARK    2  A    between atoms: C_3  and  C_4 
REMARK    3  A    between atoms: C_4  and  C_5 
REMARK    4  A    between atoms: C_5  and  C_6 
REMARK    5  A    between atoms: C_6  and  C_7 
REMARK    6  A    between atoms: C_7  and  C_8 
REMARK    7  A    between atoms: C_8  and  O_9 
REMARK    8  A    between atoms: O_9  and  C_10 
REMARK    9  A    between atoms: C_10  and  C_11 
REMARK   10  A    between atoms: C_11  and  C_12 
REMARK   11  A    between atoms: C_12  and  C_13 
REMARK   12  A    between atoms: C_13  and  C_14 
REMARK   13  A    between atoms: C_14  and  C_15 
REMARK   14  A    between atoms: C_15  and  C_16 
ROOT
HETATM    1  O   UNL     1     -22.510  -5.312  -6.139  1.00  0.00    -0.391 OA
ENDROOT
BRANCH   1   2
HETATM    2  C   UNL     1     -22.646  -4.402  -7.226  1.00  0.00     0.167 C 
BRANCH   2   3
HETATM    3  C   UNL     1     -21.423  -4.516  -8.120  1.00  0.00     0.026 C 
BRANCH   3   4
HETATM    4  C   UNL     1     -21.848  -4.625  -9.580  1.00  0.00     0.002 C 
BRANCH   4   5
HETATM    5  C   UNL     1     -20.927  -3.824 -10.492  1.00  0.00     0.000 C 
BRANCH   5   6
HETATM    6  C   UNL     1     -21.729  -3.152 -11.605  1.00  0.00     0.000 C 
BRANCH   6   7
HETATM    7  C   UNL     1     -23.224  -3.194 -11.301  1.00  0.00    -0.000 C 
BRANCH   7   8
HETATM    8  C   UNL     1     -24.050  -2.896 -12.550  1.00  0.00    -0.005 C 
HETATM    9  C   UNL     1     -23.163  -2.798 -13.780  1.00  0.00     0.005 C 
ENDBRANCH   7   8
ENDBRANCH   6   7
ENDBRANCH   5   6
ENDBRANCH   4   5
ENDBRANCH   3   4
ENDBRANCH   2   3
ENDBRANCH   1   2
BRANCH   1  10
HETATM   10  C   UNL     1     -21.167  -5.777  -6.047  1.00  0.00     0.167 C 
BRANCH  10  11
HETATM   11  C   UNL     1     -21.080  -6.815  -4.941  1.00  0.00     0.026 C 
BRANCH  11  12
HETATM   12  C   UNL     1     -21.908  -6.373  -3.741  1.00  0.00     0.002 C 
BRANCH  12  13
HETATM   13  C   UNL     1     -21.417  -7.023  -2.453  1.00  0.00     0.000 C 
BRANCH  13  14
HETATM   14  C   UNL     1     -22.282  -6.592  -1.270  1.00  0.00     0.000 C 
BRANCH  14  15
HETATM   15  C   UNL     1     -22.250  -7.638  -0.161  1.00  0.00    -0.000 C 
BRANCH  15  16
HETATM   16  C   UNL     1     -22.137  -9.048  -0.735  1.00  0.00    -0.005 C 
HETATM   17  C   UNL     1     -23.267  -9.932  -0.238  1.00  0.00     0.005 C 
ENDBRANCH  15  16
ENDBRANCH  14  15
ENDBRANCH  13  14
ENDBRANCH  12  13
ENDBRANCH  11  12
ENDBRANCH  10  11
ENDBRANCH   1  10
TORSDOF 14
ENDMDL
MODEL 8
REMARK VINA RESULT:      -5.9      2.775      6.918
REMARK  14 active torsions:
REMARK  status: ('A' for Active; 'I' for Inactive)
REMARK    1  A    between atoms: C_2  and  C_3 
REMARK    2  A    between atoms: C_3  and  C_4 
REMARK    3  A    between atoms: C_4  and  C_5 
REMARK    4  A    between atoms: C_5  and  C_6 
REMARK    5  A    between atoms: C_6  and  C_7 
REMARK    6  A    between atoms: C_7  and  C_8 
REMARK    7  A    between atoms: C_8  and  O_9 
REMARK    8  A    between atoms: O_9  and  C_10 
REMARK    9  A    between atoms: C_10  and  C_11 
REMARK   10  A    between atoms: C_11  and  C_12 
REMARK   11  A    between atoms: C_12  and  C_13 
REMARK   12  A    between atoms: C_13  and  C_14 
REMARK   13  A    between atoms: C_14  and  C_15 
REMARK   14  A    between atoms: C_15  and  C_16 
ROOT
HETATM    1  O   UNL     1     -34.927  -2.553 -15.321  1.00  0.00    -0.391 OA
ENDROOT
BRANCH   1   2
HETATM    2  C   UNL     1     -34.152  -3.733 -15.512  1.00  0.00     0.167 C 
BRANCH   2   3
HETATM    3  C   UNL     1     -33.902  -4.381 -14.161  1.00  0.00     0.026 C 
BRANCH   3   4
HETATM    4  C   UNL     1     -34.256  -3.412 -13.040  1.00  0.00     0.002 C 
BRANCH   4   5
HETATM    5  C   UNL     1     -33.212  -3.436 -11.929  1.00  0.00     0.000 C 
BRANCH   5   6
HETATM    6  C   UNL     1     -33.871  -3.733 -10.583  1.00  0.00     0.000 C 
BRANCH   6   7
HETATM    7  C   UNL     1     -34.826  -4.918 -10.693  1.00  0.00    -0.000 C 
BRANCH   7   8
HETATM    8  C   UNL     1     -34.065  -6.241 -10.694  1.00  0.00    -0.005 C 
HETATM    9  C   UNL     1     -34.801  -7.295  -9.883  1.00  0.00     0.005 C 
ENDBRANCH   7   8
ENDBRANCH   6   7
ENDBRANCH   5   6
ENDBRANCH   4   5
ENDBRANCH   3   4
ENDBRANCH   2   3
ENDBRANCH   1   2
BRANCH   1  10
HETATM   10  C   UNL     1     -34.972  -1.790 -16.522  1.00  0.00     0.167 C 
BRANCH  10  11
HETATM   11  C   UNL     1     -35.727  -0.498 -16.255  1.00  0.00     0.026 C 
BRANCH  11  12
HETATM   12  C   UNL     1     -36.060  -0.381 -14.773  1.00  0.00     0.002 C 
BRANCH  12  13
HETATM   13  C   UNL     1     -35.153   0.624 -14.075  1.00  0.00     0.000 C 
BRANCH  13  14
HETATM   14  C   UNL     1     -34.991   0.267 -12.599  1.00  0.00     0.000 C 
BRANCH  14  15
HETATM   15  C   UNL     1     -36.335  -0.096 -11.974  1.00  0.00    -0.000 C 
BRANCH  15  16
HETATM   16  C   UNL     1     -36.154  -1.036 -10.785  1.00  0.00    -0.005 C 
HETATM   17  C   UNL     1     -36.870  -0.505  -9.556  1.00  0.00     0.005 C 
ENDBRANCH  15  16
ENDBRANCH  14  15
ENDBRANCH  13  14
ENDBRANCH  12  13
ENDBRANCH  11  12
ENDBRANCH  10  11
ENDBRANCH   1  10
TORSDOF 14
ENDMDL
MODEL 9
REMARK VINA RESULT:      -5.9     13.534     16.181
REMARK  14 active torsions:
REMARK  status: ('A' for Active; 'I' for Inactive)
REMARK    1  A    between atoms: C_2  and  C_3 
REMARK    2  A    between atoms: C_3  and  C_4 
REMARK    3  A    between atoms: C_4  and  C_5 
REMARK    4  A    between atoms: C_5  and  C_6 
REMARK    5  A    between atoms: C_6  and  C_7 
REMARK    6  A    between atoms: C_7  and  C_8 
REMARK    7  A    between atoms: C_8  and  O_9 
REMARK    8  A    between atoms: O_9  and  C_10 
REMARK    9  A    between atoms: C_10  and  C_11 
REMARK   10  A    between atoms: C_11  and  C_12 
REMARK   11  A    between atoms: C_12  and  C_13 
REMARK   12  A    between atoms: C_13  and  C_14 
REMARK   13  A    between atoms: C_14  and  C_15 
REMARK   14  A    between atoms: C_15  and  C_16 
ROOT
HETATM    1  O   UNL     1     -22.033  -7.111  -5.010  1.00  0.00    -0.391 OA
ENDROOT
BRANCH   1   2
HETATM    2  C   UNL     1     -21.588  -5.864  -5.533  1.00  0.00     0.167 C 
BRANCH   2   3
HETATM    3  C   UNL     1     -20.437  -6.115  -6.492  1.00  0.00     0.026 C 
BRANCH   3   4
HETATM    4  C   UNL     1     -20.303  -4.951  -7.467  1.00  0.00     0.002 C 
BRANCH   4   5
HETATM    5  C   UNL     1     -21.414  -3.926  -7.270  1.00  0.00     0.000 C 
BRANCH   5   6
HETATM    6  C   UNL     1     -22.252  -3.796  -8.541  1.00  0.00     0.000 C 
BRANCH   6   7
HETATM    7  C   UNL     1     -21.443  -4.198  -9.771  1.00  0.00    -0.000 C 
BRANCH   7   8
HETATM    8  C   UNL     1     -22.353  -4.440 -10.974  1.00  0.00    -0.005 C 
HETATM    9  C   UNL     1     -23.723  -4.925 -10.533  1.00  0.00     0.005 C 
ENDBRANCH   7   8
ENDBRANCH   6   7
ENDBRANCH   5   6
ENDBRANCH   4   5
ENDBRANCH   3   4
ENDBRANCH   2   3
ENDBRANCH   1   2
BRANCH   1  10
HETATM   10  C   UNL     1     -21.416  -7.370  -3.753  1.00  0.00     0.167 C 
BRANCH  10  11
HETATM   11  C   UNL     1     -21.488  -6.113  -2.902  1.00  0.00     0.026 C 
BRANCH  11  12
HETATM   12  C   UNL     1     -22.203  -6.408  -1.589  1.00  0.00     0.002 C 
BRANCH  12  13
HETATM   13  C   UNL     1     -21.667  -7.674  -0.932  1.00  0.00     0.000 C 
BRANCH  13  14
HETATM   14  C   UNL     1     -22.704  -8.266   0.019  1.00  0.00     0.000 C 
BRANCH  14  15
HETATM   15  C   UNL     1     -22.545  -9.779   0.127  1.00  0.00    -0.000 C 
BRANCH  15  16
HETATM   16  C   UNL     1     -23.347 -10.496  -0.957  1.00  0.00    -0.005 C 
HETATM   17  C   UNL     1     -23.863 -11.835  -0.458  1.00  0.00     0.005 C 
ENDBRANCH  15  16
ENDBRANCH  14  15
ENDBRANCH  13  14
ENDBRANCH  12  13
ENDBRANCH  11  12
ENDBRANCH  10  11
ENDBRANCH   1  10
TORSDOF 14
ENDMDL
