MODEL 1
REMARK VINA RESULT:      -7.2      0.000      0.000
REMARK  23 active torsions:
REMARK  status: ('A' for Active; 'I' for Inactive)
REMARK    1  A    between atoms: C_2  and  C_3 
REMARK    2  A    between atoms: C_3  and  C_4 
REMARK    3  A    between atoms: C_4  and  C_5 
REMARK    4  A    between atoms: C_5  and  C_6 
REMARK    5  A    between atoms: C_6  and  C_7 
REMARK    6  A    between atoms: C_7  and  C_8 
REMARK    7  A    between atoms: C_8  and  C_9 
REMARK    8  A    between atoms: C_9  and  C_10 
REMARK    9  A    between atoms: C_10  and  C_11 
REMARK   10  A    between atoms: C_11  and  C_12 
REMARK   11  A    between atoms: C_12  and  C_13 
REMARK   12  A    between atoms: C_13  and  C_14 
REMARK   13  A    between atoms: C_14  and  C_15 
REMARK   14  A    between atoms: C_15  and  C_16 
REMARK   15  A    between atoms: C_16  and  C_17 
REMARK   16  A    between atoms: C_17  and  C_18 
REMARK   17  A    between atoms: C_18  and  O_20 
REMARK   18  A    between atoms: O_20  and  C_21 
REMARK   19  A    between atoms: C_21  and  C_22 
REMARK   20  A    between atoms: C_22  and  C_23 
REMARK   21  A    between atoms: C_22  and  O_30 
REMARK   22  A    between atoms: C_24  and  O_29 
REMARK   23  A    between atoms: C_25  and  O_28 
ROOT
HETATM    1  C   UNL     1     -19.969  -5.475  -8.089  1.00  0.00     0.111 C 
ENDROOT
BRANCH   1   2
HETATM    2  C   UNL     1     -19.784  -4.769  -6.749  1.00  0.00     0.010 C 
BRANCH   2   3
HETATM    3  C   UNL     1     -20.836  -5.175  -5.725  1.00  0.00     0.000 C 
BRANCH   3   4
HETATM    4  C   UNL     1     -21.257  -6.626  -5.927  1.00  0.00     0.000 C 
BRANCH   4   5
HETATM    5  C   UNL     1     -21.222  -7.377  -4.613  1.00  0.00     0.000 C 
BRANCH   5   6
HETATM    6  C   UNL     1     -21.681  -6.474  -3.484  1.00  0.00     0.000 C 
BRANCH   6   7
HETATM    7  C   UNL     1     -21.307  -7.089  -2.147  1.00  0.00     0.000 C 
BRANCH   7   8
HETATM    8  C   UNL     1     -22.343  -6.720  -1.101  1.00  0.00     0.000 C 
BRANCH   8   9
HETATM    9  C   UNL     1     -22.450  -7.825  -0.068  1.00  0.00     0.000 C 
BRANCH   9  10
HETATM   10  C   UNL     1     -21.084  -8.443   0.171  1.00  0.00     0.000 C 
BRANCH  10  11
HETATM   11  C   UNL     1     -21.219  -9.662   1.066  1.00  0.00     0.000 C 
BRANCH  11  12
HETATM   12  C   UNL     1     -20.603 -10.871   0.386  1.00  0.00     0.000 C 
BRANCH  12  13
HETATM   13  C   UNL     1     -20.575 -10.662  -1.118  1.00  0.00     0.000 C 
BRANCH  13  14
HETATM   14  C   UNL     1     -21.538 -11.623  -1.794  1.00  0.00     0.000 C 
BRANCH  14  15
HETATM   15  C   UNL     1     -22.815 -10.895  -2.181  1.00  0.00    -0.000 C 
BRANCH  15  16
HETATM   16  C   UNL     1     -23.901 -11.139  -1.143  1.00  0.00    -0.005 C 
HETATM   17  C   UNL     1     -23.838 -12.568  -0.643  1.00  0.00     0.005 C 
ENDBRANCH  15  16
ENDBRANCH  14  15
ENDBRANCH  13  14
ENDBRANCH  12  13
ENDBRANCH  11  12
ENDBRANCH  10  11
ENDBRANCH   9  10
ENDBRANCH   8   9
ENDBRANCH   7   8
ENDBRANCH   6   7
ENDBRANCH   5   6
ENDBRANCH   4   5
ENDBRANCH   3   4
ENDBRANCH   2   3
ENDBRANCH   1   2
BRANCH   1  18
HETATM   18  C   UNL     1     -20.597  -4.537  -9.084  1.00  0.00     0.258 C 
HETATM   19  O   UNL     1     -20.039  -3.507  -9.461  1.00  0.00    -0.265 OA
BRANCH  18  20
HETATM   20  O   UNL     1     -21.853  -4.944  -9.429  1.00  0.00    -0.319 OA
BRANCH  20  21
HETATM   21  C   UNL     1     -22.958  -4.276  -8.769  1.00  0.00     0.213 C 
BRANCH  21  22
HETATM   22  C   UNL     1     -23.587  -3.163  -9.609  1.00  0.00     0.174 C 
BRANCH  22  23
HETATM   23  C   UNL     1     -23.634  -3.518 -11.097  1.00  0.00     0.183 C 
HETATM   24  C   UNL     1     -22.585  -2.745 -11.904  1.00  0.00     0.180 C 
HETATM   25  C   UNL     1     -23.244  -2.518 -13.262  1.00  0.00     0.173 C 
HETATM   26  C   UNL     1     -24.629  -3.139 -13.124  1.00  0.00     0.202 C 
HETATM   27  O   UNL     1     -24.903  -3.196 -11.719  1.00  0.00    -0.378 OA
BRANCH  24  28
HETATM   28  O   UNL     1     -21.341  -3.426 -12.002  1.00  0.00    -0.390 OA
HETATM   29  H   UNL     1     -21.357  -4.022 -12.776  1.00  0.00     0.210 HD
ENDBRANCH  24  28
BRANCH  25  30
HETATM   30  O   UNL     1     -22.511  -3.055 -14.363  1.00  0.00    -0.391 OA
HETATM   31  H   UNL     1     -21.981  -2.342 -14.764  1.00  0.00     0.210 HD
ENDBRANCH  25  30
ENDBRANCH  22  23
BRANCH  22  32
HETATM   32  O   UNL     1     -24.891  -2.803  -9.133  1.00  0.00    -0.391 OA
HETATM   33  H   UNL     1     -25.513  -3.019  -9.837  1.00  0.00     0.210 HD
ENDBRANCH  22  32
ENDBRANCH  21  22
ENDBRANCH  20  21
ENDBRANCH  18  20
ENDBRANCH   1  18
TORSDOF 23
ENDMDL
MODEL 2
REMARK VINA RESULT:      -7.1      1.925      3.769
REMARK  23 active torsions:
REMARK  status: ('A' for Active; 'I' for Inactive)
REMARK    1  A    between atoms: C_2  and  C_3 
REMARK    2  A    between atoms: C_3  and  C_4 
REMARK    3  A    between atoms: C_4  and  C_5 
REMARK    4  A    between atoms: C_5  and  C_6 
REMARK    5  A    between atoms: C_6  and  C_7 
REMARK    6  A    between atoms: C_7  and  C_8 
REMARK    7  A    between atoms: C_8  and  C_9 
REMARK    8  A    between atoms: C_9  and  C_10 
REMARK    9  A    between atoms: C_10  and  C_11 
REMARK   10  A    between atoms: C_11  and  C_12 
REMARK   11  A    between atoms: C_12  and  C_13 
REMARK   12  A    between atoms: C_13  and  C_14 
REMARK   13  A    between atoms: C_14  and  C_15 
REMARK   14  A    between atoms: C_15  and  C_16 
REMARK   15  A    between atoms: C_16  and  C_17 
REMARK   16  A    between atoms: C_17  and  C_18 
REMARK   17  A    between atoms: C_18  and  O_20 
REMARK   18  A    between atoms: O_20  and  C_21 
REMARK   19  A    between atoms: C_21  and  C_22 
REMARK   20  A    between atoms: C_22  and  C_23 
REMARK   21  A    between atoms: C_22  and  O_30 
REMARK   22  A    between atoms: C_24  and  O_29 
REMARK   23  A    between atoms: C_25  and  O_28 
ROOT
HETATM    1  C   UNL     1     -20.770  -6.670  -5.338  1.00  0.00     0.111 C 
ENDROOT
BRANCH   1   2
HETATM    2  C   UNL     1     -21.488  -7.500  -4.279  1.00  0.00     0.010 C 
BRANCH   2   3
HETATM    3  C   UNL     1     -21.007  -7.191  -2.869  1.00  0.00     0.000 C 
BRANCH   3   4
HETATM    4  C   UNL     1     -22.059  -6.402  -2.098  1.00  0.00     0.000 C 
BRANCH   4   5
HETATM    5  C   UNL     1     -22.396  -7.096  -0.795  1.00  0.00     0.000 C 
BRANCH   5   6
HETATM    6  C   UNL     1     -21.274  -8.039  -0.402  1.00  0.00     0.000 C 
BRANCH   6   7
HETATM    7  C   UNL     1     -21.842  -9.233   0.345  1.00  0.00     0.000 C 
BRANCH   7   8
HETATM    8  C   UNL     1     -23.223  -9.566  -0.189  1.00  0.00     0.000 C 
BRANCH   8   9
HETATM    9  C   UNL     1     -23.478 -11.056  -0.065  1.00  0.00     0.000 C 
BRANCH   9  10
HETATM   10  C   UNL     1     -22.939 -11.776  -1.288  1.00  0.00     0.000 C 
BRANCH  10  11
HETATM   11  C   UNL     1     -23.081 -10.891  -2.513  1.00  0.00     0.000 C 
BRANCH  11  12
HETATM   12  C   UNL     1     -21.941 -11.159  -3.479  1.00  0.00     0.000 C 
BRANCH  12  13
HETATM   13  C   UNL     1     -20.613 -10.836  -2.815  1.00  0.00     0.000 C 
BRANCH  13  14
HETATM   14  C   UNL     1     -19.508 -10.801  -3.856  1.00  0.00     0.000 C 
BRANCH  14  15
HETATM   15  C   UNL     1     -18.510  -9.705  -3.521  1.00  0.00    -0.000 C 
BRANCH  15  16
HETATM   16  C   UNL     1     -17.408 -10.247  -2.622  1.00  0.00    -0.005 C 
HETATM   17  C   UNL     1     -16.128  -9.461  -2.826  1.00  0.00     0.005 C 
ENDBRANCH  15  16
ENDBRANCH  14  15
ENDBRANCH  13  14
ENDBRANCH  12  13
ENDBRANCH  11  12
ENDBRANCH  10  11
ENDBRANCH   9  10
ENDBRANCH   8   9
ENDBRANCH   7   8
ENDBRANCH   6   7
ENDBRANCH   5   6
ENDBRANCH   4   5
ENDBRANCH   3   4
ENDBRANCH   2   3
ENDBRANCH   1   2
BRANCH   1  18
HETATM   18  C   UNL     1     -21.730  -5.703  -5.976  1.00  0.00     0.258 C 
HETATM   19  O   UNL     1     -22.909  -5.623  -5.633  1.00  0.00    -0.265 OA
BRANCH  18  20
HETATM   20  O   UNL     1     -21.141  -5.015  -6.997  1.00  0.00    -0.319 OA
BRANCH  20  21
HETATM   21  C   UNL     1     -21.832  -5.026  -8.272  1.00  0.00     0.213 C 
BRANCH  21  22
HETATM   22  C   UNL     1     -22.789  -3.847  -8.457  1.00  0.00     0.174 C 
BRANCH  22  23
HETATM   23  C   UNL     1     -22.869  -3.390  -9.915  1.00  0.00     0.183 C 
HETATM   24  C   UNL     1     -24.087  -3.979 -10.635  1.00  0.00     0.180 C 
HETATM   25  C   UNL     1     -23.618  -4.175 -12.074  1.00  0.00     0.173 C 
HETATM   26  C   UNL     1     -22.162  -3.723 -12.067  1.00  0.00     0.202 C 
HETATM   27  O   UNL     1     -21.726  -3.802 -10.705  1.00  0.00    -0.378 OA
BRANCH  24  28
HETATM   28  O   UNL     1     -25.244  -3.159 -10.539  1.00  0.00    -0.390 OA
HETATM   29  H   UNL     1     -25.029  -2.257 -10.845  1.00  0.00     0.210 HD
ENDBRANCH  24  28
BRANCH  25  30
HETATM   30  O   UNL     1     -24.402  -3.480 -13.043  1.00  0.00    -0.391 OA
HETATM   31  H   UNL     1     -23.808  -3.122 -13.727  1.00  0.00     0.210 HD
ENDBRANCH  25  30
ENDBRANCH  22  23
BRANCH  22  32
HETATM   32  O   UNL     1     -24.097  -4.132  -7.943  1.00  0.00    -0.391 OA
HETATM   33  H   UNL     1     -24.055  -4.008  -6.988  1.00  0.00     0.210 HD
ENDBRANCH  22  32
ENDBRANCH  21  22
ENDBRANCH  20  21
ENDBRANCH  18  20
ENDBRANCH   1  18
TORSDOF 23
ENDMDL
MODEL 3
REMARK VINA RESULT:      -6.9      1.442      3.052
REMARK  23 active torsions:
REMARK  status: ('A' for Active; 'I' for Inactive)
REMARK    1  A    between atoms: C_2  and  C_3 
REMARK    2  A    between atoms: C_3  and  C_4 
REMARK    3  A    between atoms: C_4  and  C_5 
REMARK    4  A    between atoms: C_5  and  C_6 
REMARK    5  A    between atoms: C_6  and  C_7 
REMARK    6  A    between atoms: C_7  and  C_8 
REMARK    7  A    between atoms: C_8  and  C_9 
REMARK    8  A    between atoms: C_9  and  C_10 
REMARK    9  A    between atoms: C_10  and  C_11 
REMARK   10  A    between atoms: C_11  and  C_12 
REMARK   11  A    between atoms: C_12  and  C_13 
REMARK   12  A    between atoms: C_13  and  C_14 
REMARK   13  A    between atoms: C_14  and  C_15 
REMARK   14  A    between atoms: C_15  and  C_16 
REMARK   15  A    between atoms: C_16  and  C_17 
REMARK   16  A    between atoms: C_17  and  C_18 
REMARK   17  A    between atoms: C_18  and  O_20 
REMARK   18  A    between atoms: O_20  and  C_21 
REMARK   19  A    between atoms: C_21  and  C_22 
REMARK   20  A    between atoms: C_22  and  C_23 
REMARK   21  A    between atoms: C_22  and  O_30 
REMARK   22  A    between atoms: C_24  and  O_29 
REMARK   23  A    between atoms: C_25  and  O_28 
ROOT
HETATM    1  C   UNL     1     -19.891  -4.943  -6.888  1.00  0.00     0.111 C 
ENDROOT
BRANCH   1   2
HETATM    2  C   UNL     1     -20.072  -4.711  -5.391  1.00  0.00     0.010 C 
BRANCH   2   3
HETATM    3  C   UNL     1     -21.013  -5.724  -4.754  1.00  0.00     0.000 C 
BRANCH   3   4
HETATM    4  C   UNL     1     -20.663  -7.141  -5.194  1.00  0.00     0.000 C 
BRANCH   4   5
HETATM    5  C   UNL     1     -21.761  -8.106  -4.803  1.00  0.00     0.000 C 
BRANCH   5   6
HETATM    6  C   UNL     1     -21.255  -9.071  -3.746  1.00  0.00     0.000 C 
BRANCH   6   7
HETATM    7  C   UNL     1     -19.757  -9.264  -3.900  1.00  0.00     0.000 C 
BRANCH   7   8
HETATM    8  C   UNL     1     -19.094  -9.264  -2.535  1.00  0.00     0.000 C 
BRANCH   8   9
HETATM    9  C   UNL     1     -18.721 -10.682  -2.144  1.00  0.00     0.000 C 
BRANCH   9  10
HETATM   10  C   UNL     1     -19.580 -11.140  -0.979  1.00  0.00     0.000 C 
BRANCH  10  11
HETATM   11  C   UNL     1     -20.694 -12.040  -1.483  1.00  0.00     0.000 C 
BRANCH  11  12
HETATM   12  C   UNL     1     -22.019 -11.607  -0.880  1.00  0.00     0.000 C 
BRANCH  12  13
HETATM   13  C   UNL     1     -21.891 -10.211  -0.295  1.00  0.00     0.000 C 
BRANCH  13  14
HETATM   14  C   UNL     1     -23.262  -9.678   0.079  1.00  0.00     0.000 C 
BRANCH  14  15
HETATM   15  C   UNL     1     -23.203  -8.170   0.263  1.00  0.00    -0.000 C 
BRANCH  15  16
HETATM   16  C   UNL     1     -21.934  -7.609  -0.362  1.00  0.00    -0.005 C 
HETATM   17  C   UNL     1     -22.275  -6.512  -1.351  1.00  0.00     0.005 C 
ENDBRANCH  15  16
ENDBRANCH  14  15
ENDBRANCH  13  14
ENDBRANCH  12  13
ENDBRANCH  11  12
ENDBRANCH  10  11
ENDBRANCH   9  10
ENDBRANCH   8   9
ENDBRANCH   7   8
ENDBRANCH   6   7
ENDBRANCH   5   6
ENDBRANCH   4   5
ENDBRANCH   3   4
ENDBRANCH   2   3
ENDBRANCH   1   2
BRANCH   1  18
HETATM   18  C   UNL     1     -20.574  -3.852  -7.667  1.00  0.00     0.258 C 
HETATM   19  O   UNL     1     -21.579  -3.276  -7.250  1.00  0.00    -0.265 OA
BRANCH  18  20
HETATM   20  O   UNL     1     -19.982  -3.660  -8.881  1.00  0.00    -0.319 OA
BRANCH  20  21
HETATM   21  C   UNL     1     -20.163  -4.709  -9.866  1.00  0.00     0.213 C 
BRANCH  21  22
HETATM   22  C   UNL     1     -20.494  -4.182 -11.263  1.00  0.00     0.174 C 
BRANCH  22  23
HETATM   23  C   UNL     1     -21.980  -4.331 -11.601  1.00  0.00     0.183 C 
HETATM   24  C   UNL     1     -22.530  -3.098 -12.326  1.00  0.00     0.180 C 
HETATM   25  C   UNL     1     -23.976  -2.992 -11.850  1.00  0.00     0.173 C 
HETATM   26  C   UNL     1     -24.138  -4.142 -10.862  1.00  0.00     0.202 C 
HETATM   27  O   UNL     1     -22.817  -4.486 -10.428  1.00  0.00    -0.378 OA
BRANCH  24  28
HETATM   28  O   UNL     1     -22.420  -3.186 -13.741  1.00  0.00    -0.390 OA
HETATM   29  H   UNL     1     -23.298  -3.039 -14.143  1.00  0.00     0.210 HD
ENDBRANCH  24  28
BRANCH  25  30
HETATM   30  O   UNL     1     -24.941  -3.033 -12.901  1.00  0.00    -0.391 OA
HETATM   31  H   UNL     1     -25.545  -2.276 -12.800  1.00  0.00     0.210 HD
ENDBRANCH  25  30
ENDBRANCH  22  23
BRANCH  22  32
HETATM   32  O   UNL     1     -20.070  -2.823 -11.439  1.00  0.00    -0.391 OA
HETATM   33  H   UNL     1     -20.133  -2.398 -10.577  1.00  0.00     0.210 HD
ENDBRANCH  22  32
ENDBRANCH  21  22
ENDBRANCH  20  21
ENDBRANCH  18  20
ENDBRANCH   1  18
TORSDOF 23
ENDMDL
MODEL 4
REMARK VINA RESULT:      -6.8      1.419      2.965
REMARK  23 active torsions:
REMARK  status: ('A' for Active; 'I' for Inactive)
REMARK    1  A    between atoms: C_2  and  C_3 
REMARK    2  A    between atoms: C_3  and  C_4 
REMARK    3  A    between atoms: C_4  and  C_5 
REMARK    4  A    between atoms: C_5  and  C_6 
REMARK    5  A    between atoms: C_6  and  C_7 
REMARK    6  A    between atoms: C_7  and  C_8 
REMARK    7  A    between atoms: C_8  and  C_9 
REMARK    8  A    between atoms: C_9  and  C_10 
REMARK    9  A    between atoms: C_10  and  C_11 
REMARK   10  A    between atoms: C_11  and  C_12 
REMARK   11  A    between atoms: C_12  and  C_13 
REMARK   12  A    between atoms: C_13  and  C_14 
REMARK   13  A    between atoms: C_14  and  C_15 
REMARK   14  A    between atoms: C_15  and  C_16 
REMARK   15  A    between atoms: C_16  and  C_17 
REMARK   16  A    between atoms: C_17  and  C_18 
REMARK   17  A    between atoms: C_18  and  O_20 
REMARK   18  A    between atoms: O_20  and  C_21 
REMARK   19  A    between atoms: C_21  and  C_22 
REMARK   20  A    between atoms: C_22  and  C_23 
REMARK   21  A    between atoms: C_22  and  O_30 
REMARK   22  A    between atoms: C_24  and  O_29 
REMARK   23  A    between atoms: C_25  and  O_28 
ROOT
HETATM    1  C   UNL     1     -20.307  -5.465  -6.044  1.00  0.00     0.111 C 
ENDROOT
BRANCH   1   2
HETATM    2  C   UNL     1     -21.279  -5.908  -4.956  1.00  0.00     0.010 C 
BRANCH   2   3
HETATM    3  C   UNL     1     -21.571  -7.401  -5.006  1.00  0.00     0.000 C 
BRANCH   3   4
HETATM    4  C   UNL     1     -21.076  -8.092  -3.741  1.00  0.00     0.000 C 
BRANCH   4   5
HETATM    5  C   UNL     1     -21.260  -7.193  -2.536  1.00  0.00     0.000 C 
BRANCH   5   6
HETATM    6  C   UNL     1     -21.312  -8.025  -1.268  1.00  0.00     0.000 C 
BRANCH   6   7
HETATM    7  C   UNL     1     -22.243  -7.373  -0.262  1.00  0.00     0.000 C 
BRANCH   7   8
HETATM    8  C   UNL     1     -23.213  -8.403   0.287  1.00  0.00     0.000 C 
BRANCH   8   9
HETATM    9  C   UNL     1     -23.156  -9.664  -0.553  1.00  0.00     0.000 C 
BRANCH   9  10
HETATM   10  C   UNL     1     -24.071 -10.721   0.039  1.00  0.00     0.000 C 
BRANCH  10  11
HETATM   11  C   UNL     1     -23.545 -12.105  -0.297  1.00  0.00     0.000 C 
BRANCH  11  12
HETATM   12  C   UNL     1     -23.330 -12.899   0.979  1.00  0.00     0.000 C 
BRANCH  12  13
HETATM   13  C   UNL     1     -22.128 -13.815   0.823  1.00  0.00     0.000 C 
BRANCH  13  14
HETATM   14  C   UNL     1     -21.267 -13.349  -0.337  1.00  0.00     0.000 C 
BRANCH  14  15
HETATM   15  C   UNL     1     -19.944 -12.808   0.180  1.00  0.00    -0.000 C 
BRANCH  15  16
HETATM   16  C   UNL     1     -19.869 -11.302  -0.026  1.00  0.00    -0.005 C 
HETATM   17  C   UNL     1     -20.320 -10.577   1.227  1.00  0.00     0.005 C 
ENDBRANCH  15  16
ENDBRANCH  14  15
ENDBRANCH  13  14
ENDBRANCH  12  13
ENDBRANCH  11  12
ENDBRANCH  10  11
ENDBRANCH   9  10
ENDBRANCH   8   9
ENDBRANCH   7   8
ENDBRANCH   6   7
ENDBRANCH   5   6
ENDBRANCH   4   5
ENDBRANCH   3   4
ENDBRANCH   2   3
ENDBRANCH   1   2
BRANCH   1  18
HETATM   18  C   UNL     1     -21.064  -4.906  -7.218  1.00  0.00     0.258 C 
HETATM   19  O   UNL     1     -22.223  -4.504  -7.122  1.00  0.00    -0.265 OA
BRANCH  18  20
HETATM   20  O   UNL     1     -20.331  -4.982  -8.366  1.00  0.00    -0.319 OA
BRANCH  20  21
HETATM   21  C   UNL     1     -20.562  -3.946  -9.355  1.00  0.00     0.213 C 
BRANCH  21  22
HETATM   22  C   UNL     1     -20.686  -4.482 -10.782  1.00  0.00     0.174 C 
BRANCH  22  23
HETATM   23  C   UNL     1     -22.130  -4.453 -11.288  1.00  0.00     0.183 C 
HETATM   24  C   UNL     1     -22.418  -3.205 -12.128  1.00  0.00     0.180 C 
HETATM   25  C   UNL     1     -23.880  -2.878 -11.834  1.00  0.00     0.173 C 
HETATM   26  C   UNL     1     -24.311  -3.933 -10.822  1.00  0.00     0.202 C 
HETATM   27  O   UNL     1     -23.107  -4.423 -10.218  1.00  0.00    -0.378 OA
BRANCH  24  28
HETATM   28  O   UNL     1     -22.163  -3.393 -13.514  1.00  0.00    -0.390 OA
HETATM   29  H   UNL     1     -21.527  -2.718 -13.821  1.00  0.00     0.210 HD
ENDBRANCH  24  28
BRANCH  25  30
HETATM   30  O   UNL     1     -24.716  -2.855 -12.990  1.00  0.00    -0.391 OA
HETATM   31  H   UNL     1     -25.462  -3.466 -12.849  1.00  0.00     0.210 HD
ENDBRANCH  25  30
ENDBRANCH  22  23
BRANCH  22  32
HETATM   32  O   UNL     1     -19.817  -3.794 -11.692  1.00  0.00    -0.391 OA
HETATM   33  H   UNL     1     -19.213  -3.268 -11.156  1.00  0.00     0.210 HD
ENDBRANCH  22  32
ENDBRANCH  21  22
ENDBRANCH  20  21
ENDBRANCH  18  20
ENDBRANCH   1  18
TORSDOF 23
ENDMDL
MODEL 5
REMARK VINA RESULT:      -6.8      1.906      2.917
REMARK  23 active torsions:
REMARK  status: ('A' for Active; 'I' for Inactive)
REMARK    1  A    between atoms: C_2  and  C_3 
REMARK    2  A    between atoms: C_3  and  C_4 
REMARK    3  A    between atoms: C_4  and  C_5 
REMARK    4  A    between atoms: C_5  and  C_6 
REMARK    5  A    between atoms: C_6  and  C_7 
REMARK    6  A    between atoms: C_7  and  C_8 
REMARK    7  A    between atoms: C_8  and  C_9 
REMARK    8  A    between atoms: C_9  and  C_10 
REMARK    9  A    between atoms: C_10  and  C_11 
REMARK   10  A    between atoms: C_11  and  C_12 
REMARK   11  A    between atoms: C_12  and  C_13 
REMARK   12  A    between atoms: C_13  and  C_14 
REMARK   13  A    between atoms: C_14  and  C_15 
REMARK   14  A    between atoms: C_15  and  C_16 
REMARK   15  A    between atoms: C_16  and  C_17 
REMARK   16  A    between atoms: C_17  and  C_18 
REMARK   17  A    between atoms: C_18  and  O_20 
REMARK   18  A    between atoms: O_20  and  C_21 
REMARK   19  A    between atoms: C_21  and  C_22 
REMARK   20  A    between atoms: C_22  and  C_23 
REMARK   21  A    between atoms: C_22  and  O_30 
REMARK   22  A    between atoms: C_24  and  O_29 
REMARK   23  A    between atoms: C_25  and  O_28 
ROOT
HETATM    1  C   UNL     1     -21.211  -5.557  -5.525  1.00  0.00     0.111 C 
ENDROOT
BRANCH   1   2
HETATM    2  C   UNL     1     -21.637  -6.978  -5.170  1.00  0.00     0.010 C 
BRANCH   2   3
HETATM    3  C   UNL     1     -20.644  -7.672  -4.248  1.00  0.00     0.000 C 
BRANCH   3   4
HETATM    4  C   UNL     1     -21.297  -8.027  -2.918  1.00  0.00     0.000 C 
BRANCH   4   5
HETATM    5  C   UNL     1     -21.878  -6.791  -2.263  1.00  0.00     0.000 C 
BRANCH   5   6
HETATM    6  C   UNL     1     -22.268  -7.096  -0.828  1.00  0.00     0.000 C 
BRANCH   6   7
HETATM    7  C   UNL     1     -21.333  -8.144  -0.252  1.00  0.00     0.000 C 
BRANCH   7   8
HETATM    8  C   UNL     1     -22.071  -8.988   0.770  1.00  0.00     0.000 C 
BRANCH   8   9
HETATM    9  C   UNL     1     -23.443  -9.359   0.239  1.00  0.00     0.000 C 
BRANCH   9  10
HETATM   10  C   UNL     1     -23.482 -10.837  -0.104  1.00  0.00     0.000 C 
BRANCH  10  11
HETATM   11  C   UNL     1     -23.743 -11.015  -1.589  1.00  0.00     0.000 C 
BRANCH  11  12
HETATM   12  C   UNL     1     -22.473 -11.475  -2.284  1.00  0.00     0.000 C 
BRANCH  12  13
HETATM   13  C   UNL     1     -22.630 -11.344  -3.789  1.00  0.00     0.000 C 
BRANCH  13  14
HETATM   14  C   UNL     1     -21.336 -11.735  -4.481  1.00  0.00     0.000 C 
BRANCH  14  15
HETATM   15  C   UNL     1     -21.275 -11.109  -5.865  1.00  0.00    -0.000 C 
BRANCH  15  16
HETATM   16  C   UNL     1     -20.640 -12.074  -6.856  1.00  0.00    -0.005 C 
HETATM   17  C   UNL     1     -21.350 -13.413  -6.814  1.00  0.00     0.005 C 
ENDBRANCH  15  16
ENDBRANCH  14  15
ENDBRANCH  13  14
ENDBRANCH  12  13
ENDBRANCH  11  12
ENDBRANCH  10  11
ENDBRANCH   9  10
ENDBRANCH   8   9
ENDBRANCH   7   8
ENDBRANCH   6   7
ENDBRANCH   5   6
ENDBRANCH   4   5
ENDBRANCH   3   4
ENDBRANCH   2   3
ENDBRANCH   1   2
BRANCH   1  18
HETATM   18  C   UNL     1     -20.925  -5.456  -6.999  1.00  0.00     0.258 C 
HETATM   19  O   UNL     1     -20.107  -6.184  -7.562  1.00  0.00    -0.265 OA
BRANCH  18  20
HETATM   20  O   UNL     1     -21.620  -4.432  -7.573  1.00  0.00    -0.319 OA
BRANCH  20  21
HETATM   21  C   UNL     1     -21.974  -4.589  -8.971  1.00  0.00     0.213 C 
BRANCH  21  22
HETATM   22  C   UNL     1     -23.043  -3.603  -9.443  1.00  0.00     0.174 C 
BRANCH  22  23
HETATM   23  C   UNL     1     -23.350  -3.752 -10.935  1.00  0.00     0.183 C 
HETATM   24  C   UNL     1     -22.334  -3.008 -11.807  1.00  0.00     0.180 C 
HETATM   25  C   UNL     1     -23.143  -2.530 -13.010  1.00  0.00     0.173 C 
HETATM   26  C   UNL     1     -24.565  -2.998 -12.723  1.00  0.00     0.202 C 
HETATM   27  O   UNL     1     -24.640  -3.206 -11.307  1.00  0.00    -0.378 OA
BRANCH  24  28
HETATM   28  O   UNL     1     -21.219  -3.810 -12.176  1.00  0.00    -0.390 OA
HETATM   29  H   UNL     1     -21.266  -4.666 -11.707  1.00  0.00     0.210 HD
ENDBRANCH  24  28
BRANCH  25  30
HETATM   30  O   UNL     1     -22.655  -3.000 -14.266  1.00  0.00    -0.391 OA
HETATM   31  H   UNL     1     -22.968  -3.912 -14.401  1.00  0.00     0.210 HD
ENDBRANCH  25  30
ENDBRANCH  22  23
BRANCH  22  32
HETATM   32  O   UNL     1     -24.245  -3.701  -8.667  1.00  0.00    -0.391 OA
HETATM   33  H   UNL     1     -24.185  -4.521  -8.164  1.00  0.00     0.210 HD
ENDBRANCH  22  32
ENDBRANCH  21  22
ENDBRANCH  20  21
ENDBRANCH  18  20
ENDBRANCH   1  18
TORSDOF 23
ENDMDL
MODEL 6
REMARK VINA RESULT:      -6.7      1.185      2.066
REMARK  23 active torsions:
REMARK  status: ('A' for Active; 'I' for Inactive)
REMARK    1  A    between atoms: C_2  and  C_3 
REMARK    2  A    between atoms: C_3  and  C_4 
REMARK    3  A    between atoms: C_4  and  C_5 
REMARK    4  A    between atoms: C_5  and  C_6 
REMARK    5  A    between atoms: C_6  and  C_7 
REMARK    6  A    between atoms: C_7  and  C_8 
REMARK    7  A    between atoms: C_8  and  C_9 
REMARK    8  A    between atoms: C_9  and  C_10 
REMARK    9  A    between atoms: C_10  and  C_11 
REMARK   10  A    between atoms: C_11  and  C_12 
REMARK   11  A    between atoms: C_12  and  C_13 
REMARK   12  A    between atoms: C_13  and  C_14 
REMARK   13  A    between atoms: C_14  and  C_15 
REMARK   14  A    between atoms: C_15  and  C_16 
REMARK   15  A    between atoms: C_16  and  C_17 
REMARK   16  A    between atoms: C_17  and  C_18 
REMARK   17  A    between atoms: C_18  and  O_20 
REMARK   18  A    between atoms: O_20  and  C_21 
REMARK   19  A    between atoms: C_21  and  C_22 
REMARK   20  A    between atoms: C_22  and  C_23 
REMARK   21  A    between atoms: C_22  and  O_30 
REMARK   22  A    between atoms: C_24  and  O_29 
REMARK   23  A    between atoms: C_25  and  O_28 
ROOT
HETATM    1  C   UNL     1     -21.194  -5.659  -7.627  1.00  0.00     0.111 C 
ENDROOT
BRANCH   1   2
HETATM    2  C   UNL     1     -21.606  -5.734  -6.160  1.00  0.00     0.010 C 
BRANCH   2   3
HETATM    3  C   UNL     1     -20.421  -5.964  -5.231  1.00  0.00     0.000 C 
BRANCH   3   4
HETATM    4  C   UNL     1     -20.191  -7.453  -5.006  1.00  0.00     0.000 C 
BRANCH   4   5
HETATM    5  C   UNL     1     -21.465  -8.125  -4.542  1.00  0.00     0.000 C 
BRANCH   5   6
HETATM    6  C   UNL     1     -21.725  -7.799  -3.083  1.00  0.00     0.000 C 
BRANCH   6   7
HETATM    7  C   UNL     1     -20.536  -8.225  -2.241  1.00  0.00     0.000 C 
BRANCH   7   8
HETATM    8  C   UNL     1     -20.908  -8.197  -0.770  1.00  0.00     0.000 C 
BRANCH   8   9
HETATM    9  C   UNL     1     -22.249  -7.510  -0.591  1.00  0.00     0.000 C 
BRANCH   9  10
HETATM   10  C   UNL     1     -23.119  -8.313   0.358  1.00  0.00     0.000 C 
BRANCH  10  11
HETATM   11  C   UNL     1     -22.778  -9.788   0.247  1.00  0.00     0.000 C 
BRANCH  11  12
HETATM   12  C   UNL     1     -24.027 -10.582  -0.089  1.00  0.00     0.000 C 
BRANCH  12  13
HETATM   13  C   UNL     1     -23.699 -11.655  -1.113  1.00  0.00     0.000 C 
BRANCH  13  14
HETATM   14  C   UNL     1     -23.089 -11.021  -2.351  1.00  0.00     0.000 C 
BRANCH  14  15
HETATM   15  C   UNL     1     -21.930 -11.867  -2.853  1.00  0.00    -0.000 C 
BRANCH  15  16
HETATM   16  C   UNL     1     -21.248 -12.576  -1.691  1.00  0.00    -0.005 C 
HETATM   17  C   UNL     1     -20.033 -11.790  -1.236  1.00  0.00     0.005 C 
ENDBRANCH  15  16
ENDBRANCH  14  15
ENDBRANCH  13  14
ENDBRANCH  12  13
ENDBRANCH  11  12
ENDBRANCH  10  11
ENDBRANCH   9  10
ENDBRANCH   8   9
ENDBRANCH   7   8
ENDBRANCH   6   7
ENDBRANCH   5   6
ENDBRANCH   4   5
ENDBRANCH   3   4
ENDBRANCH   2   3
ENDBRANCH   1   2
BRANCH   1  18
HETATM   18  C   UNL     1     -21.072  -4.222  -8.056  1.00  0.00     0.258 C 
HETATM   19  O   UNL     1     -19.983  -3.682  -8.247  1.00  0.00    -0.265 OA
BRANCH  18  20
HETATM   20  O   UNL     1     -22.293  -3.616  -8.123  1.00  0.00    -0.319 OA
BRANCH  20  21
HETATM   21  C   UNL     1     -23.282  -4.239  -8.981  1.00  0.00     0.213 C 
BRANCH  21  22
HETATM   22  C   UNL     1     -24.172  -3.234  -9.714  1.00  0.00     0.174 C 
BRANCH  22  23
HETATM   23  C   UNL     1     -23.626  -2.881 -11.100  1.00  0.00     0.183 C 
HETATM   24  C   UNL     1     -24.401  -3.586 -12.218  1.00  0.00     0.180 C 
HETATM   25  C   UNL     1     -23.355  -3.851 -13.297  1.00  0.00     0.173 C 
HETATM   26  C   UNL     1     -22.054  -3.318 -12.706  1.00  0.00     0.202 C 
HETATM   27  O   UNL     1     -22.246  -3.280 -11.287  1.00  0.00    -0.378 OA
BRANCH  24  28
HETATM   28  O   UNL     1     -25.506  -2.828 -12.697  1.00  0.00    -0.390 OA
HETATM   29  H   UNL     1     -25.240  -2.340 -13.500  1.00  0.00     0.210 HD
ENDBRANCH  24  28
BRANCH  25  30
HETATM   30  O   UNL     1     -23.660  -3.268 -14.563  1.00  0.00    -0.391 OA
HETATM   31  H   UNL     1     -24.313  -2.557 -14.430  1.00  0.00     0.210 HD
ENDBRANCH  25  30
ENDBRANCH  22  23
BRANCH  22  32
HETATM   32  O   UNL     1     -25.530  -3.686  -9.806  1.00  0.00    -0.391 OA
HETATM   33  H   UNL     1     -25.758  -4.058  -8.946  1.00  0.00     0.210 HD
ENDBRANCH  22  32
ENDBRANCH  21  22
ENDBRANCH  20  21
ENDBRANCH  18  20
ENDBRANCH   1  18
TORSDOF 23
ENDMDL
MODEL 7
REMARK VINA RESULT:      -6.7      1.678      3.439
REMARK  23 active torsions:
REMARK  status: ('A' for Active; 'I' for Inactive)
REMARK    1  A    between atoms: C_2  and  C_3 
REMARK    2  A    between atoms: C_3  and  C_4 
REMARK    3  A    between atoms: C_4  and  C_5 
REMARK    4  A    between atoms: C_5  and  C_6 
REMARK    5  A    between atoms: C_6  and  C_7 
REMARK    6  A    between atoms: C_7  and  C_8 
REMARK    7  A    between atoms: C_8  and  C_9 
REMARK    8  A    between atoms: C_9  and  C_10 
REMARK    9  A    between atoms: C_10  and  C_11 
REMARK   10  A    between atoms: C_11  and  C_12 
REMARK   11  A    between atoms: C_12  and  C_13 
REMARK   12  A    between atoms: C_13  and  C_14 
REMARK   13  A    between atoms: C_14  and  C_15 
REMARK   14  A    between atoms: C_15  and  C_16 
REMARK   15  A    between atoms: C_16  and  C_17 
REMARK   16  A    between atoms: C_17  and  C_18 
REMARK   17  A    between atoms: C_18  and  O_20 
REMARK   18  A    between atoms: O_20  and  C_21 
REMARK   19  A    between atoms: C_21  and  C_22 
REMARK   20  A    between atoms: C_22  and  C_23 
REMARK   21  A    between atoms: C_22  and  O_30 
REMARK   22  A    between atoms: C_24  and  O_29 
REMARK   23  A    between atoms: C_25  and  O_28 
ROOT
HETATM    1  C   UNL     1     -20.848  -5.839  -4.489  1.00  0.00     0.111 C 
ENDROOT
BRANCH   1   2
HETATM    2  C   UNL     1     -21.875  -6.636  -3.691  1.00  0.00     0.010 C 
BRANCH   2   3
HETATM    3  C   UNL     1     -21.359  -7.046  -2.319  1.00  0.00     0.000 C 
BRANCH   3   4
HETATM    4  C   UNL     1     -22.264  -6.509  -1.217  1.00  0.00     0.000 C 
BRANCH   4   5
HETATM    5  C   UNL     1     -22.675  -7.622  -0.276  1.00  0.00     0.000 C 
BRANCH   5   6
HETATM    6  C   UNL     1     -21.463  -8.145   0.473  1.00  0.00     0.000 C 
BRANCH   6   7
HETATM    7  C   UNL     1     -21.499  -9.662   0.516  1.00  0.00     0.000 C 
BRANCH   7   8
HETATM    8  C   UNL     1     -20.492 -10.229  -0.467  1.00  0.00     0.000 C 
BRANCH   8   9
HETATM    9  C   UNL     1     -21.165 -11.252  -1.363  1.00  0.00     0.000 C 
BRANCH   9  10
HETATM   10  C   UNL     1     -22.113 -10.555  -2.322  1.00  0.00     0.000 C 
BRANCH  10  11
HETATM   11  C   UNL     1     -23.364 -11.394  -2.510  1.00  0.00     0.000 C 
BRANCH  11  12
HETATM   12  C   UNL     1     -23.819 -11.950  -1.172  1.00  0.00     0.000 C 
BRANCH  12  13
HETATM   13  C   UNL     1     -24.013 -13.453  -1.274  1.00  0.00     0.000 C 
BRANCH  13  14
HETATM   14  C   UNL     1     -23.893 -14.086   0.100  1.00  0.00     0.000 C 
BRANCH  14  15
HETATM   15  C   UNL     1     -23.314 -13.085   1.087  1.00  0.00    -0.000 C 
BRANCH  15  16
HETATM   16  C   UNL     1     -21.993 -13.593   1.646  1.00  0.00    -0.005 C 
HETATM   17  C   UNL     1     -22.238 -14.466   2.861  1.00  0.00     0.005 C 
ENDBRANCH  15  16
ENDBRANCH  14  15
ENDBRANCH  13  14
ENDBRANCH  12  13
ENDBRANCH  11  12
ENDBRANCH  10  11
ENDBRANCH   9  10
ENDBRANCH   8   9
ENDBRANCH   7   8
ENDBRANCH   6   7
ENDBRANCH   5   6
ENDBRANCH   4   5
ENDBRANCH   3   4
ENDBRANCH   2   3
ENDBRANCH   1   2
BRANCH   1  18
HETATM   18  C   UNL     1     -20.928  -6.205  -5.946  1.00  0.00     0.258 C 
HETATM   19  O   UNL     1     -20.141  -6.991  -6.472  1.00  0.00    -0.265 OA
BRANCH  18  20
HETATM   20  O   UNL     1     -21.912  -5.505  -6.582  1.00  0.00    -0.319 OA
BRANCH  20  21
HETATM   21  C   UNL     1     -21.626  -5.062  -7.933  1.00  0.00     0.213 C 
BRANCH  21  22
HETATM   22  C   UNL     1     -22.631  -4.039  -8.464  1.00  0.00     0.174 C 
BRANCH  22  23
HETATM   23  C   UNL     1     -22.863  -4.182  -9.970  1.00  0.00     0.183 C 
HETATM   24  C   UNL     1     -21.793  -3.450 -10.787  1.00  0.00     0.180 C 
HETATM   25  C   UNL     1     -22.533  -2.960 -12.028  1.00  0.00     0.173 C 
HETATM   26  C   UNL     1     -23.974  -3.410 -11.817  1.00  0.00     0.202 C 
HETATM   27  O   UNL     1     -24.125  -3.619 -10.407  1.00  0.00    -0.378 OA
BRANCH  24  28
HETATM   28  O   UNL     1     -20.672  -4.267 -11.100  1.00  0.00    -0.390 OA
HETATM   29  H   UNL     1     -20.007  -4.192 -10.387  1.00  0.00     0.210 HD
ENDBRANCH  24  28
BRANCH  25  30
HETATM   30  O   UNL     1     -21.987  -3.435 -13.259  1.00  0.00    -0.391 OA
HETATM   31  H   UNL     1     -22.696  -3.463 -13.925  1.00  0.00     0.210 HD
ENDBRANCH  25  30
ENDBRANCH  22  23
BRANCH  22  32
HETATM   32  O   UNL     1     -23.876  -4.091  -7.754  1.00  0.00    -0.391 OA
HETATM   33  H   UNL     1     -23.990  -5.001  -7.458  1.00  0.00     0.210 HD
ENDBRANCH  22  32
ENDBRANCH  21  22
ENDBRANCH  20  21
ENDBRANCH  18  20
ENDBRANCH   1  18
TORSDOF 23
ENDMDL
MODEL 8
REMARK VINA RESULT:      -6.7      1.787      3.394
REMARK  23 active torsions:
REMARK  status: ('A' for Active; 'I' for Inactive)
REMARK    1  A    between atoms: C_2  and  C_3 
REMARK    2  A    between atoms: C_3  and  C_4 
REMARK    3  A    between atoms: C_4  and  C_5 
REMARK    4  A    between atoms: C_5  and  C_6 
REMARK    5  A    between atoms: C_6  and  C_7 
REMARK    6  A    between atoms: C_7  and  C_8 
REMARK    7  A    between atoms: C_8  and  C_9 
REMARK    8  A    between atoms: C_9  and  C_10 
REMARK    9  A    between atoms: C_10  and  C_11 
REMARK   10  A    between atoms: C_11  and  C_12 
REMARK   11  A    between atoms: C_12  and  C_13 
REMARK   12  A    between atoms: C_13  and  C_14 
REMARK   13  A    between atoms: C_14  and  C_15 
REMARK   14  A    between atoms: C_15  and  C_16 
REMARK   15  A    between atoms: C_16  and  C_17 
REMARK   16  A    between atoms: C_17  and  C_18 
REMARK   17  A    between atoms: C_18  and  O_20 
REMARK   18  A    between atoms: O_20  and  C_21 
REMARK   19  A    between atoms: C_21  and  C_22 
REMARK   20  A    between atoms: C_22  and  C_23 
REMARK   21  A    between atoms: C_22  and  O_30 
REMARK   22  A    between atoms: C_24  and  O_29 
REMARK   23  A    between atoms: C_25  and  O_28 
ROOT
HETATM    1  C   UNL     1     -21.817  -6.225  -4.919  1.00  0.00     0.111 C 
ENDROOT
BRANCH   1   2
HETATM    2  C   UNL     1     -21.071  -6.046  -3.601  1.00  0.00     0.010 C 
BRANCH   2   3
HETATM    3  C   UNL     1     -22.000  -6.082  -2.395  1.00  0.00     0.000 C 
BRANCH   3   4
HETATM    4  C   UNL     1     -21.795  -7.361  -1.591  1.00  0.00     0.000 C 
BRANCH   4   5
HETATM    5  C   UNL     1     -22.572  -7.304  -0.293  1.00  0.00     0.000 C 
BRANCH   5   6
HETATM    6  C   UNL     1     -22.419  -8.611   0.463  1.00  0.00     0.000 C 
BRANCH   6   7
HETATM    7  C   UNL     1     -23.639  -9.485   0.233  1.00  0.00     0.000 C 
BRANCH   7   8
HETATM    8  C   UNL     1     -23.205 -10.877  -0.187  1.00  0.00     0.000 C 
BRANCH   8   9
HETATM    9  C   UNL     1     -23.481 -11.080  -1.664  1.00  0.00     0.000 C 
BRANCH   9  10
HETATM   10  C   UNL     1     -22.187 -10.978  -2.451  1.00  0.00     0.000 C 
BRANCH  10  11
HETATM   11  C   UNL     1     -21.034 -11.506  -1.617  1.00  0.00     0.000 C 
BRANCH  11  12
HETATM   12  C   UNL     1     -19.923 -10.472  -1.561  1.00  0.00     0.000 C 
BRANCH  12  13
HETATM   13  C   UNL     1     -18.940 -10.706  -2.694  1.00  0.00     0.000 C 
BRANCH  13  14
HETATM   14  C   UNL     1     -18.592  -9.387  -3.361  1.00  0.00     0.000 C 
BRANCH  14  15
HETATM   15  C   UNL     1     -19.352  -9.248  -4.670  1.00  0.00    -0.000 C 
BRANCH  15  16
HETATM   16  C   UNL     1     -19.618 -10.618  -5.278  1.00  0.00    -0.005 C 
HETATM   17  C   UNL     1     -21.026 -10.682  -5.836  1.00  0.00     0.005 C 
ENDBRANCH  15  16
ENDBRANCH  14  15
ENDBRANCH  13  14
ENDBRANCH  12  13
ENDBRANCH  11  12
ENDBRANCH  10  11
ENDBRANCH   9  10
ENDBRANCH   8   9
ENDBRANCH   7   8
ENDBRANCH   6   7
ENDBRANCH   5   6
ENDBRANCH   4   5
ENDBRANCH   3   4
ENDBRANCH   2   3
ENDBRANCH   1   2
BRANCH   1  18
HETATM   18  C   UNL     1     -21.202  -5.357  -5.983  1.00  0.00     0.258 C 
HETATM   19  O   UNL     1     -20.303  -4.552  -5.737  1.00  0.00    -0.265 OA
BRANCH  18  20
HETATM   20  O   UNL     1     -21.817  -5.532  -7.188  1.00  0.00    -0.319 OA
BRANCH  20  21
HETATM   21  C   UNL     1     -21.472  -4.592  -8.237  1.00  0.00     0.213 C 
BRANCH  21  22
HETATM   22  C   UNL     1     -22.661  -3.763  -8.726  1.00  0.00     0.174 C 
BRANCH  22  23
HETATM   23  C   UNL     1     -22.939  -3.971 -10.216  1.00  0.00     0.183 C 
HETATM   24  C   UNL     1     -21.928  -3.231 -11.098  1.00  0.00     0.180 C 
HETATM   25  C   UNL     1     -22.729  -2.816 -12.329  1.00  0.00     0.173 C 
HETATM   26  C   UNL     1     -24.144  -3.312 -12.048  1.00  0.00     0.202 C 
HETATM   27  O   UNL     1     -24.236  -3.473 -10.628  1.00  0.00    -0.378 OA
BRANCH  24  28
HETATM   28  O   UNL     1     -20.787  -4.016 -11.421  1.00  0.00    -0.390 OA
HETATM   29  H   UNL     1     -21.072  -4.922 -11.652  1.00  0.00     0.210 HD
ENDBRANCH  24  28
BRANCH  25  30
HETATM   30  O   UNL     1     -22.208  -3.316 -13.560  1.00  0.00    -0.391 OA
HETATM   31  H   UNL     1     -21.660  -4.099 -13.372  1.00  0.00     0.210 HD
ENDBRANCH  25  30
ENDBRANCH  22  23
BRANCH  22  32
HETATM   32  O   UNL     1     -23.842  -4.009  -7.951  1.00  0.00    -0.391 OA
HETATM   33  H   UNL     1     -24.362  -3.198  -7.971  1.00  0.00     0.210 HD
ENDBRANCH  22  32
ENDBRANCH  21  22
ENDBRANCH  20  21
ENDBRANCH  18  20
ENDBRANCH   1  18
TORSDOF 23
ENDMDL
MODEL 9
REMARK VINA RESULT:      -6.7      1.765      4.074
REMARK  23 active torsions:
REMARK  status: ('A' for Active; 'I' for Inactive)
REMARK    1  A    between atoms: C_2  and  C_3 
REMARK    2  A    between atoms: C_3  and  C_4 
REMARK    3  A    between atoms: C_4  and  C_5 
REMARK    4  A    between atoms: C_5  and  C_6 
REMARK    5  A    between atoms: C_6  and  C_7 
REMARK    6  A    between atoms: C_7  and  C_8 
REMARK    7  A    between atoms: C_8  and  C_9 
REMARK    8  A    between atoms: C_9  and  C_10 
REMARK    9  A    between atoms: C_10  and  C_11 
REMARK   10  A    between atoms: C_11  and  C_12 
REMARK   11  A    between atoms: C_12  and  C_13 
REMARK   12  A    between atoms: C_13  and  C_14 
REMARK   13  A    between atoms: C_14  and  C_15 
REMARK   14  A    between atoms: C_15  and  C_16 
REMARK   15  A    between atoms: C_16  and  C_17 
REMARK   16  A    between atoms: C_17  and  C_18 
REMARK   17  A    between atoms: C_18  and  O_20 
REMARK   18  A    between atoms: O_20  and  C_21 
REMARK   19  A    between atoms: C_21  and  C_22 
REMARK   20  A    between atoms: C_22  and  C_23 
REMARK   21  A    between atoms: C_22  and  O_30 
REMARK   22  A    between atoms: C_24  and  O_29 
REMARK   23  A    between atoms: C_25  and  O_28 
ROOT
HETATM    1  C   UNL     1     -20.682  -7.376  -4.115  1.00  0.00     0.111 C 
ENDROOT
BRANCH   1   2
HETATM    2  C   UNL     1     -21.617  -6.824  -3.044  1.00  0.00     0.010 C 
BRANCH   2   3
HETATM    3  C   UNL     1     -21.498  -7.572  -1.723  1.00  0.00     0.000 C 
BRANCH   3   4
HETATM    4  C   UNL     1     -22.454  -6.995  -0.686  1.00  0.00     0.000 C 
BRANCH   4   5
HETATM    5  C   UNL     1     -22.959  -8.084   0.237  1.00  0.00     0.000 C 
BRANCH   5   6
HETATM    6  C   UNL     1     -22.602  -9.449  -0.324  1.00  0.00     0.000 C 
BRANCH   6   7
HETATM    7  C   UNL     1     -23.750 -10.416  -0.096  1.00  0.00     0.000 C 
BRANCH   7   8
HETATM    8  C   UNL     1     -23.811 -11.422  -1.230  1.00  0.00     0.000 C 
BRANCH   8   9
HETATM    9  C   UNL     1     -23.219 -10.816  -2.489  1.00  0.00     0.000 C 
BRANCH   9  10
HETATM   10  C   UNL     1     -22.191 -11.761  -3.083  1.00  0.00     0.000 C 
BRANCH  10  11
HETATM   11  C   UNL     1     -21.266 -10.997  -4.014  1.00  0.00     0.000 C 
BRANCH  11  12
HETATM   12  C   UNL     1     -19.826 -11.163  -3.560  1.00  0.00     0.000 C 
BRANCH  12  13
HETATM   13  C   UNL     1     -19.693 -10.762  -2.101  1.00  0.00     0.000 C 
BRANCH  13  14
HETATM   14  C   UNL     1     -19.092 -11.904  -1.302  1.00  0.00     0.000 C 
BRANCH  14  15
HETATM   15  C   UNL     1     -19.429 -11.744   0.171  1.00  0.00    -0.000 C 
BRANCH  15  16
HETATM   16  C   UNL     1     -20.701 -12.509   0.511  1.00  0.00    -0.005 C 
HETATM   17  C   UNL     1     -20.737 -13.827  -0.237  1.00  0.00     0.005 C 
ENDBRANCH  15  16
ENDBRANCH  14  15
ENDBRANCH  13  14
ENDBRANCH  12  13
ENDBRANCH  11  12
ENDBRANCH  10  11
ENDBRANCH   9  10
ENDBRANCH   8   9
ENDBRANCH   7   8
ENDBRANCH   6   7
ENDBRANCH   5   6
ENDBRANCH   4   5
ENDBRANCH   3   4
ENDBRANCH   2   3
ENDBRANCH   1   2
BRANCH   1  18
HETATM   18  C   UNL     1     -21.273  -7.154  -5.481  1.00  0.00     0.258 C 
HETATM   19  O   UNL     1     -21.327  -8.046  -6.328  1.00  0.00    -0.265 OA
BRANCH  18  20
HETATM   20  O   UNL     1     -21.650  -5.855  -5.656  1.00  0.00    -0.319 OA
BRANCH  20  21
HETATM   21  C   UNL     1     -21.636  -5.350  -7.016  1.00  0.00     0.213 C 
BRANCH  21  22
HETATM   22  C   UNL     1     -22.621  -4.203  -7.250  1.00  0.00     0.174 C 
BRANCH  22  23
HETATM   23  C   UNL     1     -22.715  -3.814  -8.727  1.00  0.00     0.183 C 
HETATM   24  C   UNL     1     -24.126  -4.023  -9.287  1.00  0.00     0.180 C 
HETATM   25  C   UNL     1     -23.901  -4.425 -10.742  1.00  0.00     0.173 C 
HETATM   26  C   UNL     1     -22.385  -4.456 -10.900  1.00  0.00     0.202 C 
HETATM   27  O   UNL     1     -21.849  -4.603  -9.580  1.00  0.00    -0.378 OA
BRANCH  24  28
HETATM   28  O   UNL     1     -24.956  -2.876  -9.153  1.00  0.00    -0.390 OA
HETATM   29  H   UNL     1     -25.861  -3.157  -8.917  1.00  0.00     0.210 HD
ENDBRANCH  24  28
BRANCH  25  30
HETATM   30  O   UNL     1     -24.533  -3.564 -11.689  1.00  0.00    -0.391 OA
HETATM   31  H   UNL     1     -24.451  -2.644 -11.379  1.00  0.00     0.210 HD
ENDBRANCH  25  30
ENDBRANCH  22  23
BRANCH  22  32
HETATM   32  O   UNL     1     -23.921  -4.495  -6.720  1.00  0.00    -0.391 OA
HETATM   33  H   UNL     1     -24.237  -3.688  -6.299  1.00  0.00     0.210 HD
ENDBRANCH  22  32
ENDBRANCH  21  22
ENDBRANCH  20  21
ENDBRANCH  18  20
ENDBRANCH   1  18
TORSDOF 23
ENDMDL
