MODEL 1
REMARK VINA RESULT:      -5.5      0.000      0.000
REMARK  24 active torsions:
REMARK  status: ('A' for Active; 'I' for Inactive)
REMARK    1  A    between atoms: C_1  and  C_2 
REMARK    2  A    between atoms: C_1  and  O_45 
REMARK    3  A    between atoms: C_3  and  O_44 
REMARK    4  A    between atoms: C_4  and  O_43 
REMARK    5  A    between atoms: C_5  and  O_42 
REMARK    6  A    between atoms: C_6  and  O_8 
REMARK    7  A    between atoms: O_8  and  C_9 
REMARK    8  A    between atoms: C_9  and  C_10 
REMARK    9  A    between atoms: C_11  and  O_30 
REMARK   10  A    between atoms: C_12  and  O_29 
REMARK   11  A    between atoms: C_13  and  O_28 
REMARK   12  A    between atoms: C_14  and  O_16 
REMARK   13  A    between atoms: O_16  and  C_17 
REMARK   14  A    between atoms: C_18  and  C_26 
REMARK   15  A    between atoms: C_20  and  O_25 
REMARK   16  A    between atoms: C_21  and  O_24 
REMARK   17  A    between atoms: C_22  and  O_23 
REMARK   18  A    between atoms: C_26  and  O_27 
REMARK   19  A    between atoms: O_30  and  C_31 
REMARK   20  A    between atoms: C_32  and  O_41 
REMARK   21  A    between atoms: C_33  and  O_40 
REMARK   22  A    between atoms: C_34  and  O_39 
REMARK   23  A    between atoms: C_35  and  C_37 
REMARK   24  A    between atoms: C_37  and  O_38 
ROOT
HETATM    1  C   UNL     1     -18.254 -10.234  -3.863  1.00  0.00     0.180 C 
HETATM    2  C   UNL     1     -18.264  -9.561  -5.260  1.00  0.00     0.187 C 
HETATM    3  C   UNL     1     -19.226  -8.346  -5.200  1.00  0.00     0.183 C 
HETATM    4  C   UNL     1     -20.645  -8.769  -4.786  1.00  0.00     0.204 C 
HETATM    5  C   UNL     1     -20.558  -9.501  -3.423  1.00  0.00     0.292 C 
HETATM    6  O   UNL     1     -19.585 -10.541  -3.449  1.00  0.00    -0.348 OA
ENDROOT
BRANCH   1   7
HETATM    7  C   UNL     1     -17.418  -9.447  -2.818  1.00  0.00     0.205 C 
BRANCH   7   8
HETATM    8  O   UNL     1     -16.192 -10.137  -2.506  1.00  0.00    -0.356 OA
BRANCH   8   9
HETATM    9  C   UNL     1     -16.272 -11.587  -2.601  1.00  0.00     0.291 C 
HETATM   10  C   UNL     1     -16.749 -12.152  -1.245  1.00  0.00     0.204 C 
HETATM   11  C   UNL     1     -16.613 -13.675  -1.213  1.00  0.00     0.183 C 
HETATM   12  C   UNL     1     -15.167 -14.093  -1.498  1.00  0.00     0.180 C 
HETATM   13  C   UNL     1     -14.709 -13.484  -2.836  1.00  0.00     0.179 C 
HETATM   14  O   UNL     1     -14.950 -12.059  -2.906  1.00  0.00    -0.348 OA
BRANCH  10  15
HETATM   15  O   UNL     1     -15.947 -11.577  -0.187  1.00  0.00    -0.388 OA
HETATM   16  H   UNL     1     -16.067 -12.157   0.593  1.00  0.00     0.210 HD
ENDBRANCH  10  15
BRANCH  11  17
HETATM   17  O   UNL     1     -17.037 -14.165   0.061  1.00  0.00    -0.390 OA
HETATM   18  H   UNL     1     -16.215 -14.451   0.520  1.00  0.00     0.210 HD
ENDBRANCH  11  17
BRANCH  12  19
HETATM   19  O   UNL     1     -14.294 -13.645  -0.445  1.00  0.00    -0.390 OA
HETATM   20  H   UNL     1     -14.854 -13.456   0.335  1.00  0.00     0.210 HD
ENDBRANCH  12  19
BRANCH  13  21
HETATM   21  C   UNL     1     -15.279 -14.254  -4.040  1.00  0.00     0.198 C 
BRANCH  21  22
HETATM   22  O   UNL     1     -15.082 -13.539  -5.256  1.00  0.00    -0.398 OA
HETATM   23  H   UNL     1     -15.957 -13.327  -5.631  1.00  0.00     0.209 HD
ENDBRANCH  21  22
ENDBRANCH  13  21
ENDBRANCH   8   9
ENDBRANCH   7   8
ENDBRANCH   1   7
BRANCH   2  24
HETATM   24  O   UNL     1     -18.750 -10.446  -6.310  1.00  0.00    -0.348 OA
BRANCH  24  25
HETATM   25  C   UNL     1     -18.637 -11.852  -6.081  1.00  0.00     0.292 C 
HETATM   26  C   UNL     1     -18.006 -12.641  -7.253  1.00  0.00     0.204 C 
HETATM   27  C   UNL     1     -19.025 -12.834  -8.390  1.00  0.00     0.183 C 
HETATM   28  C   UNL     1     -20.312 -13.467  -7.849  1.00  0.00     0.180 C 
HETATM   29  C   UNL     1     -20.865 -12.517  -6.773  1.00  0.00     0.179 C 
HETATM   30  O   UNL     1     -19.926 -12.372  -5.701  1.00  0.00    -0.348 OA
BRANCH  26  31
HETATM   31  O   UNL     1     -17.532 -13.919  -6.785  1.00  0.00    -0.388 OA
HETATM   32  H   UNL     1     -16.746 -14.138  -7.336  1.00  0.00     0.210 HD
ENDBRANCH  26  31
BRANCH  27  33
HETATM   33  O   UNL     1     -18.462 -13.653  -9.417  1.00  0.00    -0.390 OA
HETATM   34  H   UNL     1     -17.553 -13.319  -9.555  1.00  0.00     0.210 HD
ENDBRANCH  27  33
BRANCH  28  35
HETATM   35  O   UNL     1     -19.983 -14.755  -7.281  1.00  0.00    -0.390 OA
HETATM   36  H   UNL     1     -20.816 -15.135  -6.947  1.00  0.00     0.210 HD
ENDBRANCH  28  35
BRANCH  29  37
HETATM   37  C   UNL     1     -22.188 -13.018  -6.186  1.00  0.00     0.198 C 
BRANCH  37  38
HETATM   38  O   UNL     1     -22.602 -12.204  -5.095  1.00  0.00    -0.398 OA
HETATM   39  H   UNL     1     -22.040 -12.432  -4.333  1.00  0.00     0.209 HD
ENDBRANCH  37  38
ENDBRANCH  29  37
ENDBRANCH  24  25
ENDBRANCH   2  24
BRANCH   3  40
HETATM   40  O   UNL     1     -19.243  -7.676  -6.463  1.00  0.00    -0.390 OA
HETATM   41  H   UNL     1     -18.375  -7.865  -6.879  1.00  0.00     0.210 HD
ENDBRANCH   3  40
BRANCH   5  42
HETATM   42  O   UNL     1     -21.852 -10.043  -3.082  1.00  0.00    -0.348 OA
BRANCH  42  43
HETATM   43  C   UNL     1     -22.460  -9.379  -1.945  1.00  0.00     0.187 C 
HETATM   44  C   UNL     1     -21.520  -8.322  -1.329  1.00  0.00     0.180 C 
HETATM   45  O   UNL     1     -20.417  -8.843  -0.580  1.00  0.00    -0.349 OA
HETATM   46  C   UNL     1     -20.611  -9.971   0.242  1.00  0.00     0.288 C 
HETATM   47  C   UNL     1     -21.563 -11.058  -0.271  1.00  0.00     0.204 C 
HETATM   48  C   UNL     1     -22.822 -10.428  -0.877  1.00  0.00     0.183 C 
BRANCH  44  49
HETATM   49  C   UNL     1     -22.290  -7.229  -0.579  1.00  0.00     0.198 C 
BRANCH  49  50
HETATM   50  O   UNL     1     -22.538  -6.109  -1.425  1.00  0.00    -0.398 OA
HETATM   51  H   UNL     1     -22.043  -5.339  -1.083  1.00  0.00     0.209 HD
ENDBRANCH  49  50
ENDBRANCH  44  49
BRANCH  46  52
HETATM   52  O   UNL     1     -21.056  -9.560   1.534  1.00  0.00    -0.369 OA
HETATM   53  H   UNL     1     -21.982  -9.303   1.415  1.00  0.00     0.212 HD
ENDBRANCH  46  52
BRANCH  47  54
HETATM   54  O   UNL     1     -21.907 -11.925   0.828  1.00  0.00    -0.388 OA
HETATM   55  H   UNL     1     -22.645 -12.483   0.512  1.00  0.00     0.210 HD
ENDBRANCH  47  54
BRANCH  48  56
HETATM   56  O   UNL     1     -23.675 -11.426  -1.465  1.00  0.00    -0.390 OA
HETATM   57  H   UNL     1     -23.387 -12.286  -1.106  1.00  0.00     0.210 HD
ENDBRANCH  48  56
ENDBRANCH  42  43
ENDBRANCH   5  42
BRANCH   4  58
HETATM   58  O   UNL     1     -21.223  -9.573  -5.835  1.00  0.00    -0.388 OA
HETATM   59  H   UNL     1     -20.776  -9.320  -6.669  1.00  0.00     0.210 HD
ENDBRANCH   4  58
TORSDOF 24
ENDMDL
MODEL 2
REMARK VINA RESULT:      -5.5      1.684      3.180
REMARK  24 active torsions:
REMARK  status: ('A' for Active; 'I' for Inactive)
REMARK    1  A    between atoms: C_1  and  C_2 
REMARK    2  A    between atoms: C_1  and  O_45 
REMARK    3  A    between atoms: C_3  and  O_44 
REMARK    4  A    between atoms: C_4  and  O_43 
REMARK    5  A    between atoms: C_5  and  O_42 
REMARK    6  A    between atoms: C_6  and  O_8 
REMARK    7  A    between atoms: O_8  and  C_9 
REMARK    8  A    between atoms: C_9  and  C_10 
REMARK    9  A    between atoms: C_11  and  O_30 
REMARK   10  A    between atoms: C_12  and  O_29 
REMARK   11  A    between atoms: C_13  and  O_28 
REMARK   12  A    between atoms: C_14  and  O_16 
REMARK   13  A    between atoms: O_16  and  C_17 
REMARK   14  A    between atoms: C_18  and  C_26 
REMARK   15  A    between atoms: C_20  and  O_25 
REMARK   16  A    between atoms: C_21  and  O_24 
REMARK   17  A    between atoms: C_22  and  O_23 
REMARK   18  A    between atoms: C_26  and  O_27 
REMARK   19  A    between atoms: O_30  and  C_31 
REMARK   20  A    between atoms: C_32  and  O_41 
REMARK   21  A    between atoms: C_33  and  O_40 
REMARK   22  A    between atoms: C_34  and  O_39 
REMARK   23  A    between atoms: C_35  and  C_37 
REMARK   24  A    between atoms: C_37  and  O_38 
ROOT
HETATM    1  C   UNL     1     -18.344 -10.285  -3.589  1.00  0.00     0.180 C 
HETATM    2  C   UNL     1     -18.846  -9.591  -4.881  1.00  0.00     0.187 C 
HETATM    3  C   UNL     1     -19.920  -8.548  -4.478  1.00  0.00     0.183 C 
HETATM    4  C   UNL     1     -21.086  -9.201  -3.718  1.00  0.00     0.204 C 
HETATM    5  C   UNL     1     -20.512  -9.941  -2.484  1.00  0.00     0.292 C 
HETATM    6  O   UNL     1     -19.443 -10.811  -2.846  1.00  0.00    -0.348 OA
ENDROOT
BRANCH   1   7
HETATM    7  C   UNL     1     -17.372  -9.399  -2.763  1.00  0.00     0.205 C 
BRANCH   7   8
HETATM    8  O   UNL     1     -15.998  -9.710  -3.068  1.00  0.00    -0.356 OA
BRANCH   8   9
HETATM    9  C   UNL     1     -15.450 -10.832  -2.320  1.00  0.00     0.291 C 
HETATM   10  C   UNL     1     -14.871 -11.861  -3.316  1.00  0.00     0.204 C 
HETATM   11  C   UNL     1     -14.510 -13.164  -2.602  1.00  0.00     0.183 C 
HETATM   12  C   UNL     1     -15.730 -13.738  -1.876  1.00  0.00     0.180 C 
HETATM   13  C   UNL     1     -16.307 -12.677  -0.920  1.00  0.00     0.179 C 
HETATM   14  O   UNL     1     -16.536 -11.407  -1.576  1.00  0.00    -0.348 OA
BRANCH  10  15
HETATM   15  O   UNL     1     -15.857 -12.134  -4.339  1.00  0.00    -0.388 OA
HETATM   16  H   UNL     1     -16.694 -12.323  -3.869  1.00  0.00     0.210 HD
ENDBRANCH  10  15
BRANCH  11  17
HETATM   17  O   UNL     1     -14.001 -14.104  -3.551  1.00  0.00    -0.390 OA
HETATM   18  H   UNL     1     -14.679 -14.154  -4.262  1.00  0.00     0.210 HD
ENDBRANCH  11  17
BRANCH  12  19
HETATM   19  O   UNL     1     -16.743 -14.130  -2.820  1.00  0.00    -0.390 OA
HETATM   20  H   UNL     1     -17.480 -13.491  -2.737  1.00  0.00     0.210 HD
ENDBRANCH  12  19
BRANCH  13  21
HETATM   21  C   UNL     1     -15.471 -12.551   0.366  1.00  0.00     0.198 C 
BRANCH  21  22
HETATM   22  O   UNL     1     -16.030 -11.592   1.258  1.00  0.00    -0.398 OA
HETATM   23  H   UNL     1     -15.372 -11.399   1.951  1.00  0.00     0.209 HD
ENDBRANCH  21  22
ENDBRANCH  13  21
ENDBRANCH   8   9
ENDBRANCH   7   8
ENDBRANCH   1   7
BRANCH   2  24
HETATM   24  O   UNL     1     -19.473 -10.518  -5.813  1.00  0.00    -0.348 OA
BRANCH  24  25
HETATM   25  C   UNL     1     -19.089 -11.892  -5.723  1.00  0.00     0.292 C 
HETATM   26  C   UNL     1     -18.254 -12.402  -6.922  1.00  0.00     0.204 C 
HETATM   27  C   UNL     1     -19.154 -12.657  -8.143  1.00  0.00     0.183 C 
HETATM   28  C   UNL     1     -20.312 -13.588  -7.764  1.00  0.00     0.180 C 
HETATM   29  C   UNL     1     -21.100 -12.894  -6.640  1.00  0.00     0.179 C 
HETATM   30  O   UNL     1     -20.265 -12.694  -5.493  1.00  0.00    -0.348 OA
BRANCH  26  31
HETATM   31  O   UNL     1     -17.556 -13.608  -6.555  1.00  0.00    -0.388 OA
HETATM   32  H   UNL     1     -18.032 -13.974  -5.774  1.00  0.00     0.210 HD
ENDBRANCH  26  31
BRANCH  27  33
HETATM   33  O   UNL     1     -18.387 -13.226  -9.206  1.00  0.00    -0.390 OA
HETATM   34  H   UNL     1     -17.580 -12.678  -9.274  1.00  0.00     0.210 HD
ENDBRANCH  27  33
BRANCH  28  35
HETATM   35  O   UNL     1     -19.759 -14.843  -7.311  1.00  0.00    -0.390 OA
HETATM   36  H   UNL     1     -20.476 -15.502  -7.365  1.00  0.00     0.210 HD
ENDBRANCH  28  35
BRANCH  29  37
HETATM   37  C   UNL     1     -22.322 -13.708  -6.205  1.00  0.00     0.198 C 
BRANCH  37  38
HETATM   38  O   UNL     1     -22.451 -14.890  -6.987  1.00  0.00    -0.398 OA
HETATM   39  H   UNL     1     -21.602 -15.366  -6.937  1.00  0.00     0.209 HD
ENDBRANCH  37  38
ENDBRANCH  29  37
ENDBRANCH  24  25
ENDBRANCH   2  24
BRANCH   3  40
HETATM   40  O   UNL     1     -20.390  -7.860  -5.639  1.00  0.00    -0.390 OA
HETATM   41  H   UNL     1     -20.248  -6.906  -5.462  1.00  0.00     0.210 HD
ENDBRANCH   3  40
BRANCH   5  42
HETATM   42  O   UNL     1     -21.562 -10.691  -1.837  1.00  0.00    -0.348 OA
BRANCH  42  43
HETATM   43  C   UNL     1     -21.172 -12.052  -1.522  1.00  0.00     0.187 C 
HETATM   44  C   UNL     1     -21.808 -13.069  -2.493  1.00  0.00     0.180 C 
HETATM   45  O   UNL     1     -23.207 -13.305  -2.305  1.00  0.00    -0.349 OA
HETATM   46  C   UNL     1     -23.726 -13.375  -0.996  1.00  0.00     0.288 C 
HETATM   47  C   UNL     1     -23.125 -12.427   0.049  1.00  0.00     0.204 C 
HETATM   48  C   UNL     1     -21.599 -12.383  -0.080  1.00  0.00     0.183 C 
BRANCH  44  49
HETATM   49  C   UNL     1     -20.991 -14.362  -2.594  1.00  0.00     0.198 C 
BRANCH  49  50
HETATM   50  O   UNL     1     -19.617 -14.077  -2.848  1.00  0.00    -0.398 OA
HETATM   51  H   UNL     1     -19.550 -13.556  -3.671  1.00  0.00     0.209 HD
ENDBRANCH  49  50
ENDBRANCH  44  49
BRANCH  46  52
HETATM   52  O   UNL     1     -23.622 -14.709  -0.502  1.00  0.00    -0.369 OA
HETATM   53  H   UNL     1     -23.757 -14.638   0.454  1.00  0.00     0.212 HD
ENDBRANCH  46  52
BRANCH  47  54
HETATM   54  O   UNL     1     -23.511 -12.884   1.360  1.00  0.00    -0.388 OA
HETATM   55  H   UNL     1     -23.570 -12.084   1.919  1.00  0.00     0.210 HD
ENDBRANCH  47  54
BRANCH  48  56
HETATM   56  O   UNL     1     -21.026 -11.414   0.816  1.00  0.00    -0.390 OA
HETATM   57  H   UNL     1     -21.772 -10.949   1.238  1.00  0.00     0.210 HD
ENDBRANCH  48  56
ENDBRANCH  42  43
ENDBRANCH   5  42
BRANCH   4  58
HETATM   58  O   UNL     1     -21.812 -10.064  -4.619  1.00  0.00    -0.388 OA
HETATM   59  H   UNL     1     -21.937 -10.919  -4.156  1.00  0.00     0.210 HD
ENDBRANCH   4  58
TORSDOF 24
ENDMDL
MODEL 3
REMARK VINA RESULT:      -5.4      1.955      5.191
REMARK  24 active torsions:
REMARK  status: ('A' for Active; 'I' for Inactive)
REMARK    1  A    between atoms: C_1  and  C_2 
REMARK    2  A    between atoms: C_1  and  O_45 
REMARK    3  A    between atoms: C_3  and  O_44 
REMARK    4  A    between atoms: C_4  and  O_43 
REMARK    5  A    between atoms: C_5  and  O_42 
REMARK    6  A    between atoms: C_6  and  O_8 
REMARK    7  A    between atoms: O_8  and  C_9 
REMARK    8  A    between atoms: C_9  and  C_10 
REMARK    9  A    between atoms: C_11  and  O_30 
REMARK   10  A    between atoms: C_12  and  O_29 
REMARK   11  A    between atoms: C_13  and  O_28 
REMARK   12  A    between atoms: C_14  and  O_16 
REMARK   13  A    between atoms: O_16  and  C_17 
REMARK   14  A    between atoms: C_18  and  C_26 
REMARK   15  A    between atoms: C_20  and  O_25 
REMARK   16  A    between atoms: C_21  and  O_24 
REMARK   17  A    between atoms: C_22  and  O_23 
REMARK   18  A    between atoms: C_26  and  O_27 
REMARK   19  A    between atoms: O_30  and  C_31 
REMARK   20  A    between atoms: C_32  and  O_41 
REMARK   21  A    between atoms: C_33  and  O_40 
REMARK   22  A    between atoms: C_34  and  O_39 
REMARK   23  A    between atoms: C_35  and  C_37 
REMARK   24  A    between atoms: C_37  and  O_38 
ROOT
HETATM    1  C   UNL     1     -18.494 -12.174  -2.277  1.00  0.00     0.180 C 
HETATM    2  C   UNL     1     -17.120 -12.325  -2.979  1.00  0.00     0.187 C 
HETATM    3  C   UNL     1     -16.238 -11.116  -2.573  1.00  0.00     0.183 C 
HETATM    4  C   UNL     1     -16.902  -9.782  -2.950  1.00  0.00     0.204 C 
HETATM    5  C   UNL     1     -18.299  -9.724  -2.282  1.00  0.00     0.292 C 
HETATM    6  O   UNL     1     -19.060 -10.895  -2.562  1.00  0.00    -0.348 OA
ENDROOT
BRANCH   1   7
HETATM    7  C   UNL     1     -18.447 -12.538  -0.768  1.00  0.00     0.205 C 
BRANCH   7   8
HETATM    8  O   UNL     1     -19.616 -12.052  -0.079  1.00  0.00    -0.356 OA
BRANCH   8   9
HETATM    9  C   UNL     1     -20.700 -13.018   0.030  1.00  0.00     0.291 C 
HETATM   10  C   UNL     1     -21.467 -13.061  -1.310  1.00  0.00     0.204 C 
HETATM   11  C   UNL     1     -22.758 -13.869  -1.171  1.00  0.00     0.183 C 
HETATM   12  C   UNL     1     -23.639 -13.293  -0.058  1.00  0.00     0.180 C 
HETATM   13  C   UNL     1     -22.834 -13.228   1.253  1.00  0.00     0.179 C 
HETATM   14  O   UNL     1     -21.559 -12.564   1.088  1.00  0.00    -0.348 OA
BRANCH  10  15
HETATM   15  O   UNL     1     -21.791 -11.709  -1.711  1.00  0.00    -0.388 OA
HETATM   16  H   UNL     1     -22.480 -11.786  -2.403  1.00  0.00     0.210 HD
ENDBRANCH  10  15
BRANCH  11  17
HETATM   17  O   UNL     1     -23.458 -13.869  -2.417  1.00  0.00    -0.390 OA
HETATM   18  H   UNL     1     -23.044 -14.585  -2.951  1.00  0.00     0.210 HD
ENDBRANCH  11  17
BRANCH  12  19
HETATM   19  O   UNL     1     -24.093 -11.972  -0.405  1.00  0.00    -0.390 OA
HETATM   20  H   UNL     1     -24.239 -11.487   0.432  1.00  0.00     0.210 HD
ENDBRANCH  12  19
BRANCH  13  21
HETATM   21  C   UNL     1     -22.715 -14.609   1.920  1.00  0.00     0.198 C 
BRANCH  21  22
HETATM   22  O   UNL     1     -22.176 -14.509   3.235  1.00  0.00    -0.398 OA
HETATM   23  H   UNL     1     -21.828 -15.383   3.491  1.00  0.00     0.209 HD
ENDBRANCH  21  22
ENDBRANCH  13  21
ENDBRANCH   8   9
ENDBRANCH   7   8
ENDBRANCH   1   7
BRANCH   2  24
HETATM   24  O   UNL     1     -17.224 -12.316  -4.431  1.00  0.00    -0.348 OA
BRANCH  24  25
HETATM   25  C   UNL     1     -17.431 -13.573  -5.078  1.00  0.00     0.292 C 
HETATM   26  C   UNL     1     -17.037 -13.595  -6.574  1.00  0.00     0.204 C 
HETATM   27  C   UNL     1     -18.107 -12.895  -7.429  1.00  0.00     0.183 C 
HETATM   28  C   UNL     1     -19.488 -13.501  -7.152  1.00  0.00     0.180 C 
HETATM   29  C   UNL     1     -19.773 -13.308  -5.653  1.00  0.00     0.179 C 
HETATM   30  O   UNL     1     -18.793 -13.993  -4.864  1.00  0.00    -0.348 OA
BRANCH  26  31
HETATM   31  O   UNL     1     -16.856 -14.955  -7.014  1.00  0.00    -0.388 OA
HETATM   32  H   UNL     1     -16.837 -15.506  -6.199  1.00  0.00     0.210 HD
ENDBRANCH  26  31
BRANCH  27  33
HETATM   33  O   UNL     1     -17.781 -13.015  -8.816  1.00  0.00    -0.390 OA
HETATM   34  H   UNL     1     -18.604 -13.307  -9.257  1.00  0.00     0.210 HD
ENDBRANCH  27  33
BRANCH  28  35
HETATM   35  O   UNL     1     -19.447 -14.904  -7.495  1.00  0.00    -0.390 OA
HETATM   36  H   UNL     1     -19.703 -15.396  -6.692  1.00  0.00     0.210 HD
ENDBRANCH  28  35
BRANCH  29  37
HETATM   37  C   UNL     1     -21.157 -13.831  -5.257  1.00  0.00     0.198 C 
BRANCH  37  38
HETATM   38  O   UNL     1     -21.962 -12.787  -4.721  1.00  0.00    -0.398 OA
HETATM   39  H   UNL     1     -22.444 -13.155  -3.959  1.00  0.00     0.209 HD
ENDBRANCH  37  38
ENDBRANCH  29  37
ENDBRANCH  24  25
ENDBRANCH   2  24
BRANCH   3  40
HETATM   40  O   UNL     1     -14.947 -11.231  -3.174  1.00  0.00    -0.390 OA
HETATM   41  H   UNL     1     -15.020 -10.798  -4.051  1.00  0.00     0.210 HD
ENDBRANCH   3  40
BRANCH   5  42
HETATM   42  O   UNL     1     -19.007  -8.553  -2.741  1.00  0.00    -0.348 OA
BRANCH  42  43
HETATM   43  C   UNL     1     -20.311  -8.862  -3.293  1.00  0.00     0.187 C 
HETATM   44  C   UNL     1     -20.416  -8.456  -4.778  1.00  0.00     0.180 C 
HETATM   45  O   UNL     1     -20.520  -7.049  -5.023  1.00  0.00    -0.349 OA
HETATM   46  C   UNL     1     -21.305  -6.254  -4.164  1.00  0.00     0.288 C 
HETATM   47  C   UNL     1     -21.295  -6.611  -2.673  1.00  0.00     0.204 C 
HETATM   48  C   UNL     1     -21.395  -8.128  -2.482  1.00  0.00     0.183 C 
BRANCH  44  49
HETATM   49  C   UNL     1     -21.472  -9.273  -5.529  1.00  0.00     0.198 C 
BRANCH  49  50
HETATM   50  O   UNL     1     -20.865 -10.329  -6.272  1.00  0.00    -0.398 OA
HETATM   51  H   UNL     1     -19.915 -10.367  -6.047  1.00  0.00     0.209 HD
ENDBRANCH  49  50
ENDBRANCH  44  49
BRANCH  46  52
HETATM   52  O   UNL     1     -22.659  -6.245  -4.613  1.00  0.00    -0.369 OA
HETATM   53  H   UNL     1     -22.898  -7.177  -4.723  1.00  0.00     0.212 HD
ENDBRANCH  46  52
BRANCH  47  54
HETATM   54  O   UNL     1     -22.402  -5.944  -2.033  1.00  0.00    -0.388 OA
HETATM   55  H   UNL     1     -22.095  -5.037  -1.837  1.00  0.00     0.210 HD
ENDBRANCH  47  54
BRANCH  48  56
HETATM   56  O   UNL     1     -21.273  -8.489  -1.096  1.00  0.00    -0.390 OA
HETATM   57  H   UNL     1     -21.463  -7.684  -0.579  1.00  0.00     0.210 HD
ENDBRANCH  48  56
ENDBRANCH  42  43
ENDBRANCH   5  42
BRANCH   4  58
HETATM   58  O   UNL     1     -16.947  -9.666  -4.387  1.00  0.00    -0.388 OA
HETATM   59  H   UNL     1     -17.415 -10.459  -4.723  1.00  0.00     0.210 HD
ENDBRANCH   4  58
TORSDOF 24
ENDMDL
MODEL 4
REMARK VINA RESULT:      -5.4      2.081      5.266
REMARK  24 active torsions:
REMARK  status: ('A' for Active; 'I' for Inactive)
REMARK    1  A    between atoms: C_1  and  C_2 
REMARK    2  A    between atoms: C_1  and  O_45 
REMARK    3  A    between atoms: C_3  and  O_44 
REMARK    4  A    between atoms: C_4  and  O_43 
REMARK    5  A    between atoms: C_5  and  O_42 
REMARK    6  A    between atoms: C_6  and  O_8 
REMARK    7  A    between atoms: O_8  and  C_9 
REMARK    8  A    between atoms: C_9  and  C_10 
REMARK    9  A    between atoms: C_11  and  O_30 
REMARK   10  A    between atoms: C_12  and  O_29 
REMARK   11  A    between atoms: C_13  and  O_28 
REMARK   12  A    between atoms: C_14  and  O_16 
REMARK   13  A    between atoms: O_16  and  C_17 
REMARK   14  A    between atoms: C_18  and  C_26 
REMARK   15  A    between atoms: C_20  and  O_25 
REMARK   16  A    between atoms: C_21  and  O_24 
REMARK   17  A    between atoms: C_22  and  O_23 
REMARK   18  A    between atoms: C_26  and  O_27 
REMARK   19  A    between atoms: O_30  and  C_31 
REMARK   20  A    between atoms: C_32  and  O_41 
REMARK   21  A    between atoms: C_33  and  O_40 
REMARK   22  A    between atoms: C_34  and  O_39 
REMARK   23  A    between atoms: C_35  and  C_37 
REMARK   24  A    between atoms: C_37  and  O_38 
ROOT
HETATM    1  C   UNL     1     -18.581 -12.122  -2.036  1.00  0.00     0.180 C 
HETATM    2  C   UNL     1     -17.220 -12.322  -2.752  1.00  0.00     0.187 C 
HETATM    3  C   UNL     1     -16.318 -11.108  -2.412  1.00  0.00     0.183 C 
HETATM    4  C   UNL     1     -16.970  -9.782  -2.836  1.00  0.00     0.204 C 
HETATM    5  C   UNL     1     -18.356  -9.677  -2.150  1.00  0.00     0.292 C 
HETATM    6  O   UNL     1     -19.136 -10.849  -2.367  1.00  0.00    -0.348 OA
ENDROOT
BRANCH   1   7
HETATM    7  C   UNL     1     -18.515 -12.421  -0.513  1.00  0.00     0.205 C 
BRANCH   7   8
HETATM    8  O   UNL     1     -19.517 -13.382  -0.127  1.00  0.00    -0.356 OA
BRANCH   8   9
HETATM    9  C   UNL     1     -20.871 -12.852  -0.064  1.00  0.00     0.291 C 
HETATM   10  C   UNL     1     -21.585 -13.451   1.168  1.00  0.00     0.204 C 
HETATM   11  C   UNL     1     -23.079 -13.124   1.142  1.00  0.00     0.183 C 
HETATM   12  C   UNL     1     -23.719 -13.626  -0.156  1.00  0.00     0.180 C 
HETATM   13  C   UNL     1     -22.963 -13.042  -1.363  1.00  0.00     0.179 C 
HETATM   14  O   UNL     1     -21.533 -13.252  -1.274  1.00  0.00    -0.348 OA
BRANCH  10  15
HETATM   15  O   UNL     1     -21.411 -14.887   1.162  1.00  0.00    -0.388 OA
HETATM   16  H   UNL     1     -20.620 -15.064   0.613  1.00  0.00     0.210 HD
ENDBRANCH  10  15
BRANCH  11  17
HETATM   17  O   UNL     1     -23.716 -13.711   2.278  1.00  0.00    -0.390 OA
HETATM   18  H   UNL     1     -23.605 -14.683   2.170  1.00  0.00     0.210 HD
ENDBRANCH  11  17
BRANCH  12  19
HETATM   19  O   UNL     1     -23.678 -15.063  -0.216  1.00  0.00    -0.390 OA
HETATM   20  H   UNL     1     -22.979 -15.306  -0.856  1.00  0.00     0.210 HD
ENDBRANCH  12  19
BRANCH  13  21
HETATM   21  C   UNL     1     -23.343 -11.574  -1.621  1.00  0.00     0.198 C 
BRANCH  21  22
HETATM   22  O   UNL     1     -23.039 -11.184  -2.957  1.00  0.00    -0.398 OA
HETATM   23  H   UNL     1     -23.742 -10.583  -3.268  1.00  0.00     0.209 HD
ENDBRANCH  21  22
ENDBRANCH  13  21
ENDBRANCH   8   9
ENDBRANCH   7   8
ENDBRANCH   1   7
BRANCH   2  24
HETATM   24  O   UNL     1     -17.348 -12.373  -4.202  1.00  0.00    -0.348 OA
BRANCH  24  25
HETATM   25  C   UNL     1     -18.070 -13.475  -4.754  1.00  0.00     0.292 C 
HETATM   26  C   UNL     1     -17.213 -14.738  -5.009  1.00  0.00     0.204 C 
HETATM   27  C   UNL     1     -16.358 -14.569  -6.276  1.00  0.00     0.183 C 
HETATM   28  C   UNL     1     -17.243 -14.180  -7.467  1.00  0.00     0.180 C 
HETATM   29  C   UNL     1     -17.942 -12.860  -7.097  1.00  0.00     0.179 C 
HETATM   30  O   UNL     1     -18.765 -13.036  -5.938  1.00  0.00    -0.348 OA
BRANCH  26  31
HETATM   31  O   UNL     1     -18.067 -15.893  -5.133  1.00  0.00    -0.388 OA
HETATM   32  H   UNL     1     -17.628 -16.613  -4.625  1.00  0.00     0.210 HD
ENDBRANCH  26  31
BRANCH  27  33
HETATM   33  O   UNL     1     -15.654 -15.780  -6.557  1.00  0.00    -0.390 OA
HETATM   34  H   UNL     1     -14.719 -15.603  -6.330  1.00  0.00     0.210 HD
ENDBRANCH  27  33
BRANCH  28  35
HETATM   35  O   UNL     1     -18.208 -15.234  -7.681  1.00  0.00    -0.390 OA
HETATM   36  H   UNL     1     -18.372 -15.645  -6.812  1.00  0.00     0.210 HD
ENDBRANCH  28  35
BRANCH  29  37
HETATM   37  C   UNL     1     -18.823 -12.337  -8.235  1.00  0.00     0.198 C 
BRANCH  37  38
HETATM   38  O   UNL     1     -20.155 -12.824  -8.113  1.00  0.00    -0.398 OA
HETATM   39  H   UNL     1     -20.598 -12.673  -8.968  1.00  0.00     0.209 HD
ENDBRANCH  37  38
ENDBRANCH  29  37
ENDBRANCH  24  25
ENDBRANCH   2  24
BRANCH   3  40
HETATM   40  O   UNL     1     -15.038 -11.265  -3.029  1.00  0.00    -0.390 OA
HETATM   41  H   UNL     1     -15.099 -10.811  -3.896  1.00  0.00     0.210 HD
ENDBRANCH   3  40
BRANCH   5  42
HETATM   42  O   UNL     1     -19.056  -8.518  -2.648  1.00  0.00    -0.348 OA
BRANCH  42  43
HETATM   43  C   UNL     1     -20.326  -8.847  -3.267  1.00  0.00     0.187 C 
HETATM   44  C   UNL     1     -20.339  -8.496  -4.769  1.00  0.00     0.180 C 
HETATM   45  O   UNL     1     -20.425  -7.100  -5.072  1.00  0.00    -0.349 OA
HETATM   46  C   UNL     1     -21.259  -6.274  -4.293  1.00  0.00     0.288 C 
HETATM   47  C   UNL     1     -21.340  -6.574  -2.791  1.00  0.00     0.204 C 
HETATM   48  C   UNL     1     -21.454  -8.083  -2.551  1.00  0.00     0.183 C 
BRANCH  44  49
HETATM   49  C   UNL     1     -21.350  -9.342  -5.552  1.00  0.00     0.198 C 
BRANCH  49  50
HETATM   50  O   UNL     1     -20.762 -10.569  -5.982  1.00  0.00    -0.398 OA
HETATM   51  H   UNL     1     -19.874 -10.383  -6.345  1.00  0.00     0.209 HD
ENDBRANCH  49  50
ENDBRANCH  44  49
BRANCH  46  52
HETATM   52  O   UNL     1     -22.584  -6.282  -4.823  1.00  0.00    -0.369 OA
HETATM   53  H   UNL     1     -22.485  -6.057  -5.760  1.00  0.00     0.212 HD
ENDBRANCH  46  52
BRANCH  47  54
HETATM   54  O   UNL     1     -22.482  -5.885  -2.245  1.00  0.00    -0.388 OA
HETATM   55  H   UNL     1     -22.399  -5.951  -1.273  1.00  0.00     0.210 HD
ENDBRANCH  47  54
BRANCH  48  56
HETATM   56  O   UNL     1     -21.418  -8.393  -1.147  1.00  0.00    -0.390 OA
HETATM   57  H   UNL     1     -22.186  -7.949  -0.743  1.00  0.00     0.210 HD
ENDBRANCH  48  56
ENDBRANCH  42  43
ENDBRANCH   5  42
BRANCH   4  58
HETATM   58  O   UNL     1     -17.037  -9.728  -4.277  1.00  0.00    -0.388 OA
HETATM   59  H   UNL     1     -16.124  -9.853  -4.610  1.00  0.00     0.210 HD
ENDBRANCH   4  58
TORSDOF 24
ENDMDL
MODEL 5
REMARK VINA RESULT:      -5.4      1.970      5.439
REMARK  24 active torsions:
REMARK  status: ('A' for Active; 'I' for Inactive)
REMARK    1  A    between atoms: C_1  and  C_2 
REMARK    2  A    between atoms: C_1  and  O_45 
REMARK    3  A    between atoms: C_3  and  O_44 
REMARK    4  A    between atoms: C_4  and  O_43 
REMARK    5  A    between atoms: C_5  and  O_42 
REMARK    6  A    between atoms: C_6  and  O_8 
REMARK    7  A    between atoms: O_8  and  C_9 
REMARK    8  A    between atoms: C_9  and  C_10 
REMARK    9  A    between atoms: C_11  and  O_30 
REMARK   10  A    between atoms: C_12  and  O_29 
REMARK   11  A    between atoms: C_13  and  O_28 
REMARK   12  A    between atoms: C_14  and  O_16 
REMARK   13  A    between atoms: O_16  and  C_17 
REMARK   14  A    between atoms: C_18  and  C_26 
REMARK   15  A    between atoms: C_20  and  O_25 
REMARK   16  A    between atoms: C_21  and  O_24 
REMARK   17  A    between atoms: C_22  and  O_23 
REMARK   18  A    between atoms: C_26  and  O_27 
REMARK   19  A    between atoms: O_30  and  C_31 
REMARK   20  A    between atoms: C_32  and  O_41 
REMARK   21  A    between atoms: C_33  and  O_40 
REMARK   22  A    between atoms: C_34  and  O_39 
REMARK   23  A    between atoms: C_35  and  C_37 
REMARK   24  A    between atoms: C_37  and  O_38 
ROOT
HETATM    1  C   UNL     1     -19.597 -12.855  -4.795  1.00  0.00     0.180 C 
HETATM    2  C   UNL     1     -20.876 -13.712  -4.616  1.00  0.00     0.187 C 
HETATM    3  C   UNL     1     -21.871 -13.330  -5.742  1.00  0.00     0.183 C 
HETATM    4  C   UNL     1     -22.209 -11.830  -5.713  1.00  0.00     0.204 C 
HETATM    5  C   UNL     1     -20.887 -11.029  -5.818  1.00  0.00     0.292 C 
HETATM    6  O   UNL     1     -19.932 -11.468  -4.856  1.00  0.00    -0.348 OA
ENDROOT
BRANCH   1   7
HETATM    7  C   UNL     1     -18.691 -13.352  -5.954  1.00  0.00     0.205 C 
BRANCH   7   8
HETATM    8  O   UNL     1     -17.456 -13.898  -5.452  1.00  0.00    -0.356 OA
BRANCH   8   9
HETATM    9  C   UNL     1     -16.524 -12.908  -4.931  1.00  0.00     0.291 C 
HETATM   10  C   UNL     1     -15.213 -12.978  -5.746  1.00  0.00     0.204 C 
HETATM   11  C   UNL     1     -14.118 -12.139  -5.087  1.00  0.00     0.183 C 
HETATM   12  C   UNL     1     -13.886 -12.594  -3.643  1.00  0.00     0.180 C 
HETATM   13  C   UNL     1     -15.215 -12.550  -2.868  1.00  0.00     0.179 C 
HETATM   14  O   UNL     1     -16.281 -13.247  -3.557  1.00  0.00    -0.348 OA
BRANCH  10  15
HETATM   15  O   UNL     1     -14.779 -14.356  -5.823  1.00  0.00    -0.388 OA
HETATM   16  H   UNL     1     -14.984 -14.757  -4.954  1.00  0.00     0.210 HD
ENDBRANCH  10  15
BRANCH  11  17
HETATM   17  O   UNL     1     -12.913 -12.244  -5.848  1.00  0.00    -0.390 OA
HETATM   18  H   UNL     1     -12.988 -13.089  -6.346  1.00  0.00     0.210 HD
ENDBRANCH  11  17
BRANCH  12  19
HETATM   19  O   UNL     1     -13.361 -13.934  -3.613  1.00  0.00    -0.390 OA
HETATM   20  H   UNL     1     -13.970 -14.472  -3.068  1.00  0.00     0.210 HD
ENDBRANCH  12  19
BRANCH  13  21
HETATM   21  C   UNL     1     -15.594 -11.114  -2.465  1.00  0.00     0.198 C 
BRANCH  21  22
HETATM   22  O   UNL     1     -16.730 -11.097  -1.604  1.00  0.00    -0.398 OA
HETATM   23  H   UNL     1     -17.498 -11.426  -2.105  1.00  0.00     0.209 HD
ENDBRANCH  21  22
ENDBRANCH  13  21
ENDBRANCH   8   9
ENDBRANCH   7   8
ENDBRANCH   1   7
BRANCH   2  24
HETATM   24  O   UNL     1     -21.546 -13.469  -3.346  1.00  0.00    -0.348 OA
BRANCH  24  25
HETATM   25  C   UNL     1     -20.881 -12.619  -2.410  1.00  0.00     0.292 C 
HETATM   26  C   UNL     1     -20.168 -13.369  -1.259  1.00  0.00     0.204 C 
HETATM   27  C   UNL     1     -21.186 -13.850  -0.211  1.00  0.00     0.183 C 
HETATM   28  C   UNL     1     -22.050 -12.677   0.267  1.00  0.00     0.180 C 
HETATM   29  C   UNL     1     -22.766 -12.110  -0.971  1.00  0.00     0.179 C 
HETATM   30  O   UNL     1     -21.813 -11.631  -1.927  1.00  0.00    -0.348 OA
BRANCH  26  31
HETATM   31  O   UNL     1     -19.187 -12.509  -0.647  1.00  0.00    -0.388 OA
HETATM   32  H   UNL     1     -19.343 -12.565   0.324  1.00  0.00     0.210 HD
ENDBRANCH  26  31
BRANCH  27  33
HETATM   33  O   UNL     1     -20.505 -14.447   0.894  1.00  0.00    -0.390 OA
HETATM   34  H   UNL     1     -19.551 -14.321   0.718  1.00  0.00     0.210 HD
ENDBRANCH  27  33
BRANCH  28  35
HETATM   35  O   UNL     1     -21.185 -11.686   0.863  1.00  0.00    -0.390 OA
HETATM   36  H   UNL     1     -20.651 -11.307   0.140  1.00  0.00     0.210 HD
ENDBRANCH  28  35
BRANCH  29  37
HETATM   37  C   UNL     1     -23.707 -10.956  -0.615  1.00  0.00     0.198 C 
BRANCH  37  38
HETATM   38  O   UNL     1     -23.004  -9.720  -0.571  1.00  0.00    -0.398 OA
HETATM   39  H   UNL     1     -23.555  -9.089  -0.074  1.00  0.00     0.209 HD
ENDBRANCH  37  38
ENDBRANCH  29  37
ENDBRANCH  24  25
ENDBRANCH   2  24
BRANCH   3  40
HETATM   40  O   UNL     1     -23.057 -14.121  -5.634  1.00  0.00    -0.390 OA
HETATM   41  H   UNL     1     -23.202 -14.511  -6.522  1.00  0.00     0.210 HD
ENDBRANCH   3  40
BRANCH   5  42
HETATM   42  O   UNL     1     -21.158  -9.623  -5.639  1.00  0.00    -0.348 OA
BRANCH  42  43
HETATM   43  C   UNL     1     -20.263  -8.992  -4.688  1.00  0.00     0.187 C 
HETATM   44  C   UNL     1     -20.844  -9.006  -3.259  1.00  0.00     0.180 C 
HETATM   45  O   UNL     1     -21.921  -8.092  -3.025  1.00  0.00    -0.349 OA
HETATM   46  C   UNL     1     -21.874  -6.807  -3.602  1.00  0.00     0.288 C 
HETATM   47  C   UNL     1     -21.273  -6.690  -5.008  1.00  0.00     0.204 C 
HETATM   48  C   UNL     1     -20.002  -7.538  -5.122  1.00  0.00     0.183 C 
BRANCH  44  49
HETATM   49  C   UNL     1     -19.750  -8.929  -2.188  1.00  0.00     0.198 C 
BRANCH  49  50
HETATM   50  O   UNL     1     -20.167  -9.576  -0.987  1.00  0.00    -0.398 OA
HETATM   51  H   UNL     1     -20.429 -10.494  -1.198  1.00  0.00     0.209 HD
ENDBRANCH  49  50
ENDBRANCH  44  49
BRANCH  46  52
HETATM   52  O   UNL     1     -21.172  -5.913  -2.740  1.00  0.00    -0.369 OA
HETATM   53  H   UNL     1     -21.440  -6.160  -1.843  1.00  0.00     0.212 HD
ENDBRANCH  46  52
BRANCH  47  54
HETATM   54  O   UNL     1     -20.983  -5.303  -5.270  1.00  0.00    -0.388 OA
HETATM   55  H   UNL     1     -20.857  -4.882  -4.397  1.00  0.00     0.210 HD
ENDBRANCH  47  54
BRANCH  48  56
HETATM   56  O   UNL     1     -19.487  -7.531  -6.464  1.00  0.00    -0.390 OA
HETATM   57  H   UNL     1     -20.206  -7.207  -7.037  1.00  0.00     0.210 HD
ENDBRANCH  48  56
ENDBRANCH  42  43
ENDBRANCH   5  42
BRANCH   4  58
HETATM   58  O   UNL     1     -22.963 -11.540  -4.518  1.00  0.00    -0.388 OA
HETATM   59  H   UNL     1     -23.276 -10.614  -4.595  1.00  0.00     0.210 HD
ENDBRANCH   4  58
TORSDOF 24
ENDMDL
MODEL 6
REMARK VINA RESULT:      -5.4      1.525      2.494
REMARK  24 active torsions:
REMARK  status: ('A' for Active; 'I' for Inactive)
REMARK    1  A    between atoms: C_1  and  C_2 
REMARK    2  A    between atoms: C_1  and  O_45 
REMARK    3  A    between atoms: C_3  and  O_44 
REMARK    4  A    between atoms: C_4  and  O_43 
REMARK    5  A    between atoms: C_5  and  O_42 
REMARK    6  A    between atoms: C_6  and  O_8 
REMARK    7  A    between atoms: O_8  and  C_9 
REMARK    8  A    between atoms: C_9  and  C_10 
REMARK    9  A    between atoms: C_11  and  O_30 
REMARK   10  A    between atoms: C_12  and  O_29 
REMARK   11  A    between atoms: C_13  and  O_28 
REMARK   12  A    between atoms: C_14  and  O_16 
REMARK   13  A    between atoms: O_16  and  C_17 
REMARK   14  A    between atoms: C_18  and  C_26 
REMARK   15  A    between atoms: C_20  and  O_25 
REMARK   16  A    between atoms: C_21  and  O_24 
REMARK   17  A    between atoms: C_22  and  O_23 
REMARK   18  A    between atoms: C_26  and  O_27 
REMARK   19  A    between atoms: O_30  and  C_31 
REMARK   20  A    between atoms: C_32  and  O_41 
REMARK   21  A    between atoms: C_33  and  O_40 
REMARK   22  A    between atoms: C_34  and  O_39 
REMARK   23  A    between atoms: C_35  and  C_37 
REMARK   24  A    between atoms: C_37  and  O_38 
ROOT
HETATM    1  C   UNL     1     -17.310 -10.952  -3.649  1.00  0.00     0.180 C 
HETATM    2  C   UNL     1     -17.743 -10.490  -5.064  1.00  0.00     0.187 C 
HETATM    3  C   UNL     1     -18.415  -9.100  -4.930  1.00  0.00     0.183 C 
HETATM    4  C   UNL     1     -19.620  -9.144  -3.976  1.00  0.00     0.204 C 
HETATM    5  C   UNL     1     -19.139  -9.684  -2.606  1.00  0.00     0.292 C 
HETATM    6  O   UNL     1     -18.417 -10.904  -2.749  1.00  0.00    -0.348 OA
ENDROOT
BRANCH   1   7
HETATM    7  C   UNL     1     -16.032 -10.229  -3.140  1.00  0.00     0.205 C 
BRANCH   7   8
HETATM    8  O   UNL     1     -15.644 -10.713  -1.839  1.00  0.00    -0.356 OA
BRANCH   8   9
HETATM    9  C   UNL     1     -15.918 -12.124  -1.611  1.00  0.00     0.291 C 
HETATM   10  C   UNL     1     -16.340 -12.319  -0.137  1.00  0.00     0.204 C 
HETATM   11  C   UNL     1     -16.398 -13.806   0.219  1.00  0.00     0.183 C 
HETATM   12  C   UNL     1     -15.050 -14.479  -0.055  1.00  0.00     0.180 C 
HETATM   13  C   UNL     1     -14.639 -14.234  -1.519  1.00  0.00     0.179 C 
HETATM   14  O   UNL     1     -14.700 -12.835  -1.884  1.00  0.00    -0.348 OA
BRANCH  10  15
HETATM   15  O   UNL     1     -15.379 -11.660   0.720  1.00  0.00    -0.388 OA
HETATM   16  H   UNL     1     -15.423 -10.707   0.498  1.00  0.00     0.210 HD
ENDBRANCH  10  15
BRANCH  11  17
HETATM   17  O   UNL     1     -16.766 -13.954   1.591  1.00  0.00    -0.390 OA
HETATM   18  H   UNL     1     -15.949 -14.253   2.052  1.00  0.00     0.210 HD
ENDBRANCH  11  17
BRANCH  12  19
HETATM   19  O   UNL     1     -14.035 -13.953   0.819  1.00  0.00    -0.390 OA
HETATM   20  H   UNL     1     -13.247 -13.767   0.270  1.00  0.00     0.210 HD
ENDBRANCH  12  19
BRANCH  13  21
HETATM   21  C   UNL     1     -15.410 -15.147  -2.489  1.00  0.00     0.198 C 
BRANCH  21  22
HETATM   22  O   UNL     1     -14.525 -15.970  -3.244  1.00  0.00    -0.398 OA
HETATM   23  H   UNL     1     -13.754 -16.181  -2.686  1.00  0.00     0.209 HD
ENDBRANCH  21  22
ENDBRANCH  13  21
ENDBRANCH   8   9
ENDBRANCH   7   8
ENDBRANCH   1   7
BRANCH   2  24
HETATM   24  O   UNL     1     -18.716 -11.384  -5.676  1.00  0.00    -0.348 OA
BRANCH  24  25
HETATM   25  C   UNL     1     -18.374 -11.953  -6.941  1.00  0.00     0.292 C 
HETATM   26  C   UNL     1     -19.385 -13.001  -7.466  1.00  0.00     0.204 C 
HETATM   27  C   UNL     1     -19.208 -14.341  -6.732  1.00  0.00     0.183 C 
HETATM   28  C   UNL     1     -17.749 -14.805  -6.816  1.00  0.00     0.180 C 
HETATM   29  C   UNL     1     -16.889 -13.708  -6.165  1.00  0.00     0.179 C 
HETATM   30  O   UNL     1     -17.031 -12.472  -6.875  1.00  0.00    -0.348 OA
BRANCH  26  31
HETATM   31  O   UNL     1     -19.212 -13.181  -8.885  1.00  0.00    -0.388 OA
HETATM   32  H   UNL     1     -20.116 -13.156  -9.276  1.00  0.00     0.210 HD
ENDBRANCH  26  31
BRANCH  27  33
HETATM   33  O   UNL     1     -20.075 -15.326  -7.299  1.00  0.00    -0.390 OA
HETATM   34  H   UNL     1     -20.160 -16.027  -6.622  1.00  0.00     0.210 HD
ENDBRANCH  27  33
BRANCH  28  35
HETATM   35  O   UNL     1     -17.403 -14.975  -8.208  1.00  0.00    -0.390 OA
HETATM   36  H   UNL     1     -18.194 -15.334  -8.652  1.00  0.00     0.210 HD
ENDBRANCH  28  35
BRANCH  29  37
HETATM   37  C   UNL     1     -15.404 -14.078  -6.140  1.00  0.00     0.198 C 
BRANCH  37  38
HETATM   38  O   UNL     1     -15.231 -15.490  -6.136  1.00  0.00    -0.398 OA
HETATM   39  H   UNL     1     -16.114 -15.891  -6.232  1.00  0.00     0.209 HD
ENDBRANCH  37  38
ENDBRANCH  29  37
ENDBRANCH  24  25
ENDBRANCH   2  24
BRANCH   3  40
HETATM   40  O   UNL     1     -18.803  -8.620  -6.219  1.00  0.00    -0.390 OA
HETATM   41  H   UNL     1     -19.112  -7.699  -6.082  1.00  0.00     0.210 HD
ENDBRANCH   3  40
BRANCH   5  42
HETATM   42  O   UNL     1     -20.275  -9.881  -1.738  1.00  0.00    -0.348 OA
BRANCH  42  43
HETATM   43  C   UNL     1     -21.368  -8.971  -2.023  1.00  0.00     0.187 C 
HETATM   44  C   UNL     1     -21.268  -7.677  -1.190  1.00  0.00     0.180 C 
HETATM   45  O   UNL     1     -21.594  -7.814   0.198  1.00  0.00    -0.349 OA
HETATM   46  C   UNL     1     -22.666  -8.648   0.577  1.00  0.00     0.288 C 
HETATM   47  C   UNL     1     -22.868  -9.940  -0.225  1.00  0.00     0.204 C 
HETATM   48  C   UNL     1     -22.706  -9.673  -1.725  1.00  0.00     0.183 C 
BRANCH  44  49
HETATM   49  C   UNL     1     -21.986  -6.500  -1.860  1.00  0.00     0.198 C 
BRANCH  49  50
HETATM   50  O   UNL     1     -21.422  -6.222  -3.140  1.00  0.00    -0.398 OA
HETATM   51  H   UNL     1     -21.859  -5.431  -3.512  1.00  0.00     0.209 HD
ENDBRANCH  49  50
ENDBRANCH  44  49
BRANCH  46  52
HETATM   52  O   UNL     1     -23.887  -7.911   0.552  1.00  0.00    -0.369 OA
HETATM   53  H   UNL     1     -23.713  -7.111   1.069  1.00  0.00     0.212 HD
ENDBRANCH  46  52
BRANCH  47  54
HETATM   54  O   UNL     1     -24.182 -10.457   0.061  1.00  0.00    -0.388 OA
HETATM   55  H   UNL     1     -24.128 -10.859   0.950  1.00  0.00     0.210 HD
ENDBRANCH  47  54
BRANCH  48  56
HETATM   56  O   UNL     1     -22.780 -10.893  -2.483  1.00  0.00    -0.390 OA
HETATM   57  H   UNL     1     -22.858 -10.634  -3.420  1.00  0.00     0.210 HD
ENDBRANCH  48  56
ENDBRANCH  42  43
ENDBRANCH   5  42
BRANCH   4  58
HETATM   58  O   UNL     1     -20.665  -9.940  -4.573  1.00  0.00    -0.388 OA
HETATM   59  H   UNL     1     -21.517  -9.517  -4.335  1.00  0.00     0.210 HD
ENDBRANCH   4  58
TORSDOF 24
ENDMDL
MODEL 7
REMARK VINA RESULT:      -5.4      1.958      6.444
REMARK  24 active torsions:
REMARK  status: ('A' for Active; 'I' for Inactive)
REMARK    1  A    between atoms: C_1  and  C_2 
REMARK    2  A    between atoms: C_1  and  O_45 
REMARK    3  A    between atoms: C_3  and  O_44 
REMARK    4  A    between atoms: C_4  and  O_43 
REMARK    5  A    between atoms: C_5  and  O_42 
REMARK    6  A    between atoms: C_6  and  O_8 
REMARK    7  A    between atoms: O_8  and  C_9 
REMARK    8  A    between atoms: C_9  and  C_10 
REMARK    9  A    between atoms: C_11  and  O_30 
REMARK   10  A    between atoms: C_12  and  O_29 
REMARK   11  A    between atoms: C_13  and  O_28 
REMARK   12  A    between atoms: C_14  and  O_16 
REMARK   13  A    between atoms: O_16  and  C_17 
REMARK   14  A    between atoms: C_18  and  C_26 
REMARK   15  A    between atoms: C_20  and  O_25 
REMARK   16  A    between atoms: C_21  and  O_24 
REMARK   17  A    between atoms: C_22  and  O_23 
REMARK   18  A    between atoms: C_26  and  O_27 
REMARK   19  A    between atoms: O_30  and  C_31 
REMARK   20  A    between atoms: C_32  and  O_41 
REMARK   21  A    between atoms: C_33  and  O_40 
REMARK   22  A    between atoms: C_34  and  O_39 
REMARK   23  A    between atoms: C_35  and  C_37 
REMARK   24  A    between atoms: C_37  and  O_38 
ROOT
HETATM    1  C   UNL     1     -18.506 -11.250  -3.323  1.00  0.00     0.180 C 
HETATM    2  C   UNL     1     -17.787 -10.538  -4.498  1.00  0.00     0.187 C 
HETATM    3  C   UNL     1     -18.845  -9.716  -5.278  1.00  0.00     0.183 C 
HETATM    4  C   UNL     1     -19.986 -10.607  -5.794  1.00  0.00     0.204 C 
HETATM    5  C   UNL     1     -20.612 -11.348  -4.585  1.00  0.00     0.292 C 
HETATM    6  O   UNL     1     -19.618 -12.004  -3.803  1.00  0.00    -0.348 OA
ENDROOT
BRANCH   1   7
HETATM    7  C   UNL     1     -18.834 -10.294  -2.144  1.00  0.00     0.205 C 
BRANCH   7   8
HETATM    8  O   UNL     1     -19.143 -11.031  -0.945  1.00  0.00    -0.356 OA
BRANCH   8   9
HETATM    9  C   UNL     1     -20.385 -10.640  -0.296  1.00  0.00     0.291 C 
HETATM   10  C   UNL     1     -21.276 -11.890  -0.127  1.00  0.00     0.204 C 
HETATM   11  C   UNL     1     -22.685 -11.497   0.320  1.00  0.00     0.183 C 
HETATM   12  C   UNL     1     -23.311 -10.512  -0.673  1.00  0.00     0.180 C 
HETATM   13  C   UNL     1     -22.382  -9.297  -0.848  1.00  0.00     0.179 C 
HETATM   14  O   UNL     1     -21.021  -9.680  -1.155  1.00  0.00    -0.348 OA
BRANCH  10  15
HETATM   15  O   UNL     1     -21.354 -12.588  -1.393  1.00  0.00    -0.388 OA
HETATM   16  H   UNL     1     -21.649 -13.498  -1.186  1.00  0.00     0.210 HD
ENDBRANCH  10  15
BRANCH  11  17
HETATM   17  O   UNL     1     -23.492 -12.670   0.442  1.00  0.00    -0.390 OA
HETATM   18  H   UNL     1     -24.407 -12.344   0.601  1.00  0.00     0.210 HD
ENDBRANCH  11  17
BRANCH  12  19
HETATM   19  O   UNL     1     -23.516 -11.143  -1.950  1.00  0.00    -0.390 OA
HETATM   20  H   UNL     1     -24.375 -11.611  -1.907  1.00  0.00     0.210 HD
ENDBRANCH  12  19
BRANCH  13  21
HETATM   21  C   UNL     1     -22.483  -8.324   0.340  1.00  0.00     0.198 C 
BRANCH  21  22
HETATM   22  O   UNL     1     -23.798  -7.792   0.468  1.00  0.00    -0.398 OA
HETATM   23  H   UNL     1     -24.318  -8.394   1.032  1.00  0.00     0.209 HD
ENDBRANCH  21  22
ENDBRANCH  13  21
ENDBRANCH   8   9
ENDBRANCH   7   8
ENDBRANCH   1   7
BRANCH   2  24
HETATM   24  O   UNL     1     -17.185 -11.471  -5.440  1.00  0.00    -0.348 OA
BRANCH  24  25
HETATM   25  C   UNL     1     -15.759 -11.559  -5.449  1.00  0.00     0.292 C 
HETATM   26  C   UNL     1     -15.191 -12.666  -6.369  1.00  0.00     0.204 C 
HETATM   27  C   UNL     1     -15.345 -14.049  -5.715  1.00  0.00     0.183 C 
HETATM   28  C   UNL     1     -14.727 -14.045  -4.311  1.00  0.00     0.180 C 
HETATM   29  C   UNL     1     -15.465 -12.969  -3.496  1.00  0.00     0.179 C 
HETATM   30  O   UNL     1     -15.286 -11.678  -4.092  1.00  0.00    -0.348 OA
BRANCH  26  31
HETATM   31  O   UNL     1     -13.805 -12.401  -6.658  1.00  0.00    -0.388 OA
HETATM   32  H   UNL     1     -13.284 -13.011  -6.087  1.00  0.00     0.210 HD
ENDBRANCH  26  31
BRANCH  27  33
HETATM   33  O   UNL     1     -14.723 -15.047  -6.527  1.00  0.00    -0.390 OA
HETATM   34  H   UNL     1     -14.531 -14.612  -7.382  1.00  0.00     0.210 HD
ENDBRANCH  27  33
BRANCH  28  35
HETATM   35  O   UNL     1     -13.322 -13.729  -4.433  1.00  0.00    -0.390 OA
HETATM   36  H   UNL     1     -13.106 -13.773  -5.383  1.00  0.00     0.210 HD
ENDBRANCH  28  35
BRANCH  29  37
HETATM   37  C   UNL     1     -14.969 -12.900  -2.049  1.00  0.00     0.198 C 
BRANCH  37  38
HETATM   38  O   UNL     1     -14.248 -14.077  -1.702  1.00  0.00    -0.398 OA
HETATM   39  H   UNL     1     -14.838 -14.836  -1.858  1.00  0.00     0.209 HD
ENDBRANCH  37  38
ENDBRANCH  29  37
ENDBRANCH  24  25
ENDBRANCH   2  24
BRANCH   3  40
HETATM   40  O   UNL     1     -18.219  -9.016  -6.356  1.00  0.00    -0.390 OA
HETATM   41  H   UNL     1     -18.228  -8.069  -6.102  1.00  0.00     0.210 HD
ENDBRANCH   3  40
BRANCH   5  42
HETATM   42  O   UNL     1     -21.584 -12.306  -5.055  1.00  0.00    -0.348 OA
BRANCH  42  43
HETATM   43  C   UNL     1     -21.215 -13.677  -4.756  1.00  0.00     0.187 C 
HETATM   44  C   UNL     1     -20.565 -14.372  -5.970  1.00  0.00     0.180 C 
HETATM   45  O   UNL     1     -21.461 -14.725  -7.029  1.00  0.00    -0.349 OA
HETATM   46  C   UNL     1     -22.742 -15.223  -6.713  1.00  0.00     0.288 C 
HETATM   47  C   UNL     1     -23.449 -14.617  -5.495  1.00  0.00     0.204 C 
HETATM   48  C   UNL     1     -22.470 -14.460  -4.327  1.00  0.00     0.183 C 
BRANCH  44  49
HETATM   49  C   UNL     1     -19.648 -15.528  -5.553  1.00  0.00     0.198 C 
BRANCH  49  50
HETATM   50  O   UNL     1     -18.730 -15.111  -4.544  1.00  0.00    -0.398 OA
HETATM   51  H   UNL     1     -18.806 -15.715  -3.780  1.00  0.00     0.209 HD
ENDBRANCH  49  50
ENDBRANCH  44  49
BRANCH  46  52
HETATM   52  O   UNL     1     -22.684 -16.637  -6.540  1.00  0.00    -0.369 OA
HETATM   53  H   UNL     1     -23.431 -16.854  -5.963  1.00  0.00     0.212 HD
ENDBRANCH  46  52
BRANCH  47  54
HETATM   54  O   UNL     1     -24.546 -15.477  -5.126  1.00  0.00    -0.388 OA
HETATM   55  H   UNL     1     -24.658 -16.106  -5.866  1.00  0.00     0.210 HD
ENDBRANCH  47  54
BRANCH  48  56
HETATM   56  O   UNL     1     -23.087 -13.790  -3.214  1.00  0.00    -0.390 OA
HETATM   57  H   UNL     1     -22.789 -12.862  -3.247  1.00  0.00     0.210 HD
ENDBRANCH  48  56
ENDBRANCH  42  43
ENDBRANCH   5  42
BRANCH   4  58
HETATM   58  O   UNL     1     -19.471 -11.495  -6.808  1.00  0.00    -0.388 OA
HETATM   59  H   UNL     1     -18.512 -11.311  -6.889  1.00  0.00     0.210 HD
ENDBRANCH   4  58
TORSDOF 24
ENDMDL
MODEL 8
REMARK VINA RESULT:      -5.4      2.810      8.621
REMARK  24 active torsions:
REMARK  status: ('A' for Active; 'I' for Inactive)
REMARK    1  A    between atoms: C_1  and  C_2 
REMARK    2  A    between atoms: C_1  and  O_45 
REMARK    3  A    between atoms: C_3  and  O_44 
REMARK    4  A    between atoms: C_4  and  O_43 
REMARK    5  A    between atoms: C_5  and  O_42 
REMARK    6  A    between atoms: C_6  and  O_8 
REMARK    7  A    between atoms: O_8  and  C_9 
REMARK    8  A    between atoms: C_9  and  C_10 
REMARK    9  A    between atoms: C_11  and  O_30 
REMARK   10  A    between atoms: C_12  and  O_29 
REMARK   11  A    between atoms: C_13  and  O_28 
REMARK   12  A    between atoms: C_14  and  O_16 
REMARK   13  A    between atoms: O_16  and  C_17 
REMARK   14  A    between atoms: C_18  and  C_26 
REMARK   15  A    between atoms: C_20  and  O_25 
REMARK   16  A    between atoms: C_21  and  O_24 
REMARK   17  A    between atoms: C_22  and  O_23 
REMARK   18  A    between atoms: C_26  and  O_27 
REMARK   19  A    between atoms: O_30  and  C_31 
REMARK   20  A    between atoms: C_32  and  O_41 
REMARK   21  A    between atoms: C_33  and  O_40 
REMARK   22  A    between atoms: C_34  and  O_39 
REMARK   23  A    between atoms: C_35  and  C_37 
REMARK   24  A    between atoms: C_37  and  O_38 
ROOT
HETATM    1  C   UNL     1     -20.179  -9.102  -4.814  1.00  0.00     0.180 C 
HETATM    2  C   UNL     1     -19.378  -9.061  -3.487  1.00  0.00     0.187 C 
HETATM    3  C   UNL     1     -17.894  -9.367  -3.814  1.00  0.00     0.183 C 
HETATM    4  C   UNL     1     -17.738 -10.731  -4.506  1.00  0.00     0.204 C 
HETATM    5  C   UNL     1     -18.619 -10.737  -5.780  1.00  0.00     0.292 C 
HETATM    6  O   UNL     1     -19.956 -10.338  -5.492  1.00  0.00    -0.348 OA
ENDROOT
BRANCH   1   7
HETATM    7  C   UNL     1     -19.967  -7.837  -5.689  1.00  0.00     0.205 C 
BRANCH   7   8
HETATM    8  O   UNL     1     -21.128  -6.984  -5.663  1.00  0.00    -0.356 OA
BRANCH   8   9
HETATM    9  C   UNL     1     -21.340  -6.212  -6.879  1.00  0.00     0.291 C 
HETATM   10  C   UNL     1     -20.110  -5.307  -7.117  1.00  0.00     0.204 C 
HETATM   11  C   UNL     1     -20.384  -4.300  -8.234  1.00  0.00     0.183 C 
HETATM   12  C   UNL     1     -21.624  -3.460  -7.911  1.00  0.00     0.180 C 
HETATM   13  C   UNL     1     -22.821  -4.390  -7.642  1.00  0.00     0.179 C 
HETATM   14  O   UNL     1     -22.517  -5.416  -6.668  1.00  0.00    -0.348 OA
BRANCH  10  15
HETATM   15  O   UNL     1     -19.806  -4.594  -5.895  1.00  0.00    -0.388 OA
HETATM   16  H   UNL     1     -20.632  -4.142  -5.628  1.00  0.00     0.210 HD
ENDBRANCH  10  15
BRANCH  11  17
HETATM   17  O   UNL     1     -19.241  -3.463  -8.414  1.00  0.00    -0.390 OA
HETATM   18  H   UNL     1     -19.568  -2.669  -8.894  1.00  0.00     0.210 HD
ENDBRANCH  11  17
BRANCH  12  19
HETATM   19  O   UNL     1     -21.389  -2.637  -6.754  1.00  0.00    -0.390 OA
HETATM   20  H   UNL     1     -20.777  -3.128  -6.169  1.00  0.00     0.210 HD
ENDBRANCH  12  19
BRANCH  13  21
HETATM   21  C   UNL     1     -23.414  -4.951  -8.947  1.00  0.00     0.198 C 
BRANCH  21  22
HETATM   22  O   UNL     1     -24.644  -4.312  -9.277  1.00  0.00    -0.398 OA
HETATM   23  H   UNL     1     -25.153  -4.184  -8.456  1.00  0.00     0.209 HD
ENDBRANCH  21  22
ENDBRANCH  13  21
ENDBRANCH   8   9
ENDBRANCH   7   8
ENDBRANCH   1   7
BRANCH   2  24
HETATM   24  O   UNL     1     -19.825 -10.061  -2.527  1.00  0.00    -0.348 OA
BRANCH  24  25
HETATM   25  C   UNL     1     -20.008  -9.632  -1.176  1.00  0.00     0.292 C 
HETATM   26  C   UNL     1     -20.896 -10.568  -0.323  1.00  0.00     0.204 C 
HETATM   27  C   UNL     1     -22.382 -10.369  -0.665  1.00  0.00     0.183 C 
HETATM   28  C   UNL     1     -22.762  -8.888  -0.543  1.00  0.00     0.180 C 
HETATM   29  C   UNL     1     -21.866  -8.111  -1.523  1.00  0.00     0.179 C 
HETATM   30  O   UNL     1     -20.485  -8.272  -1.176  1.00  0.00    -0.348 OA
BRANCH  26  31
HETATM   31  O   UNL     1     -20.668 -10.319   1.078  1.00  0.00    -0.388 OA
HETATM   32  H   UNL     1     -19.909  -9.692   1.125  1.00  0.00     0.210 HD
ENDBRANCH  26  31
BRANCH  27  33
HETATM   33  O   UNL     1     -23.195 -11.162   0.204  1.00  0.00    -0.390 OA
HETATM   34  H   UNL     1     -22.701 -11.995   0.342  1.00  0.00     0.210 HD
ENDBRANCH  27  33
BRANCH  28  35
HETATM   35  O   UNL     1     -22.526  -8.467   0.819  1.00  0.00    -0.390 OA
HETATM   36  H   UNL     1     -23.232  -7.833   1.043  1.00  0.00     0.210 HD
ENDBRANCH  28  35
BRANCH  29  37
HETATM   37  C   UNL     1     -22.185  -6.613  -1.532  1.00  0.00     0.198 C 
BRANCH  37  38
HETATM   38  O   UNL     1     -22.007  -6.062  -2.832  1.00  0.00    -0.398 OA
HETATM   39  H   UNL     1     -22.700  -6.438  -3.404  1.00  0.00     0.209 HD
ENDBRANCH  37  38
ENDBRANCH  29  37
ENDBRANCH  24  25
ENDBRANCH   2  24
BRANCH   3  40
HETATM   40  O   UNL     1     -17.111  -9.310  -2.620  1.00  0.00    -0.390 OA
HETATM   41  H   UNL     1     -16.175  -9.357  -2.910  1.00  0.00     0.210 HD
ENDBRANCH   3  40
BRANCH   5  42
HETATM   42  O   UNL     1     -18.613 -12.055  -6.368  1.00  0.00    -0.348 OA
BRANCH  42  43
HETATM   43  C   UNL     1     -19.946 -12.580  -6.591  1.00  0.00     0.187 C 
HETATM   44  C   UNL     1     -20.522 -13.240  -5.321  1.00  0.00     0.180 C 
HETATM   45  O   UNL     1     -19.956 -14.510  -4.979  1.00  0.00    -0.349 OA
HETATM   46  C   UNL     1     -19.651 -15.429  -6.003  1.00  0.00     0.288 C 
HETATM   47  C   UNL     1     -19.110 -14.859  -7.319  1.00  0.00     0.204 C 
HETATM   48  C   UNL     1     -19.901 -13.613  -7.732  1.00  0.00     0.183 C 
BRANCH  44  49
HETATM   49  C   UNL     1     -22.055 -13.247  -5.317  1.00  0.00     0.198 C 
BRANCH  49  50
HETATM   50  O   UNL     1     -22.569 -11.980  -4.911  1.00  0.00    -0.398 OA
HETATM   51  H   UNL     1     -22.439 -11.881  -3.947  1.00  0.00     0.209 HD
ENDBRANCH  49  50
ENDBRANCH  44  49
BRANCH  46  52
HETATM   52  O   UNL     1     -20.796 -16.226  -6.298  1.00  0.00    -0.369 OA
HETATM   53  H   UNL     1     -21.452 -15.989  -5.626  1.00  0.00     0.212 HD
ENDBRANCH  46  52
BRANCH  47  54
HETATM   54  O   UNL     1     -19.201 -15.878  -8.334  1.00  0.00    -0.388 OA
HETATM   55  H   UNL     1     -19.633 -16.646  -7.909  1.00  0.00     0.210 HD
ENDBRANCH  47  54
BRANCH  48  56
HETATM   56  O   UNL     1     -19.337 -13.000  -8.904  1.00  0.00    -0.390 OA
HETATM   57  H   UNL     1     -20.079 -12.828  -9.513  1.00  0.00     0.210 HD
ENDBRANCH  48  56
ENDBRANCH  42  43
ENDBRANCH   5  42
BRANCH   4  58
HETATM   58  O   UNL     1     -18.074 -11.777  -3.570  1.00  0.00    -0.388 OA
HETATM   59  H   UNL     1     -18.912 -12.180  -3.881  1.00  0.00     0.210 HD
ENDBRANCH   4  58
TORSDOF 24
ENDMDL
MODEL 9
REMARK VINA RESULT:      -5.4      2.301      5.856
REMARK  24 active torsions:
REMARK  status: ('A' for Active; 'I' for Inactive)
REMARK    1  A    between atoms: C_1  and  C_2 
REMARK    2  A    between atoms: C_1  and  O_45 
REMARK    3  A    between atoms: C_3  and  O_44 
REMARK    4  A    between atoms: C_4  and  O_43 
REMARK    5  A    between atoms: C_5  and  O_42 
REMARK    6  A    between atoms: C_6  and  O_8 
REMARK    7  A    between atoms: O_8  and  C_9 
REMARK    8  A    between atoms: C_9  and  C_10 
REMARK    9  A    between atoms: C_11  and  O_30 
REMARK   10  A    between atoms: C_12  and  O_29 
REMARK   11  A    between atoms: C_13  and  O_28 
REMARK   12  A    between atoms: C_14  and  O_16 
REMARK   13  A    between atoms: O_16  and  C_17 
REMARK   14  A    between atoms: C_18  and  C_26 
REMARK   15  A    between atoms: C_20  and  O_25 
REMARK   16  A    between atoms: C_21  and  O_24 
REMARK   17  A    between atoms: C_22  and  O_23 
REMARK   18  A    between atoms: C_26  and  O_27 
REMARK   19  A    between atoms: O_30  and  C_31 
REMARK   20  A    between atoms: C_32  and  O_41 
REMARK   21  A    between atoms: C_33  and  O_40 
REMARK   22  A    between atoms: C_34  and  O_39 
REMARK   23  A    between atoms: C_35  and  C_37 
REMARK   24  A    between atoms: C_37  and  O_38 
ROOT
HETATM    1  C   UNL     1     -19.835 -13.750  -2.303  1.00  0.00     0.180 C 
HETATM    2  C   UNL     1     -18.331 -13.944  -1.979  1.00  0.00     0.187 C 
HETATM    3  C   UNL     1     -18.136 -13.722  -0.458  1.00  0.00     0.183 C 
HETATM    4  C   UNL     1     -18.613 -12.327  -0.024  1.00  0.00     0.204 C 
HETATM    5  C   UNL     1     -20.096 -12.166  -0.443  1.00  0.00     0.292 C 
HETATM    6  O   UNL     1     -20.289 -12.488  -1.817  1.00  0.00    -0.348 OA
ENDROOT
BRANCH   1   7
HETATM    7  C   UNL     1     -20.708 -14.960  -1.874  1.00  0.00     0.205 C 
BRANCH   7   8
HETATM    8  O   UNL     1     -21.120 -15.736  -3.016  1.00  0.00    -0.356 OA
BRANCH   8   9
HETATM    9  C   UNL     1     -21.765 -14.967  -4.070  1.00  0.00     0.291 C 
HETATM   10  C   UNL     1     -23.169 -15.557  -4.332  1.00  0.00     0.204 C 
HETATM   11  C   UNL     1     -23.788 -14.949  -5.591  1.00  0.00     0.183 C 
HETATM   12  C   UNL     1     -22.872 -15.163  -6.801  1.00  0.00     0.180 C 
HETATM   13  C   UNL     1     -21.473 -14.599  -6.494  1.00  0.00     0.179 C 
HETATM   14  O   UNL     1     -20.941 -15.089  -5.240  1.00  0.00    -0.348 OA
BRANCH  10  15
HETATM   15  O   UNL     1     -23.054 -16.990  -4.501  1.00  0.00    -0.388 OA
HETATM   16  H   UNL     1     -23.752 -17.389  -3.943  1.00  0.00     0.210 HD
ENDBRANCH  10  15
BRANCH  11  17
HETATM   17  O   UNL     1     -25.072 -15.531  -5.822  1.00  0.00    -0.390 OA
HETATM   18  H   UNL     1     -25.392 -15.822  -4.938  1.00  0.00     0.210 HD
ENDBRANCH  11  17
BRANCH  12  19
HETATM   19  O   UNL     1     -22.764 -16.564  -7.111  1.00  0.00    -0.390 OA
HETATM   20  H   UNL     1     -21.833 -16.735  -7.360  1.00  0.00     0.210 HD
ENDBRANCH  12  19
BRANCH  13  21
HETATM   21  C   UNL     1     -21.437 -13.065  -6.608  1.00  0.00     0.198 C 
BRANCH  21  22
HETATM   22  O   UNL     1     -20.418 -12.505  -5.785  1.00  0.00    -0.398 OA
HETATM   23  H   UNL     1     -19.801 -12.011  -6.356  1.00  0.00     0.209 HD
ENDBRANCH  21  22
ENDBRANCH  13  21
ENDBRANCH   8   9
ENDBRANCH   7   8
ENDBRANCH   1   7
BRANCH   2  24
HETATM   24  O   UNL     1     -17.477 -12.987  -2.669  1.00  0.00    -0.348 OA
BRANCH  24  25
HETATM   25  C   UNL     1     -17.189 -13.243  -4.045  1.00  0.00     0.292 C 
HETATM   26  C   UNL     1     -15.687 -13.444  -4.357  1.00  0.00     0.204 C 
HETATM   27  C   UNL     1     -14.950 -12.094  -4.378  1.00  0.00     0.183 C 
HETATM   28  C   UNL     1     -15.649 -11.122  -5.336  1.00  0.00     0.180 C 
HETATM   29  C   UNL     1     -17.092 -10.950  -4.831  1.00  0.00     0.179 C 
HETATM   30  O   UNL     1     -17.782 -12.205  -4.850  1.00  0.00    -0.348 OA
BRANCH  26  31
HETATM   31  O   UNL     1     -15.535 -14.116  -5.623  1.00  0.00    -0.388 OA
HETATM   32  H   UNL     1     -15.479 -15.077  -5.418  1.00  0.00     0.210 HD
ENDBRANCH  26  31
BRANCH  27  33
HETATM   33  O   UNL     1     -13.589 -12.285  -4.771  1.00  0.00    -0.390 OA
HETATM   34  H   UNL     1     -13.156 -12.733  -4.017  1.00  0.00     0.210 HD
ENDBRANCH  27  33
BRANCH  28  35
HETATM   35  O   UNL     1     -15.629 -11.695  -6.662  1.00  0.00    -0.390 OA
HETATM   36  H   UNL     1     -16.381 -12.315  -6.711  1.00  0.00     0.210 HD
ENDBRANCH  28  35
BRANCH  29  37
HETATM   37  C   UNL     1     -17.886  -9.955  -5.683  1.00  0.00     0.198 C 
BRANCH  37  38
HETATM   38  O   UNL     1     -18.497 -10.606  -6.790  1.00  0.00    -0.398 OA
HETATM   39  H   UNL     1     -19.336 -10.989  -6.475  1.00  0.00     0.209 HD
ENDBRANCH  37  38
ENDBRANCH  29  37
ENDBRANCH  24  25
ENDBRANCH   2  24
BRANCH   3  40
HETATM   40  O   UNL     1     -16.764 -13.922  -0.108  1.00  0.00    -0.390 OA
HETATM   41  H   UNL     1     -16.591 -13.326   0.651  1.00  0.00     0.210 HD
ENDBRANCH   3  40
BRANCH   5  42
HETATM   42  O   UNL     1     -20.527 -10.812  -0.187  1.00  0.00    -0.348 OA
BRANCH  42  43
HETATM   43  C   UNL     1     -21.348 -10.270  -1.252  1.00  0.00     0.187 C 
HETATM   44  C   UNL     1     -20.657  -9.086  -1.961  1.00  0.00     0.180 C 
HETATM   45  O   UNL     1     -20.617  -7.864  -1.216  1.00  0.00    -0.349 OA
HETATM   46  C   UNL     1     -21.736  -7.486  -0.447  1.00  0.00     0.288 C 
HETATM   47  C   UNL     1     -22.511  -8.604   0.262  1.00  0.00     0.204 C 
HETATM   48  C   UNL     1     -22.696  -9.805  -0.671  1.00  0.00     0.183 C 
BRANCH  44  49
HETATM   49  C   UNL     1     -21.162  -8.896  -3.396  1.00  0.00     0.198 C 
BRANCH  49  50
HETATM   50  O   UNL     1     -21.184 -10.138  -4.096  1.00  0.00    -0.398 OA
HETATM   51  H   UNL     1     -21.017  -9.968  -5.044  1.00  0.00     0.209 HD
ENDBRANCH  49  50
ENDBRANCH  44  49
BRANCH  46  52
HETATM   52  O   UNL     1     -22.653  -6.749  -1.254  1.00  0.00    -0.369 OA
HETATM   53  H   UNL     1     -23.518  -7.156  -1.095  1.00  0.00     0.212 HD
ENDBRANCH  46  52
BRANCH  47  54
HETATM   54  O   UNL     1     -23.789  -8.084   0.680  1.00  0.00    -0.388 OA
HETATM   55  H   UNL     1     -23.646  -7.696   1.566  1.00  0.00     0.210 HD
ENDBRANCH  47  54
BRANCH  48  56
HETATM   56  O   UNL     1     -23.320 -10.906   0.012  1.00  0.00    -0.390 OA
HETATM   57  H   UNL     1     -24.178 -10.580   0.341  1.00  0.00     0.210 HD
ENDBRANCH  48  56
ENDBRANCH  42  43
ENDBRANCH   5  42
BRANCH   4  58
HETATM   58  O   UNL     1     -17.743 -11.330  -0.599  1.00  0.00    -0.388 OA
HETATM   59  H   UNL     1     -17.353 -11.723  -1.408  1.00  0.00     0.210 HD
ENDBRANCH   4  58
TORSDOF 24
ENDMDL
