MODEL 1
REMARK VINA RESULT:      -6.4      0.000      0.000
REMARK  31 active torsions:
REMARK  status: ('A' for Active; 'I' for Inactive)
REMARK    1  A    between atoms: C_2  and  C_3 
REMARK    2  A    between atoms: C_3  and  C_4 
REMARK    3  A    between atoms: C_4  and  C_5 
REMARK    4  A    between atoms: C_5  and  C_6 
REMARK    5  A    between atoms: C_6  and  C_7 
REMARK    6  A    between atoms: C_7  and  C_8 
REMARK    7  A    between atoms: C_8  and  C_9 
REMARK    8  A    between atoms: C_9  and  C_10 
REMARK    9  A    between atoms: C_10  and  C_11 
REMARK   10  A    between atoms: C_11  and  C_12 
REMARK   11  A    between atoms: C_12  and  C_13 
REMARK   12  A    between atoms: C_13  and  C_14 
REMARK   13  A    between atoms: C_14  and  O_16 
REMARK   14  A    between atoms: O_16  and  C_17 
REMARK   15  A    between atoms: C_17  and  C_18 
REMARK   16  A    between atoms: C_18  and  C_19 
REMARK   17  A    between atoms: C_18  and  C_27 
REMARK   18  A    between atoms: C_19  and  C_20 
REMARK   19  A    between atoms: C_20  and  C_21 
REMARK   20  A    between atoms: C_21  and  C_22 
REMARK   21  A    between atoms: C_22  and  C_23 
REMARK   22  A    between atoms: C_23  and  C_24 
REMARK   23  A    between atoms: C_24  and  C_25 
REMARK   24  A    between atoms: C_27  and  C_28 
REMARK   25  A    between atoms: C_28  and  C_29 
REMARK   26  A    between atoms: C_29  and  C_30 
REMARK   27  A    between atoms: C_30  and  C_31 
REMARK   28  A    between atoms: C_31  and  C_32 
REMARK   29  A    between atoms: C_32  and  C_33 
REMARK   30  A    between atoms: C_33  and  C_34 
REMARK   31  A    between atoms: C_34  and  C_35 
ROOT
HETATM    1  C   UNL     1     -21.567  -6.064  -4.754  1.00  0.00     0.010 C 
ENDROOT
BRANCH   1   2
HETATM    2  C   UNL     1     -21.832  -7.502  -5.225  1.00  0.00     0.183 C 
BRANCH   2   3
HETATM    3  O   UNL     1     -20.619  -8.215  -5.501  1.00  0.00    -0.321 OA
BRANCH   3   4
HETATM    4  C   UNL     1     -20.711  -9.563  -5.272  1.00  0.00     0.258 C 
HETATM    5  O   UNL     1     -20.980 -10.400  -6.101  1.00  0.00    -0.265 OA
BRANCH   4   6
HETATM    6  C   UNL     1     -20.338  -9.855  -3.828  1.00  0.00     0.111 C 
BRANCH   6   7
HETATM    7  C   UNL     1     -19.100  -9.063  -3.440  1.00  0.00     0.010 C 
BRANCH   7   8
HETATM    8  C   UNL     1     -18.236  -9.778  -2.411  1.00  0.00     0.000 C 
BRANCH   8   9
HETATM    9  C   UNL     1     -16.767  -9.669  -2.811  1.00  0.00     0.000 C 
BRANCH   9  10
HETATM   10  C   UNL     1     -15.949 -10.786  -2.184  1.00  0.00     0.000 C 
BRANCH  10  11
HETATM   11  C   UNL     1     -16.497 -12.145  -2.599  1.00  0.00     0.000 C 
BRANCH  11  12
HETATM   12  C   UNL     1     -15.357 -13.084  -2.960  1.00  0.00     0.000 C 
BRANCH  12  13
HETATM   13  C   UNL     1     -14.182 -12.301  -3.523  1.00  0.00     0.000 C 
BRANCH  13  14
HETATM   14  C   UNL     1     -14.067 -12.530  -5.024  1.00  0.00     0.000 C 
BRANCH  14  15
HETATM   15  C   UNL     1     -14.797 -11.432  -5.783  1.00  0.00     0.000 C 
BRANCH  15  16
HETATM   16  C   UNL     1     -15.982 -12.007  -6.547  1.00  0.00    -0.000 C 
BRANCH  16  17
HETATM   17  C   UNL     1     -17.269 -11.280  -6.171  1.00  0.00    -0.005 C 
HETATM   18  C   UNL     1     -17.087  -9.778  -6.277  1.00  0.00     0.005 C 
ENDBRANCH  16  17
ENDBRANCH  15  16
ENDBRANCH  14  15
ENDBRANCH  13  14
ENDBRANCH  12  13
ENDBRANCH  11  12
ENDBRANCH  10  11
ENDBRANCH   9  10
ENDBRANCH   8   9
ENDBRANCH   7   8
ENDBRANCH   6   7
ENDBRANCH   4   6
ENDBRANCH   3   4
ENDBRANCH   2   3
ENDBRANCH   1   2
BRANCH   1  19
HETATM   19  C   UNL     1     -21.043  -6.016  -3.305  1.00  0.00     0.007 C 
BRANCH  19  20
HETATM   20  C   UNL     1     -22.141  -6.243  -2.278  1.00  0.00     0.000 C 
BRANCH  20  21
HETATM   21  C   UNL     1     -21.866  -7.467  -1.431  1.00  0.00     0.000 C 
BRANCH  21  22
HETATM   22  C   UNL     1     -22.407  -7.202  -0.037  1.00  0.00     0.000 C 
BRANCH  22  23
HETATM   23  C   UNL     1     -23.170  -8.411   0.458  1.00  0.00     0.000 C 
BRANCH  23  24
HETATM   24  C   UNL     1     -22.568  -9.676  -0.126  1.00  0.00    -0.000 C 
BRANCH  24  25
HETATM   25  C   UNL     1     -23.670 -10.668  -0.464  1.00  0.00    -0.005 C 
HETATM   26  C   UNL     1     -23.452 -11.257  -1.844  1.00  0.00     0.005 C 
ENDBRANCH  24  25
ENDBRANCH  23  24
ENDBRANCH  22  23
ENDBRANCH  21  22
ENDBRANCH  20  21
ENDBRANCH  19  20
ENDBRANCH   1  19
BRANCH   1  27
HETATM   27  C   UNL     1     -20.564  -5.384  -5.702  1.00  0.00     0.007 C 
BRANCH  27  28
HETATM   28  C   UNL     1     -21.245  -4.513  -6.748  1.00  0.00     0.000 C 
BRANCH  28  29
HETATM   29  C   UNL     1     -20.242  -3.942  -7.731  1.00  0.00     0.000 C 
BRANCH  29  30
HETATM   30  C   UNL     1     -20.231  -4.789  -8.995  1.00  0.00     0.000 C 
BRANCH  30  31
HETATM   31  C   UNL     1     -19.967  -3.918 -10.209  1.00  0.00     0.000 C 
BRANCH  31  32
HETATM   32  C   UNL     1     -20.811  -4.381 -11.385  1.00  0.00     0.000 C 
BRANCH  32  33
HETATM   33  C   UNL     1     -21.960  -3.411 -11.616  1.00  0.00     0.000 C 
BRANCH  33  34
HETATM   34  C   UNL     1     -23.292  -4.092 -11.344  1.00  0.00    -0.000 C 
BRANCH  34  35
HETATM   35  C   UNL     1     -23.640  -4.015  -9.862  1.00  0.00    -0.005 C 
HETATM   36  C   UNL     1     -24.990  -3.352  -9.663  1.00  0.00     0.005 C 
ENDBRANCH  34  35
ENDBRANCH  33  34
ENDBRANCH  32  33
ENDBRANCH  31  32
ENDBRANCH  30  31
ENDBRANCH  29  30
ENDBRANCH  28  29
ENDBRANCH  27  28
ENDBRANCH   1  27
TORSDOF 31
ENDMDL
MODEL 2
REMARK VINA RESULT:      -6.3      1.339      2.019
REMARK  31 active torsions:
REMARK  status: ('A' for Active; 'I' for Inactive)
REMARK    1  A    between atoms: C_2  and  C_3 
REMARK    2  A    between atoms: C_3  and  C_4 
REMARK    3  A    between atoms: C_4  and  C_5 
REMARK    4  A    between atoms: C_5  and  C_6 
REMARK    5  A    between atoms: C_6  and  C_7 
REMARK    6  A    between atoms: C_7  and  C_8 
REMARK    7  A    between atoms: C_8  and  C_9 
REMARK    8  A    between atoms: C_9  and  C_10 
REMARK    9  A    between atoms: C_10  and  C_11 
REMARK   10  A    between atoms: C_11  and  C_12 
REMARK   11  A    between atoms: C_12  and  C_13 
REMARK   12  A    between atoms: C_13  and  C_14 
REMARK   13  A    between atoms: C_14  and  O_16 
REMARK   14  A    between atoms: O_16  and  C_17 
REMARK   15  A    between atoms: C_17  and  C_18 
REMARK   16  A    between atoms: C_18  and  C_19 
REMARK   17  A    between atoms: C_18  and  C_27 
REMARK   18  A    between atoms: C_19  and  C_20 
REMARK   19  A    between atoms: C_20  and  C_21 
REMARK   20  A    between atoms: C_21  and  C_22 
REMARK   21  A    between atoms: C_22  and  C_23 
REMARK   22  A    between atoms: C_23  and  C_24 
REMARK   23  A    between atoms: C_24  and  C_25 
REMARK   24  A    between atoms: C_27  and  C_28 
REMARK   25  A    between atoms: C_28  and  C_29 
REMARK   26  A    between atoms: C_29  and  C_30 
REMARK   27  A    between atoms: C_30  and  C_31 
REMARK   28  A    between atoms: C_31  and  C_32 
REMARK   29  A    between atoms: C_32  and  C_33 
REMARK   30  A    between atoms: C_33  and  C_34 
REMARK   31  A    between atoms: C_34  and  C_35 
ROOT
HETATM    1  C   UNL     1     -20.947  -6.931  -5.545  1.00  0.00     0.010 C 
ENDROOT
BRANCH   1   2
HETATM    2  C   UNL     1     -20.226  -8.219  -5.119  1.00  0.00     0.183 C 
BRANCH   2   3
HETATM    3  O   UNL     1     -20.741  -9.377  -5.789  1.00  0.00    -0.321 OA
BRANCH   3   4
HETATM    4  C   UNL     1     -20.950 -10.445  -4.957  1.00  0.00     0.258 C 
HETATM    5  O   UNL     1     -21.505 -11.475  -5.261  1.00  0.00    -0.265 OA
BRANCH   4   6
HETATM    6  C   UNL     1     -20.301 -10.169  -3.610  1.00  0.00     0.111 C 
BRANCH   6   7
HETATM    7  C   UNL     1     -19.876 -11.477  -2.962  1.00  0.00     0.010 C 
BRANCH   7   8
HETATM    8  C   UNL     1     -19.481 -11.313  -1.500  1.00  0.00     0.000 C 
BRANCH   8   9
HETATM    9  C   UNL     1     -18.474 -12.395  -1.118  1.00  0.00     0.000 C 
BRANCH   9  10
HETATM   10  C   UNL     1     -17.402 -11.837  -0.196  1.00  0.00     0.000 C 
BRANCH  10  11
HETATM   11  C   UNL     1     -16.015 -12.124  -0.757  1.00  0.00     0.000 C 
BRANCH  11  12
HETATM   12  C   UNL     1     -15.948 -11.725  -2.222  1.00  0.00     0.000 C 
BRANCH  12  13
HETATM   13  C   UNL     1     -15.710 -10.229  -2.356  1.00  0.00     0.000 C 
BRANCH  13  14
HETATM   14  C   UNL     1     -16.647  -9.639  -3.400  1.00  0.00     0.000 C 
BRANCH  14  15
HETATM   15  C   UNL     1     -16.100  -9.885  -4.799  1.00  0.00     0.000 C 
BRANCH  15  16
HETATM   16  C   UNL     1     -17.234 -10.182  -5.771  1.00  0.00    -0.000 C 
BRANCH  16  17
HETATM   17  C   UNL     1     -17.089 -11.583  -6.356  1.00  0.00    -0.005 C 
HETATM   18  C   UNL     1     -17.641 -12.624  -5.402  1.00  0.00     0.005 C 
ENDBRANCH  16  17
ENDBRANCH  15  16
ENDBRANCH  14  15
ENDBRANCH  13  14
ENDBRANCH  12  13
ENDBRANCH  11  12
ENDBRANCH  10  11
ENDBRANCH   9  10
ENDBRANCH   8   9
ENDBRANCH   7   8
ENDBRANCH   6   7
ENDBRANCH   4   6
ENDBRANCH   3   4
ENDBRANCH   2   3
ENDBRANCH   1   2
BRANCH   1  19
HETATM   19  C   UNL     1     -21.335  -6.057  -4.337  1.00  0.00     0.007 C 
BRANCH  19  20
HETATM   20  C   UNL     1     -21.944  -6.866  -3.202  1.00  0.00     0.000 C 
BRANCH  20  21
HETATM   21  C   UNL     1     -21.150  -6.715  -1.922  1.00  0.00     0.000 C 
BRANCH  21  22
HETATM   22  C   UNL     1     -21.497  -7.883  -1.016  1.00  0.00     0.000 C 
BRANCH  22  23
HETATM   23  C   UNL     1     -22.602  -7.484  -0.062  1.00  0.00     0.000 C 
BRANCH  23  24
HETATM   24  C   UNL     1     -23.342  -8.720   0.417  1.00  0.00    -0.000 C 
BRANCH  24  25
HETATM   25  C   UNL     1     -22.787  -9.958  -0.273  1.00  0.00    -0.005 C 
HETATM   26  C   UNL     1     -23.883 -10.981  -0.492  1.00  0.00     0.005 C 
ENDBRANCH  24  25
ENDBRANCH  23  24
ENDBRANCH  22  23
ENDBRANCH  21  22
ENDBRANCH  20  21
ENDBRANCH  19  20
ENDBRANCH   1  19
BRANCH   1  27
HETATM   27  C   UNL     1     -20.053  -6.132  -6.510  1.00  0.00     0.007 C 
BRANCH  27  28
HETATM   28  C   UNL     1     -20.027  -4.645  -6.188  1.00  0.00     0.000 C 
BRANCH  28  29
HETATM   29  C   UNL     1     -20.372  -3.808  -7.405  1.00  0.00     0.000 C 
BRANCH  29  30
HETATM   30  C   UNL     1     -21.855  -3.951  -7.716  1.00  0.00     0.000 C 
BRANCH  30  31
HETATM   31  C   UNL     1     -22.089  -3.852  -9.212  1.00  0.00     0.000 C 
BRANCH  31  32
HETATM   32  C   UNL     1     -20.988  -4.577  -9.967  1.00  0.00     0.000 C 
BRANCH  32  33
HETATM   33  C   UNL     1     -20.825  -3.976 -11.355  1.00  0.00     0.000 C 
BRANCH  33  34
HETATM   34  C   UNL     1     -21.806  -2.831 -11.555  1.00  0.00    -0.000 C 
BRANCH  34  35
HETATM   35  C   UNL     1     -22.647  -3.058 -12.806  1.00  0.00    -0.005 C 
HETATM   36  C   UNL     1     -24.002  -3.636 -12.443  1.00  0.00     0.005 C 
ENDBRANCH  34  35
ENDBRANCH  33  34
ENDBRANCH  32  33
ENDBRANCH  31  32
ENDBRANCH  30  31
ENDBRANCH  29  30
ENDBRANCH  28  29
ENDBRANCH  27  28
ENDBRANCH   1  27
TORSDOF 31
ENDMDL
MODEL 3
REMARK VINA RESULT:      -6.3      1.692      2.564
REMARK  31 active torsions:
REMARK  status: ('A' for Active; 'I' for Inactive)
REMARK    1  A    between atoms: C_2  and  C_3 
REMARK    2  A    between atoms: C_3  and  C_4 
REMARK    3  A    between atoms: C_4  and  C_5 
REMARK    4  A    between atoms: C_5  and  C_6 
REMARK    5  A    between atoms: C_6  and  C_7 
REMARK    6  A    between atoms: C_7  and  C_8 
REMARK    7  A    between atoms: C_8  and  C_9 
REMARK    8  A    between atoms: C_9  and  C_10 
REMARK    9  A    between atoms: C_10  and  C_11 
REMARK   10  A    between atoms: C_11  and  C_12 
REMARK   11  A    between atoms: C_12  and  C_13 
REMARK   12  A    between atoms: C_13  and  C_14 
REMARK   13  A    between atoms: C_14  and  O_16 
REMARK   14  A    between atoms: O_16  and  C_17 
REMARK   15  A    between atoms: C_17  and  C_18 
REMARK   16  A    between atoms: C_18  and  C_19 
REMARK   17  A    between atoms: C_18  and  C_27 
REMARK   18  A    between atoms: C_19  and  C_20 
REMARK   19  A    between atoms: C_20  and  C_21 
REMARK   20  A    between atoms: C_21  and  C_22 
REMARK   21  A    between atoms: C_22  and  C_23 
REMARK   22  A    between atoms: C_23  and  C_24 
REMARK   23  A    between atoms: C_24  and  C_25 
REMARK   24  A    between atoms: C_27  and  C_28 
REMARK   25  A    between atoms: C_28  and  C_29 
REMARK   26  A    between atoms: C_29  and  C_30 
REMARK   27  A    between atoms: C_30  and  C_31 
REMARK   28  A    between atoms: C_31  and  C_32 
REMARK   29  A    between atoms: C_32  and  C_33 
REMARK   30  A    between atoms: C_33  and  C_34 
REMARK   31  A    between atoms: C_34  and  C_35 
ROOT
HETATM    1  C   UNL     1     -21.227  -7.033  -4.251  1.00  0.00     0.010 C 
ENDROOT
BRANCH   1   2
HETATM    2  C   UNL     1     -20.325  -8.042  -4.978  1.00  0.00     0.183 C 
BRANCH   2   3
HETATM    3  O   UNL     1     -21.079  -8.992  -5.744  1.00  0.00    -0.321 OA
BRANCH   3   4
HETATM    4  C   UNL     1     -20.650 -10.284  -5.590  1.00  0.00     0.258 C 
HETATM    5  O   UNL     1     -20.627 -11.124  -6.459  1.00  0.00    -0.265 OA
BRANCH   4   6
HETATM    6  C   UNL     1     -20.124 -10.477  -4.177  1.00  0.00     0.111 C 
BRANCH   6   7
HETATM    7  C   UNL     1     -21.041 -11.411  -3.405  1.00  0.00     0.010 C 
BRANCH   7   8
HETATM    8  C   UNL     1     -20.329 -12.141  -2.275  1.00  0.00     0.000 C 
BRANCH   8   9
HETATM    9  C   UNL     1     -19.525 -11.142  -1.447  1.00  0.00     0.000 C 
BRANCH   9  10
HETATM   10  C   UNL     1     -19.470 -11.565   0.012  1.00  0.00     0.000 C 
BRANCH  10  11
HETATM   11  C   UNL     1     -19.489 -13.083   0.128  1.00  0.00     0.000 C 
BRANCH  11  12
HETATM   12  C   UNL     1     -18.088 -13.608   0.396  1.00  0.00     0.000 C 
BRANCH  12  13
HETATM   13  C   UNL     1     -17.125 -12.456   0.634  1.00  0.00     0.000 C 
BRANCH  13  14
HETATM   14  C   UNL     1     -15.944 -12.551  -0.322  1.00  0.00     0.000 C 
BRANCH  14  15
HETATM   15  C   UNL     1     -15.844 -11.288  -1.165  1.00  0.00     0.000 C 
BRANCH  15  16
HETATM   16  C   UNL     1     -15.491 -11.634  -2.605  1.00  0.00    -0.000 C 
BRANCH  16  17
HETATM   17  C   UNL     1     -16.340 -10.822  -3.577  1.00  0.00    -0.005 C 
HETATM   18  C   UNL     1     -16.652  -9.453  -3.004  1.00  0.00     0.005 C 
ENDBRANCH  16  17
ENDBRANCH  15  16
ENDBRANCH  14  15
ENDBRANCH  13  14
ENDBRANCH  12  13
ENDBRANCH  11  12
ENDBRANCH  10  11
ENDBRANCH   9  10
ENDBRANCH   8   9
ENDBRANCH   7   8
ENDBRANCH   6   7
ENDBRANCH   4   6
ENDBRANCH   3   4
ENDBRANCH   2   3
ENDBRANCH   1   2
BRANCH   1  19
HETATM   19  C   UNL     1     -21.042  -7.086  -2.722  1.00  0.00     0.007 C 
BRANCH  19  20
HETATM   20  C   UNL     1     -22.160  -6.377  -1.974  1.00  0.00     0.000 C 
BRANCH  20  21
HETATM   21  C   UNL     1     -22.341  -6.939  -0.579  1.00  0.00     0.000 C 
BRANCH  21  22
HETATM   22  C   UNL     1     -21.944  -8.404  -0.612  1.00  0.00     0.000 C 
BRANCH  22  23
HETATM   23  C   UNL     1     -23.029  -9.246   0.024  1.00  0.00     0.000 C 
BRANCH  23  24
HETATM   24  C   UNL     1     -23.289 -10.478  -0.823  1.00  0.00    -0.000 C 
BRANCH  24  25
HETATM   25  C   UNL     1     -24.045 -11.519  -0.011  1.00  0.00    -0.005 C 
HETATM   26  C   UNL     1     -23.079 -12.476   0.658  1.00  0.00     0.005 C 
ENDBRANCH  24  25
ENDBRANCH  23  24
ENDBRANCH  22  23
ENDBRANCH  21  22
ENDBRANCH  20  21
ENDBRANCH  19  20
ENDBRANCH   1  19
BRANCH   1  27
HETATM   27  C   UNL     1     -20.938  -5.613  -4.769  1.00  0.00     0.007 C 
BRANCH  27  28
HETATM   28  C   UNL     1     -21.357  -5.423  -6.219  1.00  0.00     0.000 C 
BRANCH  28  29
HETATM   29  C   UNL     1     -20.861  -4.100  -6.771  1.00  0.00     0.000 C 
BRANCH  29  30
HETATM   30  C   UNL     1     -21.488  -3.851  -8.135  1.00  0.00     0.000 C 
BRANCH  30  31
HETATM   31  C   UNL     1     -20.794  -4.690  -9.191  1.00  0.00     0.000 C 
BRANCH  31  32
HETATM   32  C   UNL     1     -20.529  -3.858 -10.436  1.00  0.00     0.000 C 
BRANCH  32  33
HETATM   33  C   UNL     1     -21.617  -4.107 -11.470  1.00  0.00     0.000 C 
BRANCH  33  34
HETATM   34  C   UNL     1     -22.326  -2.807 -11.816  1.00  0.00    -0.000 C 
BRANCH  34  35
HETATM   35  C   UNL     1     -23.836  -3.014 -11.860  1.00  0.00    -0.005 C 
HETATM   36  C   UNL     1     -24.352  -3.476 -10.510  1.00  0.00     0.005 C 
ENDBRANCH  34  35
ENDBRANCH  33  34
ENDBRANCH  32  33
ENDBRANCH  31  32
ENDBRANCH  30  31
ENDBRANCH  29  30
ENDBRANCH  28  29
ENDBRANCH  27  28
ENDBRANCH   1  27
TORSDOF 31
ENDMDL
MODEL 4
REMARK VINA RESULT:      -6.3      1.255      7.478
REMARK  31 active torsions:
REMARK  status: ('A' for Active; 'I' for Inactive)
REMARK    1  A    between atoms: C_2  and  C_3 
REMARK    2  A    between atoms: C_3  and  C_4 
REMARK    3  A    between atoms: C_4  and  C_5 
REMARK    4  A    between atoms: C_5  and  C_6 
REMARK    5  A    between atoms: C_6  and  C_7 
REMARK    6  A    between atoms: C_7  and  C_8 
REMARK    7  A    between atoms: C_8  and  C_9 
REMARK    8  A    between atoms: C_9  and  C_10 
REMARK    9  A    between atoms: C_10  and  C_11 
REMARK   10  A    between atoms: C_11  and  C_12 
REMARK   11  A    between atoms: C_12  and  C_13 
REMARK   12  A    between atoms: C_13  and  C_14 
REMARK   13  A    between atoms: C_14  and  O_16 
REMARK   14  A    between atoms: O_16  and  C_17 
REMARK   15  A    between atoms: C_17  and  C_18 
REMARK   16  A    between atoms: C_18  and  C_19 
REMARK   17  A    between atoms: C_18  and  C_27 
REMARK   18  A    between atoms: C_19  and  C_20 
REMARK   19  A    between atoms: C_20  and  C_21 
REMARK   20  A    between atoms: C_21  and  C_22 
REMARK   21  A    between atoms: C_22  and  C_23 
REMARK   22  A    between atoms: C_23  and  C_24 
REMARK   23  A    between atoms: C_24  and  C_25 
REMARK   24  A    between atoms: C_27  and  C_28 
REMARK   25  A    between atoms: C_28  and  C_29 
REMARK   26  A    between atoms: C_29  and  C_30 
REMARK   27  A    between atoms: C_30  and  C_31 
REMARK   28  A    between atoms: C_31  and  C_32 
REMARK   29  A    between atoms: C_32  and  C_33 
REMARK   30  A    between atoms: C_33  and  C_34 
REMARK   31  A    between atoms: C_34  and  C_35 
ROOT
HETATM    1  C   UNL     1     -20.386  -6.866  -5.433  1.00  0.00     0.010 C 
ENDROOT
BRANCH   1   2
HETATM    2  C   UNL     1     -21.403  -8.017  -5.479  1.00  0.00     0.183 C 
BRANCH   2   3
HETATM    3  O   UNL     1     -20.794  -9.267  -5.830  1.00  0.00    -0.321 OA
BRANCH   3   4
HETATM    4  C   UNL     1     -21.282 -10.333  -5.121  1.00  0.00     0.258 C 
HETATM    5  O   UNL     1     -21.651 -11.382  -5.595  1.00  0.00    -0.265 OA
BRANCH   4   6
HETATM    6  C   UNL     1     -21.209 -10.026  -3.634  1.00  0.00     0.111 C 
BRANCH   6   7
HETATM    7  C   UNL     1     -19.852 -10.435  -3.085  1.00  0.00     0.010 C 
BRANCH   7   8
HETATM    8  C   UNL     1     -18.973  -9.244  -2.729  1.00  0.00     0.000 C 
BRANCH   8   9
HETATM    9  C   UNL     1     -17.617  -9.385  -3.416  1.00  0.00     0.000 C 
BRANCH   9  10
HETATM   10  C   UNL     1     -17.738 -10.197  -4.695  1.00  0.00     0.000 C 
BRANCH  10  11
HETATM   11  C   UNL     1     -16.634  -9.819  -5.673  1.00  0.00     0.000 C 
BRANCH  11  12
HETATM   12  C   UNL     1     -15.304 -10.394  -5.212  1.00  0.00     0.000 C 
BRANCH  12  13
HETATM   13  C   UNL     1     -15.440 -11.878  -4.915  1.00  0.00     0.000 C 
BRANCH  13  14
HETATM   14  C   UNL     1     -14.165 -12.405  -4.271  1.00  0.00     0.000 C 
BRANCH  14  15
HETATM   15  C   UNL     1     -14.405 -12.712  -2.800  1.00  0.00     0.000 C 
BRANCH  15  16
HETATM   16  C   UNL     1     -15.873 -12.516  -2.446  1.00  0.00    -0.000 C 
BRANCH  16  17
HETATM   17  C   UNL     1     -16.017 -11.616  -1.223  1.00  0.00    -0.005 C 
HETATM   18  C   UNL     1     -17.165 -12.080  -0.347  1.00  0.00     0.005 C 
ENDBRANCH  16  17
ENDBRANCH  15  16
ENDBRANCH  14  15
ENDBRANCH  13  14
ENDBRANCH  12  13
ENDBRANCH  11  12
ENDBRANCH  10  11
ENDBRANCH   9  10
ENDBRANCH   8   9
ENDBRANCH   7   8
ENDBRANCH   6   7
ENDBRANCH   4   6
ENDBRANCH   3   4
ENDBRANCH   2   3
ENDBRANCH   1   2
BRANCH   1  19
HETATM   19  C   UNL     1     -20.170  -6.228  -6.819  1.00  0.00     0.007 C 
BRANCH  19  20
HETATM   20  C   UNL     1     -20.080  -4.711  -6.756  1.00  0.00     0.000 C 
BRANCH  20  21
HETATM   21  C   UNL     1     -20.878  -4.060  -7.867  1.00  0.00     0.000 C 
BRANCH  21  22
HETATM   22  C   UNL     1     -20.211  -4.407  -9.186  1.00  0.00     0.000 C 
BRANCH  22  23
HETATM   23  C   UNL     1     -21.014  -3.836 -10.335  1.00  0.00     0.000 C 
BRANCH  23  24
HETATM   24  C   UNL     1     -22.361  -4.532 -10.418  1.00  0.00    -0.000 C 
BRANCH  24  25
HETATM   25  C   UNL     1     -23.461  -3.509 -10.656  1.00  0.00    -0.005 C 
HETATM   26  C   UNL     1     -24.382  -3.429  -9.455  1.00  0.00     0.005 C 
ENDBRANCH  24  25
ENDBRANCH  23  24
ENDBRANCH  22  23
ENDBRANCH  21  22
ENDBRANCH  20  21
ENDBRANCH  19  20
ENDBRANCH   1  19
BRANCH   1  27
HETATM   27  C   UNL     1     -20.856  -5.799  -4.428  1.00  0.00     0.007 C 
BRANCH  27  28
HETATM   28  C   UNL     1     -21.909  -6.326  -3.464  1.00  0.00     0.000 C 
BRANCH  28  29
HETATM   29  C   UNL     1     -21.315  -6.618  -2.100  1.00  0.00     0.000 C 
BRANCH  29  30
HETATM   30  C   UNL     1     -22.430  -6.695  -1.067  1.00  0.00     0.000 C 
BRANCH  30  31
HETATM   31  C   UNL     1     -22.055  -7.666   0.038  1.00  0.00     0.000 C 
BRANCH  31  32
HETATM   32  C   UNL     1     -23.138  -8.719   0.204  1.00  0.00     0.000 C 
BRANCH  32  33
HETATM   33  C   UNL     1     -22.577 -10.098  -0.111  1.00  0.00     0.000 C 
BRANCH  33  34
HETATM   34  C   UNL     1     -21.138 -10.206   0.369  1.00  0.00    -0.000 C 
BRANCH  34  35
HETATM   35  C   UNL     1     -20.753 -11.664   0.588  1.00  0.00    -0.005 C 
HETATM   36  C   UNL     1     -21.454 -12.559  -0.417  1.00  0.00     0.005 C 
ENDBRANCH  34  35
ENDBRANCH  33  34
ENDBRANCH  32  33
ENDBRANCH  31  32
ENDBRANCH  30  31
ENDBRANCH  29  30
ENDBRANCH  28  29
ENDBRANCH  27  28
ENDBRANCH   1  27
TORSDOF 31
ENDMDL
MODEL 5
REMARK VINA RESULT:      -6.3      1.306      7.362
REMARK  31 active torsions:
REMARK  status: ('A' for Active; 'I' for Inactive)
REMARK    1  A    between atoms: C_2  and  C_3 
REMARK    2  A    between atoms: C_3  and  C_4 
REMARK    3  A    between atoms: C_4  and  C_5 
REMARK    4  A    between atoms: C_5  and  C_6 
REMARK    5  A    between atoms: C_6  and  C_7 
REMARK    6  A    between atoms: C_7  and  C_8 
REMARK    7  A    between atoms: C_8  and  C_9 
REMARK    8  A    between atoms: C_9  and  C_10 
REMARK    9  A    between atoms: C_10  and  C_11 
REMARK   10  A    between atoms: C_11  and  C_12 
REMARK   11  A    between atoms: C_12  and  C_13 
REMARK   12  A    between atoms: C_13  and  C_14 
REMARK   13  A    between atoms: C_14  and  O_16 
REMARK   14  A    between atoms: O_16  and  C_17 
REMARK   15  A    between atoms: C_17  and  C_18 
REMARK   16  A    between atoms: C_18  and  C_19 
REMARK   17  A    between atoms: C_18  and  C_27 
REMARK   18  A    between atoms: C_19  and  C_20 
REMARK   19  A    between atoms: C_20  and  C_21 
REMARK   20  A    between atoms: C_21  and  C_22 
REMARK   21  A    between atoms: C_22  and  C_23 
REMARK   22  A    between atoms: C_23  and  C_24 
REMARK   23  A    between atoms: C_24  and  C_25 
REMARK   24  A    between atoms: C_27  and  C_28 
REMARK   25  A    between atoms: C_28  and  C_29 
REMARK   26  A    between atoms: C_29  and  C_30 
REMARK   27  A    between atoms: C_30  and  C_31 
REMARK   28  A    between atoms: C_31  and  C_32 
REMARK   29  A    between atoms: C_32  and  C_33 
REMARK   30  A    between atoms: C_33  and  C_34 
REMARK   31  A    between atoms: C_34  and  C_35 
ROOT
HETATM    1  C   UNL     1     -20.531  -6.833  -5.260  1.00  0.00     0.010 C 
ENDROOT
BRANCH   1   2
HETATM    2  C   UNL     1     -21.504  -8.021  -5.311  1.00  0.00     0.183 C 
BRANCH   2   3
HETATM    3  O   UNL     1     -20.940  -9.156  -5.982  1.00  0.00    -0.321 OA
BRANCH   3   4
HETATM    4  C   UNL     1     -21.120 -10.335  -5.308  1.00  0.00     0.258 C 
HETATM    5  O   UNL     1     -21.141 -11.435  -5.810  1.00  0.00    -0.265 OA
BRANCH   4   6
HETATM    6  C   UNL     1     -21.204 -10.057  -3.817  1.00  0.00     0.111 C 
BRANCH   6   7
HETATM    7  C   UNL     1     -19.944 -10.551  -3.125  1.00  0.00     0.010 C 
BRANCH   7   8
HETATM    8  C   UNL     1     -18.887  -9.466  -2.972  1.00  0.00     0.000 C 
BRANCH   8   9
HETATM    9  C   UNL     1     -17.608  -9.894  -3.686  1.00  0.00     0.000 C 
BRANCH   9  10
HETATM   10  C   UNL     1     -16.378  -9.463  -2.902  1.00  0.00     0.000 C 
BRANCH  10  11
HETATM   11  C   UNL     1     -15.692 -10.672  -2.279  1.00  0.00     0.000 C 
BRANCH  11  12
HETATM   12  C   UNL     1     -16.429 -11.947  -2.658  1.00  0.00     0.000 C 
BRANCH  12  13
HETATM   13  C   UNL     1     -15.533 -13.159  -2.456  1.00  0.00     0.000 C 
BRANCH  13  14
HETATM   14  C   UNL     1     -14.170 -12.917  -3.088  1.00  0.00     0.000 C 
BRANCH  14  15
HETATM   15  C   UNL     1     -14.207 -13.257  -4.571  1.00  0.00     0.000 C 
BRANCH  15  16
HETATM   16  C   UNL     1     -13.844 -12.037  -5.407  1.00  0.00    -0.000 C 
BRANCH  16  17
HETATM   17  C   UNL     1     -15.090 -11.427  -6.038  1.00  0.00    -0.005 C 
HETATM   18  C   UNL     1     -15.999 -12.509  -6.588  1.00  0.00     0.005 C 
ENDBRANCH  16  17
ENDBRANCH  15  16
ENDBRANCH  14  15
ENDBRANCH  13  14
ENDBRANCH  12  13
ENDBRANCH  11  12
ENDBRANCH  10  11
ENDBRANCH   9  10
ENDBRANCH   8   9
ENDBRANCH   7   8
ENDBRANCH   6   7
ENDBRANCH   4   6
ENDBRANCH   3   4
ENDBRANCH   2   3
ENDBRANCH   1   2
BRANCH   1  19
HETATM   19  C   UNL     1     -20.506  -6.045  -6.584  1.00  0.00     0.007 C 
BRANCH  19  20
HETATM   20  C   UNL     1     -20.350  -4.548  -6.370  1.00  0.00     0.000 C 
BRANCH  20  21
HETATM   21  C   UNL     1     -21.003  -3.756  -7.482  1.00  0.00     0.000 C 
BRANCH  21  22
HETATM   22  C   UNL     1     -20.398  -4.210  -8.798  1.00  0.00     0.000 C 
BRANCH  22  23
HETATM   23  C   UNL     1     -21.425  -4.097  -9.904  1.00  0.00     0.000 C 
BRANCH  23  24
HETATM   24  C   UNL     1     -22.811  -3.931  -9.307  1.00  0.00    -0.000 C 
BRANCH  24  25
HETATM   25  C   UNL     1     -23.831  -4.695 -10.137  1.00  0.00    -0.005 C 
HETATM   26  C   UNL     1     -23.453  -4.665 -11.604  1.00  0.00     0.005 C 
ENDBRANCH  24  25
ENDBRANCH  23  24
ENDBRANCH  22  23
ENDBRANCH  21  22
ENDBRANCH  20  21
ENDBRANCH  19  20
ENDBRANCH   1  19
BRANCH   1  27
HETATM   27  C   UNL     1     -20.914  -5.900  -4.097  1.00  0.00     0.007 C 
BRANCH  27  28
HETATM   28  C   UNL     1     -21.962  -6.510  -3.177  1.00  0.00     0.000 C 
BRANCH  28  29
HETATM   29  C   UNL     1     -21.362  -6.910  -1.843  1.00  0.00     0.000 C 
BRANCH  29  30
HETATM   30  C   UNL     1     -22.448  -6.905  -0.777  1.00  0.00     0.000 C 
BRANCH  30  31
HETATM   31  C   UNL     1     -22.420  -8.204   0.007  1.00  0.00     0.000 C 
BRANCH  31  32
HETATM   32  C   UNL     1     -21.015  -8.784   0.015  1.00  0.00     0.000 C 
BRANCH  32  33
HETATM   33  C   UNL     1     -20.914  -9.890   1.055  1.00  0.00     0.000 C 
BRANCH  33  34
HETATM   34  C   UNL     1     -20.797 -11.246   0.377  1.00  0.00    -0.000 C 
BRANCH  34  35
HETATM   35  C   UNL     1     -19.334 -11.635   0.203  1.00  0.00    -0.005 C 
HETATM   36  C   UNL     1     -19.217 -13.045  -0.345  1.00  0.00     0.005 C 
ENDBRANCH  34  35
ENDBRANCH  33  34
ENDBRANCH  32  33
ENDBRANCH  31  32
ENDBRANCH  30  31
ENDBRANCH  29  30
ENDBRANCH  28  29
ENDBRANCH  27  28
ENDBRANCH   1  27
TORSDOF 31
ENDMDL
MODEL 6
REMARK VINA RESULT:      -6.3      1.278      2.320
REMARK  31 active torsions:
REMARK  status: ('A' for Active; 'I' for Inactive)
REMARK    1  A    between atoms: C_2  and  C_3 
REMARK    2  A    between atoms: C_3  and  C_4 
REMARK    3  A    between atoms: C_4  and  C_5 
REMARK    4  A    between atoms: C_5  and  C_6 
REMARK    5  A    between atoms: C_6  and  C_7 
REMARK    6  A    between atoms: C_7  and  C_8 
REMARK    7  A    between atoms: C_8  and  C_9 
REMARK    8  A    between atoms: C_9  and  C_10 
REMARK    9  A    between atoms: C_10  and  C_11 
REMARK   10  A    between atoms: C_11  and  C_12 
REMARK   11  A    between atoms: C_12  and  C_13 
REMARK   12  A    between atoms: C_13  and  C_14 
REMARK   13  A    between atoms: C_14  and  O_16 
REMARK   14  A    between atoms: O_16  and  C_17 
REMARK   15  A    between atoms: C_17  and  C_18 
REMARK   16  A    between atoms: C_18  and  C_19 
REMARK   17  A    between atoms: C_18  and  C_27 
REMARK   18  A    between atoms: C_19  and  C_20 
REMARK   19  A    between atoms: C_20  and  C_21 
REMARK   20  A    between atoms: C_21  and  C_22 
REMARK   21  A    between atoms: C_22  and  C_23 
REMARK   22  A    between atoms: C_23  and  C_24 
REMARK   23  A    between atoms: C_24  and  C_25 
REMARK   24  A    between atoms: C_27  and  C_28 
REMARK   25  A    between atoms: C_28  and  C_29 
REMARK   26  A    between atoms: C_29  and  C_30 
REMARK   27  A    between atoms: C_30  and  C_31 
REMARK   28  A    between atoms: C_31  and  C_32 
REMARK   29  A    between atoms: C_32  and  C_33 
REMARK   30  A    between atoms: C_33  and  C_34 
REMARK   31  A    between atoms: C_34  and  C_35 
ROOT
HETATM    1  C   UNL     1     -21.935  -7.160  -4.379  1.00  0.00     0.010 C 
ENDROOT
BRANCH   1   2
HETATM    2  C   UNL     1     -21.194  -8.506  -4.393  1.00  0.00     0.183 C 
BRANCH   2   3
HETATM    3  O   UNL     1     -21.139  -9.082  -5.705  1.00  0.00    -0.321 OA
BRANCH   3   4
HETATM    4  C   UNL     1     -21.126 -10.452  -5.701  1.00  0.00     0.258 C 
HETATM    5  O   UNL     1     -20.721 -11.153  -6.599  1.00  0.00    -0.265 OA
BRANCH   4   6
HETATM    6  C   UNL     1     -21.622 -10.958  -4.357  1.00  0.00     0.111 C 
BRANCH   6   7
HETATM    7  C   UNL     1     -21.073 -12.350  -4.091  1.00  0.00     0.010 C 
BRANCH   7   8
HETATM    8  C   UNL     1     -19.829 -12.340  -3.213  1.00  0.00     0.000 C 
BRANCH   8   9
HETATM    9  C   UNL     1     -19.878 -11.141  -2.270  1.00  0.00     0.000 C 
BRANCH   9  10
HETATM   10  C   UNL     1     -18.476 -10.658  -1.934  1.00  0.00     0.000 C 
BRANCH  10  11
HETATM   11  C   UNL     1     -17.969  -9.705  -3.008  1.00  0.00     0.000 C 
BRANCH  11  12
HETATM   12  C   UNL     1     -16.454  -9.786  -3.110  1.00  0.00     0.000 C 
BRANCH  12  13
HETATM   13  C   UNL     1     -16.021  -9.829  -4.566  1.00  0.00     0.000 C 
BRANCH  13  14
HETATM   14  C   UNL     1     -16.199 -11.233  -5.127  1.00  0.00     0.000 C 
BRANCH  14  15
HETATM   15  C   UNL     1     -15.253 -11.458  -6.298  1.00  0.00     0.000 C 
BRANCH  15  16
HETATM   16  C   UNL     1     -14.074 -12.322  -5.873  1.00  0.00    -0.000 C 
BRANCH  16  17
HETATM   17  C   UNL     1     -14.385 -13.056  -4.573  1.00  0.00    -0.005 C 
HETATM   18  C   UNL     1     -13.307 -12.796  -3.538  1.00  0.00     0.005 C 
ENDBRANCH  16  17
ENDBRANCH  15  16
ENDBRANCH  14  15
ENDBRANCH  13  14
ENDBRANCH  12  13
ENDBRANCH  11  12
ENDBRANCH  10  11
ENDBRANCH   9  10
ENDBRANCH   8   9
ENDBRANCH   7   8
ENDBRANCH   6   7
ENDBRANCH   4   6
ENDBRANCH   3   4
ENDBRANCH   2   3
ENDBRANCH   1   2
BRANCH   1  19
HETATM   19  C   UNL     1     -21.651  -6.355  -3.096  1.00  0.00     0.007 C 
BRANCH  19  20
HETATM   20  C   UNL     1     -21.207  -7.237  -1.940  1.00  0.00     0.000 C 
BRANCH  20  21
HETATM   21  C   UNL     1     -22.277  -7.336  -0.873  1.00  0.00     0.000 C 
BRANCH  21  22
HETATM   22  C   UNL     1     -21.674  -8.036   0.331  1.00  0.00     0.000 C 
BRANCH  22  23
HETATM   23  C   UNL     1     -21.907  -9.528   0.231  1.00  0.00     0.000 C 
BRANCH  23  24
HETATM   24  C   UNL     1     -23.307  -9.797  -0.292  1.00  0.00    -0.000 C 
BRANCH  24  25
HETATM   25  C   UNL     1     -23.422 -11.243  -0.750  1.00  0.00    -0.005 C 
HETATM   26  C   UNL     1     -22.975 -12.186   0.349  1.00  0.00     0.005 C 
ENDBRANCH  24  25
ENDBRANCH  23  24
ENDBRANCH  22  23
ENDBRANCH  21  22
ENDBRANCH  20  21
ENDBRANCH  19  20
ENDBRANCH   1  19
BRANCH   1  27
HETATM   27  C   UNL     1     -21.538  -6.337  -5.618  1.00  0.00     0.007 C 
BRANCH  27  28
HETATM   28  C   UNL     1     -20.484  -5.284  -5.308  1.00  0.00     0.000 C 
BRANCH  28  29
HETATM   29  C   UNL     1     -20.139  -4.466  -6.537  1.00  0.00     0.000 C 
BRANCH  29  30
HETATM   30  C   UNL     1     -20.145  -5.367  -7.764  1.00  0.00     0.000 C 
BRANCH  30  31
HETATM   31  C   UNL     1     -20.563  -4.578  -8.991  1.00  0.00     0.000 C 
BRANCH  31  32
HETATM   32  C   UNL     1     -22.017  -4.152  -8.875  1.00  0.00     0.000 C 
BRANCH  32  33
HETATM   33  C   UNL     1     -22.753  -4.451 -10.172  1.00  0.00     0.000 C 
BRANCH  33  34
HETATM   34  C   UNL     1     -21.954  -3.945 -11.363  1.00  0.00    -0.000 C 
BRANCH  34  35
HETATM   35  C   UNL     1     -22.653  -2.756 -12.012  1.00  0.00    -0.005 C 
HETATM   36  C   UNL     1     -24.106  -3.082 -12.300  1.00  0.00     0.005 C 
ENDBRANCH  34  35
ENDBRANCH  33  34
ENDBRANCH  32  33
ENDBRANCH  31  32
ENDBRANCH  30  31
ENDBRANCH  29  30
ENDBRANCH  28  29
ENDBRANCH  27  28
ENDBRANCH   1  27
TORSDOF 31
ENDMDL
MODEL 7
REMARK VINA RESULT:      -6.2      1.420      2.281
REMARK  31 active torsions:
REMARK  status: ('A' for Active; 'I' for Inactive)
REMARK    1  A    between atoms: C_2  and  C_3 
REMARK    2  A    between atoms: C_3  and  C_4 
REMARK    3  A    between atoms: C_4  and  C_5 
REMARK    4  A    between atoms: C_5  and  C_6 
REMARK    5  A    between atoms: C_6  and  C_7 
REMARK    6  A    between atoms: C_7  and  C_8 
REMARK    7  A    between atoms: C_8  and  C_9 
REMARK    8  A    between atoms: C_9  and  C_10 
REMARK    9  A    between atoms: C_10  and  C_11 
REMARK   10  A    between atoms: C_11  and  C_12 
REMARK   11  A    between atoms: C_12  and  C_13 
REMARK   12  A    between atoms: C_13  and  C_14 
REMARK   13  A    between atoms: C_14  and  O_16 
REMARK   14  A    between atoms: O_16  and  C_17 
REMARK   15  A    between atoms: C_17  and  C_18 
REMARK   16  A    between atoms: C_18  and  C_19 
REMARK   17  A    between atoms: C_18  and  C_27 
REMARK   18  A    between atoms: C_19  and  C_20 
REMARK   19  A    between atoms: C_20  and  C_21 
REMARK   20  A    between atoms: C_21  and  C_22 
REMARK   21  A    between atoms: C_22  and  C_23 
REMARK   22  A    between atoms: C_23  and  C_24 
REMARK   23  A    between atoms: C_24  and  C_25 
REMARK   24  A    between atoms: C_27  and  C_28 
REMARK   25  A    between atoms: C_28  and  C_29 
REMARK   26  A    between atoms: C_29  and  C_30 
REMARK   27  A    between atoms: C_30  and  C_31 
REMARK   28  A    between atoms: C_31  and  C_32 
REMARK   29  A    between atoms: C_32  and  C_33 
REMARK   30  A    between atoms: C_33  and  C_34 
REMARK   31  A    between atoms: C_34  and  C_35 
ROOT
HETATM    1  C   UNL     1     -21.188  -6.551  -4.848  1.00  0.00     0.010 C 
ENDROOT
BRANCH   1   2
HETATM    2  C   UNL     1     -20.115  -7.637  -4.672  1.00  0.00     0.183 C 
BRANCH   2   3
HETATM    3  O   UNL     1     -20.126  -8.590  -5.743  1.00  0.00    -0.321 OA
BRANCH   3   4
HETATM    4  C   UNL     1     -20.539  -9.839  -5.362  1.00  0.00     0.258 C 
HETATM    5  O   UNL     1     -21.119 -10.632  -6.065  1.00  0.00    -0.265 OA
BRANCH   4   6
HETATM    6  C   UNL     1     -20.079 -10.110  -3.939  1.00  0.00     0.111 C 
BRANCH   6   7
HETATM    7  C   UNL     1     -19.936 -11.606  -3.715  1.00  0.00     0.010 C 
BRANCH   7   8
HETATM    8  C   UNL     1     -18.935 -11.950  -2.621  1.00  0.00     0.000 C 
BRANCH   8   9
HETATM    9  C   UNL     1     -18.179 -10.691  -2.205  1.00  0.00     0.000 C 
BRANCH   9  10
HETATM   10  C   UNL     1     -16.715 -11.000  -1.937  1.00  0.00     0.000 C 
BRANCH  10  11
HETATM   11  C   UNL     1     -15.933 -11.052  -3.243  1.00  0.00     0.000 C 
BRANCH  11  12
HETATM   12  C   UNL     1     -16.032  -9.718  -3.967  1.00  0.00     0.000 C 
BRANCH  12  13
HETATM   13  C   UNL     1     -16.272  -9.936  -5.452  1.00  0.00     0.000 C 
BRANCH  13  14
HETATM   14  C   UNL     1     -16.532 -11.410  -5.733  1.00  0.00     0.000 C 
BRANCH  14  15
HETATM   15  C   UNL     1     -17.707 -11.567  -6.686  1.00  0.00     0.000 C 
BRANCH  15  16
HETATM   16  C   UNL     1     -17.699 -12.951  -7.320  1.00  0.00    -0.000 C 
BRANCH  16  17
HETATM   17  C   UNL     1     -18.586 -12.981  -8.561  1.00  0.00    -0.005 C 
HETATM   18  C   UNL     1     -20.030 -13.247  -8.182  1.00  0.00     0.005 C 
ENDBRANCH  16  17
ENDBRANCH  15  16
ENDBRANCH  14  15
ENDBRANCH  13  14
ENDBRANCH  12  13
ENDBRANCH  11  12
ENDBRANCH  10  11
ENDBRANCH   9  10
ENDBRANCH   8   9
ENDBRANCH   7   8
ENDBRANCH   6   7
ENDBRANCH   4   6
ENDBRANCH   3   4
ENDBRANCH   2   3
ENDBRANCH   1   2
BRANCH   1  19
HETATM   19  C   UNL     1     -22.032  -6.357  -3.574  1.00  0.00     0.007 C 
BRANCH  19  20
HETATM   20  C   UNL     1     -21.405  -7.014  -2.353  1.00  0.00     0.000 C 
BRANCH  20  21
HETATM   21  C   UNL     1     -22.325  -6.947  -1.152  1.00  0.00     0.000 C 
BRANCH  21  22
HETATM   22  C   UNL     1     -21.742  -7.835  -0.067  1.00  0.00     0.000 C 
BRANCH  22  23
HETATM   23  C   UNL     1     -21.175  -9.096  -0.682  1.00  0.00     0.000 C 
BRANCH  23  24
HETATM   24  C   UNL     1     -21.571 -10.300   0.153  1.00  0.00    -0.000 C 
BRANCH  24  25
HETATM   25  C   UNL     1     -22.570 -11.157  -0.609  1.00  0.00    -0.005 C 
HETATM   26  C   UNL     1     -23.984 -10.863  -0.150  1.00  0.00     0.005 C 
ENDBRANCH  24  25
ENDBRANCH  23  24
ENDBRANCH  22  23
ENDBRANCH  21  22
ENDBRANCH  20  21
ENDBRANCH  19  20
ENDBRANCH   1  19
BRANCH   1  27
HETATM   27  C   UNL     1     -20.520  -5.223  -5.247  1.00  0.00     0.007 C 
BRANCH  27  28
HETATM   28  C   UNL     1     -19.881  -5.280  -6.626  1.00  0.00     0.000 C 
BRANCH  28  29
HETATM   29  C   UNL     1     -20.920  -5.491  -7.711  1.00  0.00     0.000 C 
BRANCH  29  30
HETATM   30  C   UNL     1     -21.533  -4.151  -8.094  1.00  0.00     0.000 C 
BRANCH  30  31
HETATM   31  C   UNL     1     -23.041  -4.201  -7.937  1.00  0.00     0.000 C 
BRANCH  31  32
HETATM   32  C   UNL     1     -23.698  -4.550  -9.263  1.00  0.00     0.000 C 
BRANCH  32  33
HETATM   33  C   UNL     1     -24.348  -3.313  -9.864  1.00  0.00     0.000 C 
BRANCH  33  34
HETATM   34  C   UNL     1     -24.043  -3.224 -11.352  1.00  0.00    -0.000 C 
BRANCH  34  35
HETATM   35  C   UNL     1     -22.744  -3.951 -11.678  1.00  0.00    -0.005 C 
HETATM   36  C   UNL     1     -21.570  -2.990 -11.644  1.00  0.00     0.005 C 
ENDBRANCH  34  35
ENDBRANCH  33  34
ENDBRANCH  32  33
ENDBRANCH  31  32
ENDBRANCH  30  31
ENDBRANCH  29  30
ENDBRANCH  28  29
ENDBRANCH  27  28
ENDBRANCH   1  27
TORSDOF 31
ENDMDL
MODEL 8
REMARK VINA RESULT:      -6.2      1.923      5.197
REMARK  31 active torsions:
REMARK  status: ('A' for Active; 'I' for Inactive)
REMARK    1  A    between atoms: C_2  and  C_3 
REMARK    2  A    between atoms: C_3  and  C_4 
REMARK    3  A    between atoms: C_4  and  C_5 
REMARK    4  A    between atoms: C_5  and  C_6 
REMARK    5  A    between atoms: C_6  and  C_7 
REMARK    6  A    between atoms: C_7  and  C_8 
REMARK    7  A    between atoms: C_8  and  C_9 
REMARK    8  A    between atoms: C_9  and  C_10 
REMARK    9  A    between atoms: C_10  and  C_11 
REMARK   10  A    between atoms: C_11  and  C_12 
REMARK   11  A    between atoms: C_12  and  C_13 
REMARK   12  A    between atoms: C_13  and  C_14 
REMARK   13  A    between atoms: C_14  and  O_16 
REMARK   14  A    between atoms: O_16  and  C_17 
REMARK   15  A    between atoms: C_17  and  C_18 
REMARK   16  A    between atoms: C_18  and  C_19 
REMARK   17  A    between atoms: C_18  and  C_27 
REMARK   18  A    between atoms: C_19  and  C_20 
REMARK   19  A    between atoms: C_20  and  C_21 
REMARK   20  A    between atoms: C_21  and  C_22 
REMARK   21  A    between atoms: C_22  and  C_23 
REMARK   22  A    between atoms: C_23  and  C_24 
REMARK   23  A    between atoms: C_24  and  C_25 
REMARK   24  A    between atoms: C_27  and  C_28 
REMARK   25  A    between atoms: C_28  and  C_29 
REMARK   26  A    between atoms: C_29  and  C_30 
REMARK   27  A    between atoms: C_30  and  C_31 
REMARK   28  A    between atoms: C_31  and  C_32 
REMARK   29  A    between atoms: C_32  and  C_33 
REMARK   30  A    between atoms: C_33  and  C_34 
REMARK   31  A    between atoms: C_34  and  C_35 
ROOT
HETATM    1  C   UNL     1     -21.058  -7.091  -5.040  1.00  0.00     0.010 C 
ENDROOT
BRANCH   1   2
HETATM    2  C   UNL     1     -21.854  -6.380  -3.936  1.00  0.00     0.183 C 
BRANCH   2   3
HETATM    3  O   UNL     1     -21.123  -6.298  -2.705  1.00  0.00    -0.321 OA
BRANCH   3   4
HETATM    4  C   UNL     1     -21.757  -6.898  -1.649  1.00  0.00     0.258 C 
HETATM    5  O   UNL     1     -22.748  -6.481  -1.096  1.00  0.00    -0.265 OA
BRANCH   4   6
HETATM    6  C   UNL     1     -21.072  -8.217  -1.333  1.00  0.00     0.111 C 
BRANCH   6   7
HETATM    7  C   UNL     1     -22.076  -9.355  -1.410  1.00  0.00     0.010 C 
BRANCH   7   8
HETATM    8  C   UNL     1     -22.474  -9.889  -0.041  1.00  0.00     0.000 C 
BRANCH   8   9
HETATM    9  C   UNL     1     -23.627 -10.877  -0.193  1.00  0.00     0.000 C 
BRANCH   9  10
HETATM   10  C   UNL     1     -23.120 -12.311  -0.178  1.00  0.00     0.000 C 
BRANCH  10  11
HETATM   11  C   UNL     1     -23.549 -13.042  -1.442  1.00  0.00     0.000 C 
BRANCH  11  12
HETATM   12  C   UNL     1     -22.335 -13.617  -2.155  1.00  0.00     0.000 C 
BRANCH  12  13
HETATM   13  C   UNL     1     -21.473 -12.500  -2.721  1.00  0.00     0.000 C 
BRANCH  13  14
HETATM   14  C   UNL     1     -20.168 -13.067  -3.264  1.00  0.00     0.000 C 
BRANCH  14  15
HETATM   15  C   UNL     1     -19.050 -12.881  -2.249  1.00  0.00     0.000 C 
BRANCH  15  16
HETATM   16  C   UNL     1     -19.365 -11.722  -1.313  1.00  0.00    -0.000 C 
BRANCH  16  17
HETATM   17  C   UNL     1     -19.069 -12.102   0.134  1.00  0.00    -0.005 C 
HETATM   18  C   UNL     1     -17.575 -12.118   0.391  1.00  0.00     0.005 C 
ENDBRANCH  16  17
ENDBRANCH  15  16
ENDBRANCH  14  15
ENDBRANCH  13  14
ENDBRANCH  12  13
ENDBRANCH  11  12
ENDBRANCH  10  11
ENDBRANCH   9  10
ENDBRANCH   8   9
ENDBRANCH   7   8
ENDBRANCH   6   7
ENDBRANCH   4   6
ENDBRANCH   3   4
ENDBRANCH   2   3
ENDBRANCH   1   2
BRANCH   1  19
HETATM   19  C   UNL     1     -21.505  -8.554  -5.228  1.00  0.00     0.007 C 
BRANCH  19  20
HETATM   20  C   UNL     1     -20.452  -9.550  -4.770  1.00  0.00     0.000 C 
BRANCH  20  21
HETATM   21  C   UNL     1     -19.058  -8.967  -4.860  1.00  0.00     0.000 C 
BRANCH  21  22
HETATM   22  C   UNL     1     -18.334  -9.285  -3.564  1.00  0.00     0.000 C 
BRANCH  22  23
HETATM   23  C   UNL     1     -16.994  -9.921  -3.865  1.00  0.00     0.000 C 
BRANCH  23  24
HETATM   24  C   UNL     1     -16.204 -10.092  -2.580  1.00  0.00    -0.000 C 
BRANCH  24  25
HETATM   25  C   UNL     1     -15.477 -11.428  -2.590  1.00  0.00    -0.005 C 
HETATM   26  C   UNL     1     -15.107 -11.822  -4.006  1.00  0.00     0.005 C 
ENDBRANCH  24  25
ENDBRANCH  23  24
ENDBRANCH  22  23
ENDBRANCH  21  22
ENDBRANCH  20  21
ENDBRANCH  19  20
ENDBRANCH   1  19
BRANCH   1  27
HETATM   27  C   UNL     1     -21.205  -6.320  -6.364  1.00  0.00     0.007 C 
BRANCH  27  28
HETATM   28  C   UNL     1     -19.878  -6.138  -7.086  1.00  0.00     0.000 C 
BRANCH  28  29
HETATM   29  C   UNL     1     -19.374  -4.712  -6.971  1.00  0.00     0.000 C 
BRANCH  29  30
HETATM   30  C   UNL     1     -20.176  -3.814  -7.902  1.00  0.00     0.000 C 
BRANCH  30  31
HETATM   31  C   UNL     1     -20.168  -4.378  -9.310  1.00  0.00     0.000 C 
BRANCH  31  32
HETATM   32  C   UNL     1     -21.516  -4.156  -9.975  1.00  0.00     0.000 C 
BRANCH  32  33
HETATM   33  C   UNL     1     -22.567  -3.824  -8.926  1.00  0.00     0.000 C 
BRANCH  33  34
HETATM   34  C   UNL     1     -23.959  -3.870  -9.537  1.00  0.00    -0.000 C 
BRANCH  34  35
HETATM   35  C   UNL     1     -23.890  -4.300 -10.998  1.00  0.00    -0.005 C 
HETATM   36  C   UNL     1     -24.390  -3.192 -11.905  1.00  0.00     0.005 C 
ENDBRANCH  34  35
ENDBRANCH  33  34
ENDBRANCH  32  33
ENDBRANCH  31  32
ENDBRANCH  30  31
ENDBRANCH  29  30
ENDBRANCH  28  29
ENDBRANCH  27  28
ENDBRANCH   1  27
TORSDOF 31
ENDMDL
MODEL 9
REMARK VINA RESULT:      -6.2      1.469      2.396
REMARK  31 active torsions:
REMARK  status: ('A' for Active; 'I' for Inactive)
REMARK    1  A    between atoms: C_2  and  C_3 
REMARK    2  A    between atoms: C_3  and  C_4 
REMARK    3  A    between atoms: C_4  and  C_5 
REMARK    4  A    between atoms: C_5  and  C_6 
REMARK    5  A    between atoms: C_6  and  C_7 
REMARK    6  A    between atoms: C_7  and  C_8 
REMARK    7  A    between atoms: C_8  and  C_9 
REMARK    8  A    between atoms: C_9  and  C_10 
REMARK    9  A    between atoms: C_10  and  C_11 
REMARK   10  A    between atoms: C_11  and  C_12 
REMARK   11  A    between atoms: C_12  and  C_13 
REMARK   12  A    between atoms: C_13  and  C_14 
REMARK   13  A    between atoms: C_14  and  O_16 
REMARK   14  A    between atoms: O_16  and  C_17 
REMARK   15  A    between atoms: C_17  and  C_18 
REMARK   16  A    between atoms: C_18  and  C_19 
REMARK   17  A    between atoms: C_18  and  C_27 
REMARK   18  A    between atoms: C_19  and  C_20 
REMARK   19  A    between atoms: C_20  and  C_21 
REMARK   20  A    between atoms: C_21  and  C_22 
REMARK   21  A    between atoms: C_22  and  C_23 
REMARK   22  A    between atoms: C_23  and  C_24 
REMARK   23  A    between atoms: C_24  and  C_25 
REMARK   24  A    between atoms: C_27  and  C_28 
REMARK   25  A    between atoms: C_28  and  C_29 
REMARK   26  A    between atoms: C_29  and  C_30 
REMARK   27  A    between atoms: C_30  and  C_31 
REMARK   28  A    between atoms: C_31  and  C_32 
REMARK   29  A    between atoms: C_32  and  C_33 
REMARK   30  A    between atoms: C_33  and  C_34 
REMARK   31  A    between atoms: C_34  and  C_35 
ROOT
HETATM    1  C   UNL     1     -21.368  -7.140  -5.781  1.00  0.00     0.010 C 
ENDROOT
BRANCH   1   2
HETATM    2  C   UNL     1     -19.965  -7.591  -5.347  1.00  0.00     0.183 C 
BRANCH   2   3
HETATM    3  O   UNL     1     -19.673  -8.932  -5.761  1.00  0.00    -0.321 OA
BRANCH   3   4
HETATM    4  C   UNL     1     -18.530  -9.442  -5.203  1.00  0.00     0.258 C 
HETATM    5  O   UNL     1     -17.581  -9.872  -5.816  1.00  0.00    -0.265 OA
BRANCH   4   6
HETATM    6  C   UNL     1     -18.603  -9.305  -3.692  1.00  0.00     0.111 C 
BRANCH   6   7
HETATM    7  C   UNL     1     -17.229  -9.533  -3.083  1.00  0.00     0.010 C 
BRANCH   7   8
HETATM    8  C   UNL     1     -17.161 -10.789  -2.225  1.00  0.00     0.000 C 
BRANCH   8   9
HETATM    9  C   UNL     1     -15.702 -11.134  -1.936  1.00  0.00     0.000 C 
BRANCH   9  10
HETATM   10  C   UNL     1     -15.025 -11.708  -3.170  1.00  0.00     0.000 C 
BRANCH  10  11
HETATM   11  C   UNL     1     -15.962 -12.664  -3.896  1.00  0.00     0.000 C 
BRANCH  11  12
HETATM   12  C   UNL     1     -15.637 -12.691  -5.382  1.00  0.00     0.000 C 
BRANCH  12  13
HETATM   13  C   UNL     1     -14.264 -12.092  -5.637  1.00  0.00     0.000 C 
BRANCH  13  14
HETATM   14  C   UNL     1     -13.336 -13.140  -6.237  1.00  0.00     0.000 C 
BRANCH  14  15
HETATM   15  C   UNL     1     -13.937 -14.529  -6.078  1.00  0.00     0.000 C 
BRANCH  15  16
HETATM   16  C   UNL     1     -13.038 -15.404  -5.215  1.00  0.00    -0.000 C 
BRANCH  16  17
HETATM   17  C   UNL     1     -13.512 -15.399  -3.766  1.00  0.00    -0.005 C 
HETATM   18  C   UNL     1     -12.585 -14.567  -2.901  1.00  0.00     0.005 C 
ENDBRANCH  16  17
ENDBRANCH  15  16
ENDBRANCH  14  15
ENDBRANCH  13  14
ENDBRANCH  12  13
ENDBRANCH  11  12
ENDBRANCH  10  11
ENDBRANCH   9  10
ENDBRANCH   8   9
ENDBRANCH   7   8
ENDBRANCH   6   7
ENDBRANCH   4   6
ENDBRANCH   3   4
ENDBRANCH   2   3
ENDBRANCH   1   2
BRANCH   1  19
HETATM   19  C   UNL     1     -22.208  -6.635  -4.591  1.00  0.00     0.007 C 
BRANCH  19  20
HETATM   20  C   UNL     1     -21.610  -7.022  -3.248  1.00  0.00     0.000 C 
BRANCH  20  21
HETATM   21  C   UNL     1     -22.048  -6.076  -2.150  1.00  0.00     0.000 C 
BRANCH  21  22
HETATM   22  C   UNL     1     -22.350  -6.903  -0.913  1.00  0.00     0.000 C 
BRANCH  22  23
HETATM   23  C   UNL     1     -22.053  -8.362  -1.183  1.00  0.00     0.000 C 
BRANCH  23  24
HETATM   24  C   UNL     1     -22.899  -9.237  -0.276  1.00  0.00    -0.000 C 
BRANCH  24  25
HETATM   25  C   UNL     1     -22.694 -10.703  -0.628  1.00  0.00    -0.005 C 
HETATM   26  C   UNL     1     -23.751 -11.563   0.034  1.00  0.00     0.005 C 
ENDBRANCH  24  25
ENDBRANCH  23  24
ENDBRANCH  22  23
ENDBRANCH  21  22
ENDBRANCH  20  21
ENDBRANCH  19  20
ENDBRANCH   1  19
BRANCH   1  27
HETATM   27  C   UNL     1     -21.251  -6.038  -6.849  1.00  0.00     0.007 C 
BRANCH  27  28
HETATM   28  C   UNL     1     -19.873  -5.393  -6.876  1.00  0.00     0.000 C 
BRANCH  28  29
HETATM   29  C   UNL     1     -19.739  -4.420  -8.032  1.00  0.00     0.000 C 
BRANCH  29  30
HETATM   30  C   UNL     1     -20.750  -4.774  -9.113  1.00  0.00     0.000 C 
BRANCH  30  31
HETATM   31  C   UNL     1     -20.236  -4.341 -10.474  1.00  0.00     0.000 C 
BRANCH  31  32
HETATM   32  C   UNL     1     -21.376  -4.289 -11.477  1.00  0.00     0.000 C 
BRANCH  32  33
HETATM   33  C   UNL     1     -21.908  -2.868 -11.588  1.00  0.00     0.000 C 
BRANCH  33  34
HETATM   34  C   UNL     1     -23.413  -2.881 -11.807  1.00  0.00    -0.000 C 
BRANCH  34  35
HETATM   35  C   UNL     1     -24.074  -3.941 -10.933  1.00  0.00    -0.005 C 
HETATM   36  C   UNL     1     -24.449  -3.361  -9.582  1.00  0.00     0.005 C 
ENDBRANCH  34  35
ENDBRANCH  33  34
ENDBRANCH  32  33
ENDBRANCH  31  32
ENDBRANCH  30  31
ENDBRANCH  29  30
ENDBRANCH  28  29
ENDBRANCH  27  28
ENDBRANCH   1  27
TORSDOF 31
ENDMDL
