MODEL 1
REMARK VINA RESULT:      -9.5      0.000      0.000
REMARK  12 active torsions:
REMARK  status: ('A' for Active; 'I' for Inactive)
REMARK    1  A    between atoms: C_3  and  C_12 
REMARK    2  A    between atoms: C_6  and  O_9 
REMARK    3  A    between atoms: C_13  and  C_14 
REMARK    4  A    between atoms: C_15  and  C_16 
REMARK    5  A    between atoms: C_17  and  C_18 
REMARK    6  A    between atoms: C_19  and  C_20 
REMARK    7  A    between atoms: C_21  and  C_22 
REMARK    8  A    between atoms: C_23  and  C_25 
REMARK    9  A    between atoms: C_26  and  C_27 
REMARK   10  A    between atoms: C_28  and  C_30 
REMARK   11  A    between atoms: C_31  and  C_32 
REMARK   12  A    between atoms: C_36  and  O_41 
ROOT
HETATM    1  C   UNL     1     -23.498 -11.530  -0.216  1.00  0.00    -0.022 C 
HETATM    2  C   UNL     1     -22.820 -10.355  -0.493  1.00  0.00     0.054 C 
ENDROOT
BRANCH   1   3
HETATM    3  C   UNL     1     -23.505 -12.484   1.003  1.00  0.00     0.003 C 
HETATM    4  C   UNL     1     -23.353 -13.784   1.053  1.00  0.00    -0.062 C 
HETATM    5  C   UNL     1     -23.148 -14.477   2.429  1.00  0.00     0.048 C 
BRANCH   4   6
HETATM    6  C   UNL     1     -23.245 -14.677  -0.124  1.00  0.00     0.007 C 
HETATM    7  C   UNL     1     -24.234 -14.753  -1.021  1.00  0.00     0.001 C 
BRANCH   7   8
HETATM    8  C   UNL     1     -24.341 -15.333  -2.344  1.00  0.00     0.007 C 
HETATM    9  C   UNL     1     -23.510 -15.054  -3.393  1.00  0.00    -0.062 C 
HETATM   10  C   UNL     1     -24.092 -15.420  -4.752  1.00  0.00     0.048 C 
BRANCH   9  11
HETATM   11  C   UNL     1     -22.182 -14.281  -3.447  1.00  0.00     0.007 C 
HETATM   12  C   UNL     1     -21.889 -13.040  -3.046  1.00  0.00     0.009 C 
BRANCH  12  13
HETATM   13  C   UNL     1     -20.637 -12.046  -3.024  1.00  0.00    -0.041 C 
HETATM   14  C   UNL     1     -20.498 -11.323  -4.215  1.00  0.00    -0.006 C 
HETATM   15  C   UNL     1     -21.539 -11.057  -5.341  1.00  0.00     0.052 C 
HETATM   16  C   UNL     1     -19.224 -10.605  -4.591  1.00  0.00     0.184 C 
HETATM   17  C   UNL     1     -18.095 -10.483  -3.583  1.00  0.00     0.193 C 
HETATM   18  O   UNL     1     -19.092 -10.097  -5.721  1.00  0.00    -0.290 OA
HETATM   19  C   UNL     1     -18.078 -11.363  -2.358  1.00  0.00     0.053 C 
HETATM   20  C   UNL     1     -19.386 -12.026  -1.792  1.00  0.00    -0.017 C 
HETATM   21  C   UNL     1     -18.982 -13.497  -1.597  1.00  0.00     0.020 C 
HETATM   22  C   UNL     1     -19.323 -11.437  -0.152  1.00  0.00     0.020 C 
BRANCH  17  23
HETATM   23  O   UNL     1     -16.782 -10.541  -4.158  1.00  0.00    -0.388 OA
HETATM   24  H   UNL     1     -16.425 -11.432  -3.997  1.00  0.00     0.210 HD
ENDBRANCH  17  23
ENDBRANCH  12  13
ENDBRANCH   9  11
ENDBRANCH   7   8
ENDBRANCH   4   6
ENDBRANCH   1   3
BRANCH   2  25
HETATM   25  C   UNL     1     -22.560  -9.233  -1.699  1.00  0.00    -0.016 C 
HETATM   26  C   UNL     1     -21.505  -8.357  -2.074  1.00  0.00    -0.066 C 
HETATM   27  C   UNL     1     -20.053  -8.091  -1.536  1.00  0.00     0.048 C 
BRANCH  26  28
HETATM   28  C   UNL     1     -21.616  -7.302  -3.224  1.00  0.00     0.006 C 
HETATM   29  C   UNL     1     -21.140  -7.470  -4.570  1.00  0.00     0.001 C 
BRANCH  29  30
HETATM   30  C   UNL     1     -21.522  -6.662  -5.733  1.00  0.00     0.007 C 
HETATM   31  C   UNL     1     -21.056  -5.411  -5.983  1.00  0.00    -0.062 C 
HETATM   32  C   UNL     1     -19.981  -4.693  -5.184  1.00  0.00     0.048 C 
BRANCH  31  33
HETATM   33  C   UNL     1     -21.581  -4.604  -7.123  1.00  0.00     0.007 C 
HETATM   34  C   UNL     1     -21.864  -5.066  -8.328  1.00  0.00     0.009 C 
BRANCH  34  35
HETATM   35  C   UNL     1     -22.091  -4.223  -9.530  1.00  0.00    -0.041 A 
HETATM   36  C   UNL     1     -23.361  -3.998  -9.915  1.00  0.00    -0.006 A 
HETATM   37  C   UNL     1     -23.675  -3.275 -11.193  1.00  0.00     0.184 A 
HETATM   38  C   UNL     1     -24.608  -4.488  -9.218  1.00  0.00     0.052 C 
HETATM   39  O   UNL     1     -24.843  -3.170 -11.554  1.00  0.00    -0.290 OA
HETATM   40  C   UNL     1     -22.536  -2.749 -12.057  1.00  0.00     0.193 A 
HETATM   41  C   UNL     1     -21.108  -2.961 -11.601  1.00  0.00     0.053 A 
HETATM   42  C   UNL     1     -20.834  -3.766 -10.301  1.00  0.00    -0.017 A 
HETATM   43  C   UNL     1     -20.064  -5.040 -10.723  1.00  0.00     0.020 C 
HETATM   44  C   UNL     1     -19.883  -2.875  -9.452  1.00  0.00     0.020 C 
BRANCH  40  45
HETATM   45  O   UNL     1     -22.648  -3.234 -13.396  1.00  0.00    -0.388 OA
HETATM   46  H   UNL     1     -23.000  -4.139 -13.349  1.00  0.00     0.210 HD
ENDBRANCH  40  45
ENDBRANCH  34  35
ENDBRANCH  31  33
ENDBRANCH  29  30
ENDBRANCH  26  28
ENDBRANCH   2  25
TORSDOF 12
ENDMDL
MODEL 2
REMARK VINA RESULT:      -9.3      0.985      1.980
REMARK  12 active torsions:
REMARK  status: ('A' for Active; 'I' for Inactive)
REMARK    1  A    between atoms: C_3  and  C_12 
REMARK    2  A    between atoms: C_6  and  O_9 
REMARK    3  A    between atoms: C_13  and  C_14 
REMARK    4  A    between atoms: C_15  and  C_16 
REMARK    5  A    between atoms: C_17  and  C_18 
REMARK    6  A    between atoms: C_19  and  C_20 
REMARK    7  A    between atoms: C_21  and  C_22 
REMARK    8  A    between atoms: C_23  and  C_25 
REMARK    9  A    between atoms: C_26  and  C_27 
REMARK   10  A    between atoms: C_28  and  C_30 
REMARK   11  A    between atoms: C_31  and  C_32 
REMARK   12  A    between atoms: C_36  and  O_41 
ROOT
HETATM    1  C   UNL     1     -23.415 -11.526  -0.133  1.00  0.00    -0.022 C 
HETATM    2  C   UNL     1     -22.520 -10.699  -0.792  1.00  0.00     0.054 C 
ENDROOT
BRANCH   1   3
HETATM    3  C   UNL     1     -23.278 -12.479   1.079  1.00  0.00     0.003 C 
HETATM    4  C   UNL     1     -23.119 -13.778   1.112  1.00  0.00    -0.062 C 
HETATM    5  C   UNL     1     -22.754 -14.470   2.455  1.00  0.00     0.048 C 
BRANCH   4   6
HETATM    6  C   UNL     1     -23.147 -14.673  -0.069  1.00  0.00     0.007 C 
HETATM    7  C   UNL     1     -24.278 -14.866  -0.757  1.00  0.00     0.001 C 
BRANCH   7   8
HETATM    8  C   UNL     1     -24.577 -15.474  -2.037  1.00  0.00     0.007 C 
HETATM    9  C   UNL     1     -23.817 -15.341  -3.166  1.00  0.00    -0.062 C 
HETATM   10  C   UNL     1     -24.562 -15.676  -4.451  1.00  0.00     0.048 C 
BRANCH   9  11
HETATM   11  C   UNL     1     -22.412 -14.749  -3.369  1.00  0.00     0.007 C 
HETATM   12  C   UNL     1     -22.031 -13.485  -3.577  1.00  0.00     0.009 C 
BRANCH  12  13
HETATM   13  C   UNL     1     -20.686 -12.660  -3.834  1.00  0.00    -0.041 C 
HETATM   14  C   UNL     1     -19.940 -12.460  -2.666  1.00  0.00    -0.006 C 
HETATM   15  C   UNL     1     -20.009 -13.212  -1.306  1.00  0.00     0.052 C 
HETATM   16  C   UNL     1     -18.844 -11.428  -2.563  1.00  0.00     0.184 C 
HETATM   17  C   UNL     1     -18.378 -10.688  -3.805  1.00  0.00     0.193 C 
HETATM   18  O   UNL     1     -18.305 -11.182  -1.467  1.00  0.00    -0.290 OA
HETATM   19  C   UNL     1     -19.222 -10.704  -5.055  1.00  0.00     0.053 C 
HETATM   20  C   UNL     1     -20.280 -11.834  -5.330  1.00  0.00    -0.017 C 
HETATM   21  C   UNL     1     -21.544 -11.048  -5.718  1.00  0.00     0.020 C 
HETATM   22  C   UNL     1     -19.725 -12.376  -6.891  1.00  0.00     0.020 C 
BRANCH  17  23
HETATM   23  O   UNL     1     -18.000  -9.324  -3.573  1.00  0.00    -0.388 OA
HETATM   24  H   UNL     1     -17.224  -9.131  -4.130  1.00  0.00     0.210 HD
ENDBRANCH  17  23
ENDBRANCH  12  13
ENDBRANCH   9  11
ENDBRANCH   7   8
ENDBRANCH   4   6
ENDBRANCH   1   3
BRANCH   2  25
HETATM   25  C   UNL     1     -22.378  -9.694  -2.114  1.00  0.00    -0.016 C 
HETATM   26  C   UNL     1     -21.588  -8.566  -2.464  1.00  0.00    -0.066 C 
HETATM   27  C   UNL     1     -20.424  -7.777  -1.761  1.00  0.00     0.048 C 
BRANCH  26  28
HETATM   28  C   UNL     1     -21.783  -7.738  -3.778  1.00  0.00     0.006 C 
HETATM   29  C   UNL     1     -20.820  -7.600  -4.836  1.00  0.00     0.001 C 
BRANCH  29  30
HETATM   30  C   UNL     1     -21.089  -7.130  -6.199  1.00  0.00     0.007 C 
HETATM   31  C   UNL     1     -20.821  -5.875  -6.643  1.00  0.00    -0.062 C 
HETATM   32  C   UNL     1     -20.093  -4.796  -5.857  1.00  0.00     0.048 C 
BRANCH  31  33
HETATM   33  C   UNL     1     -21.233  -5.432  -8.008  1.00  0.00     0.007 C 
HETATM   34  C   UNL     1     -21.292  -4.181  -8.426  1.00  0.00     0.009 C 
BRANCH  34  35
HETATM   35  C   UNL     1     -21.982  -3.729  -9.661  1.00  0.00    -0.041 A 
HETATM   36  C   UNL     1     -23.324  -3.625  -9.635  1.00  0.00    -0.006 A 
HETATM   37  C   UNL     1     -24.108  -3.309 -10.876  1.00  0.00     0.184 A 
HETATM   38  C   UNL     1     -24.219  -3.887  -8.448  1.00  0.00     0.052 C 
HETATM   39  O   UNL     1     -25.334  -3.313 -10.830  1.00  0.00    -0.290 OA
HETATM   40  C   UNL     1     -23.373  -3.062 -12.186  1.00  0.00     0.193 A 
HETATM   41  C   UNL     1     -21.860  -3.132 -12.206  1.00  0.00     0.053 A 
HETATM   42  C   UNL     1     -21.098  -3.520 -10.909  1.00  0.00    -0.017 A 
HETATM   43  C   UNL     1     -20.386  -4.863 -11.199  1.00  0.00     0.020 C 
HETATM   44  C   UNL     1     -20.016  -2.420 -10.719  1.00  0.00     0.020 C 
BRANCH  40  45
HETATM   45  O   UNL     1     -23.868  -3.919 -13.217  1.00  0.00    -0.388 OA
HETATM   46  H   UNL     1     -23.654  -4.833 -12.962  1.00  0.00     0.210 HD
ENDBRANCH  40  45
ENDBRANCH  34  35
ENDBRANCH  31  33
ENDBRANCH  29  30
ENDBRANCH  26  28
ENDBRANCH   2  25
TORSDOF 12
ENDMDL
MODEL 3
REMARK VINA RESULT:      -9.2      3.044      4.845
REMARK  12 active torsions:
REMARK  status: ('A' for Active; 'I' for Inactive)
REMARK    1  A    between atoms: C_3  and  C_12 
REMARK    2  A    between atoms: C_6  and  O_9 
REMARK    3  A    between atoms: C_13  and  C_14 
REMARK    4  A    between atoms: C_15  and  C_16 
REMARK    5  A    between atoms: C_17  and  C_18 
REMARK    6  A    between atoms: C_19  and  C_20 
REMARK    7  A    between atoms: C_21  and  C_22 
REMARK    8  A    between atoms: C_23  and  C_25 
REMARK    9  A    between atoms: C_26  and  C_27 
REMARK   10  A    between atoms: C_28  and  C_30 
REMARK   11  A    between atoms: C_31  and  C_32 
REMARK   12  A    between atoms: C_36  and  O_41 
ROOT
HETATM    1  C   UNL     1     -18.841 -10.585  -2.075  1.00  0.00    -0.022 C 
HETATM    2  C   UNL     1     -19.748  -9.539  -2.027  1.00  0.00     0.054 C 
ENDROOT
BRANCH   1   3
HETATM    3  C   UNL     1     -18.341 -11.601  -1.019  1.00  0.00     0.003 C 
HETATM    4  C   UNL     1     -17.123 -11.984  -0.734  1.00  0.00    -0.062 C 
HETATM    5  C   UNL     1     -16.866 -12.830   0.545  1.00  0.00     0.048 C 
BRANCH   4   6
HETATM    6  C   UNL     1     -15.905 -11.586  -1.479  1.00  0.00     0.007 C 
HETATM    7  C   UNL     1     -15.346 -12.411  -2.371  1.00  0.00     0.001 C 
BRANCH   7   8
HETATM    8  C   UNL     1     -14.328 -12.241  -3.387  1.00  0.00     0.007 C 
HETATM    9  C   UNL     1     -14.568 -12.130  -4.728  1.00  0.00    -0.062 C 
HETATM   10  C   UNL     1     -13.351 -12.421  -5.597  1.00  0.00     0.048 C 
BRANCH   9  11
HETATM   11  C   UNL     1     -15.882 -11.938  -5.503  1.00  0.00     0.007 C 
HETATM   12  C   UNL     1     -17.040 -12.599  -5.414  1.00  0.00     0.009 C 
BRANCH  12  13
HETATM   13  C   UNL     1     -18.482 -12.601  -6.106  1.00  0.00    -0.041 C 
HETATM   14  C   UNL     1     -19.148 -11.377  -5.972  1.00  0.00    -0.006 C 
HETATM   15  C   UNL     1     -18.578  -9.971  -5.625  1.00  0.00     0.052 C 
HETATM   16  C   UNL     1     -20.631 -11.225  -6.206  1.00  0.00     0.184 C 
HETATM   17  C   UNL     1     -21.432 -12.377  -6.787  1.00  0.00     0.193 C 
HETATM   18  O   UNL     1     -21.210 -10.154  -5.937  1.00  0.00    -0.290 OA
HETATM   19  C   UNL     1     -20.851 -13.770  -6.799  1.00  0.00     0.053 C 
HETATM   20  C   UNL     1     -19.302 -14.025  -6.726  1.00  0.00    -0.017 C 
HETATM   21  C   UNL     1     -19.170 -15.086  -5.619  1.00  0.00     0.020 C 
HETATM   22  C   UNL     1     -19.101 -15.001  -8.157  1.00  0.00     0.020 C 
BRANCH  17  23
HETATM   23  O   UNL     1     -22.768 -12.485  -6.277  1.00  0.00    -0.388 OA
HETATM   24  H   UNL     1     -22.741 -13.057  -5.489  1.00  0.00     0.210 HD
ENDBRANCH  17  23
ENDBRANCH  12  13
ENDBRANCH   9  11
ENDBRANCH   7   8
ENDBRANCH   4   6
ENDBRANCH   1   3
BRANCH   2  25
HETATM   25  C   UNL     1     -20.369  -8.288  -2.936  1.00  0.00    -0.016 C 
HETATM   26  C   UNL     1     -21.322  -7.253  -2.739  1.00  0.00    -0.066 C 
HETATM   27  C   UNL     1     -22.197  -6.781  -1.522  1.00  0.00     0.048 C 
BRANCH  26  28
HETATM   28  C   UNL     1     -21.794  -6.275  -3.866  1.00  0.00     0.006 C 
HETATM   29  C   UNL     1     -21.030  -5.891  -5.022  1.00  0.00     0.001 C 
BRANCH  29  30
HETATM   30  C   UNL     1     -21.555  -5.266  -6.241  1.00  0.00     0.007 C 
HETATM   31  C   UNL     1     -20.794  -4.604  -7.150  1.00  0.00    -0.062 C 
HETATM   32  C   UNL     1     -19.278  -4.505  -7.128  1.00  0.00     0.048 C 
BRANCH  31  33
HETATM   33  C   UNL     1     -21.415  -3.890  -8.305  1.00  0.00     0.007 C 
HETATM   34  C   UNL     1     -22.278  -4.412  -9.158  1.00  0.00     0.009 C 
BRANCH  34  35
HETATM   35  C   UNL     1     -22.655  -3.808 -10.462  1.00  0.00    -0.041 A 
HETATM   36  C   UNL     1     -23.957  -3.562 -10.693  1.00  0.00    -0.006 A 
HETATM   37  C   UNL     1     -24.437  -3.084 -12.033  1.00  0.00     0.184 A 
HETATM   38  C   UNL     1     -25.098  -3.802  -9.733  1.00  0.00     0.052 C 
HETATM   39  O   UNL     1     -25.642  -2.958 -12.231  1.00  0.00    -0.290 OA
HETATM   40  C   UNL     1     -23.428  -2.833 -13.146  1.00  0.00     0.193 A 
HETATM   41  C   UNL     1     -21.957  -3.065 -12.872  1.00  0.00     0.053 A 
HETATM   42  C   UNL     1     -21.517  -3.616 -11.489  1.00  0.00    -0.017 A 
HETATM   43  C   UNL     1     -20.889  -5.007 -11.745  1.00  0.00     0.020 C 
HETATM   44  C   UNL     1     -20.400  -2.655 -10.995  1.00  0.00     0.020 C 
BRANCH  40  45
HETATM   45  O   UNL     1     -23.779  -3.563 -14.323  1.00  0.00    -0.388 OA
HETATM   46  H   UNL     1     -23.305  -4.411 -14.291  1.00  0.00     0.210 HD
ENDBRANCH  40  45
ENDBRANCH  34  35
ENDBRANCH  31  33
ENDBRANCH  29  30
ENDBRANCH  26  28
ENDBRANCH   2  25
TORSDOF 12
ENDMDL
MODEL 4
REMARK VINA RESULT:      -9.1      2.511      4.506
REMARK  12 active torsions:
REMARK  status: ('A' for Active; 'I' for Inactive)
REMARK    1  A    between atoms: C_3  and  C_12 
REMARK    2  A    between atoms: C_6  and  O_9 
REMARK    3  A    between atoms: C_13  and  C_14 
REMARK    4  A    between atoms: C_15  and  C_16 
REMARK    5  A    between atoms: C_17  and  C_18 
REMARK    6  A    between atoms: C_19  and  C_20 
REMARK    7  A    between atoms: C_21  and  C_22 
REMARK    8  A    between atoms: C_23  and  C_25 
REMARK    9  A    between atoms: C_26  and  C_27 
REMARK   10  A    between atoms: C_28  and  C_30 
REMARK   11  A    between atoms: C_31  and  C_32 
REMARK   12  A    between atoms: C_36  and  O_41 
ROOT
HETATM    1  C   UNL     1     -16.370 -11.438  -1.431  1.00  0.00    -0.022 C 
HETATM    2  C   UNL     1     -17.591 -10.844  -1.705  1.00  0.00     0.054 C 
ENDROOT
BRANCH   1   3
HETATM    3  C   UNL     1     -15.715 -11.956  -0.127  1.00  0.00     0.003 C 
HETATM    4  C   UNL     1     -16.116 -12.887   0.701  1.00  0.00    -0.062 C 
HETATM    5  C   UNL     1     -15.149 -13.396   1.807  1.00  0.00     0.048 C 
BRANCH   4   6
HETATM    6  C   UNL     1     -17.410 -13.604   0.619  1.00  0.00     0.007 C 
HETATM    7  C   UNL     1     -17.520 -14.743  -0.075  1.00  0.00     0.001 C 
BRANCH   7   8
HETATM    8  C   UNL     1     -18.544 -15.764  -0.162  1.00  0.00     0.007 C 
HETATM    9  C   UNL     1     -19.873 -15.527  -0.375  1.00  0.00    -0.062 C 
HETATM   10  C   UNL     1     -20.776 -16.685   0.027  1.00  0.00     0.048 C 
BRANCH   9  11
HETATM   11  C   UNL     1     -20.614 -14.241  -0.779  1.00  0.00     0.007 C 
HETATM   12  C   UNL     1     -20.684 -13.057  -0.163  1.00  0.00     0.009 C 
BRANCH  12  13
HETATM   13  C   UNL     1     -21.386 -11.634  -0.366  1.00  0.00    -0.041 C 
HETATM   14  C   UNL     1     -20.894 -10.658   0.509  1.00  0.00    -0.006 C 
HETATM   15  C   UNL     1     -19.571 -10.637   1.328  1.00  0.00     0.052 C 
HETATM   16  C   UNL     1     -21.617  -9.360   0.774  1.00  0.00     0.184 C 
HETATM   17  C   UNL     1     -22.830  -8.982  -0.058  1.00  0.00     0.193 C 
HETATM   18  O   UNL     1     -21.222  -8.584   1.666  1.00  0.00    -0.290 OA
HETATM   19  C   UNL     1     -23.530 -10.027  -0.891  1.00  0.00     0.053 C 
HETATM   20  C   UNL     1     -22.806 -11.342  -1.356  1.00  0.00    -0.017 C 
HETATM   21  C   UNL     1     -23.804 -12.449  -0.976  1.00  0.00     0.020 C 
HETATM   22  C   UNL     1     -23.070 -11.224  -3.076  1.00  0.00     0.020 C 
BRANCH  17  23
HETATM   23  O   UNL     1     -23.845  -8.273   0.665  1.00  0.00    -0.388 OA
HETATM   24  H   UNL     1     -23.931  -7.388   0.268  1.00  0.00     0.210 HD
ENDBRANCH  17  23
ENDBRANCH  12  13
ENDBRANCH   9  11
ENDBRANCH   7   8
ENDBRANCH   4   6
ENDBRANCH   1   3
BRANCH   2  25
HETATM   25  C   UNL     1     -18.468 -10.134  -2.932  1.00  0.00    -0.016 C 
HETATM   26  C   UNL     1     -19.439  -9.101  -3.033  1.00  0.00    -0.066 C 
HETATM   27  C   UNL     1     -20.093  -8.103  -2.010  1.00  0.00     0.048 C 
BRANCH  26  28
HETATM   28  C   UNL     1     -20.191  -8.738  -4.356  1.00  0.00     0.006 C 
HETATM   29  C   UNL     1     -20.591  -7.418  -4.762  1.00  0.00     0.001 C 
BRANCH  29  30
HETATM   30  C   UNL     1     -20.981  -7.006  -6.114  1.00  0.00     0.007 C 
HETATM   31  C   UNL     1     -20.667  -5.808  -6.670  1.00  0.00    -0.062 C 
HETATM   32  C   UNL     1     -19.767  -4.753  -6.047  1.00  0.00     0.048 C 
BRANCH  31  33
HETATM   33  C   UNL     1     -21.200  -5.412  -8.007  1.00  0.00     0.007 C 
HETATM   34  C   UNL     1     -21.185  -4.191  -8.511  1.00  0.00     0.009 C 
BRANCH  34  35
HETATM   35  C   UNL     1     -21.975  -3.746  -9.687  1.00  0.00    -0.041 A 
HETATM   36  C   UNL     1     -23.314  -3.689  -9.566  1.00  0.00    -0.006 A 
HETATM   37  C   UNL     1     -24.194  -3.384 -10.744  1.00  0.00     0.184 A 
HETATM   38  C   UNL     1     -24.115  -3.997  -8.322  1.00  0.00     0.052 C 
HETATM   39  O   UNL     1     -25.414  -3.430 -10.612  1.00  0.00    -0.290 OA
HETATM   40  C   UNL     1     -23.562  -3.094 -12.098  1.00  0.00     0.193 A 
HETATM   41  C   UNL     1     -22.053  -3.113 -12.225  1.00  0.00     0.053 A 
HETATM   42  C   UNL     1     -21.189  -3.491 -10.991  1.00  0.00    -0.017 A 
HETATM   43  C   UNL     1     -20.455  -4.806 -11.351  1.00  0.00     0.020 C 
HETATM   44  C   UNL     1     -20.133  -2.358 -10.860  1.00  0.00     0.020 C 
BRANCH  40  45
HETATM   45  O   UNL     1     -24.100  -3.955 -13.104  1.00  0.00    -0.388 OA
HETATM   46  H   UNL     1     -24.071  -3.470 -13.947  1.00  0.00     0.210 HD
ENDBRANCH  40  45
ENDBRANCH  34  35
ENDBRANCH  31  33
ENDBRANCH  29  30
ENDBRANCH  26  28
ENDBRANCH   2  25
TORSDOF 12
ENDMDL
MODEL 5
REMARK VINA RESULT:      -9.1      2.089      3.954
REMARK  12 active torsions:
REMARK  status: ('A' for Active; 'I' for Inactive)
REMARK    1  A    between atoms: C_3  and  C_12 
REMARK    2  A    between atoms: C_6  and  O_9 
REMARK    3  A    between atoms: C_13  and  C_14 
REMARK    4  A    between atoms: C_15  and  C_16 
REMARK    5  A    between atoms: C_17  and  C_18 
REMARK    6  A    between atoms: C_19  and  C_20 
REMARK    7  A    between atoms: C_21  and  C_22 
REMARK    8  A    between atoms: C_23  and  C_25 
REMARK    9  A    between atoms: C_26  and  C_27 
REMARK   10  A    between atoms: C_28  and  C_30 
REMARK   11  A    between atoms: C_31  and  C_32 
REMARK   12  A    between atoms: C_36  and  O_41 
ROOT
HETATM    1  C   UNL     1     -17.937 -11.019  -2.370  1.00  0.00    -0.022 C 
HETATM    2  C   UNL     1     -18.583  -9.819  -2.617  1.00  0.00     0.054 C 
ENDROOT
BRANCH   1   3
HETATM    3  C   UNL     1     -17.135 -11.558  -1.161  1.00  0.00     0.003 C 
HETATM    4  C   UNL     1     -17.556 -12.137  -0.065  1.00  0.00    -0.062 C 
HETATM    5  C   UNL     1     -16.530 -12.817   0.885  1.00  0.00     0.048 C 
BRANCH   4   6
HETATM    6  C   UNL     1     -18.978 -12.308   0.318  1.00  0.00     0.007 C 
HETATM    7  C   UNL     1     -19.798 -11.255   0.402  1.00  0.00     0.001 C 
BRANCH   7   8
HETATM    8  C   UNL     1     -21.234 -11.114   0.525  1.00  0.00     0.007 C 
HETATM    9  C   UNL     1     -22.121 -11.180  -0.513  1.00  0.00    -0.062 C 
HETATM   10  C   UNL     1     -23.476 -10.557  -0.204  1.00  0.00     0.048 C 
BRANCH   9  11
HETATM   11  C   UNL     1     -21.926 -11.609  -1.977  1.00  0.00     0.007 C 
HETATM   12  C   UNL     1     -21.242 -12.635  -2.490  1.00  0.00     0.009 C 
BRANCH  12  13
HETATM   13  C   UNL     1     -20.884 -13.247  -3.924  1.00  0.00    -0.041 C 
HETATM   14  C   UNL     1     -19.691 -13.979  -3.918  1.00  0.00    -0.006 C 
HETATM   15  C   UNL     1     -18.908 -14.590  -2.720  1.00  0.00     0.052 C 
HETATM   16  C   UNL     1     -18.951 -14.344  -5.182  1.00  0.00     0.184 C 
HETATM   17  C   UNL     1     -19.588 -14.089  -6.537  1.00  0.00     0.193 C 
HETATM   18  O   UNL     1     -17.821 -14.868  -5.128  1.00  0.00    -0.290 OA
HETATM   19  C   UNL     1     -20.773 -13.162  -6.652  1.00  0.00     0.053 C 
HETATM   20  C   UNL     1     -21.704 -12.847  -5.425  1.00  0.00    -0.017 C 
HETATM   21  C   UNL     1     -21.801 -11.312  -5.440  1.00  0.00     0.020 C 
HETATM   22  C   UNL     1     -23.245 -13.291  -6.109  1.00  0.00     0.020 C 
BRANCH  17  23
HETATM   23  O   UNL     1     -18.661 -13.713  -7.565  1.00  0.00    -0.388 OA
HETATM   24  H   UNL     1     -19.163 -13.602  -8.392  1.00  0.00     0.210 HD
ENDBRANCH  17  23
ENDBRANCH  12  13
ENDBRANCH   9  11
ENDBRANCH   7   8
ENDBRANCH   4   6
ENDBRANCH   1   3
BRANCH   2  25
HETATM   25  C   UNL     1     -19.395  -8.977  -3.804  1.00  0.00    -0.016 C 
HETATM   26  C   UNL     1     -20.558  -8.162  -3.871  1.00  0.00    -0.066 C 
HETATM   27  C   UNL     1     -21.591  -7.632  -2.811  1.00  0.00     0.048 C 
BRANCH  26  28
HETATM   28  C   UNL     1     -21.151  -7.596  -5.203  1.00  0.00     0.006 C 
HETATM   29  C   UNL     1     -21.408  -6.210  -5.488  1.00  0.00     0.001 C 
BRANCH  29  30
HETATM   30  C   UNL     1     -21.634  -5.624  -6.814  1.00  0.00     0.007 C 
HETATM   31  C   UNL     1     -20.747  -4.825  -7.460  1.00  0.00    -0.062 C 
HETATM   32  C   UNL     1     -19.338  -4.506  -6.986  1.00  0.00     0.048 C 
BRANCH  31  33
HETATM   33  C   UNL     1     -21.096  -4.168  -8.754  1.00  0.00     0.007 C 
HETATM   34  C   UNL     1     -22.312  -3.820  -9.136  1.00  0.00     0.009 C 
BRANCH  34  35
HETATM   35  C   UNL     1     -22.694  -3.454 -10.525  1.00  0.00    -0.041 A 
HETATM   36  C   UNL     1     -23.999  -3.269 -10.794  1.00  0.00    -0.006 A 
HETATM   37  C   UNL     1     -24.483  -3.033 -12.195  1.00  0.00     0.184 A 
HETATM   38  C   UNL     1     -25.139  -3.357  -9.806  1.00  0.00     0.052 C 
HETATM   39  O   UNL     1     -25.689  -2.959 -12.411  1.00  0.00    -0.290 OA
HETATM   40  C   UNL     1     -23.476  -2.962 -13.335  1.00  0.00     0.193 A 
HETATM   41  C   UNL     1     -22.003  -3.124 -13.026  1.00  0.00     0.053 A 
HETATM   42  C   UNL     1     -21.558  -3.424 -11.569  1.00  0.00    -0.017 A 
HETATM   43  C   UNL     1     -20.909  -4.830 -11.585  1.00  0.00     0.020 C 
HETATM   44  C   UNL     1     -20.454  -2.377 -11.247  1.00  0.00     0.020 C 
BRANCH  40  45
HETATM   45  O   UNL     1     -23.814  -3.887 -14.370  1.00  0.00    -0.388 OA
HETATM   46  H   UNL     1     -23.100  -4.545 -14.417  1.00  0.00     0.210 HD
ENDBRANCH  40  45
ENDBRANCH  34  35
ENDBRANCH  31  33
ENDBRANCH  29  30
ENDBRANCH  26  28
ENDBRANCH   2  25
TORSDOF 12
ENDMDL
MODEL 6
REMARK VINA RESULT:      -9.1      3.075      5.014
REMARK  12 active torsions:
REMARK  status: ('A' for Active; 'I' for Inactive)
REMARK    1  A    between atoms: C_3  and  C_12 
REMARK    2  A    between atoms: C_6  and  O_9 
REMARK    3  A    between atoms: C_13  and  C_14 
REMARK    4  A    between atoms: C_15  and  C_16 
REMARK    5  A    between atoms: C_17  and  C_18 
REMARK    6  A    between atoms: C_19  and  C_20 
REMARK    7  A    between atoms: C_21  and  C_22 
REMARK    8  A    between atoms: C_23  and  C_25 
REMARK    9  A    between atoms: C_26  and  C_27 
REMARK   10  A    between atoms: C_28  and  C_30 
REMARK   11  A    between atoms: C_31  and  C_32 
REMARK   12  A    between atoms: C_36  and  O_41 
ROOT
HETATM    1  C   UNL     1     -17.073 -11.881  -0.881  1.00  0.00    -0.022 C 
HETATM    2  C   UNL     1     -18.116 -11.084  -1.325  1.00  0.00     0.054 C 
ENDROOT
BRANCH   1   3
HETATM    3  C   UNL     1     -16.809 -12.636   0.444  1.00  0.00     0.003 C 
HETATM    4  C   UNL     1     -15.740 -13.276   0.847  1.00  0.00    -0.062 C 
HETATM    5  C   UNL     1     -15.637 -13.736   2.328  1.00  0.00     0.048 C 
BRANCH   4   6
HETATM    6  C   UNL     1     -14.530 -13.517   0.027  1.00  0.00     0.007 C 
HETATM    7  C   UNL     1     -14.320 -14.704  -0.554  1.00  0.00     0.001 C 
BRANCH   7   8
HETATM    8  C   UNL     1     -13.390 -15.173  -1.560  1.00  0.00     0.007 C 
HETATM    9  C   UNL     1     -13.451 -14.864  -2.890  1.00  0.00    -0.062 C 
HETATM   10  C   UNL     1     -12.668 -15.821  -3.780  1.00  0.00     0.048 C 
BRANCH   9  11
HETATM   11  C   UNL     1     -14.308 -13.835  -3.646  1.00  0.00     0.007 C 
HETATM   12  C   UNL     1     -15.636 -13.705  -3.717  1.00  0.00     0.009 C 
BRANCH  12  13
HETATM   13  C   UNL     1     -16.718 -12.769  -4.432  1.00  0.00    -0.041 C 
HETATM   14  C   UNL     1     -18.017 -13.286  -4.353  1.00  0.00    -0.006 C 
HETATM   15  C   UNL     1     -18.600 -14.362  -3.393  1.00  0.00     0.052 C 
HETATM   16  C   UNL     1     -19.142 -12.803  -5.236  1.00  0.00     0.184 C 
HETATM   17  C   UNL     1     -18.944 -11.587  -6.124  1.00  0.00     0.193 C 
HETATM   18  O   UNL     1     -20.244 -13.386  -5.237  1.00  0.00    -0.290 OA
HETATM   19  C   UNL     1     -17.552 -11.077  -6.406  1.00  0.00     0.053 C 
HETATM   20  C   UNL     1     -16.343 -11.391  -5.453  1.00  0.00    -0.017 C 
HETATM   21  C   UNL     1     -15.251 -11.884  -6.419  1.00  0.00     0.020 C 
HETATM   22  C   UNL     1     -15.800  -9.766  -5.129  1.00  0.00     0.020 C 
BRANCH  17  23
HETATM   23  O   UNL     1     -19.628 -11.656  -7.383  1.00  0.00    -0.388 OA
HETATM   24  H   UNL     1     -20.170 -12.465  -7.384  1.00  0.00     0.210 HD
ENDBRANCH  17  23
ENDBRANCH  12  13
ENDBRANCH   9  11
ENDBRANCH   7   8
ENDBRANCH   4   6
ENDBRANCH   1   3
BRANCH   2  25
HETATM   25  C   UNL     1     -18.590 -10.116  -2.596  1.00  0.00    -0.016 C 
HETATM   26  C   UNL     1     -19.531  -9.070  -2.793  1.00  0.00    -0.066 C 
HETATM   27  C   UNL     1     -20.533  -8.302  -1.856  1.00  0.00     0.048 C 
BRANCH  26  28
HETATM   28  C   UNL     1     -19.838  -8.422  -4.184  1.00  0.00     0.006 C 
HETATM   29  C   UNL     1     -21.082  -7.820  -4.576  1.00  0.00     0.001 C 
BRANCH  29  30
HETATM   30  C   UNL     1     -21.291  -6.921  -5.716  1.00  0.00     0.007 C 
HETATM   31  C   UNL     1     -21.002  -5.594  -5.708  1.00  0.00    -0.062 C 
HETATM   32  C   UNL     1     -20.309  -4.847  -4.580  1.00  0.00     0.048 C 
BRANCH  31  33
HETATM   33  C   UNL     1     -21.353  -4.719  -6.866  1.00  0.00     0.007 C 
HETATM   34  C   UNL     1     -21.799  -5.135  -8.037  1.00  0.00     0.009 C 
BRANCH  34  35
HETATM   35  C   UNL     1     -21.856  -4.306  -9.269  1.00  0.00    -0.041 A 
HETATM   36  C   UNL     1     -23.066  -3.957  -9.742  1.00  0.00    -0.006 A 
HETATM   37  C   UNL     1     -23.217  -3.240 -11.053  1.00  0.00     0.184 A 
HETATM   38  C   UNL     1     -24.401  -4.292  -9.120  1.00  0.00     0.052 C 
HETATM   39  O   UNL     1     -24.341  -3.020 -11.493  1.00  0.00    -0.290 OA
HETATM   40  C   UNL     1     -21.974  -2.862 -11.849  1.00  0.00     0.193 A 
HETATM   41  C   UNL     1     -20.610  -3.213 -11.294  1.00  0.00     0.053 A 
HETATM   42  C   UNL     1     -20.509  -4.007  -9.963  1.00  0.00    -0.017 A 
HETATM   43  C   UNL     1     -19.856  -5.367 -10.307  1.00  0.00     0.020 C 
HETATM   44  C   UNL     1     -19.524  -3.200  -9.071  1.00  0.00     0.020 C 
BRANCH  40  45
HETATM   45  O   UNL     1     -22.052  -3.369 -13.182  1.00  0.00    -0.388 OA
HETATM   46  H   UNL     1     -22.851  -2.993 -13.590  1.00  0.00     0.210 HD
ENDBRANCH  40  45
ENDBRANCH  34  35
ENDBRANCH  31  33
ENDBRANCH  29  30
ENDBRANCH  26  28
ENDBRANCH   2  25
TORSDOF 12
ENDMDL
MODEL 7
REMARK VINA RESULT:      -9.0      1.587      2.561
REMARK  12 active torsions:
REMARK  status: ('A' for Active; 'I' for Inactive)
REMARK    1  A    between atoms: C_3  and  C_12 
REMARK    2  A    between atoms: C_6  and  O_9 
REMARK    3  A    between atoms: C_13  and  C_14 
REMARK    4  A    between atoms: C_15  and  C_16 
REMARK    5  A    between atoms: C_17  and  C_18 
REMARK    6  A    between atoms: C_19  and  C_20 
REMARK    7  A    between atoms: C_21  and  C_22 
REMARK    8  A    between atoms: C_23  and  C_25 
REMARK    9  A    between atoms: C_26  and  C_27 
REMARK   10  A    between atoms: C_28  and  C_30 
REMARK   11  A    between atoms: C_31  and  C_32 
REMARK   12  A    between atoms: C_36  and  O_41 
ROOT
HETATM    1  C   UNL     1     -23.396 -11.908  -0.220  1.00  0.00    -0.022 C 
HETATM    2  C   UNL     1     -22.867 -10.652  -0.460  1.00  0.00     0.054 C 
ENDROOT
BRANCH   1   3
HETATM    3  C   UNL     1     -23.393 -12.838   1.018  1.00  0.00     0.003 C 
HETATM    4  C   UNL     1     -22.557 -13.789   1.352  1.00  0.00    -0.062 C 
HETATM    5  C   UNL     1     -22.632 -14.408   2.776  1.00  0.00     0.048 C 
BRANCH   4   6
HETATM    6  C   UNL     1     -21.437 -14.275   0.512  1.00  0.00     0.007 C 
HETATM    7  C   UNL     1     -20.228 -14.496   1.041  1.00  0.00     0.001 C 
BRANCH   7   8
HETATM    8  C   UNL     1     -19.033 -15.158   0.560  1.00  0.00     0.007 C 
HETATM    9  C   UNL     1     -18.204 -14.672  -0.412  1.00  0.00    -0.062 C 
HETATM   10  C   UNL     1     -17.312 -15.732  -1.045  1.00  0.00     0.048 C 
BRANCH   9  11
HETATM   11  C   UNL     1     -18.146 -13.292  -1.087  1.00  0.00     0.007 C 
HETATM   12  C   UNL     1     -18.244 -12.958  -2.377  1.00  0.00     0.009 C 
BRANCH  12  13
HETATM   13  C   UNL     1     -18.188 -11.646  -3.289  1.00  0.00    -0.041 C 
HETATM   14  C   UNL     1     -19.333 -11.486  -4.079  1.00  0.00    -0.006 C 
HETATM   15  C   UNL     1     -20.741 -12.130  -3.925  1.00  0.00     0.052 C 
HETATM   16  C   UNL     1     -19.382 -10.558  -5.268  1.00  0.00     0.184 C 
HETATM   17  C   UNL     1     -18.228  -9.608  -5.539  1.00  0.00     0.193 C 
HETATM   18  O   UNL     1     -20.368 -10.552  -6.029  1.00  0.00    -0.290 OA
HETATM   19  C   UNL     1     -16.898  -9.823  -4.861  1.00  0.00     0.053 C 
HETATM   20  C   UNL     1     -16.768 -10.641  -3.525  1.00  0.00    -0.017 C 
HETATM   21  C   UNL     1     -15.619 -11.621  -3.821  1.00  0.00     0.020 C 
HETATM   22  C   UNL     1     -15.956  -9.455  -2.538  1.00  0.00     0.020 C 
BRANCH  17  23
HETATM   23  O   UNL     1     -17.959  -9.387  -6.930  1.00  0.00    -0.388 OA
HETATM   24  H   UNL     1     -17.076  -9.750  -7.124  1.00  0.00     0.210 HD
ENDBRANCH  17  23
ENDBRANCH  12  13
ENDBRANCH   9  11
ENDBRANCH   7   8
ENDBRANCH   4   6
ENDBRANCH   1   3
BRANCH   2  25
HETATM   25  C   UNL     1     -22.646  -9.520  -1.664  1.00  0.00    -0.016 C 
HETATM   26  C   UNL     1     -21.566  -8.729  -2.141  1.00  0.00    -0.066 C 
HETATM   27  C   UNL     1     -20.043  -8.608  -1.772  1.00  0.00     0.048 C 
BRANCH  26  28
HETATM   28  C   UNL     1     -21.711  -7.631  -3.247  1.00  0.00     0.006 C 
HETATM   29  C   UNL     1     -21.090  -7.655  -4.544  1.00  0.00     0.001 C 
BRANCH  29  30
HETATM   30  C   UNL     1     -21.467  -6.838  -5.702  1.00  0.00     0.007 C 
HETATM   31  C   UNL     1     -21.074  -5.553  -5.893  1.00  0.00    -0.062 C 
HETATM   32  C   UNL     1     -20.091  -4.790  -5.021  1.00  0.00     0.048 C 
BRANCH  31  33
HETATM   33  C   UNL     1     -21.596  -4.746  -7.036  1.00  0.00     0.007 C 
HETATM   34  C   UNL     1     -21.729  -5.170  -8.280  1.00  0.00     0.009 C 
BRANCH  34  35
HETATM   35  C   UNL     1     -21.954  -4.293  -9.458  1.00  0.00    -0.041 A 
HETATM   36  C   UNL     1     -23.223  -4.058  -9.839  1.00  0.00    -0.006 A 
HETATM   37  C   UNL     1     -23.534  -3.298 -11.096  1.00  0.00     0.184 A 
HETATM   38  C   UNL     1     -24.471  -4.568  -9.159  1.00  0.00     0.052 C 
HETATM   39  O   UNL     1     -24.702  -3.183 -11.456  1.00  0.00    -0.290 OA
HETATM   40  C   UNL     1     -22.394  -2.748 -11.942  1.00  0.00     0.193 A 
HETATM   41  C   UNL     1     -20.966  -2.973 -11.490  1.00  0.00     0.053 A 
HETATM   42  C   UNL     1     -20.695  -3.814 -10.213  1.00  0.00    -0.017 A 
HETATM   43  C   UNL     1     -19.924  -5.076 -10.670  1.00  0.00     0.020 C 
HETATM   44  C   UNL     1     -19.746  -2.948  -9.337  1.00  0.00     0.020 C 
BRANCH  40  45
HETATM   45  O   UNL     1     -22.503  -3.194 -13.295  1.00  0.00    -0.388 OA
HETATM   46  H   UNL     1     -22.077  -2.525 -13.857  1.00  0.00     0.210 HD
ENDBRANCH  40  45
ENDBRANCH  34  35
ENDBRANCH  31  33
ENDBRANCH  29  30
ENDBRANCH  26  28
ENDBRANCH   2  25
TORSDOF 12
ENDMDL
MODEL 8
REMARK VINA RESULT:      -8.9      1.983      4.258
REMARK  12 active torsions:
REMARK  status: ('A' for Active; 'I' for Inactive)
REMARK    1  A    between atoms: C_3  and  C_12 
REMARK    2  A    between atoms: C_6  and  O_9 
REMARK    3  A    between atoms: C_13  and  C_14 
REMARK    4  A    between atoms: C_15  and  C_16 
REMARK    5  A    between atoms: C_17  and  C_18 
REMARK    6  A    between atoms: C_19  and  C_20 
REMARK    7  A    between atoms: C_21  and  C_22 
REMARK    8  A    between atoms: C_23  and  C_25 
REMARK    9  A    between atoms: C_26  and  C_27 
REMARK   10  A    between atoms: C_28  and  C_30 
REMARK   11  A    between atoms: C_31  and  C_32 
REMARK   12  A    between atoms: C_36  and  O_41 
ROOT
HETATM    1  C   UNL     1     -18.790 -11.230  -2.461  1.00  0.00    -0.022 C 
HETATM    2  C   UNL     1     -19.117  -9.899  -2.660  1.00  0.00     0.054 C 
ENDROOT
BRANCH   1   3
HETATM    3  C   UNL     1     -17.922 -11.960  -1.407  1.00  0.00     0.003 C 
HETATM    4  C   UNL     1     -18.191 -12.261  -0.161  1.00  0.00    -0.062 C 
HETATM    5  C   UNL     1     -17.247 -13.222   0.615  1.00  0.00     0.048 C 
BRANCH   4   6
HETATM    6  C   UNL     1     -19.409 -11.845   0.574  1.00  0.00     0.007 C 
HETATM    7  C   UNL     1     -20.000 -10.673   0.316  1.00  0.00     0.001 C 
BRANCH   7   8
HETATM    8  C   UNL     1     -21.277 -10.096   0.683  1.00  0.00     0.007 C 
HETATM    9  C   UNL     1     -22.428 -10.212  -0.044  1.00  0.00    -0.062 C 
HETATM   10  C   UNL     1     -23.480  -9.164   0.299  1.00  0.00     0.048 C 
BRANCH   9  11
HETATM   11  C   UNL     1     -22.769 -11.096  -1.255  1.00  0.00     0.007 C 
HETATM   12  C   UNL     1     -22.476 -12.376  -1.497  1.00  0.00     0.009 C 
BRANCH  12  13
HETATM   13  C   UNL     1     -22.689 -13.463  -2.651  1.00  0.00    -0.041 C 
HETATM   14  C   UNL     1     -22.553 -12.923  -3.936  1.00  0.00    -0.006 C 
HETATM   15  C   UNL     1     -21.875 -11.598  -4.387  1.00  0.00     0.052 C 
HETATM   16  C   UNL     1     -23.052 -13.627  -5.174  1.00  0.00     0.184 C 
HETATM   17  C   UNL     1     -23.556 -15.057  -5.085  1.00  0.00     0.193 C 
HETATM   18  O   UNL     1     -23.043 -13.051  -6.279  1.00  0.00    -0.290 OA
HETATM   19  C   UNL     1     -23.901 -15.654  -3.743  1.00  0.00     0.053 C 
HETATM   20  C   UNL     1     -23.300 -15.091  -2.404  1.00  0.00    -0.017 C 
HETATM   21  C   UNL     1     -24.536 -14.930  -1.502  1.00  0.00     0.020 C 
HETATM   22  C   UNL     1     -22.602 -16.554  -1.763  1.00  0.00     0.020 C 
BRANCH  17  23
HETATM   23  O   UNL     1     -24.647 -15.355  -5.968  1.00  0.00    -0.388 OA
HETATM   24  H   UNL     1     -25.475 -15.232  -5.470  1.00  0.00     0.210 HD
ENDBRANCH  17  23
ENDBRANCH  12  13
ENDBRANCH   9  11
ENDBRANCH   7   8
ENDBRANCH   4   6
ENDBRANCH   1   3
BRANCH   2  25
HETATM   25  C   UNL     1     -19.906  -8.877  -3.714  1.00  0.00    -0.016 C 
HETATM   26  C   UNL     1     -20.866  -7.835  -3.606  1.00  0.00    -0.066 C 
HETATM   27  C   UNL     1     -21.591  -7.128  -2.404  1.00  0.00     0.048 C 
BRANCH  26  28
HETATM   28  C   UNL     1     -21.524  -7.124  -4.835  1.00  0.00     0.006 C 
HETATM   29  C   UNL     1     -21.289  -5.767  -5.247  1.00  0.00     0.001 C 
BRANCH  29  30
HETATM   30  C   UNL     1     -21.613  -5.189  -6.556  1.00  0.00     0.007 C 
HETATM   31  C   UNL     1     -20.706  -4.610  -7.383  1.00  0.00    -0.062 C 
HETATM   32  C   UNL     1     -19.203  -4.572  -7.157  1.00  0.00     0.048 C 
BRANCH  31  33
HETATM   33  C   UNL     1     -21.129  -3.935  -8.645  1.00  0.00     0.007 C 
HETATM   34  C   UNL     1     -22.358  -3.910  -9.129  1.00  0.00     0.009 C 
BRANCH  34  35
HETATM   35  C   UNL     1     -22.719  -3.511 -10.514  1.00  0.00    -0.041 A 
HETATM   36  C   UNL     1     -24.019  -3.318 -10.799  1.00  0.00    -0.006 A 
HETATM   37  C   UNL     1     -24.481  -3.048 -12.202  1.00  0.00     0.184 A 
HETATM   38  C   UNL     1     -25.174  -3.427  -9.831  1.00  0.00     0.052 C 
HETATM   39  O   UNL     1     -25.683  -2.967 -12.435  1.00  0.00    -0.290 OA
HETATM   40  C   UNL     1     -23.456  -2.951 -13.324  1.00  0.00     0.193 A 
HETATM   41  C   UNL     1     -21.988  -3.122 -12.997  1.00  0.00     0.053 A 
HETATM   42  C   UNL     1     -21.566  -3.458 -11.540  1.00  0.00    -0.017 A 
HETATM   43  C   UNL     1     -20.919  -4.864 -11.579  1.00  0.00     0.020 C 
HETATM   44  C   UNL     1     -20.466  -2.420 -11.176  1.00  0.00     0.020 C 
BRANCH  40  45
HETATM   45  O   UNL     1     -23.779  -3.851 -14.386  1.00  0.00    -0.388 OA
HETATM   46  H   UNL     1     -23.788  -4.749 -14.013  1.00  0.00     0.210 HD
ENDBRANCH  40  45
ENDBRANCH  34  35
ENDBRANCH  31  33
ENDBRANCH  29  30
ENDBRANCH  26  28
ENDBRANCH   2  25
TORSDOF 12
ENDMDL
MODEL 9
REMARK VINA RESULT:      -8.9      2.021      3.889
REMARK  12 active torsions:
REMARK  status: ('A' for Active; 'I' for Inactive)
REMARK    1  A    between atoms: C_3  and  C_12 
REMARK    2  A    between atoms: C_6  and  O_9 
REMARK    3  A    between atoms: C_13  and  C_14 
REMARK    4  A    between atoms: C_15  and  C_16 
REMARK    5  A    between atoms: C_17  and  C_18 
REMARK    6  A    between atoms: C_19  and  C_20 
REMARK    7  A    between atoms: C_21  and  C_22 
REMARK    8  A    between atoms: C_23  and  C_25 
REMARK    9  A    between atoms: C_26  and  C_27 
REMARK   10  A    between atoms: C_28  and  C_30 
REMARK   11  A    between atoms: C_31  and  C_32 
REMARK   12  A    between atoms: C_36  and  O_41 
ROOT
HETATM    1  C   UNL     1     -16.064 -11.183  -1.824  1.00  0.00    -0.022 C 
HETATM    2  C   UNL     1     -17.191 -10.410  -2.046  1.00  0.00     0.054 C 
ENDROOT
BRANCH   1   3
HETATM    3  C   UNL     1     -15.427 -11.781  -0.545  1.00  0.00     0.003 C 
HETATM    4  C   UNL     1     -15.998 -12.311   0.507  1.00  0.00    -0.062 C 
HETATM    5  C   UNL     1     -15.128 -13.071   1.548  1.00  0.00     0.048 C 
BRANCH   4   6
HETATM    6  C   UNL     1     -17.458 -12.353   0.758  1.00  0.00     0.007 C 
HETATM    7  C   UNL     1     -18.227 -13.282   0.180  1.00  0.00     0.001 C 
BRANCH   7   8
HETATM    8  C   UNL     1     -19.593 -13.717   0.386  1.00  0.00     0.007 C 
HETATM    9  C   UNL     1     -20.542 -13.813  -0.593  1.00  0.00    -0.062 C 
HETATM   10  C   UNL     1     -21.970 -13.841  -0.065  1.00  0.00     0.048 C 
BRANCH   9  11
HETATM   11  C   UNL     1     -20.422 -13.721  -2.124  1.00  0.00     0.007 C 
HETATM   12  C   UNL     1     -19.764 -12.842  -2.885  1.00  0.00     0.009 C 
BRANCH  12  13
HETATM   13  C   UNL     1     -19.522 -12.536  -4.436  1.00  0.00    -0.041 C 
HETATM   14  C   UNL     1     -20.681 -12.097  -5.088  1.00  0.00    -0.006 C 
HETATM   15  C   UNL     1     -21.993 -11.512  -4.491  1.00  0.00     0.052 C 
HETATM   16  C   UNL     1     -20.819 -12.089  -6.591  1.00  0.00     0.184 C 
HETATM   17  C   UNL     1     -19.613 -12.385  -7.467  1.00  0.00     0.193 C 
HETATM   18  O   UNL     1     -21.913 -11.829  -7.127  1.00  0.00    -0.290 OA
HETATM   19  C   UNL     1     -18.387 -13.030  -6.870  1.00  0.00     0.053 C 
HETATM   20  C   UNL     1     -18.071 -12.952  -5.333  1.00  0.00    -0.017 C 
HETATM   21  C   UNL     1     -17.765 -14.413  -4.960  1.00  0.00     0.020 C 
HETATM   22  C   UNL     1     -16.465 -12.277  -5.402  1.00  0.00     0.020 C 
BRANCH  17  23
HETATM   23  O   UNL     1     -19.920 -13.102  -8.671  1.00  0.00    -0.388 OA
HETATM   24  H   UNL     1     -20.582 -13.782  -8.453  1.00  0.00     0.210 HD
ENDBRANCH  17  23
ENDBRANCH  12  13
ENDBRANCH   9  11
ENDBRANCH   7   8
ENDBRANCH   4   6
ENDBRANCH   1   3
BRANCH   2  25
HETATM   25  C   UNL     1     -18.012  -9.587  -3.240  1.00  0.00    -0.016 C 
HETATM   26  C   UNL     1     -19.299  -9.001  -3.382  1.00  0.00    -0.066 C 
HETATM   27  C   UNL     1     -20.535  -8.816  -2.428  1.00  0.00     0.048 C 
BRANCH  26  28
HETATM   28  C   UNL     1     -19.836  -8.387  -4.718  1.00  0.00     0.006 C 
HETATM   29  C   UNL     1     -21.059  -7.648  -4.873  1.00  0.00     0.001 C 
BRANCH  29  30
HETATM   30  C   UNL     1     -21.415  -6.786  -6.005  1.00  0.00     0.007 C 
HETATM   31  C   UNL     1     -21.032  -5.489  -6.130  1.00  0.00    -0.062 C 
HETATM   32  C   UNL     1     -20.082  -4.755  -5.199  1.00  0.00     0.048 C 
BRANCH  31  33
HETATM   33  C   UNL     1     -21.533  -4.640  -7.250  1.00  0.00     0.007 C 
HETATM   34  C   UNL     1     -21.885  -5.074  -8.447  1.00  0.00     0.009 C 
BRANCH  34  35
HETATM   35  C   UNL     1     -22.088  -4.210  -9.639  1.00  0.00    -0.041 A 
HETATM   36  C   UNL     1     -23.349  -3.987 -10.052  1.00  0.00    -0.006 A 
HETATM   37  C   UNL     1     -23.635  -3.243 -11.325  1.00  0.00     0.184 A 
HETATM   38  C   UNL     1     -24.610  -4.499  -9.397  1.00  0.00     0.052 C 
HETATM   39  O   UNL     1     -24.795  -3.139 -11.713  1.00  0.00    -0.290 OA
HETATM   40  C   UNL     1     -22.479  -2.692 -12.148  1.00  0.00     0.193 A 
HETATM   41  C   UNL     1     -21.061  -2.902 -11.659  1.00  0.00     0.053 A 
HETATM   42  C   UNL     1     -20.815  -3.730 -10.368  1.00  0.00    -0.017 A 
HETATM   43  C   UNL     1     -20.024  -4.990 -10.794  1.00  0.00     0.020 C 
HETATM   44  C   UNL     1     -19.893  -2.848  -9.479  1.00  0.00     0.020 C 
BRANCH  40  45
HETATM   45  O   UNL     1     -22.553  -3.153 -13.499  1.00  0.00    -0.388 OA
HETATM   46  H   UNL     1     -23.373  -3.668 -13.586  1.00  0.00     0.210 HD
ENDBRANCH  40  45
ENDBRANCH  34  35
ENDBRANCH  31  33
ENDBRANCH  29  30
ENDBRANCH  26  28
ENDBRANCH   2  25
TORSDOF 12
ENDMDL
