MODEL 1
REMARK VINA RESULT:      -4.4      0.000      0.000
REMARK  2 active torsions:
REMARK  status: ('A' for Active; 'I' for Inactive)
REMARK    1  A    between atoms: C_2  and  C_4 
REMARK    2  A    between atoms: C_4  and  O_6 
ROOT
HETATM    1  C   UNL     1     -23.776  -1.758 -14.496  1.00  0.00     0.213 C 
HETATM    2  O   UNL     1     -22.932  -1.999 -15.334  1.00  0.00    -0.644 OA
ENDROOT
BRANCH   1   3
HETATM    3  C   UNL     1     -23.920  -2.548 -13.199  1.00  0.00     0.218 C 
HETATM    4  C   UNL     1     -22.683  -2.729 -12.377  1.00  0.00     0.103 C 
HETATM    5  O   UNL     1     -25.033  -2.979 -12.916  1.00  0.00    -0.286 OA
ENDBRANCH   1   3
BRANCH   1   6
HETATM    6  O   UNL     1     -24.704  -0.785 -14.561  1.00  0.00    -0.771 OA
HETATM    7  H   UNL     1     -25.588  -1.192 -14.730  1.00  0.00     0.168 HD
ENDBRANCH   1   6
TORSDOF 2
ENDMDL
MODEL 2
REMARK VINA RESULT:      -4.3      5.410      5.897
REMARK  2 active torsions:
REMARK  status: ('A' for Active; 'I' for Inactive)
REMARK    1  A    between atoms: C_2  and  C_4 
REMARK    2  A    between atoms: C_4  and  O_6 
ROOT
HETATM    1  C   UNL     1     -25.281  -6.711 -15.804  1.00  0.00     0.213 C 
HETATM    2  O   UNL     1     -24.721  -7.786 -15.860  1.00  0.00    -0.644 OA
ENDROOT
BRANCH   1   3
HETATM    3  C   UNL     1     -26.681  -6.463 -16.357  1.00  0.00     0.218 C 
HETATM    4  C   UNL     1     -27.814  -7.151 -15.661  1.00  0.00     0.103 C 
HETATM    5  O   UNL     1     -26.787  -5.721 -17.328  1.00  0.00    -0.286 OA
ENDBRANCH   1   3
BRANCH   1   6
HETATM    6  O   UNL     1     -24.781  -5.583 -15.264  1.00  0.00    -0.771 OA
HETATM    7  H   UNL     1     -23.978  -5.311 -15.769  1.00  0.00     0.168 HD
ENDBRANCH   1   6
TORSDOF 2
ENDMDL
MODEL 3
REMARK VINA RESULT:      -4.2      1.367      1.877
REMARK  2 active torsions:
REMARK  status: ('A' for Active; 'I' for Inactive)
REMARK    1  A    between atoms: C_2  and  C_4 
REMARK    2  A    between atoms: C_4  and  O_6 
ROOT
HETATM    1  C   UNL     1     -23.305  -2.936 -13.792  1.00  0.00     0.213 C 
HETATM    2  O   UNL     1     -23.657  -2.554 -14.889  1.00  0.00    -0.644 OA
ENDROOT
BRANCH   1   3
HETATM    3  C   UNL     1     -24.231  -2.975 -12.581  1.00  0.00     0.218 C 
HETATM    4  C   UNL     1     -23.587  -3.176 -11.245  1.00  0.00     0.103 C 
HETATM    5  O   UNL     1     -25.434  -2.840 -12.779  1.00  0.00    -0.286 OA
ENDBRANCH   1   3
BRANCH   1   6
HETATM    6  O   UNL     1     -22.077  -3.378 -13.462  1.00  0.00    -0.771 OA
HETATM    7  H   UNL     1     -22.041  -3.531 -12.487  1.00  0.00     0.168 HD
ENDBRANCH   1   6
TORSDOF 2
ENDMDL
MODEL 4
REMARK VINA RESULT:      -4.2     14.609     14.980
REMARK  2 active torsions:
REMARK  status: ('A' for Active; 'I' for Inactive)
REMARK    1  A    between atoms: C_2  and  C_4 
REMARK    2  A    between atoms: C_4  and  O_6 
ROOT
HETATM    1  C   UNL     1     -29.423 -14.648 -20.744  1.00  0.00     0.213 C 
HETATM    2  O   UNL     1     -29.584 -15.750 -21.225  1.00  0.00    -0.644 OA
ENDROOT
BRANCH   1   3
HETATM    3  C   UNL     1     -29.798 -14.296 -19.308  1.00  0.00     0.218 C 
HETATM    4  C   UNL     1     -28.888 -14.795 -18.230  1.00  0.00     0.103 C 
HETATM    5  O   UNL     1     -30.814 -13.630 -19.131  1.00  0.00    -0.286 OA
ENDBRANCH   1   3
BRANCH   1   6
HETATM    6  O   UNL     1     -28.905 -13.575 -21.372  1.00  0.00    -0.771 OA
HETATM    7  H   UNL     1     -29.628 -13.097 -21.844  1.00  0.00     0.168 HD
ENDBRANCH   1   6
TORSDOF 2
ENDMDL
MODEL 5
REMARK VINA RESULT:      -4.1     14.969     15.502
REMARK  2 active torsions:
REMARK  status: ('A' for Active; 'I' for Inactive)
REMARK    1  A    between atoms: C_2  and  C_4 
REMARK    2  A    between atoms: C_4  and  O_6 
ROOT
HETATM    1  C   UNL     1     -30.257 -14.180 -19.234  1.00  0.00     0.213 C 
HETATM    2  O   UNL     1     -29.460 -13.277 -19.084  1.00  0.00    -0.644 OA
ENDROOT
BRANCH   1   3
HETATM    3  C   UNL     1     -30.543 -14.830 -20.584  1.00  0.00     0.218 C 
HETATM    4  C   UNL     1     -30.000 -16.209 -20.797  1.00  0.00     0.103 C 
HETATM    5  O   UNL     1     -31.195 -14.187 -21.400  1.00  0.00    -0.286 OA
ENDBRANCH   1   3
BRANCH   1   6
HETATM    6  O   UNL     1     -31.007 -14.746 -18.270  1.00  0.00    -0.771 OA
HETATM    7  H   UNL     1     -30.504 -15.494 -17.867  1.00  0.00     0.168 HD
ENDBRANCH   1   6
TORSDOF 2
ENDMDL
MODEL 6
REMARK VINA RESULT:      -4.1      2.796      4.285
REMARK  2 active torsions:
REMARK  status: ('A' for Active; 'I' for Inactive)
REMARK    1  A    between atoms: C_2  and  C_4 
REMARK    2  A    between atoms: C_4  and  O_6 
ROOT
HETATM    1  C   UNL     1     -24.632  -3.475  -9.769  1.00  0.00     0.213 C 
HETATM    2  O   UNL     1     -23.905  -3.813  -8.859  1.00  0.00    -0.644 OA
ENDROOT
BRANCH   1   3
HETATM    3  C   UNL     1     -24.139  -3.230 -11.191  1.00  0.00     0.218 C 
HETATM    4  C   UNL     1     -22.657  -3.252 -11.405  1.00  0.00     0.103 C 
HETATM    5  O   UNL     1     -24.981  -3.033 -12.060  1.00  0.00    -0.286 OA
ENDBRANCH   1   3
BRANCH   1   6
HETATM    6  O   UNL     1     -25.960  -3.263  -9.687  1.00  0.00    -0.771 OA
HETATM    7  H   UNL     1     -26.425  -4.133  -9.664  1.00  0.00     0.168 HD
ENDBRANCH   1   6
TORSDOF 2
ENDMDL
MODEL 7
REMARK VINA RESULT:      -4.0      3.126      4.638
REMARK  2 active torsions:
REMARK  status: ('A' for Active; 'I' for Inactive)
REMARK    1  A    between atoms: C_2  and  C_4 
REMARK    2  A    between atoms: C_4  and  O_6 
ROOT
HETATM    1  C   UNL     1     -24.635  -3.410  -9.646  1.00  0.00     0.213 C 
HETATM    2  O   UNL     1     -25.792  -3.146  -9.897  1.00  0.00    -0.644 OA
ENDROOT
BRANCH   1   3
HETATM    3  C   UNL     1     -23.528  -3.412 -10.695  1.00  0.00     0.218 C 
HETATM    4  C   UNL     1     -22.265  -4.137 -10.345  1.00  0.00     0.103 C 
HETATM    5  O   UNL     1     -23.742  -2.825 -11.751  1.00  0.00    -0.286 OA
ENDBRANCH   1   3
BRANCH   1   6
HETATM    6  O   UNL     1     -24.140  -3.739  -8.437  1.00  0.00    -0.771 OA
HETATM    7  H   UNL     1     -24.404  -4.665  -8.222  1.00  0.00     0.168 HD
ENDBRANCH   1   6
TORSDOF 2
ENDMDL
MODEL 8
REMARK VINA RESULT:      -4.0     15.560     16.451
REMARK  2 active torsions:
REMARK  status: ('A' for Active; 'I' for Inactive)
REMARK    1  A    between atoms: C_2  and  C_4 
REMARK    2  A    between atoms: C_4  and  O_6 
ROOT
HETATM    1  C   UNL     1      -9.718   5.675 -19.189  1.00  0.00     0.213 C 
HETATM    2  O   UNL     1      -8.930   6.056 -20.030  1.00  0.00    -0.644 OA
ENDROOT
BRANCH   1   3
HETATM    3  C   UNL     1     -11.047   5.007 -19.526  1.00  0.00     0.218 C 
HETATM    4  C   UNL     1     -10.983   3.639 -20.130  1.00  0.00     0.103 C 
HETATM    5  O   UNL     1     -12.076   5.629 -19.282  1.00  0.00    -0.286 OA
ENDBRANCH   1   3
BRANCH   1   6
HETATM    6  O   UNL     1      -9.565   5.772 -17.855  1.00  0.00    -0.771 OA
HETATM    7  H   UNL     1      -8.721   5.330 -17.594  1.00  0.00     0.168 HD
ENDBRANCH   1   6
TORSDOF 2
ENDMDL
MODEL 9
REMARK VINA RESULT:      -3.9     11.773     12.424
REMARK  2 active torsions:
REMARK  status: ('A' for Active; 'I' for Inactive)
REMARK    1  A    between atoms: C_2  and  C_4 
REMARK    2  A    between atoms: C_4  and  O_6 
ROOT
HETATM    1  C   UNL     1     -35.775  -0.759 -16.188  1.00  0.00     0.213 C 
HETATM    2  O   UNL     1     -35.237  -1.726 -15.689  1.00  0.00    -0.644 OA
ENDROOT
BRANCH   1   3
HETATM    3  C   UNL     1     -35.733   0.635 -15.572  1.00  0.00     0.218 C 
HETATM    4  C   UNL     1     -34.914   0.801 -14.330  1.00  0.00     0.103 C 
HETATM    5  O   UNL     1     -36.369   1.524 -16.130  1.00  0.00    -0.286 OA
ENDBRANCH   1   3
BRANCH   1   6
HETATM    6  O   UNL     1     -36.481  -0.747 -17.334  1.00  0.00    -0.771 OA
HETATM    7  H   UNL     1     -35.931  -0.345 -18.048  1.00  0.00     0.168 HD
ENDBRANCH   1   6
TORSDOF 2
ENDMDL
