MODEL 1
REMARK VINA RESULT:      -7.9      0.000      0.000
REMARK  6 active torsions:
REMARK  status: ('A' for Active; 'I' for Inactive)
REMARK    1  A    between atoms: C_2  and  C_4 
REMARK    2  A    between atoms: C_4  and  C_5 
REMARK    3  A    between atoms: C_5  and  C_6 
REMARK    4  A    between atoms: C_6  and  C_7 
REMARK    5  A    between atoms: C_7  and  C_9 
REMARK    6  A    between atoms: C_24  and  O_26 
ROOT
HETATM    1  C   UNL     1     -19.573  -9.455  -4.553  1.00  0.00    -0.002 C 
HETATM    2  C   UNL     1     -20.216 -10.409  -5.580  1.00  0.00     0.006 C 
HETATM    3  C   UNL     1     -21.556 -10.759  -4.941  1.00  0.00     0.010 C 
HETATM    4  C   UNL     1     -21.697  -9.802  -3.727  1.00  0.00     0.023 C 
HETATM    5  C   UNL     1     -20.804  -8.559  -4.141  1.00  0.00    -0.033 C 
HETATM    6  C   UNL     1     -20.852  -7.537  -2.977  1.00  0.00     0.011 C 
HETATM    7  C   UNL     1     -20.920  -7.976  -1.518  1.00  0.00     0.011 C 
HETATM    8  C   UNL     1     -20.882  -9.470  -1.240  1.00  0.00     0.027 C 
HETATM    9  C   UNL     1     -21.176 -10.405  -2.399  1.00  0.00    -0.070 C 
HETATM   10  C   UNL     1     -20.784 -11.678  -2.154  1.00  0.00     0.004 C 
HETATM   11  C   UNL     1     -20.617 -12.165  -0.796  1.00  0.00     0.004 C 
HETATM   12  C   UNL     1     -21.272 -11.491   0.186  1.00  0.00    -0.069 C 
HETATM   13  C   UNL     1     -21.659  -9.995   0.025  1.00  0.00    -0.013 C 
HETATM   14  C   UNL     1     -23.195  -9.914  -0.117  1.00  0.00     0.017 C 
HETATM   15  C   UNL     1     -23.839 -11.226  -0.578  1.00  0.00     0.033 C 
HETATM   16  C   UNL     1     -23.531 -12.412   0.393  1.00  0.00     0.122 C 
HETATM   17  C   UNL     1     -22.163 -12.284   1.093  1.00  0.00     0.066 C 
HETATM   18  C   UNL     1     -21.202  -9.185   1.266  1.00  0.00     0.021 C 
HETATM   19  C   UNL     1     -21.433  -7.773  -5.336  1.00  0.00     0.016 C 
ENDROOT
BRANCH   1  20
HETATM   20  C   UNL     1     -18.045  -9.353  -4.689  1.00  0.00    -0.014 C 
HETATM   21  C   UNL     1     -17.373 -10.477  -5.465  1.00  0.00     0.010 C 
BRANCH  20  22
HETATM   22  C   UNL     1     -17.507  -9.386  -3.174  1.00  0.00     0.005 C 
BRANCH  22  23
HETATM   23  C   UNL     1     -16.042  -9.710  -3.065  1.00  0.00     0.001 C 
BRANCH  23  24
HETATM   24  C   UNL     1     -15.695 -10.892  -2.149  1.00  0.00     0.004 C 
BRANCH  24  25
HETATM   25  C   UNL     1     -17.005 -11.603  -1.744  1.00  0.00    -0.023 C 
HETATM   26  C   UNL     1     -17.244 -12.880  -2.539  1.00  0.00     0.009 C 
HETATM   27  C   UNL     1     -17.035 -11.914  -0.247  1.00  0.00     0.009 C 
ENDBRANCH  24  25
ENDBRANCH  23  24
ENDBRANCH  22  23
ENDBRANCH  20  22
ENDBRANCH   1  20
BRANCH  16  28
HETATM   28  O   UNL     1     -23.585 -13.644  -0.341  1.00  0.00    -0.395 OA
HETATM   29  H   UNL     1     -24.501 -13.768  -0.655  1.00  0.00     0.210 HD
ENDBRANCH  16  28
TORSDOF 6
ENDMDL
MODEL 2
REMARK VINA RESULT:      -7.4      2.181      6.279
REMARK  6 active torsions:
REMARK  status: ('A' for Active; 'I' for Inactive)
REMARK    1  A    between atoms: C_2  and  C_4 
REMARK    2  A    between atoms: C_4  and  C_5 
REMARK    3  A    between atoms: C_5  and  C_6 
REMARK    4  A    between atoms: C_6  and  C_7 
REMARK    5  A    between atoms: C_7  and  C_9 
REMARK    6  A    between atoms: C_24  and  O_26 
ROOT
HETATM    1  C   UNL     1     -21.838 -11.897  -0.997  1.00  0.00    -0.002 C 
HETATM    2  C   UNL     1     -22.755 -12.798  -1.848  1.00  0.00     0.006 C 
HETATM    3  C   UNL     1     -21.812 -13.355  -2.909  1.00  0.00     0.010 C 
HETATM    4  C   UNL     1     -20.387 -12.940  -2.454  1.00  0.00     0.023 C 
HETATM    5  C   UNL     1     -20.540 -12.786  -0.883  1.00  0.00    -0.033 C 
HETATM    6  C   UNL     1     -19.167 -12.345  -0.318  1.00  0.00     0.011 C 
HETATM    7  C   UNL     1     -18.236 -11.414  -1.088  1.00  0.00     0.011 C 
HETATM    8  C   UNL     1     -18.735 -10.883  -2.423  1.00  0.00     0.027 C 
HETATM    9  C   UNL     1     -19.906 -11.602  -3.068  1.00  0.00    -0.070 C 
HETATM   10  C   UNL     1     -20.491 -10.870  -4.046  1.00  0.00     0.004 C 
HETATM   11  C   UNL     1     -19.769  -9.811  -4.727  1.00  0.00     0.004 C 
HETATM   12  C   UNL     1     -18.411  -9.865  -4.688  1.00  0.00    -0.069 C 
HETATM   13  C   UNL     1     -17.661 -10.592  -3.537  1.00  0.00    -0.013 C 
HETATM   14  C   UNL     1     -17.017 -11.868  -4.122  1.00  0.00     0.017 C 
HETATM   15  C   UNL     1     -17.672 -12.347  -5.423  1.00  0.00     0.033 C 
HETATM   16  C   UNL     1     -17.630 -11.258  -6.543  1.00  0.00     0.122 C 
HETATM   17  C   UNL     1     -17.679  -9.819  -5.994  1.00  0.00     0.066 C 
HETATM   18  C   UNL     1     -16.561  -9.671  -2.946  1.00  0.00     0.021 C 
HETATM   19  C   UNL     1     -20.786 -14.166  -0.193  1.00  0.00     0.016 C 
ENDROOT
BRANCH   1  20
HETATM   20  C   UNL     1     -22.603 -10.836  -0.190  1.00  0.00    -0.014 C 
HETATM   21  C   UNL     1     -24.105 -11.051  -0.070  1.00  0.00     0.010 C 
BRANCH  20  22
HETATM   22  C   UNL     1     -22.345  -9.465  -0.989  1.00  0.00     0.005 C 
BRANCH  22  23
HETATM   23  C   UNL     1     -21.044  -8.799  -0.633  1.00  0.00     0.001 C 
BRANCH  23  24
HETATM   24  C   UNL     1     -20.456  -7.882  -1.713  1.00  0.00     0.004 C 
BRANCH  24  25
HETATM   25  C   UNL     1     -21.618  -7.195  -2.464  1.00  0.00    -0.023 C 
HETATM   26  C   UNL     1     -22.193  -6.014  -1.691  1.00  0.00     0.009 C 
HETATM   27  C   UNL     1     -21.193  -6.740  -3.861  1.00  0.00     0.009 C 
ENDBRANCH  24  25
ENDBRANCH  23  24
ENDBRANCH  22  23
ENDBRANCH  20  22
ENDBRANCH   1  20
BRANCH  16  28
HETATM   28  O   UNL     1     -18.730 -11.470  -7.442  1.00  0.00    -0.395 OA
HETATM   29  H   UNL     1     -18.721 -12.407  -7.713  1.00  0.00     0.210 HD
ENDBRANCH  16  28
TORSDOF 6
ENDMDL
MODEL 3
REMARK VINA RESULT:      -7.3      1.849      3.779
REMARK  6 active torsions:
REMARK  status: ('A' for Active; 'I' for Inactive)
REMARK    1  A    between atoms: C_2  and  C_4 
REMARK    2  A    between atoms: C_4  and  C_5 
REMARK    3  A    between atoms: C_5  and  C_6 
REMARK    4  A    between atoms: C_6  and  C_7 
REMARK    5  A    between atoms: C_7  and  C_9 
REMARK    6  A    between atoms: C_24  and  O_26 
ROOT
HETATM    1  C   UNL     1     -19.648 -10.979  -3.881  1.00  0.00    -0.002 C 
HETATM    2  C   UNL     1     -18.712 -12.179  -4.131  1.00  0.00     0.006 C 
HETATM    3  C   UNL     1     -19.546 -13.374  -3.681  1.00  0.00     0.010 C 
HETATM    4  C   UNL     1     -20.974 -12.813  -3.440  1.00  0.00     0.023 C 
HETATM    5  C   UNL     1     -21.029 -11.545  -4.391  1.00  0.00    -0.033 C 
HETATM    6  C   UNL     1     -22.419 -10.884  -4.212  1.00  0.00     0.011 C 
HETATM    7  C   UNL     1     -23.136 -10.860  -2.866  1.00  0.00     0.011 C 
HETATM    8  C   UNL     1     -22.405 -11.467  -1.679  1.00  0.00     0.027 C 
HETATM    9  C   UNL     1     -21.231 -12.382  -1.974  1.00  0.00    -0.070 C 
HETATM   10  C   UNL     1     -20.445 -12.587  -0.890  1.00  0.00     0.004 C 
HETATM   11  C   UNL     1     -20.958 -12.403   0.455  1.00  0.00     0.004 C 
HETATM   12  C   UNL     1     -22.306 -12.463   0.617  1.00  0.00    -0.069 C 
HETATM   13  C   UNL     1     -23.278 -12.134  -0.550  1.00  0.00    -0.013 C 
HETATM   14  C   UNL     1     -23.955 -13.451  -0.991  1.00  0.00     0.017 C 
HETATM   15  C   UNL     1     -23.173 -14.707  -0.591  1.00  0.00     0.033 C 
HETATM   16  C   UNL     1     -22.950 -14.801   0.952  1.00  0.00     0.122 C 
HETATM   17  C   UNL     1     -22.839 -13.424   1.636  1.00  0.00     0.066 C 
HETATM   18  C   UNL     1     -24.355 -11.120  -0.083  1.00  0.00     0.021 C 
HETATM   19  C   UNL     1     -21.018 -11.957  -5.898  1.00  0.00     0.016 C 
ENDROOT
BRANCH   1  20
HETATM   20  C   UNL     1     -18.904  -9.639  -3.765  1.00  0.00    -0.014 C 
HETATM   21  C   UNL     1     -17.417  -9.677  -4.086  1.00  0.00     0.010 C 
BRANCH  20  22
HETATM   22  C   UNL     1     -19.083  -9.216  -2.224  1.00  0.00     0.005 C 
BRANCH  22  23
HETATM   23  C   UNL     1     -20.360  -8.466  -1.954  1.00  0.00     0.001 C 
BRANCH  23  24
HETATM   24  C   UNL     1     -20.957  -8.667  -0.555  1.00  0.00     0.004 C 
BRANCH  24  25
HETATM   25  C   UNL     1     -21.914  -7.493  -0.253  1.00  0.00    -0.023 C 
HETATM   26  C   UNL     1     -22.276  -6.700  -1.503  1.00  0.00     0.009 C 
HETATM   27  C   UNL     1     -23.190  -7.972   0.441  1.00  0.00     0.009 C 
ENDBRANCH  24  25
ENDBRANCH  23  24
ENDBRANCH  22  23
ENDBRANCH  20  22
ENDBRANCH   1  20
BRANCH  16  28
HETATM   28  O   UNL     1     -21.760 -15.564   1.208  1.00  0.00    -0.395 OA
HETATM   29  H   UNL     1     -21.736 -15.774   2.161  1.00  0.00     0.210 HD
ENDBRANCH  16  28
TORSDOF 6
ENDMDL
MODEL 4
REMARK VINA RESULT:      -7.2      2.258      5.952
REMARK  6 active torsions:
REMARK  status: ('A' for Active; 'I' for Inactive)
REMARK    1  A    between atoms: C_2  and  C_4 
REMARK    2  A    between atoms: C_4  and  C_5 
REMARK    3  A    between atoms: C_5  and  C_6 
REMARK    4  A    between atoms: C_6  and  C_7 
REMARK    5  A    between atoms: C_7  and  C_9 
REMARK    6  A    between atoms: C_24  and  O_26 
ROOT
HETATM    1  C   UNL     1     -21.965 -10.603  -1.270  1.00  0.00    -0.002 C 
HETATM    2  C   UNL     1     -21.648 -11.158   0.134  1.00  0.00     0.006 C 
HETATM    3  C   UNL     1     -20.151 -10.907   0.280  1.00  0.00     0.010 C 
HETATM    4  C   UNL     1     -19.763 -10.012  -0.928  1.00  0.00     0.023 C 
HETATM    5  C   UNL     1     -21.120  -9.271  -1.280  1.00  0.00    -0.033 C 
HETATM    6  C   UNL     1     -20.853  -8.358  -2.503  1.00  0.00     0.011 C 
HETATM    7  C   UNL     1     -19.891  -8.758  -3.616  1.00  0.00     0.011 C 
HETATM    8  C   UNL     1     -19.237 -10.127  -3.511  1.00  0.00     0.027 C 
HETATM    9  C   UNL     1     -19.267 -10.813  -2.158  1.00  0.00    -0.070 C 
HETATM   10  C   UNL     1     -18.986 -12.136  -2.239  1.00  0.00     0.004 C 
HETATM   11  C   UNL     1     -18.241 -12.678  -3.360  1.00  0.00     0.004 C 
HETATM   12  C   UNL     1     -17.470 -11.811  -4.068  1.00  0.00    -0.069 C 
HETATM   13  C   UNL     1     -17.792 -10.291  -4.115  1.00  0.00    -0.013 C 
HETATM   14  C   UNL     1     -16.700  -9.548  -3.314  1.00  0.00     0.017 C 
HETATM   15  C   UNL     1     -15.962 -10.440  -2.309  1.00  0.00     0.033 C 
HETATM   16  C   UNL     1     -15.274 -11.664  -2.995  1.00  0.00     0.122 C 
HETATM   17  C   UNL     1     -16.024 -12.159  -4.248  1.00  0.00     0.066 C 
HETATM   18  C   UNL     1     -17.802  -9.790  -5.583  1.00  0.00     0.021 C 
HETATM   19  C   UNL     1     -21.529  -8.262  -0.160  1.00  0.00     0.016 C 
ENDROOT
BRANCH   1  20
HETATM   20  C   UNL     1     -23.260 -11.171  -1.873  1.00  0.00    -0.014 C 
HETATM   21  C   UNL     1     -24.308 -11.635  -0.872  1.00  0.00     0.010 C 
BRANCH  20  22
HETATM   22  C   UNL     1     -22.775 -12.442  -2.731  1.00  0.00     0.005 C 
BRANCH  22  23
HETATM   23  C   UNL     1     -22.319 -12.087  -4.121  1.00  0.00     0.001 C 
BRANCH  23  24
HETATM   24  C   UNL     1     -21.561 -13.193  -4.867  1.00  0.00     0.004 C 
BRANCH  24  25
HETATM   25  C   UNL     1     -20.770 -12.552  -6.029  1.00  0.00    -0.023 C 
HETATM   26  C   UNL     1     -20.818 -13.393  -7.299  1.00  0.00     0.009 C 
HETATM   27  C   UNL     1     -21.262 -11.135  -6.329  1.00  0.00     0.009 C 
ENDBRANCH  24  25
ENDBRANCH  23  24
ENDBRANCH  22  23
ENDBRANCH  20  22
ENDBRANCH   1  20
BRANCH  16  28
HETATM   28  O   UNL     1     -15.165 -12.733  -2.043  1.00  0.00    -0.395 OA
HETATM   29  H   UNL     1     -16.032 -13.177  -1.988  1.00  0.00     0.210 HD
ENDBRANCH  16  28
TORSDOF 6
ENDMDL
MODEL 5
REMARK VINA RESULT:      -6.8     17.860     20.695
REMARK  6 active torsions:
REMARK  status: ('A' for Active; 'I' for Inactive)
REMARK    1  A    between atoms: C_2  and  C_4 
REMARK    2  A    between atoms: C_4  and  C_5 
REMARK    3  A    between atoms: C_5  and  C_6 
REMARK    4  A    between atoms: C_6  and  C_7 
REMARK    5  A    between atoms: C_7  and  C_9 
REMARK    6  A    between atoms: C_24  and  O_26 
ROOT
HETATM    1  C   UNL     1     -23.743   7.848  -3.013  1.00  0.00    -0.002 C 
HETATM    2  C   UNL     1     -22.755   7.152  -2.054  1.00  0.00     0.006 C 
HETATM    3  C   UNL     1     -23.605   6.869  -0.820  1.00  0.00     0.010 C 
HETATM    4  C   UNL     1     -25.064   7.191  -1.242  1.00  0.00     0.023 C 
HETATM    5  C   UNL     1     -25.042   6.976  -2.813  1.00  0.00    -0.033 C 
HETATM    6  C   UNL     1     -26.459   7.297  -3.351  1.00  0.00     0.011 C 
HETATM    7  C   UNL     1     -27.326   8.395  -2.743  1.00  0.00     0.011 C 
HETATM    8  C   UNL     1     -26.720   9.211  -1.611  1.00  0.00     0.027 C 
HETATM    9  C   UNL     1     -25.497   8.642  -0.916  1.00  0.00    -0.070 C 
HETATM   10  C   UNL     1     -24.836   9.570  -0.184  1.00  0.00     0.004 C 
HETATM   11  C   UNL     1     -25.503  10.769   0.291  1.00  0.00     0.004 C 
HETATM   12  C   UNL     1     -26.859  10.729   0.376  1.00  0.00    -0.069 C 
HETATM   13  C   UNL     1     -27.699   9.768  -0.511  1.00  0.00    -0.013 C 
HETATM   14  C   UNL     1     -28.288   8.671   0.403  1.00  0.00     0.017 C 
HETATM   15  C   UNL     1     -27.526   8.494   1.721  1.00  0.00     0.033 C 
HETATM   16  C   UNL     1     -27.478   9.812   2.560  1.00  0.00     0.122 C 
HETATM   17  C   UNL     1     -27.481  11.086   1.691  1.00  0.00     0.066 C 
HETATM   18  C   UNL     1     -28.847  10.545  -1.207  1.00  0.00     0.021 C 
HETATM   19  C   UNL     1     -24.849   5.471  -3.183  1.00  0.00     0.016 C 
ENDROOT
BRANCH   1  20
HETATM   20  C   UNL     1     -23.050   8.682  -4.103  1.00  0.00    -0.014 C 
HETATM   21  C   UNL     1     -21.529   8.637  -4.105  1.00  0.00     0.010 C 
BRANCH  20  22
HETATM   22  C   UNL     1     -23.516  10.192  -3.804  1.00  0.00     0.005 C 
BRANCH  22  23
HETATM   23  C   UNL     1     -24.273  10.821  -4.943  1.00  0.00     0.001 C 
BRANCH  23  24
HETATM   24  C   UNL     1     -25.778  11.005  -4.710  1.00  0.00     0.004 C 
BRANCH  24  25
HETATM   25  C   UNL     1     -26.537  10.486  -5.951  1.00  0.00    -0.023 C 
HETATM   26  C   UNL     1     -26.017   9.135  -6.429  1.00  0.00     0.009 C 
HETATM   27  C   UNL     1     -28.042  10.398  -5.695  1.00  0.00     0.009 C 
ENDBRANCH  24  25
ENDBRANCH  23  24
ENDBRANCH  22  23
ENDBRANCH  20  22
ENDBRANCH   1  20
BRANCH  16  28
HETATM   28  O   UNL     1     -26.308   9.796   3.390  1.00  0.00    -0.395 OA
HETATM   29  H   UNL     1     -25.898  10.681   3.351  1.00  0.00     0.210 HD
ENDBRANCH  16  28
TORSDOF 6
ENDMDL
MODEL 6
REMARK VINA RESULT:      -6.8      2.335      5.645
REMARK  6 active torsions:
REMARK  status: ('A' for Active; 'I' for Inactive)
REMARK    1  A    between atoms: C_2  and  C_4 
REMARK    2  A    between atoms: C_4  and  C_5 
REMARK    3  A    between atoms: C_5  and  C_6 
REMARK    4  A    between atoms: C_6  and  C_7 
REMARK    5  A    between atoms: C_7  and  C_9 
REMARK    6  A    between atoms: C_24  and  O_26 
ROOT
HETATM    1  C   UNL     1     -21.632  -9.137  -1.601  1.00  0.00    -0.002 C 
HETATM    2  C   UNL     1     -20.542  -8.046  -1.574  1.00  0.00     0.006 C 
HETATM    3  C   UNL     1     -19.413  -8.658  -2.396  1.00  0.00     0.010 C 
HETATM    4  C   UNL     1     -20.016  -9.936  -3.038  1.00  0.00     0.023 C 
HETATM    5  C   UNL     1     -21.566  -9.610  -3.105  1.00  0.00    -0.033 C 
HETATM    6  C   UNL     1     -22.280 -10.843  -3.715  1.00  0.00     0.011 C 
HETATM    7  C   UNL     1     -21.811 -12.267  -3.440  1.00  0.00     0.011 C 
HETATM    8  C   UNL     1     -20.637 -12.441  -2.489  1.00  0.00     0.027 C 
HETATM    9  C   UNL     1     -19.784 -11.218  -2.202  1.00  0.00    -0.070 C 
HETATM   10  C   UNL     1     -19.003 -11.375  -1.106  1.00  0.00     0.004 C 
HETATM   11  C   UNL     1     -18.644 -12.695  -0.620  1.00  0.00     0.004 C 
HETATM   12  C   UNL     1     -18.722 -13.722  -1.507  1.00  0.00    -0.069 C 
HETATM   13  C   UNL     1     -19.678 -13.665  -2.732  1.00  0.00    -0.013 C 
HETATM   14  C   UNL     1     -18.812 -13.528  -4.004  1.00  0.00     0.017 C 
HETATM   15  C   UNL     1     -17.408 -12.977  -3.735  1.00  0.00     0.033 C 
HETATM   16  C   UNL     1     -16.605 -13.863  -2.728  1.00  0.00     0.122 C 
HETATM   17  C   UNL     1     -17.502 -14.570  -1.693  1.00  0.00     0.066 C 
HETATM   18  C   UNL     1     -20.528 -14.960  -2.810  1.00  0.00     0.021 C 
HETATM   19  C   UNL     1     -21.870  -8.473  -4.132  1.00  0.00     0.016 C 
ENDROOT
BRANCH   1  20
HETATM   20  C   UNL     1     -22.652  -9.009  -0.459  1.00  0.00    -0.014 C 
HETATM   21  C   UNL     1     -22.296  -8.017   0.639  1.00  0.00     0.010 C 
BRANCH  20  22
HETATM   22  C   UNL     1     -22.716 -10.482   0.185  1.00  0.00     0.005 C 
BRANCH  22  23
HETATM   23  C   UNL     1     -23.845 -11.321  -0.351  1.00  0.00     0.001 C 
BRANCH  23  24
HETATM   24  C   UNL     1     -23.653 -12.838  -0.229  1.00  0.00     0.004 C 
BRANCH  24  25
HETATM   25  C   UNL     1     -22.845 -13.132   1.054  1.00  0.00    -0.023 C 
HETATM   26  C   UNL     1     -23.695 -13.775   2.144  1.00  0.00     0.009 C 
HETATM   27  C   UNL     1     -21.628 -14.011   0.763  1.00  0.00     0.009 C 
ENDBRANCH  24  25
ENDBRANCH  23  24
ENDBRANCH  22  23
ENDBRANCH  20  22
ENDBRANCH   1  20
BRANCH  16  28
HETATM   28  O   UNL     1     -15.639 -13.044  -2.052  1.00  0.00    -0.395 OA
HETATM   29  H   UNL     1     -15.994 -12.136  -2.005  1.00  0.00     0.210 HD
ENDBRANCH  16  28
TORSDOF 6
ENDMDL
MODEL 7
REMARK VINA RESULT:      -6.7      2.135      5.262
REMARK  6 active torsions:
REMARK  status: ('A' for Active; 'I' for Inactive)
REMARK    1  A    between atoms: C_2  and  C_4 
REMARK    2  A    between atoms: C_4  and  C_5 
REMARK    3  A    between atoms: C_5  and  C_6 
REMARK    4  A    between atoms: C_6  and  C_7 
REMARK    5  A    between atoms: C_7  and  C_9 
REMARK    6  A    between atoms: C_24  and  O_26 
ROOT
HETATM    1  C   UNL     1     -21.148  -8.502  -2.961  1.00  0.00    -0.002 C 
HETATM    2  C   UNL     1     -21.037  -7.711  -1.641  1.00  0.00     0.006 C 
HETATM    3  C   UNL     1     -20.803  -8.800  -0.599  1.00  0.00     0.010 C 
HETATM    4  C   UNL     1     -20.550 -10.099  -1.410  1.00  0.00     0.023 C 
HETATM    5  C   UNL     1     -19.990  -9.560  -2.793  1.00  0.00    -0.033 C 
HETATM    6  C   UNL     1     -19.722 -10.785  -3.702  1.00  0.00     0.011 C 
HETATM    7  C   UNL     1     -20.609 -12.025  -3.670  1.00  0.00     0.011 C 
HETATM    8  C   UNL     1     -21.814 -11.994  -2.742  1.00  0.00     0.027 C 
HETATM    9  C   UNL     1     -21.830 -10.937  -1.653  1.00  0.00    -0.070 C 
HETATM   10  C   UNL     1     -23.061 -10.761  -1.117  1.00  0.00     0.004 C 
HETATM   11  C   UNL     1     -24.071 -11.800  -1.195  1.00  0.00     0.004 C 
HETATM   12  C   UNL     1     -23.636 -13.071  -1.403  1.00  0.00    -0.069 C 
HETATM   13  C   UNL     1     -22.283 -13.359  -2.112  1.00  0.00    -0.013 C 
HETATM   14  C   UNL     1     -21.304 -13.920  -1.057  1.00  0.00     0.017 C 
HETATM   15  C   UNL     1     -21.685 -13.567   0.385  1.00  0.00     0.033 C 
HETATM   16  C   UNL     1     -23.111 -14.082   0.764  1.00  0.00     0.122 C 
HETATM   17  C   UNL     1     -24.081 -14.123  -0.434  1.00  0.00     0.066 C 
HETATM   18  C   UNL     1     -22.481 -14.395  -3.249  1.00  0.00     0.021 C 
HETATM   19  C   UNL     1     -18.575  -8.918  -2.627  1.00  0.00     0.016 C 
ENDROOT
BRANCH   1  20
HETATM   20  C   UNL     1     -21.876  -7.731  -4.074  1.00  0.00    -0.014 C 
HETATM   21  C   UNL     1     -21.774  -8.329  -5.470  1.00  0.00     0.010 C 
BRANCH  20  22
HETATM   22  C   UNL     1     -21.171  -6.286  -4.085  1.00  0.00     0.005 C 
BRANCH  22  23
HETATM   23  C   UNL     1     -20.432  -5.989  -5.361  1.00  0.00     0.001 C 
BRANCH  23  24
HETATM   24  C   UNL     1     -20.103  -4.510  -5.603  1.00  0.00     0.004 C 
BRANCH  24  25
HETATM   25  C   UNL     1     -20.659  -4.099  -6.984  1.00  0.00    -0.023 C 
HETATM   26  C   UNL     1     -19.713  -4.458  -8.124  1.00  0.00     0.009 C 
HETATM   27  C   UNL     1     -22.034  -4.716  -7.242  1.00  0.00     0.009 C 
ENDBRANCH  24  25
ENDBRANCH  23  24
ENDBRANCH  22  23
ENDBRANCH  20  22
ENDBRANCH   1  20
BRANCH  16  28
HETATM   28  O   UNL     1     -23.653 -13.243   1.795  1.00  0.00    -0.395 OA
HETATM   29  H   UNL     1     -23.026 -12.511   1.949  1.00  0.00     0.210 HD
ENDBRANCH  16  28
TORSDOF 6
ENDMDL
MODEL 8
REMARK VINA RESULT:      -6.7      2.155      5.993
REMARK  6 active torsions:
REMARK  status: ('A' for Active; 'I' for Inactive)
REMARK    1  A    between atoms: C_2  and  C_4 
REMARK    2  A    between atoms: C_4  and  C_5 
REMARK    3  A    between atoms: C_5  and  C_6 
REMARK    4  A    between atoms: C_6  and  C_7 
REMARK    5  A    between atoms: C_7  and  C_9 
REMARK    6  A    between atoms: C_24  and  O_26 
ROOT
HETATM    1  C   UNL     1     -22.356  -9.670  -1.119  1.00  0.00    -0.002 C 
HETATM    2  C   UNL     1     -21.918  -9.244   0.298  1.00  0.00     0.006 C 
HETATM    3  C   UNL     1     -20.470  -8.809   0.101  1.00  0.00     0.010 C 
HETATM    4  C   UNL     1     -20.253  -8.780  -1.436  1.00  0.00     0.023 C 
HETATM    5  C   UNL     1     -21.714  -8.532  -2.002  1.00  0.00    -0.033 C 
HETATM    6  C   UNL     1     -21.621  -8.508  -3.549  1.00  0.00     0.011 C 
HETATM    7  C   UNL     1     -20.646  -9.397  -4.314  1.00  0.00     0.011 C 
HETATM    8  C   UNL     1     -19.797 -10.360  -3.499  1.00  0.00     0.027 C 
HETATM    9  C   UNL     1     -19.685 -10.102  -2.008  1.00  0.00    -0.070 C 
HETATM   10  C   UNL     1     -19.217 -11.176  -1.328  1.00  0.00     0.004 C 
HETATM   11  C   UNL     1     -18.437 -12.205  -1.992  1.00  0.00     0.004 C 
HETATM   12  C   UNL     1     -17.822 -11.860  -3.154  1.00  0.00    -0.069 C 
HETATM   13  C   UNL     1     -18.363 -10.710  -4.048  1.00  0.00    -0.013 C 
HETATM   14  C   UNL     1     -17.366  -9.533  -3.964  1.00  0.00     0.017 C 
HETATM   15  C   UNL     1     -16.476  -9.571  -2.717  1.00  0.00     0.033 C 
HETATM   16  C   UNL     1     -15.639 -10.887  -2.625  1.00  0.00     0.122 C 
HETATM   17  C   UNL     1     -16.347 -12.103  -3.256  1.00  0.00     0.066 C 
HETATM   18  C   UNL     1     -18.491 -11.187  -5.519  1.00  0.00     0.021 C 
HETATM   19  C   UNL     1     -22.231  -7.100  -1.651  1.00  0.00     0.016 C 
ENDROOT
BRANCH   1  20
HETATM   20  C   UNL     1     -23.572 -10.610  -1.124  1.00  0.00    -0.014 C 
HETATM   21  C   UNL     1     -24.466 -10.544   0.106  1.00  0.00     0.010 C 
BRANCH  20  22
HETATM   22  C   UNL     1     -22.936 -12.084  -1.215  1.00  0.00     0.005 C 
BRANCH  22  23
HETATM   23  C   UNL     1     -23.100 -12.886   0.048  1.00  0.00     0.001 C 
BRANCH  23  24
HETATM   24  C   UNL     1     -21.887 -12.888   0.988  1.00  0.00     0.004 C 
BRANCH  24  25
HETATM   25  C   UNL     1     -22.138 -13.913   2.116  1.00  0.00    -0.023 C 
HETATM   26  C   UNL     1     -23.620 -14.093   2.421  1.00  0.00     0.009 C 
HETATM   27  C   UNL     1     -21.509 -15.269   1.793  1.00  0.00     0.009 C 
ENDBRANCH  24  25
ENDBRANCH  23  24
ENDBRANCH  22  23
ENDBRANCH  20  22
ENDBRANCH   1  20
BRANCH  16  28
HETATM   28  O   UNL     1     -15.345 -11.160  -1.247  1.00  0.00    -0.395 OA
HETATM   29  H   UNL     1     -15.989 -10.671  -0.699  1.00  0.00     0.210 HD
ENDBRANCH  16  28
TORSDOF 6
ENDMDL
MODEL 9
REMARK VINA RESULT:      -6.6      2.254      4.403
REMARK  6 active torsions:
REMARK  status: ('A' for Active; 'I' for Inactive)
REMARK    1  A    between atoms: C_2  and  C_4 
REMARK    2  A    between atoms: C_4  and  C_5 
REMARK    3  A    between atoms: C_5  and  C_6 
REMARK    4  A    between atoms: C_6  and  C_7 
REMARK    5  A    between atoms: C_7  and  C_9 
REMARK    6  A    between atoms: C_24  and  O_26 
ROOT
HETATM    1  C   UNL     1     -18.261 -11.457  -3.837  1.00  0.00    -0.002 C 
HETATM    2  C   UNL     1     -17.995 -10.082  -4.484  1.00  0.00     0.006 C 
HETATM    3  C   UNL     1     -18.356  -9.098  -3.377  1.00  0.00     0.010 C 
HETATM    4  C   UNL     1     -18.563  -9.964  -2.106  1.00  0.00     0.023 C 
HETATM    5  C   UNL     1     -17.669 -11.243  -2.390  1.00  0.00    -0.033 C 
HETATM    6  C   UNL     1     -17.821 -12.201  -1.182  1.00  0.00     0.011 C 
HETATM    7  C   UNL     1     -19.135 -12.343  -0.422  1.00  0.00     0.011 C 
HETATM    8  C   UNL     1     -20.323 -11.542  -0.933  1.00  0.00     0.027 C 
HETATM    9  C   UNL     1     -20.034 -10.392  -1.880  1.00  0.00    -0.070 C 
HETATM   10  C   UNL     1     -21.140  -9.973  -2.542  1.00  0.00     0.004 C 
HETATM   11  C   UNL     1     -22.470 -10.224  -2.018  1.00  0.00     0.004 C 
HETATM   12  C   UNL     1     -22.572 -10.471  -0.685  1.00  0.00    -0.069 C 
HETATM   13  C   UNL     1     -21.382 -11.056   0.125  1.00  0.00    -0.013 C 
HETATM   14  C   UNL     1     -20.855  -9.947   1.062  1.00  0.00     0.017 C 
HETATM   15  C   UNL     1     -21.229  -8.531   0.610  1.00  0.00     0.033 C 
HETATM   16  C   UNL     1     -22.775  -8.335   0.493  1.00  0.00     0.122 C 
HETATM   17  C   UNL     1     -23.524  -9.625   0.105  1.00  0.00     0.066 C 
HETATM   18  C   UNL     1     -21.850 -12.274   0.963  1.00  0.00     0.021 C 
HETATM   19  C   UNL     1     -16.147 -10.892  -2.383  1.00  0.00     0.016 C 
ENDROOT
BRANCH   1  20
HETATM   20  C   UNL     1     -18.469 -12.584  -4.861  1.00  0.00    -0.014 C 
HETATM   21  C   UNL     1     -18.988 -12.152  -6.225  1.00  0.00     0.010 C 
BRANCH  20  22
HETATM   22  C   UNL     1     -19.562 -13.546  -4.179  1.00  0.00     0.005 C 
BRANCH  22  23
HETATM   23  C   UNL     1     -20.835 -13.663  -4.973  1.00  0.00     0.001 C 
BRANCH  23  24
HETATM   24  C   UNL     1     -22.058 -12.965  -4.363  1.00  0.00     0.004 C 
BRANCH  24  25
HETATM   25  C   UNL     1     -22.927 -14.025  -3.651  1.00  0.00    -0.023 C 
HETATM   26  C   UNL     1     -22.816 -15.400  -4.299  1.00  0.00     0.009 C 
HETATM   27  C   UNL     1     -22.585 -14.126  -2.164  1.00  0.00     0.009 C 
ENDBRANCH  24  25
ENDBRANCH  23  24
ENDBRANCH  22  23
ENDBRANCH  20  22
ENDBRANCH   1  20
BRANCH  16  28
HETATM   28  O   UNL     1     -23.044  -7.309  -0.475  1.00  0.00    -0.395 OA
HETATM   29  H   UNL     1     -23.584  -6.620  -0.043  1.00  0.00     0.210 HD
ENDBRANCH  16  28
TORSDOF 6
ENDMDL
