MODEL 1
REMARK VINA RESULT:      -6.9      0.000      0.000
REMARK  14 active torsions:
REMARK  status: ('A' for Active; 'I' for Inactive)
REMARK    1  A    between atoms: C_2  and  C_4 
REMARK    2  A    between atoms: C_4  and  C_5 
REMARK    3  A    between atoms: C_5  and  C_6 
REMARK    4  A    between atoms: C_5  and  N_18 
REMARK       I    between atoms: C_6  and  N_8 
REMARK    5  A    between atoms: N_8  and  C_9 
REMARK    6  A    between atoms: C_9  and  C_10 
REMARK    7  A    between atoms: C_9  and  C_15 
REMARK    8  A    between atoms: C_10  and  C_11 
REMARK    9  A    between atoms: C_11  and  C_12 
REMARK       I    between atoms: C_12  and  N_14 
REMARK       I    between atoms: C_15  and  N_17 
REMARK       I    between atoms: N_18  and  C_19 
REMARK   10  A    between atoms: C_19  and  C_21 
REMARK       I    between atoms: N_25  and  C_26 
REMARK   11  A    between atoms: C_26  and  CA_28 
REMARK   12  A    between atoms: CA_28  and  C_29 
REMARK   13  A    between atoms: CA_28  and  N_31 
REMARK   14  A    between atoms: C_29  and  O_30 
ROOT
HETATM    1  C   UNL     1     -21.154  -7.588  -5.515  1.00  0.00     0.177 C 
ENDROOT
BRANCH   1   2
HETATM    2  C   UNL     1     -22.049  -7.241  -4.284  1.00  0.00     0.038 C 
BRANCH   2   3
HETATM    3  C   UNL     1     -21.370  -7.172  -2.896  1.00  0.00    -0.020 C 
HETATM    4  C   UNL     1     -21.912  -6.043  -2.018  1.00  0.00     0.009 C 
HETATM    5  C   UNL     1     -21.493  -8.500  -2.130  1.00  0.00     0.009 C 
ENDBRANCH   2   3
ENDBRANCH   1   2
BRANCH   1   6
HETATM    6  C   UNL     1     -20.663  -6.289  -6.229  1.00  0.00     0.241 C 
HETATM    7  O   UNL     1     -20.045  -5.425  -5.606  1.00  0.00    -0.271 OA
HETATM    8  N   UNL     1     -20.979  -6.121  -7.567  1.00  0.00    -0.346 N 
HETATM    9  H   UNL     1     -21.555  -6.799  -8.058  1.00  0.00     0.163 HD
BRANCH   8  10
HETATM   10  C   UNL     1     -20.771  -4.832  -8.243  1.00  0.00     0.176 C 
BRANCH  10  11
HETATM   11  C   UNL     1     -20.762  -4.959  -9.771  1.00  0.00     0.044 C 
BRANCH  11  12
HETATM   12  C   UNL     1     -20.671  -3.623 -10.514  1.00  0.00     0.105 C 
BRANCH  12  13
HETATM   13  C   UNL     1     -21.868  -3.409 -11.416  1.00  0.00     0.215 C 
HETATM   14  O   UNL     1     -22.979  -3.066 -11.033  1.00  0.00    -0.274 OA
HETATM   15  N   UNL     1     -21.625  -3.650 -12.736  1.00  0.00    -0.370 N 
HETATM   16  H   UNL     1     -20.737  -3.980 -13.088  1.00  0.00     0.159 HD
HETATM   17  H   UNL     1     -22.394  -3.535 -13.384  1.00  0.00     0.159 HD
ENDBRANCH  12  13
ENDBRANCH  11  12
ENDBRANCH  10  11
BRANCH  10  18
HETATM   18  C   UNL     1     -21.788  -3.772  -7.760  1.00  0.00     0.238 C 
HETATM   19  O   UNL     1     -21.461  -2.765  -7.139  1.00  0.00    -0.271 OA
HETATM   20  N   UNL     1     -23.100  -4.023  -8.052  1.00  0.00    -0.368 N 
HETATM   21  H   UNL     1     -23.405  -4.820  -8.596  1.00  0.00     0.159 HD
HETATM   22  H   UNL     1     -23.796  -3.340  -7.774  1.00  0.00     0.159 HD
ENDBRANCH  10  18
ENDBRANCH   8  10
ENDBRANCH   1   6
BRANCH   1  23
HETATM   23  N   UNL     1     -19.931  -8.325  -5.065  1.00  0.00    -0.346 N 
HETATM   24  C   UNL     1     -19.757  -9.683  -5.212  1.00  0.00     0.241 C 
HETATM   25  O   UNL     1     -20.615 -10.364  -5.787  1.00  0.00    -0.271 OA
HETATM   26  H   UNL     1     -19.133  -7.756  -4.791  1.00  0.00     0.163 HD
BRANCH  24  27
HETATM   27  C   UNL     1     -18.590 -10.414  -4.427  1.00  0.00     0.179 C 
HETATM   28  C   UNL     1     -18.015  -9.313  -3.499  1.00  0.00     0.037 C 
HETATM   29  C   UNL     1     -16.836  -9.956  -2.806  1.00  0.00     0.022 C 
HETATM   30  C   UNL     1     -16.309 -10.933  -3.831  1.00  0.00     0.127 C 
HETATM   31  N   UNL     1     -17.335 -11.086  -4.870  1.00  0.00    -0.337 N 
HETATM   32  C   UNL     1     -17.144 -12.243  -5.622  1.00  0.00     0.256 C 
HETATM   33  O   UNL     1     -16.100 -12.903  -5.472  1.00  0.00    -0.271 OA
BRANCH  32  34
HETATM   34  CA  UNL     1     -18.112 -12.754  -6.693  1.00  0.00     0.332 C 
BRANCH  34  35
HETATM   35  C   UNL     1     -19.230 -13.566  -6.008  1.00  0.00     0.209 C 
BRANCH  35  36
HETATM   36  O   UNL     1     -19.939 -14.364  -6.959  1.00  0.00    -0.398 OA
HETATM   37  H   UNL     1     -20.465 -15.007  -6.456  1.00  0.00     0.209 HD
ENDBRANCH  35  36
ENDBRANCH  34  35
BRANCH  34  38
HETATM   38  N   UNL     1     -18.637 -11.739  -7.617  1.00  0.00     0.094 N 
HETATM   39  H1  UNL     1     -18.397 -11.983  -8.576  1.00  0.00     0.314 HD
HETATM   40  H2  UNL     1     -18.148 -10.865  -7.415  1.00  0.00     0.314 HD
ENDBRANCH  34  38
ENDBRANCH  32  34
ENDBRANCH  24  27
ENDBRANCH   1  23
TORSDOF 14
ENDMDL
MODEL 2
REMARK VINA RESULT:      -6.5      1.795      2.137
REMARK  14 active torsions:
REMARK  status: ('A' for Active; 'I' for Inactive)
REMARK    1  A    between atoms: C_2  and  C_4 
REMARK    2  A    between atoms: C_4  and  C_5 
REMARK    3  A    between atoms: C_5  and  C_6 
REMARK    4  A    between atoms: C_5  and  N_18 
REMARK       I    between atoms: C_6  and  N_8 
REMARK    5  A    between atoms: N_8  and  C_9 
REMARK    6  A    between atoms: C_9  and  C_10 
REMARK    7  A    between atoms: C_9  and  C_15 
REMARK    8  A    between atoms: C_10  and  C_11 
REMARK    9  A    between atoms: C_11  and  C_12 
REMARK       I    between atoms: C_12  and  N_14 
REMARK       I    between atoms: C_15  and  N_17 
REMARK       I    between atoms: N_18  and  C_19 
REMARK   10  A    between atoms: C_19  and  C_21 
REMARK       I    between atoms: N_25  and  C_26 
REMARK   11  A    between atoms: C_26  and  CA_28 
REMARK   12  A    between atoms: CA_28  and  C_29 
REMARK   13  A    between atoms: CA_28  and  N_31 
REMARK   14  A    between atoms: C_29  and  O_30 
ROOT
HETATM    1  C   UNL     1     -20.978  -7.620  -4.056  1.00  0.00     0.177 C 
ENDROOT
BRANCH   1   2
HETATM    2  C   UNL     1     -21.066  -7.031  -2.613  1.00  0.00     0.038 C 
BRANCH   2   3
HETATM    3  C   UNL     1     -21.324  -8.016  -1.448  1.00  0.00    -0.020 C 
HETATM    4  C   UNL     1     -22.260  -7.448  -0.379  1.00  0.00     0.009 C 
HETATM    5  C   UNL     1     -21.893  -9.357  -1.944  1.00  0.00     0.009 C 
ENDBRANCH   2   3
ENDBRANCH   1   2
BRANCH   1   6
HETATM    6  C   UNL     1     -20.961  -6.480  -5.122  1.00  0.00     0.241 C 
HETATM    7  O   UNL     1     -20.901  -5.299  -4.777  1.00  0.00    -0.271 OA
HETATM    8  N   UNL     1     -21.058  -6.833  -6.458  1.00  0.00    -0.346 N 
HETATM    9  H   UNL     1     -21.186  -7.802  -6.735  1.00  0.00     0.163 HD
BRANCH   8  10
HETATM   10  C   UNL     1     -21.295  -5.821  -7.498  1.00  0.00     0.176 C 
BRANCH  10  11
HETATM   11  C   UNL     1     -22.309  -4.754  -7.066  1.00  0.00     0.044 C 
BRANCH  11  12
HETATM   12  C   UNL     1     -22.473  -3.601  -8.060  1.00  0.00     0.105 C 
BRANCH  12  13
HETATM   13  C   UNL     1     -23.469  -3.946  -9.147  1.00  0.00     0.215 C 
HETATM   14  O   UNL     1     -23.261  -4.736 -10.059  1.00  0.00    -0.274 OA
HETATM   15  N   UNL     1     -24.654  -3.279  -9.053  1.00  0.00    -0.370 N 
HETATM   16  H   UNL     1     -24.848  -2.584  -8.345  1.00  0.00     0.159 HD
HETATM   17  H   UNL     1     -25.354  -3.461  -9.763  1.00  0.00     0.159 HD
ENDBRANCH  12  13
ENDBRANCH  11  12
ENDBRANCH  10  11
BRANCH  10  18
HETATM   18  C   UNL     1     -19.969  -5.189  -7.981  1.00  0.00     0.238 C 
HETATM   19  O   UNL     1     -19.664  -5.098  -9.167  1.00  0.00    -0.271 OA
HETATM   20  N   UNL     1     -19.126  -4.740  -7.003  1.00  0.00    -0.368 N 
HETATM   21  H   UNL     1     -19.357  -4.761  -6.018  1.00  0.00     0.159 HD
HETATM   22  H   UNL     1     -18.257  -4.298  -7.280  1.00  0.00     0.159 HD
ENDBRANCH  10  18
ENDBRANCH   8  10
ENDBRANCH   1   6
BRANCH   1  23
HETATM   23  N   UNL     1     -19.703  -8.386  -4.219  1.00  0.00    -0.346 N 
HETATM   24  C   UNL     1     -19.583  -9.519  -4.994  1.00  0.00     0.241 C 
HETATM   25  O   UNL     1     -20.547  -9.933  -5.649  1.00  0.00    -0.271 OA
HETATM   26  H   UNL     1     -18.858  -7.942  -3.867  1.00  0.00     0.163 HD
BRANCH  24  27
HETATM   27  C   UNL     1     -18.296 -10.433  -4.852  1.00  0.00     0.179 C 
HETATM   28  C   UNL     1     -17.327  -9.585  -3.988  1.00  0.00     0.037 C 
HETATM   29  C   UNL     1     -16.051 -10.394  -3.915  1.00  0.00     0.022 C 
HETATM   30  C   UNL     1     -16.014 -11.121  -5.239  1.00  0.00     0.127 C 
HETATM   31  N   UNL     1     -17.347 -11.011  -5.846  1.00  0.00    -0.337 N 
HETATM   32  C   UNL     1     -17.547 -11.970  -6.838  1.00  0.00     0.256 C 
HETATM   33  O   UNL     1     -16.588 -12.668  -7.214  1.00  0.00    -0.271 OA
BRANCH  32  34
HETATM   34  CA  UNL     1     -18.873 -12.202  -7.567  1.00  0.00     0.332 C 
BRANCH  34  35
HETATM   35  C   UNL     1     -18.592 -12.949  -8.887  1.00  0.00     0.209 C 
BRANCH  35  36
HETATM   36  O   UNL     1     -18.572 -14.364  -8.680  1.00  0.00    -0.398 OA
HETATM   37  H   UNL     1     -19.011 -14.533  -7.830  1.00  0.00     0.209 HD
ENDBRANCH  35  36
ENDBRANCH  34  35
BRANCH  34  38
HETATM   38  N   UNL     1     -19.936 -12.836  -6.776  1.00  0.00     0.094 N 
HETATM   39  H1  UNL     1     -20.306 -12.175  -6.094  1.00  0.00     0.314 HD
HETATM   40  H2  UNL     1     -19.504 -13.588  -6.236  1.00  0.00     0.314 HD
ENDBRANCH  34  38
ENDBRANCH  32  34
ENDBRANCH  24  27
ENDBRANCH   1  23
TORSDOF 14
ENDMDL
MODEL 3
REMARK VINA RESULT:      -6.4      4.138      6.763
REMARK  14 active torsions:
REMARK  status: ('A' for Active; 'I' for Inactive)
REMARK    1  A    between atoms: C_2  and  C_4 
REMARK    2  A    between atoms: C_4  and  C_5 
REMARK    3  A    between atoms: C_5  and  C_6 
REMARK    4  A    between atoms: C_5  and  N_18 
REMARK       I    between atoms: C_6  and  N_8 
REMARK    5  A    between atoms: N_8  and  C_9 
REMARK    6  A    between atoms: C_9  and  C_10 
REMARK    7  A    between atoms: C_9  and  C_15 
REMARK    8  A    between atoms: C_10  and  C_11 
REMARK    9  A    between atoms: C_11  and  C_12 
REMARK       I    between atoms: C_12  and  N_14 
REMARK       I    between atoms: C_15  and  N_17 
REMARK       I    between atoms: N_18  and  C_19 
REMARK   10  A    between atoms: C_19  and  C_21 
REMARK       I    between atoms: N_25  and  C_26 
REMARK   11  A    between atoms: C_26  and  CA_28 
REMARK   12  A    between atoms: CA_28  and  C_29 
REMARK   13  A    between atoms: CA_28  and  N_31 
REMARK   14  A    between atoms: C_29  and  O_30 
ROOT
HETATM    1  C   UNL     1     -19.712  -8.417  -3.959  1.00  0.00     0.177 C 
ENDROOT
BRANCH   1   2
HETATM    2  C   UNL     1     -20.428  -7.628  -5.099  1.00  0.00     0.038 C 
BRANCH   2   3
HETATM    3  C   UNL     1     -21.131  -6.302  -4.725  1.00  0.00    -0.020 C 
HETATM    4  C   UNL     1     -20.530  -5.084  -5.431  1.00  0.00     0.009 C 
HETATM    5  C   UNL     1     -22.641  -6.349  -5.016  1.00  0.00     0.009 C 
ENDBRANCH   2   3
ENDBRANCH   1   2
BRANCH   1   6
HETATM    6  C   UNL     1     -20.752  -9.022  -2.965  1.00  0.00     0.241 C 
HETATM    7  O   UNL     1     -21.645  -9.769  -3.367  1.00  0.00    -0.271 OA
HETATM    8  N   UNL     1     -20.665  -8.662  -1.630  1.00  0.00    -0.346 N 
HETATM    9  H   UNL     1     -19.976  -7.986  -1.313  1.00  0.00     0.163 HD
BRANCH   8  10
HETATM   10  C   UNL     1     -21.740  -8.989  -0.682  1.00  0.00     0.176 C 
BRANCH  10  11
HETATM   11  C   UNL     1     -21.220  -9.662   0.594  1.00  0.00     0.044 C 
BRANCH  11  12
HETATM   12  C   UNL     1     -21.329 -11.190   0.590  1.00  0.00     0.105 C 
BRANCH  12  13
HETATM   13  C   UNL     1     -20.454 -11.804  -0.482  1.00  0.00     0.215 C 
HETATM   14  O   UNL     1     -20.868 -12.436  -1.445  1.00  0.00    -0.274 OA
HETATM   15  N   UNL     1     -19.117 -11.615  -0.290  1.00  0.00    -0.370 N 
HETATM   16  H   UNL     1     -18.731 -11.141   0.515  1.00  0.00     0.159 HD
HETATM   17  H   UNL     1     -18.483 -12.015  -0.971  1.00  0.00     0.159 HD
ENDBRANCH  12  13
ENDBRANCH  11  12
ENDBRANCH  10  11
BRANCH  10  18
HETATM   18  C   UNL     1     -22.608  -7.749  -0.364  1.00  0.00     0.238 C 
HETATM   19  O   UNL     1     -22.514  -6.691  -0.979  1.00  0.00    -0.271 OA
HETATM   20  N   UNL     1     -23.495  -7.885   0.667  1.00  0.00    -0.368 N 
HETATM   21  H   UNL     1     -23.631  -8.752   1.172  1.00  0.00     0.159 HD
HETATM   22  H   UNL     1     -24.099  -7.103   0.892  1.00  0.00     0.159 HD
ENDBRANCH  10  18
ENDBRANCH   8  10
ENDBRANCH   1   6
BRANCH   1  23
HETATM   23  N   UNL     1     -18.943  -9.564  -4.536  1.00  0.00    -0.346 N 
HETATM   24  C   UNL     1     -18.007 -10.290  -3.833  1.00  0.00     0.241 C 
HETATM   25  O   UNL     1     -17.794 -10.045  -2.639  1.00  0.00    -0.271 OA
HETATM   26  H   UNL     1     -19.258  -9.915  -5.437  1.00  0.00     0.163 HD
BRANCH  24  27
HETATM   27  C   UNL     1     -17.026 -11.263  -4.609  1.00  0.00     0.179 C 
HETATM   28  C   UNL     1     -15.641 -10.577  -4.484  1.00  0.00     0.037 C 
HETATM   29  C   UNL     1     -14.699 -11.435  -5.297  1.00  0.00     0.022 C 
HETATM   30  C   UNL     1     -15.575 -11.977  -6.402  1.00  0.00     0.127 C 
HETATM   31  N   UNL     1     -16.973 -11.737  -6.022  1.00  0.00    -0.337 N 
HETATM   32  C   UNL     1     -17.854 -12.544  -6.739  1.00  0.00     0.256 C 
HETATM   33  O   UNL     1     -17.423 -13.220  -7.692  1.00  0.00    -0.271 OA
BRANCH  32  34
HETATM   34  CA  UNL     1     -19.361 -12.626  -6.486  1.00  0.00     0.332 C 
BRANCH  34  35
HETATM   35  C   UNL     1     -19.600 -13.208  -5.079  1.00  0.00     0.209 C 
BRANCH  35  36
HETATM   36  O   UNL     1     -20.530 -12.408  -4.345  1.00  0.00    -0.398 OA
HETATM   37  H   UNL     1     -20.908 -12.974  -3.653  1.00  0.00     0.209 HD
ENDBRANCH  35  36
ENDBRANCH  34  35
BRANCH  34  38
HETATM   38  N   UNL     1     -20.117 -11.387  -6.720  1.00  0.00     0.094 N 
HETATM   39  H1  UNL     1     -21.108 -11.598  -6.827  1.00  0.00     0.314 HD
HETATM   40  H2  UNL     1     -19.808 -11.010  -7.619  1.00  0.00     0.314 HD
ENDBRANCH  34  38
ENDBRANCH  32  34
ENDBRANCH  24  27
ENDBRANCH   1  23
TORSDOF 14
ENDMDL
MODEL 4
REMARK VINA RESULT:      -6.4      4.387      8.659
REMARK  14 active torsions:
REMARK  status: ('A' for Active; 'I' for Inactive)
REMARK    1  A    between atoms: C_2  and  C_4 
REMARK    2  A    between atoms: C_4  and  C_5 
REMARK    3  A    between atoms: C_5  and  C_6 
REMARK    4  A    between atoms: C_5  and  N_18 
REMARK       I    between atoms: C_6  and  N_8 
REMARK    5  A    between atoms: N_8  and  C_9 
REMARK    6  A    between atoms: C_9  and  C_10 
REMARK    7  A    between atoms: C_9  and  C_15 
REMARK    8  A    between atoms: C_10  and  C_11 
REMARK    9  A    between atoms: C_11  and  C_12 
REMARK       I    between atoms: C_12  and  N_14 
REMARK       I    between atoms: C_15  and  N_17 
REMARK       I    between atoms: N_18  and  C_19 
REMARK   10  A    between atoms: C_19  and  C_21 
REMARK       I    between atoms: N_25  and  C_26 
REMARK   11  A    between atoms: C_26  and  CA_28 
REMARK   12  A    between atoms: CA_28  and  C_29 
REMARK   13  A    between atoms: CA_28  and  N_31 
REMARK   14  A    between atoms: C_29  and  O_30 
ROOT
HETATM    1  C   UNL     1     -20.214 -11.459  -0.091  1.00  0.00     0.177 C 
ENDROOT
BRANCH   1   2
HETATM    2  C   UNL     1     -21.516 -12.264  -0.396  1.00  0.00     0.038 C 
BRANCH   2   3
HETATM    3  C   UNL     1     -22.757 -11.984   0.485  1.00  0.00    -0.020 C 
HETATM    4  C   UNL     1     -23.900 -11.317  -0.283  1.00  0.00     0.009 C 
HETATM    5  C   UNL     1     -23.289 -13.265   1.152  1.00  0.00     0.009 C 
ENDBRANCH   2   3
ENDBRANCH   1   2
BRANCH   1   6
HETATM    6  C   UNL     1     -18.947 -12.327  -0.369  1.00  0.00     0.241 C 
HETATM    7  O   UNL     1     -18.893 -13.498   0.009  1.00  0.00    -0.271 OA
HETATM    8  N   UNL     1     -17.875 -11.731  -1.013  1.00  0.00    -0.346 N 
HETATM    9  H   UNL     1     -17.892 -10.745  -1.255  1.00  0.00     0.163 HD
BRANCH   8  10
HETATM   10  C   UNL     1     -16.567 -12.399  -1.093  1.00  0.00     0.176 C 
BRANCH  10  11
HETATM   11  C   UNL     1     -15.599 -11.691  -2.049  1.00  0.00     0.044 C 
BRANCH  11  12
HETATM   12  C   UNL     1     -15.175 -12.535  -3.254  1.00  0.00     0.105 C 
BRANCH  12  13
HETATM   13  C   UNL     1     -16.038 -12.244  -4.464  1.00  0.00     0.215 C 
HETATM   14  O   UNL     1     -15.925 -11.259  -5.182  1.00  0.00    -0.274 OA
HETATM   15  N   UNL     1     -17.001 -13.179  -4.703  1.00  0.00    -0.370 N 
HETATM   16  H   UNL     1     -17.159 -13.981  -4.108  1.00  0.00     0.159 HD
HETATM   17  H   UNL     1     -17.617 -13.029  -5.492  1.00  0.00     0.159 HD
ENDBRANCH  12  13
ENDBRANCH  11  12
ENDBRANCH  10  11
BRANCH  10  18
HETATM   18  C   UNL     1     -15.948 -12.595   0.311  1.00  0.00     0.238 C 
HETATM   19  O   UNL     1     -15.526 -11.665   0.992  1.00  0.00    -0.271 OA
HETATM   20  N   UNL     1     -15.878 -13.884   0.761  1.00  0.00    -0.368 N 
HETATM   21  H   UNL     1     -16.251 -14.672   0.248  1.00  0.00     0.159 HD
HETATM   22  H   UNL     1     -15.501 -14.053   1.686  1.00  0.00     0.159 HD
ENDBRANCH  10  18
ENDBRANCH   8  10
ENDBRANCH   1   6
BRANCH   1  23
HETATM   23  N   UNL     1     -20.128 -10.266  -0.990  1.00  0.00    -0.346 N 
HETATM   24  C   UNL     1     -20.629  -9.024  -0.667  1.00  0.00     0.241 C 
HETATM   25  O   UNL     1     -21.143  -8.828   0.441  1.00  0.00    -0.271 OA
HETATM   26  H   UNL     1     -19.523 -10.352  -1.804  1.00  0.00     0.163 HD
BRANCH  24  27
HETATM   27  C   UNL     1     -20.779  -7.921  -1.794  1.00  0.00     0.179 C 
HETATM   28  C   UNL     1     -21.975  -7.057  -1.318  1.00  0.00     0.037 C 
HETATM   29  C   UNL     1     -22.202  -6.051  -2.424  1.00  0.00     0.022 C 
HETATM   30  C   UNL     1     -21.798  -6.798  -3.673  1.00  0.00     0.127 C 
HETATM   31  N   UNL     1     -21.057  -7.996  -3.257  1.00  0.00    -0.337 N 
HETATM   32  C   UNL     1     -20.294  -8.523  -4.298  1.00  0.00     0.256 C 
HETATM   33  O   UNL     1     -20.436  -8.069  -5.448  1.00  0.00    -0.271 OA
BRANCH  32  34
HETATM   34  CA  UNL     1     -19.312  -9.689  -4.153  1.00  0.00     0.332 C 
BRANCH  34  35
HETATM   35  C   UNL     1     -19.338 -10.527  -5.446  1.00  0.00     0.209 C 
BRANCH  35  36
HETATM   36  O   UNL     1     -18.370 -10.050  -6.385  1.00  0.00    -0.398 OA
HETATM   37  H   UNL     1     -18.644 -10.366  -7.261  1.00  0.00     0.209 HD
ENDBRANCH  35  36
ENDBRANCH  34  35
BRANCH  34  38
HETATM   38  N   UNL     1     -17.949  -9.328  -3.741  1.00  0.00     0.094 N 
HETATM   39  H1  UNL     1     -17.944  -8.399  -3.322  1.00  0.00     0.314 HD
HETATM   40  H2  UNL     1     -17.384  -9.260  -4.590  1.00  0.00     0.314 HD
ENDBRANCH  34  38
ENDBRANCH  32  34
ENDBRANCH  24  27
ENDBRANCH   1  23
TORSDOF 14
ENDMDL
MODEL 5
REMARK VINA RESULT:      -6.3      2.969      6.130
REMARK  14 active torsions:
REMARK  status: ('A' for Active; 'I' for Inactive)
REMARK    1  A    between atoms: C_2  and  C_4 
REMARK    2  A    between atoms: C_4  and  C_5 
REMARK    3  A    between atoms: C_5  and  C_6 
REMARK    4  A    between atoms: C_5  and  N_18 
REMARK       I    between atoms: C_6  and  N_8 
REMARK    5  A    between atoms: N_8  and  C_9 
REMARK    6  A    between atoms: C_9  and  C_10 
REMARK    7  A    between atoms: C_9  and  C_15 
REMARK    8  A    between atoms: C_10  and  C_11 
REMARK    9  A    between atoms: C_11  and  C_12 
REMARK       I    between atoms: C_12  and  N_14 
REMARK       I    between atoms: C_15  and  N_17 
REMARK       I    between atoms: N_18  and  C_19 
REMARK   10  A    between atoms: C_19  and  C_21 
REMARK       I    between atoms: N_25  and  C_26 
REMARK   11  A    between atoms: C_26  and  CA_28 
REMARK   12  A    between atoms: CA_28  and  C_29 
REMARK   13  A    between atoms: CA_28  and  N_31 
REMARK   14  A    between atoms: C_29  and  O_30 
ROOT
HETATM    1  C   UNL     1     -17.962  -9.321  -4.881  1.00  0.00     0.177 C 
ENDROOT
BRANCH   1   2
HETATM    2  C   UNL     1     -17.285 -10.000  -6.112  1.00  0.00     0.038 C 
BRANCH   2   3
HETATM    3  C   UNL     1     -16.816 -11.466  -5.958  1.00  0.00    -0.020 C 
HETATM    4  C   UNL     1     -17.473 -12.415  -6.963  1.00  0.00     0.009 C 
HETATM    5  C   UNL     1     -15.288 -11.596  -6.079  1.00  0.00     0.009 C 
ENDBRANCH   2   3
ENDBRANCH   1   2
BRANCH   1   6
HETATM    6  C   UNL     1     -19.462  -9.002  -5.177  1.00  0.00     0.241 C 
HETATM    7  O   UNL     1     -20.235  -9.891  -5.534  1.00  0.00    -0.271 OA
HETATM    8  N   UNL     1     -19.883  -7.686  -5.067  1.00  0.00    -0.346 N 
HETATM    9  H   UNL     1     -19.226  -6.943  -4.848  1.00  0.00     0.163 HD
BRANCH   8  10
HETATM   10  C   UNL     1     -21.202  -7.266  -5.561  1.00  0.00     0.176 C 
BRANCH  10  11
HETATM   11  C   UNL     1     -22.164  -6.885  -4.428  1.00  0.00     0.044 C 
BRANCH  11  12
HETATM   12  C   UNL     1     -21.495  -6.185  -3.242  1.00  0.00     0.105 C 
BRANCH  12  13
HETATM   13  C   UNL     1     -21.369  -7.113  -2.051  1.00  0.00     0.215 C 
HETATM   14  O   UNL     1     -20.516  -7.983  -1.930  1.00  0.00    -0.274 OA
HETATM   15  N   UNL     1     -22.317  -6.923  -1.091  1.00  0.00    -0.370 N 
HETATM   16  H   UNL     1     -23.067  -6.250  -1.173  1.00  0.00     0.159 HD
HETATM   17  H   UNL     1     -22.290  -7.525  -0.277  1.00  0.00     0.159 HD
ENDBRANCH  12  13
ENDBRANCH  11  12
ENDBRANCH  10  11
BRANCH  10  18
HETATM   18  C   UNL     1     -21.078  -6.139  -6.612  1.00  0.00     0.238 C 
HETATM   19  O   UNL     1     -21.906  -5.240  -6.730  1.00  0.00    -0.271 OA
HETATM   20  N   UNL     1     -19.985  -6.199  -7.431  1.00  0.00    -0.368 N 
HETATM   21  H   UNL     1     -19.261  -6.900  -7.339  1.00  0.00     0.159 HD
HETATM   22  H   UNL     1     -19.855  -5.466  -8.118  1.00  0.00     0.159 HD
ENDBRANCH  10  18
ENDBRANCH   8  10
ENDBRANCH   1   6
BRANCH   1  23
HETATM   23  N   UNL     1     -17.940 -10.251  -3.708  1.00  0.00    -0.346 N 
HETATM   24  C   UNL     1     -17.038 -10.156  -2.671  1.00  0.00     0.241 C 
HETATM   25  O   UNL     1     -16.214  -9.235  -2.643  1.00  0.00    -0.271 OA
HETATM   26  H   UNL     1     -18.738 -10.874  -3.607  1.00  0.00     0.163 HD
BRANCH  24  27
HETATM   27  C   UNL     1     -16.886 -11.360  -1.652  1.00  0.00     0.179 C 
HETATM   28  C   UNL     1     -15.746 -12.221  -2.256  1.00  0.00     0.037 C 
HETATM   29  C   UNL     1     -15.643 -13.430  -1.354  1.00  0.00     0.022 C 
HETATM   30  C   UNL     1     -17.060 -13.640  -0.875  1.00  0.00     0.127 C 
HETATM   31  N   UNL     1     -17.823 -12.425  -1.192  1.00  0.00    -0.337 N 
HETATM   32  C   UNL     1     -18.996 -12.338  -0.445  1.00  0.00     0.256 C 
HETATM   33  O   UNL     1     -19.354 -13.311   0.244  1.00  0.00    -0.271 OA
BRANCH  32  34
HETATM   34  CA  UNL     1     -19.941 -11.134  -0.448  1.00  0.00     0.332 C 
BRANCH  34  35
HETATM   35  C   UNL     1     -21.086 -11.400  -1.446  1.00  0.00     0.209 C 
BRANCH  35  36
HETATM   36  O   UNL     1     -20.761 -10.898  -2.744  1.00  0.00    -0.398 OA
HETATM   37  H   UNL     1     -19.815 -10.680  -2.736  1.00  0.00     0.209 HD
ENDBRANCH  35  36
ENDBRANCH  34  35
BRANCH  34  38
HETATM   38  N   UNL     1     -20.430 -10.702   0.869  1.00  0.00     0.094 N 
HETATM   39  H1  UNL     1     -19.644 -10.481   1.478  1.00  0.00     0.314 HD
HETATM   40  H2  UNL     1     -20.903 -11.502   1.293  1.00  0.00     0.314 HD
ENDBRANCH  34  38
ENDBRANCH  32  34
ENDBRANCH  24  27
ENDBRANCH   1  23
TORSDOF 14
ENDMDL
MODEL 6
REMARK VINA RESULT:      -6.3      4.480      7.273
REMARK  14 active torsions:
REMARK  status: ('A' for Active; 'I' for Inactive)
REMARK    1  A    between atoms: C_2  and  C_4 
REMARK    2  A    between atoms: C_4  and  C_5 
REMARK    3  A    between atoms: C_5  and  C_6 
REMARK    4  A    between atoms: C_5  and  N_18 
REMARK       I    between atoms: C_6  and  N_8 
REMARK    5  A    between atoms: N_8  and  C_9 
REMARK    6  A    between atoms: C_9  and  C_10 
REMARK    7  A    between atoms: C_9  and  C_15 
REMARK    8  A    between atoms: C_10  and  C_11 
REMARK    9  A    between atoms: C_11  and  C_12 
REMARK       I    between atoms: C_12  and  N_14 
REMARK       I    between atoms: C_15  and  N_17 
REMARK       I    between atoms: N_18  and  C_19 
REMARK   10  A    between atoms: C_19  and  C_21 
REMARK       I    between atoms: N_25  and  C_26 
REMARK   11  A    between atoms: C_26  and  CA_28 
REMARK   12  A    between atoms: CA_28  and  C_29 
REMARK   13  A    between atoms: CA_28  and  N_31 
REMARK   14  A    between atoms: C_29  and  O_30 
ROOT
HETATM    1  C   UNL     1     -19.985  -8.502  -4.170  1.00  0.00     0.177 C 
ENDROOT
BRANCH   1   2
HETATM    2  C   UNL     1     -20.826  -8.221  -5.455  1.00  0.00     0.038 C 
BRANCH   2   3
HETATM    3  C   UNL     1     -21.346  -6.780  -5.674  1.00  0.00    -0.020 C 
HETATM    4  C   UNL     1     -22.592  -6.460  -4.845  1.00  0.00     0.009 C 
HETATM    5  C   UNL     1     -20.266  -5.727  -5.373  1.00  0.00     0.009 C 
ENDBRANCH   2   3
ENDBRANCH   1   2
BRANCH   1   6
HETATM    6  C   UNL     1     -20.880  -9.106  -3.042  1.00  0.00     0.241 C 
HETATM    7  O   UNL     1     -21.699  -9.991  -3.296  1.00  0.00    -0.271 OA
HETATM    8  N   UNL     1     -20.755  -8.589  -1.763  1.00  0.00    -0.346 N 
HETATM    9  H   UNL     1     -20.136  -7.807  -1.572  1.00  0.00     0.163 HD
BRANCH   8  10
HETATM   10  C   UNL     1     -21.722  -8.927  -0.708  1.00  0.00     0.176 C 
BRANCH  10  11
HETATM   11  C   UNL     1     -21.054  -9.521   0.538  1.00  0.00     0.044 C 
BRANCH  11  12
HETATM   12  C   UNL     1     -21.196 -11.040   0.665  1.00  0.00     0.105 C 
BRANCH  12  13
HETATM   13  C   UNL     1     -20.067 -11.762  -0.041  1.00  0.00     0.215 C 
HETATM   14  O   UNL     1     -19.244 -11.226  -0.772  1.00  0.00    -0.274 OA
HETATM   15  N   UNL     1     -20.035 -13.107   0.183  1.00  0.00    -0.370 N 
HETATM   16  H   UNL     1     -20.722 -13.595   0.740  1.00  0.00     0.159 HD
HETATM   17  H   UNL     1     -19.308 -13.643  -0.275  1.00  0.00     0.159 HD
ENDBRANCH  12  13
ENDBRANCH  11  12
ENDBRANCH  10  11
BRANCH  10  18
HETATM   18  C   UNL     1     -22.619  -7.718  -0.357  1.00  0.00     0.238 C 
HETATM   19  O   UNL     1     -22.529  -6.631  -0.922  1.00  0.00    -0.271 OA
HETATM   20  N   UNL     1     -23.528  -7.915   0.644  1.00  0.00    -0.368 N 
HETATM   21  H   UNL     1     -23.661  -8.806   1.106  1.00  0.00     0.159 HD
HETATM   22  H   UNL     1     -24.152  -7.154   0.889  1.00  0.00     0.159 HD
ENDBRANCH  10  18
ENDBRANCH   8  10
ENDBRANCH   1   6
BRANCH   1  23
HETATM   23  N   UNL     1     -18.921  -9.511  -4.467  1.00  0.00    -0.346 N 
HETATM   24  C   UNL     1     -17.806  -9.702  -3.681  1.00  0.00     0.241 C 
HETATM   25  O   UNL     1     -17.662  -9.058  -2.634  1.00  0.00    -0.271 OA
HETATM   26  H   UNL     1     -19.128 -10.191  -5.195  1.00  0.00     0.163 HD
BRANCH  24  27
HETATM   27  C   UNL     1     -16.590 -10.553  -4.238  1.00  0.00     0.179 C 
HETATM   28  C   UNL     1     -16.637 -10.317  -5.769  1.00  0.00     0.037 C 
HETATM   29  C   UNL     1     -15.545 -11.194  -6.339  1.00  0.00     0.022 C 
HETATM   30  C   UNL     1     -15.508 -12.374  -5.397  1.00  0.00     0.127 C 
HETATM   31  N   UNL     1     -16.264 -12.007  -4.192  1.00  0.00    -0.337 N 
HETATM   32  C   UNL     1     -15.954 -12.832  -3.112  1.00  0.00     0.256 C 
HETATM   33  O   UNL     1     -15.248 -13.840  -3.298  1.00  0.00    -0.271 OA
BRANCH  32  34
HETATM   34  CA  UNL     1     -16.472 -12.630  -1.686  1.00  0.00     0.332 C 
BRANCH  34  35
HETATM   35  C   UNL     1     -16.177 -13.900  -0.863  1.00  0.00     0.209 C 
BRANCH  35  36
HETATM   36  O   UNL     1     -14.834 -13.893  -0.375  1.00  0.00    -0.398 OA
HETATM   37  H   UNL     1     -14.266 -13.599  -1.106  1.00  0.00     0.209 HD
ENDBRANCH  35  36
ENDBRANCH  34  35
BRANCH  34  38
HETATM   38  N   UNL     1     -16.025 -11.403  -1.011  1.00  0.00     0.094 N 
HETATM   39  H1  UNL     1     -16.820 -10.792  -0.834  1.00  0.00     0.314 HD
HETATM   40  H2  UNL     1     -15.421 -10.901  -1.665  1.00  0.00     0.314 HD
ENDBRANCH  34  38
ENDBRANCH  32  34
ENDBRANCH  24  27
ENDBRANCH   1  23
TORSDOF 14
ENDMDL
MODEL 7
REMARK VINA RESULT:      -6.3      4.226      7.098
REMARK  14 active torsions:
REMARK  status: ('A' for Active; 'I' for Inactive)
REMARK    1  A    between atoms: C_2  and  C_4 
REMARK    2  A    between atoms: C_4  and  C_5 
REMARK    3  A    between atoms: C_5  and  C_6 
REMARK    4  A    between atoms: C_5  and  N_18 
REMARK       I    between atoms: C_6  and  N_8 
REMARK    5  A    between atoms: N_8  and  C_9 
REMARK    6  A    between atoms: C_9  and  C_10 
REMARK    7  A    between atoms: C_9  and  C_15 
REMARK    8  A    between atoms: C_10  and  C_11 
REMARK    9  A    between atoms: C_11  and  C_12 
REMARK       I    between atoms: C_12  and  N_14 
REMARK       I    between atoms: C_15  and  N_17 
REMARK       I    between atoms: N_18  and  C_19 
REMARK   10  A    between atoms: C_19  and  C_21 
REMARK       I    between atoms: N_25  and  C_26 
REMARK   11  A    between atoms: C_26  and  CA_28 
REMARK   12  A    between atoms: CA_28  and  C_29 
REMARK   13  A    between atoms: CA_28  and  N_31 
REMARK   14  A    between atoms: C_29  and  O_30 
ROOT
HETATM    1  C   UNL     1     -19.697  -8.514  -4.455  1.00  0.00     0.177 C 
ENDROOT
BRANCH   1   2
HETATM    2  C   UNL     1     -21.227  -8.209  -4.448  1.00  0.00     0.038 C 
BRANCH   2   3
HETATM    3  C   UNL     1     -21.667  -6.739  -4.253  1.00  0.00    -0.020 C 
HETATM    4  C   UNL     1     -21.661  -6.301  -2.787  1.00  0.00     0.009 C 
HETATM    5  C   UNL     1     -20.797  -5.766  -5.066  1.00  0.00     0.009 C 
ENDBRANCH   2   3
ENDBRANCH   1   2
BRANCH   1   6
HETATM    6  C   UNL     1     -19.258  -9.186  -3.116  1.00  0.00     0.241 C 
HETATM    7  O   UNL     1     -18.065  -9.314  -2.839  1.00  0.00    -0.271 OA
HETATM    8  N   UNL     1     -20.246  -9.668  -2.273  1.00  0.00    -0.346 N 
HETATM    9  H   UNL     1     -21.225  -9.631  -2.539  1.00  0.00     0.163 HD
BRANCH   8  10
HETATM   10  C   UNL     1     -19.915 -10.523  -1.123  1.00  0.00     0.176 C 
BRANCH  10  11
HETATM   11  C   UNL     1     -20.634 -10.091   0.161  1.00  0.00     0.044 C 
BRANCH  11  12
HETATM   12  C   UNL     1     -21.441  -8.797   0.027  1.00  0.00     0.105 C 
BRANCH  12  13
HETATM   13  C   UNL     1     -22.930  -9.072   0.022  1.00  0.00     0.215 C 
HETATM   14  O   UNL     1     -23.456 -10.061  -0.472  1.00  0.00    -0.274 OA
HETATM   15  N   UNL     1     -23.682  -8.099   0.611  1.00  0.00    -0.370 N 
HETATM   16  H   UNL     1     -23.292  -7.246   0.988  1.00  0.00     0.159 HD
HETATM   17  H   UNL     1     -24.686  -8.224   0.625  1.00  0.00     0.159 HD
ENDBRANCH  12  13
ENDBRANCH  11  12
ENDBRANCH  10  11
BRANCH  10  18
HETATM   18  C   UNL     1     -20.158 -12.016  -1.443  1.00  0.00     0.238 C 
HETATM   19  O   UNL     1     -19.260 -12.854  -1.452  1.00  0.00    -0.271 OA
HETATM   20  N   UNL     1     -21.447 -12.366  -1.736  1.00  0.00    -0.368 N 
HETATM   21  H   UNL     1     -22.221 -11.714  -1.700  1.00  0.00     0.159 HD
HETATM   22  H   UNL     1     -21.652 -13.339  -1.928  1.00  0.00     0.159 HD
ENDBRANCH  10  18
ENDBRANCH   8  10
ENDBRANCH   1   6
BRANCH   1  23
HETATM   23  N   UNL     1     -19.373  -9.480  -5.552  1.00  0.00    -0.346 N 
HETATM   24  C   UNL     1     -19.817 -10.783  -5.582  1.00  0.00     0.241 C 
HETATM   25  O   UNL     1     -20.570 -11.207  -4.697  1.00  0.00    -0.271 OA
HETATM   26  H   UNL     1     -18.940  -9.091  -6.387  1.00  0.00     0.163 HD
BRANCH  24  27
HETATM   27  C   UNL     1     -19.168 -11.810  -6.600  1.00  0.00     0.179 C 
HETATM   28  C   UNL     1     -20.384 -12.433  -7.332  1.00  0.00     0.037 C 
HETATM   29  C   UNL     1     -19.799 -13.488  -8.244  1.00  0.00     0.022 C 
HETATM   30  C   UNL     1     -18.585 -13.977  -7.490  1.00  0.00     0.127 C 
HETATM   31  N   UNL     1     -18.309 -13.015  -6.417  1.00  0.00    -0.337 N 
HETATM   32  C   UNL     1     -17.006 -13.133  -5.935  1.00  0.00     0.256 C 
HETATM   33  O   UNL     1     -16.302 -14.089  -6.309  1.00  0.00    -0.271 OA
BRANCH  32  34
HETATM   34  CA  UNL     1     -16.369 -12.192  -4.909  1.00  0.00     0.332 C 
BRANCH  34  35
HETATM   35  C   UNL     1     -15.960 -10.885  -5.617  1.00  0.00     0.209 C 
BRANCH  35  36
HETATM   36  O   UNL     1     -16.236  -9.749  -4.793  1.00  0.00    -0.398 OA
HETATM   37  H   UNL     1     -16.294  -8.979  -5.381  1.00  0.00     0.209 HD
ENDBRANCH  35  36
ENDBRANCH  34  35
BRANCH  34  38
HETATM   38  N   UNL     1     -17.152 -11.952  -3.689  1.00  0.00     0.094 N 
HETATM   39  H1  UNL     1     -17.204 -10.953  -3.498  1.00  0.00     0.314 HD
HETATM   40  H2  UNL     1     -16.633 -12.364  -2.911  1.00  0.00     0.314 HD
ENDBRANCH  34  38
ENDBRANCH  32  34
ENDBRANCH  24  27
ENDBRANCH   1  23
TORSDOF 14
ENDMDL
MODEL 8
REMARK VINA RESULT:      -6.3      4.467      9.548
REMARK  14 active torsions:
REMARK  status: ('A' for Active; 'I' for Inactive)
REMARK    1  A    between atoms: C_2  and  C_4 
REMARK    2  A    between atoms: C_4  and  C_5 
REMARK    3  A    between atoms: C_5  and  C_6 
REMARK    4  A    between atoms: C_5  and  N_18 
REMARK       I    between atoms: C_6  and  N_8 
REMARK    5  A    between atoms: N_8  and  C_9 
REMARK    6  A    between atoms: C_9  and  C_10 
REMARK    7  A    between atoms: C_9  and  C_15 
REMARK    8  A    between atoms: C_10  and  C_11 
REMARK    9  A    between atoms: C_11  and  C_12 
REMARK       I    between atoms: C_12  and  N_14 
REMARK       I    between atoms: C_15  and  N_17 
REMARK       I    between atoms: N_18  and  C_19 
REMARK   10  A    between atoms: C_19  and  C_21 
REMARK       I    between atoms: N_25  and  C_26 
REMARK   11  A    between atoms: C_26  and  CA_28 
REMARK   12  A    between atoms: CA_28  and  C_29 
REMARK   13  A    between atoms: CA_28  and  N_31 
REMARK   14  A    between atoms: C_29  and  O_30 
ROOT
HETATM    1  C   UNL     1     -17.246 -10.367  -4.193  1.00  0.00     0.177 C 
ENDROOT
BRANCH   1   2
HETATM    2  C   UNL     1     -16.208  -9.922  -5.271  1.00  0.00     0.038 C 
BRANCH   2   3
HETATM    3  C   UNL     1     -15.594 -11.017  -6.174  1.00  0.00    -0.020 C 
HETATM    4  C   UNL     1     -14.426 -11.754  -5.514  1.00  0.00     0.009 C 
HETATM    5  C   UNL     1     -16.643 -12.050  -6.621  1.00  0.00     0.009 C 
ENDBRANCH   2   3
ENDBRANCH   1   2
BRANCH   1   6
HETATM    6  C   UNL     1     -16.563 -10.529  -2.799  1.00  0.00     0.241 C 
HETATM    7  O   UNL     1     -15.661  -9.767  -2.449  1.00  0.00    -0.271 OA
HETATM    8  N   UNL     1     -16.973 -11.576  -1.989  1.00  0.00    -0.346 N 
HETATM    9  H   UNL     1     -17.662 -12.249  -2.311  1.00  0.00     0.163 HD
BRANCH   8  10
HETATM   10  C   UNL     1     -16.221 -11.942  -0.780  1.00  0.00     0.176 C 
BRANCH  10  11
HETATM   11  C   UNL     1     -17.128 -12.155   0.439  1.00  0.00     0.044 C 
BRANCH  11  12
HETATM   12  C   UNL     1     -18.368 -13.008   0.161  1.00  0.00     0.105 C 
BRANCH  12  13
HETATM   13  C   UNL     1     -19.612 -12.154   0.040  1.00  0.00     0.215 C 
HETATM   14  O   UNL     1     -19.830 -11.141   0.693  1.00  0.00    -0.274 OA
HETATM   15  N   UNL     1     -20.520 -12.612  -0.868  1.00  0.00    -0.370 N 
HETATM   16  H   UNL     1     -20.400 -13.467  -1.393  1.00  0.00     0.159 HD
HETATM   17  H   UNL     1     -21.378 -12.086  -0.982  1.00  0.00     0.159 HD
ENDBRANCH  12  13
ENDBRANCH  11  12
ENDBRANCH  10  11
BRANCH  10  18
HETATM   18  C   UNL     1     -15.305 -13.162  -1.033  1.00  0.00     0.238 C 
HETATM   19  O   UNL     1     -14.511 -13.588  -0.199  1.00  0.00    -0.271 OA
HETATM   20  N   UNL     1     -15.413 -13.748  -2.264  1.00  0.00    -0.368 N 
HETATM   21  H   UNL     1     -16.082 -13.452  -2.963  1.00  0.00     0.159 HD
HETATM   22  H   UNL     1     -14.846 -14.565  -2.462  1.00  0.00     0.159 HD
ENDBRANCH  10  18
ENDBRANCH   8  10
ENDBRANCH   1   6
BRANCH   1  23
HETATM   23  N   UNL     1     -18.305  -9.321  -4.040  1.00  0.00    -0.346 N 
HETATM   24  C   UNL     1     -19.565  -9.573  -3.545  1.00  0.00     0.241 C 
HETATM   25  O   UNL     1     -19.865 -10.705  -3.147  1.00  0.00    -0.271 OA
HETATM   26  H   UNL     1     -18.009  -8.355  -4.157  1.00  0.00     0.163 HD
BRANCH  24  27
HETATM   27  C   UNL     1     -20.707  -8.489  -3.719  1.00  0.00     0.179 C 
HETATM   28  C   UNL     1     -20.260  -7.668  -4.956  1.00  0.00     0.037 C 
HETATM   29  C   UNL     1     -21.284  -6.563  -5.089  1.00  0.00     0.022 C 
HETATM   30  C   UNL     1     -21.698  -6.287  -3.663  1.00  0.00     0.127 C 
HETATM   31  N   UNL     1     -21.217  -7.401  -2.836  1.00  0.00    -0.337 N 
HETATM   32  C   UNL     1     -21.883  -7.465  -1.613  1.00  0.00     0.256 C 
HETATM   33  O   UNL     1     -22.645  -6.538  -1.283  1.00  0.00    -0.271 OA
BRANCH  32  34
HETATM   34  CA  UNL     1     -21.705  -8.585  -0.583  1.00  0.00     0.332 C 
BRANCH  34  35
HETATM   35  C   UNL     1     -21.768  -7.975   0.832  1.00  0.00     0.209 C 
BRANCH  35  36
HETATM   36  O   UNL     1     -20.880  -8.656   1.722  1.00  0.00    -0.398 OA
HETATM   37  H   UNL     1     -21.378  -8.841   2.534  1.00  0.00     0.209 HD
ENDBRANCH  35  36
ENDBRANCH  34  35
BRANCH  34  38
HETATM   38  N   UNL     1     -22.594  -9.744  -0.739  1.00  0.00     0.094 N 
HETATM   39  H1  UNL     1     -22.895  -9.826  -1.708  1.00  0.00     0.314 HD
HETATM   40  H2  UNL     1     -23.438  -9.552  -0.195  1.00  0.00     0.314 HD
ENDBRANCH  34  38
ENDBRANCH  32  34
ENDBRANCH  24  27
ENDBRANCH   1  23
TORSDOF 14
ENDMDL
MODEL 9
REMARK VINA RESULT:      -6.2      3.867      7.391
REMARK  14 active torsions:
REMARK  status: ('A' for Active; 'I' for Inactive)
REMARK    1  A    between atoms: C_2  and  C_4 
REMARK    2  A    between atoms: C_4  and  C_5 
REMARK    3  A    between atoms: C_5  and  C_6 
REMARK    4  A    between atoms: C_5  and  N_18 
REMARK       I    between atoms: C_6  and  N_8 
REMARK    5  A    between atoms: N_8  and  C_9 
REMARK    6  A    between atoms: C_9  and  C_10 
REMARK    7  A    between atoms: C_9  and  C_15 
REMARK    8  A    between atoms: C_10  and  C_11 
REMARK    9  A    between atoms: C_11  and  C_12 
REMARK       I    between atoms: C_12  and  N_14 
REMARK       I    between atoms: C_15  and  N_17 
REMARK       I    between atoms: N_18  and  C_19 
REMARK   10  A    between atoms: C_19  and  C_21 
REMARK       I    between atoms: N_25  and  C_26 
REMARK   11  A    between atoms: C_26  and  CA_28 
REMARK   12  A    between atoms: CA_28  and  C_29 
REMARK   13  A    between atoms: CA_28  and  N_31 
REMARK   14  A    between atoms: C_29  and  O_30 
ROOT
HETATM    1  C   UNL     1     -20.777  -7.649  -3.417  1.00  0.00     0.177 C 
ENDROOT
BRANCH   1   2
HETATM    2  C   UNL     1     -21.387  -6.568  -4.363  1.00  0.00     0.038 C 
BRANCH   2   3
HETATM    3  C   UNL     1     -20.523  -6.079  -5.549  1.00  0.00    -0.020 C 
HETATM    4  C   UNL     1     -21.210  -6.257  -6.905  1.00  0.00     0.009 C 
HETATM    5  C   UNL     1     -20.111  -4.605  -5.392  1.00  0.00     0.009 C 
ENDBRANCH   2   3
ENDBRANCH   1   2
BRANCH   1   6
HETATM    6  C   UNL     1     -21.645  -7.815  -2.130  1.00  0.00     0.241 C 
HETATM    7  O   UNL     1     -22.098  -6.829  -1.547  1.00  0.00    -0.271 OA
HETATM    8  N   UNL     1     -21.852  -9.095  -1.643  1.00  0.00    -0.346 N 
HETATM    9  H   UNL     1     -21.413  -9.900  -2.081  1.00  0.00     0.163 HD
BRANCH   8  10
HETATM   10  C   UNL     1     -22.443  -9.318  -0.316  1.00  0.00     0.176 C 
BRANCH  10  11
HETATM   11  C   UNL     1     -23.584 -10.344  -0.340  1.00  0.00     0.044 C 
BRANCH  11  12
HETATM   12  C   UNL     1     -23.566 -11.276  -1.555  1.00  0.00     0.105 C 
BRANCH  12  13
HETATM   13  C   UNL     1     -23.396 -12.722  -1.140  1.00  0.00     0.215 C 
HETATM   14  O   UNL     1     -24.306 -13.536  -1.054  1.00  0.00    -0.274 OA
HETATM   15  N   UNL     1     -22.113 -13.071  -0.839  1.00  0.00    -0.370 N 
HETATM   16  H   UNL     1     -21.341 -12.420  -0.851  1.00  0.00     0.159 HD
HETATM   17  H   UNL     1     -21.942 -14.024  -0.542  1.00  0.00     0.159 HD
ENDBRANCH  12  13
ENDBRANCH  11  12
ENDBRANCH  10  11
BRANCH  10  18
HETATM   18  C   UNL     1     -21.363  -9.685   0.728  1.00  0.00     0.238 C 
HETATM   19  O   UNL     1     -20.893 -10.814   0.836  1.00  0.00    -0.271 OA
HETATM   20  N   UNL     1     -20.958  -8.674   1.554  1.00  0.00    -0.368 N 
HETATM   21  H   UNL     1     -21.292  -7.722   1.470  1.00  0.00     0.159 HD
HETATM   22  H   UNL     1     -20.234  -8.867   2.236  1.00  0.00     0.159 HD
ENDBRANCH  10  18
ENDBRANCH   8  10
ENDBRANCH   1   6
BRANCH   1  23
HETATM   23  N   UNL     1     -20.761  -8.978  -4.104  1.00  0.00    -0.346 N 
HETATM   24  C   UNL     1     -19.616  -9.589  -4.566  1.00  0.00     0.241 C 
HETATM   25  O   UNL     1     -18.510  -9.066  -4.379  1.00  0.00    -0.271 OA
HETATM   26  H   UNL     1     -21.624  -9.517  -4.073  1.00  0.00     0.163 HD
BRANCH  24  27
HETATM   27  C   UNL     1     -19.729 -10.824  -5.553  1.00  0.00     0.179 C 
HETATM   28  C   UNL     1     -21.252 -10.963  -5.807  1.00  0.00     0.037 C 
HETATM   29  C   UNL     1     -21.398 -12.195  -6.672  1.00  0.00     0.022 C 
HETATM   30  C   UNL     1     -20.261 -13.082  -6.224  1.00  0.00     0.127 C 
HETATM   31  N   UNL     1     -19.337 -12.258  -5.434  1.00  0.00    -0.337 N 
HETATM   32  C   UNL     1     -18.078 -12.846  -5.326  1.00  0.00     0.256 C 
HETATM   33  O   UNL     1     -17.912 -14.011  -5.730  1.00  0.00    -0.271 OA
BRANCH  32  34
HETATM   34  CA  UNL     1     -16.859 -12.181  -4.680  1.00  0.00     0.332 C 
BRANCH  34  35
HETATM   35  C   UNL     1     -16.199 -11.242  -5.709  1.00  0.00     0.209 C 
BRANCH  35  36
HETATM   36  O   UNL     1     -15.921  -9.964  -5.131  1.00  0.00    -0.398 OA
HETATM   37  H   UNL     1     -16.608  -9.797  -4.466  1.00  0.00     0.209 HD
ENDBRANCH  35  36
ENDBRANCH  34  35
BRANCH  34  38
HETATM   38  N   UNL     1     -17.100 -11.523  -3.388  1.00  0.00     0.094 N 
HETATM   39  H1  UNL     1     -16.670 -10.600  -3.381  1.00  0.00     0.314 HD
HETATM   40  H2  UNL     1     -16.613 -12.069  -2.675  1.00  0.00     0.314 HD
ENDBRANCH  34  38
ENDBRANCH  32  34
ENDBRANCH  24  27
ENDBRANCH   1  23
TORSDOF 14
ENDMDL
