MODEL 1
REMARK VINA RESULT:      -6.3      0.000      0.000
REMARK  15 active torsions:
REMARK  status: ('A' for Active; 'I' for Inactive)
REMARK    1  A    between atoms: C_2  and  C_3 
REMARK    2  A    between atoms: C_3  and  C_4 
REMARK    3  A    between atoms: C_4  and  C_5 
REMARK    4  A    between atoms: C_5  and  C_6 
REMARK    5  A    between atoms: C_6  and  C_7 
REMARK    6  A    between atoms: C_7  and  C_8 
REMARK    7  A    between atoms: C_8  and  C_9 
REMARK    8  A    between atoms: C_9  and  C_10 
REMARK    9  A    between atoms: C_10  and  C_11 
REMARK   10  A    between atoms: C_11  and  C_12 
REMARK   11  A    between atoms: C_12  and  C_13 
REMARK   12  A    between atoms: C_13  and  C_14 
REMARK   13  A    between atoms: C_14  and  C_15 
REMARK   14  A    between atoms: C_15  and  C_16 
REMARK   15  A    between atoms: C_16  and  C_17 
ROOT
HETATM    1  C   UNL     1     -20.170  -6.535  -5.977  1.00  0.00     0.000 C 
ENDROOT
BRANCH   1   2
HETATM    2  C   UNL     1     -20.797  -7.298  -4.825  1.00  0.00     0.000 C 
BRANCH   2   3
HETATM    3  C   UNL     1     -21.988  -6.529  -4.286  1.00  0.00     0.000 C 
BRANCH   3   4
HETATM    4  C   UNL     1     -21.908  -6.448  -2.773  1.00  0.00     0.000 C 
BRANCH   4   5
HETATM    5  C   UNL     1     -20.806  -7.359  -2.266  1.00  0.00     0.000 C 
BRANCH   5   6
HETATM    6  C   UNL     1     -21.226  -7.995  -0.951  1.00  0.00     0.000 C 
BRANCH   6   7
HETATM    7  C   UNL     1     -22.424  -7.260  -0.378  1.00  0.00    -0.000 C 
BRANCH   7   8
HETATM    8  C   UNL     1     -23.229  -8.185   0.523  1.00  0.00    -0.005 C 
HETATM    9  C   UNL     1     -23.233  -9.590  -0.042  1.00  0.00     0.005 C 
ENDBRANCH   7   8
ENDBRANCH   6   7
ENDBRANCH   5   6
ENDBRANCH   4   5
ENDBRANCH   3   4
ENDBRANCH   2   3
ENDBRANCH   1   2
BRANCH   1  10
HETATM   10  C   UNL     1     -20.313  -5.043  -5.745  1.00  0.00     0.000 C 
BRANCH  10  11
HETATM   11  C   UNL     1     -20.126  -4.297  -7.053  1.00  0.00     0.000 C 
BRANCH  11  12
HETATM   12  C   UNL     1     -21.366  -3.480  -7.363  1.00  0.00     0.000 C 
BRANCH  12  13
HETATM   13  C   UNL     1     -22.590  -4.377  -7.360  1.00  0.00     0.000 C 
BRANCH  13  14
HETATM   14  C   UNL     1     -23.468  -4.064  -8.560  1.00  0.00     0.000 C 
BRANCH  14  15
HETATM   15  C   UNL     1     -22.887  -4.705  -9.811  1.00  0.00     0.004 C 
BRANCH  15  16
HETATM   16  C   UNL     1     -22.606  -3.643 -10.863  1.00  0.00     0.026 C 
BRANCH  16  17
HETATM   17  C   UNL     1     -21.279  -3.874 -11.522  1.00  0.00    -0.037 C 
HETATM   18  C   UNL     1     -20.244  -4.394 -10.864  1.00  0.00     0.007 C 
ENDBRANCH  16  17
ENDBRANCH  15  16
ENDBRANCH  14  15
ENDBRANCH  13  14
ENDBRANCH  12  13
ENDBRANCH  11  12
ENDBRANCH  10  11
ENDBRANCH   1  10
TORSDOF 15
ENDMDL
MODEL 2
REMARK VINA RESULT:      -6.1     13.238     16.039
REMARK  15 active torsions:
REMARK  status: ('A' for Active; 'I' for Inactive)
REMARK    1  A    between atoms: C_2  and  C_3 
REMARK    2  A    between atoms: C_3  and  C_4 
REMARK    3  A    between atoms: C_4  and  C_5 
REMARK    4  A    between atoms: C_5  and  C_6 
REMARK    5  A    between atoms: C_6  and  C_7 
REMARK    6  A    between atoms: C_7  and  C_8 
REMARK    7  A    between atoms: C_8  and  C_9 
REMARK    8  A    between atoms: C_9  and  C_10 
REMARK    9  A    between atoms: C_10  and  C_11 
REMARK   10  A    between atoms: C_11  and  C_12 
REMARK   11  A    between atoms: C_12  and  C_13 
REMARK   12  A    between atoms: C_13  and  C_14 
REMARK   13  A    between atoms: C_14  and  C_15 
REMARK   14  A    between atoms: C_15  and  C_16 
REMARK   15  A    between atoms: C_16  and  C_17 
ROOT
HETATM    1  C   UNL     1     -34.794  -0.483 -12.185  1.00  0.00     0.000 C 
ENDROOT
BRANCH   1   2
HETATM    2  C   UNL     1     -36.102   0.273 -12.048  1.00  0.00     0.000 C 
BRANCH   2   3
HETATM    3  C   UNL     1     -37.179  -0.654 -11.517  1.00  0.00     0.000 C 
BRANCH   3   4
HETATM    4  C   UNL     1     -37.915   0.014 -10.370  1.00  0.00     0.000 C 
BRANCH   4   5
HETATM    5  C   UNL     1     -36.958   0.894  -9.587  1.00  0.00     0.000 C 
BRANCH   5   6
HETATM    6  C   UNL     1     -37.582   1.279  -8.256  1.00  0.00     0.000 C 
BRANCH   6   7
HETATM    7  C   UNL     1     -36.719   0.774  -7.113  1.00  0.00    -0.000 C 
BRANCH   7   8
HETATM    8  C   UNL     1     -37.586   0.133  -6.041  1.00  0.00    -0.005 C 
HETATM    9  C   UNL     1     -37.234   0.695  -4.678  1.00  0.00     0.005 C 
ENDBRANCH   7   8
ENDBRANCH   6   7
ENDBRANCH   5   6
ENDBRANCH   4   5
ENDBRANCH   3   4
ENDBRANCH   2   3
ENDBRANCH   1   2
BRANCH   1  10
HETATM   10  C   UNL     1     -34.853  -1.765 -11.375  1.00  0.00     0.000 C 
BRANCH  10  11
HETATM   11  C   UNL     1     -33.483  -2.075 -10.801  1.00  0.00     0.000 C 
BRANCH  11  12
HETATM   12  C   UNL     1     -32.965  -3.378 -11.380  1.00  0.00     0.000 C 
BRANCH  12  13
HETATM   13  C   UNL     1     -33.884  -3.852 -12.490  1.00  0.00     0.000 C 
BRANCH  13  14
HETATM   14  C   UNL     1     -34.705  -5.039 -12.015  1.00  0.00     0.000 C 
BRANCH  14  15
HETATM   15  C   UNL     1     -33.857  -5.936 -11.127  1.00  0.00     0.004 C 
BRANCH  15  16
HETATM   16  C   UNL     1     -34.657  -6.382  -9.913  1.00  0.00     0.026 C 
BRANCH  16  17
HETATM   17  C   UNL     1     -34.849  -7.868  -9.909  1.00  0.00    -0.037 C 
HETATM   18  C   UNL     1     -33.822  -8.714  -9.828  1.00  0.00     0.007 C 
ENDBRANCH  16  17
ENDBRANCH  15  16
ENDBRANCH  14  15
ENDBRANCH  13  14
ENDBRANCH  12  13
ENDBRANCH  11  12
ENDBRANCH  10  11
ENDBRANCH   1  10
TORSDOF 15
ENDMDL
MODEL 3
REMARK VINA RESULT:      -6.0     13.311     16.000
REMARK  15 active torsions:
REMARK  status: ('A' for Active; 'I' for Inactive)
REMARK    1  A    between atoms: C_2  and  C_3 
REMARK    2  A    between atoms: C_3  and  C_4 
REMARK    3  A    between atoms: C_4  and  C_5 
REMARK    4  A    between atoms: C_5  and  C_6 
REMARK    5  A    between atoms: C_6  and  C_7 
REMARK    6  A    between atoms: C_7  and  C_8 
REMARK    7  A    between atoms: C_8  and  C_9 
REMARK    8  A    between atoms: C_9  and  C_10 
REMARK    9  A    between atoms: C_10  and  C_11 
REMARK   10  A    between atoms: C_11  and  C_12 
REMARK   11  A    between atoms: C_12  and  C_13 
REMARK   12  A    between atoms: C_13  and  C_14 
REMARK   13  A    between atoms: C_14  and  C_15 
REMARK   14  A    between atoms: C_15  and  C_16 
REMARK   15  A    between atoms: C_16  and  C_17 
ROOT
HETATM    1  C   UNL     1     -34.829  -1.809 -12.580  1.00  0.00     0.000 C 
ENDROOT
BRANCH   1   2
HETATM    2  C   UNL     1     -34.097  -1.541 -11.279  1.00  0.00     0.000 C 
BRANCH   2   3
HETATM    3  C   UNL     1     -33.109  -2.659 -11.004  1.00  0.00     0.000 C 
BRANCH   3   4
HETATM    4  C   UNL     1     -33.856  -3.949 -10.722  1.00  0.00     0.000 C 
BRANCH   4   5
HETATM    5  C   UNL     1     -33.319  -5.060 -11.605  1.00  0.00     0.000 C 
BRANCH   5   6
HETATM    6  C   UNL     1     -33.442  -6.394 -10.890  1.00  0.00     0.000 C 
BRANCH   6   7
HETATM    7  C   UNL     1     -34.827  -6.533 -10.284  1.00  0.00    -0.000 C 
BRANCH   7   8
HETATM    8  C   UNL     1     -34.941  -7.844  -9.522  1.00  0.00    -0.005 C 
HETATM    9  C   UNL     1     -33.812  -8.776  -9.914  1.00  0.00     0.005 C 
ENDBRANCH   7   8
ENDBRANCH   6   7
ENDBRANCH   5   6
ENDBRANCH   4   5
ENDBRANCH   3   4
ENDBRANCH   2   3
ENDBRANCH   1   2
BRANCH   1  10
HETATM   10  C   UNL     1     -35.178  -0.496 -13.255  1.00  0.00     0.000 C 
BRANCH  10  11
HETATM   11  C   UNL     1     -36.074   0.327 -12.347  1.00  0.00     0.000 C 
BRANCH  11  12
HETATM   12  C   UNL     1     -37.445  -0.315 -12.256  1.00  0.00     0.000 C 
BRANCH  12  13
HETATM   13  C   UNL     1     -38.061  -0.028 -10.898  1.00  0.00     0.000 C 
BRANCH  13  14
HETATM   14  C   UNL     1     -36.996  -0.103  -9.817  1.00  0.00     0.000 C 
BRANCH  14  15
HETATM   15  C   UNL     1     -37.205   1.011  -8.803  1.00  0.00     0.004 C 
BRANCH  15  16
HETATM   16  C   UNL     1     -36.499   0.674  -7.499  1.00  0.00     0.026 C 
BRANCH  16  17
HETATM   17  C   UNL     1     -37.478   0.546  -6.371  1.00  0.00    -0.037 C 
HETATM   18  C   UNL     1     -37.112   0.687  -5.098  1.00  0.00     0.007 C 
ENDBRANCH  16  17
ENDBRANCH  15  16
ENDBRANCH  14  15
ENDBRANCH  13  14
ENDBRANCH  12  13
ENDBRANCH  11  12
ENDBRANCH  10  11
ENDBRANCH   1  10
TORSDOF 15
ENDMDL
MODEL 4
REMARK VINA RESULT:      -6.0      1.035      8.817
REMARK  15 active torsions:
REMARK  status: ('A' for Active; 'I' for Inactive)
REMARK    1  A    between atoms: C_2  and  C_3 
REMARK    2  A    between atoms: C_3  and  C_4 
REMARK    3  A    between atoms: C_4  and  C_5 
REMARK    4  A    between atoms: C_5  and  C_6 
REMARK    5  A    between atoms: C_6  and  C_7 
REMARK    6  A    between atoms: C_7  and  C_8 
REMARK    7  A    between atoms: C_8  and  C_9 
REMARK    8  A    between atoms: C_9  and  C_10 
REMARK    9  A    between atoms: C_10  and  C_11 
REMARK   10  A    between atoms: C_11  and  C_12 
REMARK   11  A    between atoms: C_12  and  C_13 
REMARK   12  A    between atoms: C_13  and  C_14 
REMARK   13  A    between atoms: C_14  and  C_15 
REMARK   14  A    between atoms: C_15  and  C_16 
REMARK   15  A    between atoms: C_16  and  C_17 
ROOT
HETATM    1  C   UNL     1     -21.032  -6.375  -6.129  1.00  0.00     0.000 C 
ENDROOT
BRANCH   1   2
HETATM    2  C   UNL     1     -20.500  -4.994  -5.794  1.00  0.00     0.000 C 
BRANCH   2   3
HETATM    3  C   UNL     1     -20.749  -4.050  -6.955  1.00  0.00     0.000 C 
BRANCH   3   4
HETATM    4  C   UNL     1     -21.069  -4.846  -8.206  1.00  0.00     0.000 C 
BRANCH   4   5
HETATM    5  C   UNL     1     -20.305  -4.279  -9.388  1.00  0.00     0.000 C 
BRANCH   5   6
HETATM    6  C   UNL     1     -21.142  -4.400 -10.650  1.00  0.00     0.000 C 
BRANCH   6   7
HETATM    7  C   UNL     1     -22.611  -4.212 -10.319  1.00  0.00    -0.000 C 
BRANCH   7   8
HETATM    8  C   UNL     1     -23.468  -4.493 -11.544  1.00  0.00    -0.005 C 
HETATM    9  C   UNL     1     -24.251  -3.254 -11.930  1.00  0.00     0.005 C 
ENDBRANCH   7   8
ENDBRANCH   6   7
ENDBRANCH   5   6
ENDBRANCH   4   5
ENDBRANCH   3   4
ENDBRANCH   2   3
ENDBRANCH   1   2
BRANCH   1  10
HETATM   10  C   UNL     1     -22.019  -6.818  -5.066  1.00  0.00     0.000 C 
BRANCH  10  11
HETATM   11  C   UNL     1     -21.484  -8.040  -4.343  1.00  0.00     0.000 C 
BRANCH  11  12
HETATM   12  C   UNL     1     -20.945  -7.639  -2.983  1.00  0.00     0.000 C 
BRANCH  12  13
HETATM   13  C   UNL     1     -21.638  -6.376  -2.504  1.00  0.00     0.000 C 
BRANCH  13  14
HETATM   14  C   UNL     1     -22.378  -6.647  -1.206  1.00  0.00     0.000 C 
BRANCH  14  15
HETATM   15  C   UNL     1     -21.650  -7.715  -0.405  1.00  0.00     0.004 C 
BRANCH  15  16
HETATM   16  C   UNL     1     -22.564  -8.281   0.671  1.00  0.00     0.026 C 
BRANCH  16  17
HETATM   17  C   UNL     1     -23.475  -9.330   0.108  1.00  0.00    -0.037 C 
HETATM   18  C   UNL     1     -23.024 -10.316  -0.665  1.00  0.00     0.007 C 
ENDBRANCH  16  17
ENDBRANCH  15  16
ENDBRANCH  14  15
ENDBRANCH  13  14
ENDBRANCH  12  13
ENDBRANCH  11  12
ENDBRANCH  10  11
ENDBRANCH   1  10
TORSDOF 15
ENDMDL
MODEL 5
REMARK VINA RESULT:      -6.0      1.199      2.481
REMARK  15 active torsions:
REMARK  status: ('A' for Active; 'I' for Inactive)
REMARK    1  A    between atoms: C_2  and  C_3 
REMARK    2  A    between atoms: C_3  and  C_4 
REMARK    3  A    between atoms: C_4  and  C_5 
REMARK    4  A    between atoms: C_5  and  C_6 
REMARK    5  A    between atoms: C_6  and  C_7 
REMARK    6  A    between atoms: C_7  and  C_8 
REMARK    7  A    between atoms: C_8  and  C_9 
REMARK    8  A    between atoms: C_9  and  C_10 
REMARK    9  A    between atoms: C_10  and  C_11 
REMARK   10  A    between atoms: C_11  and  C_12 
REMARK   11  A    between atoms: C_12  and  C_13 
REMARK   12  A    between atoms: C_13  and  C_14 
REMARK   13  A    between atoms: C_14  and  C_15 
REMARK   14  A    between atoms: C_15  and  C_16 
REMARK   15  A    between atoms: C_16  and  C_17 
ROOT
HETATM    1  C   UNL     1     -20.527  -5.335  -5.733  1.00  0.00     0.000 C 
ENDROOT
BRANCH   1   2
HETATM    2  C   UNL     1     -20.287  -6.831  -5.813  1.00  0.00     0.000 C 
BRANCH   2   3
HETATM    3  C   UNL     1     -21.479  -7.575  -5.243  1.00  0.00     0.000 C 
BRANCH   3   4
HETATM    4  C   UNL     1     -21.054  -8.958  -4.787  1.00  0.00     0.000 C 
BRANCH   4   5
HETATM    5  C   UNL     1     -21.418  -9.154  -3.327  1.00  0.00     0.000 C 
BRANCH   5   6
HETATM    6  C   UNL     1     -20.663  -8.155  -2.468  1.00  0.00     0.000 C 
BRANCH   6   7
HETATM    7  C   UNL     1     -21.215  -8.164  -1.054  1.00  0.00    -0.000 C 
BRANCH   7   8
HETATM    8  C   UNL     1     -22.290  -7.098  -0.901  1.00  0.00    -0.005 C 
HETATM    9  C   UNL     1     -22.115  -6.024  -1.954  1.00  0.00     0.005 C 
ENDBRANCH   7   8
ENDBRANCH   6   7
ENDBRANCH   5   6
ENDBRANCH   4   5
ENDBRANCH   3   4
ENDBRANCH   2   3
ENDBRANCH   1   2
BRANCH   1  10
HETATM   10  C   UNL     1     -21.645  -4.942  -6.680  1.00  0.00     0.000 C 
BRANCH  10  11
HETATM   11  C   UNL     1     -21.275  -3.665  -7.413  1.00  0.00     0.000 C 
BRANCH  11  12
HETATM   12  C   UNL     1     -20.012  -3.884  -8.224  1.00  0.00     0.000 C 
BRANCH  12  13
HETATM   13  C   UNL     1     -20.343  -4.626  -9.506  1.00  0.00     0.000 C 
BRANCH  13  14
HETATM   14  C   UNL     1     -20.701  -3.637 -10.602  1.00  0.00     0.000 C 
BRANCH  14  15
HETATM   15  C   UNL     1     -21.591  -4.308 -11.637  1.00  0.00     0.004 C 
BRANCH  15  16
HETATM   16  C   UNL     1     -22.945  -4.642 -11.030  1.00  0.00     0.026 C 
BRANCH  16  17
HETATM   17  C   UNL     1     -23.672  -3.400 -10.614  1.00  0.00    -0.037 C 
HETATM   18  C   UNL     1     -24.446  -3.364  -9.530  1.00  0.00     0.007 C 
ENDBRANCH  16  17
ENDBRANCH  15  16
ENDBRANCH  14  15
ENDBRANCH  13  14
ENDBRANCH  12  13
ENDBRANCH  11  12
ENDBRANCH  10  11
ENDBRANCH   1  10
TORSDOF 15
ENDMDL
MODEL 6
REMARK VINA RESULT:      -6.0      1.049      9.010
REMARK  15 active torsions:
REMARK  status: ('A' for Active; 'I' for Inactive)
REMARK    1  A    between atoms: C_2  and  C_3 
REMARK    2  A    between atoms: C_3  and  C_4 
REMARK    3  A    between atoms: C_4  and  C_5 
REMARK    4  A    between atoms: C_5  and  C_6 
REMARK    5  A    between atoms: C_6  and  C_7 
REMARK    6  A    between atoms: C_7  and  C_8 
REMARK    7  A    between atoms: C_8  and  C_9 
REMARK    8  A    between atoms: C_9  and  C_10 
REMARK    9  A    between atoms: C_10  and  C_11 
REMARK   10  A    between atoms: C_11  and  C_12 
REMARK   11  A    between atoms: C_12  and  C_13 
REMARK   12  A    between atoms: C_13  and  C_14 
REMARK   13  A    between atoms: C_14  and  C_15 
REMARK   14  A    between atoms: C_15  and  C_16 
REMARK   15  A    between atoms: C_16  and  C_17 
ROOT
HETATM    1  C   UNL     1     -20.490  -6.736  -5.366  1.00  0.00     0.000 C 
ENDROOT
BRANCH   1   2
HETATM    2  C   UNL     1     -20.787  -6.047  -6.685  1.00  0.00     0.000 C 
BRANCH   2   3
HETATM    3  C   UNL     1     -19.611  -5.180  -7.090  1.00  0.00     0.000 C 
BRANCH   3   4
HETATM    4  C   UNL     1     -20.063  -4.129  -8.087  1.00  0.00     0.000 C 
BRANCH   4   5
HETATM    5  C   UNL     1     -21.555  -3.894  -7.946  1.00  0.00     0.000 C 
BRANCH   5   6
HETATM    6  C   UNL     1     -22.191  -3.772  -9.321  1.00  0.00     0.000 C 
BRANCH   6   7
HETATM    7  C   UNL     1     -21.174  -4.113 -10.395  1.00  0.00    -0.000 C 
BRANCH   7   8
HETATM    8  C   UNL     1     -21.386  -3.236 -11.620  1.00  0.00    -0.005 C 
HETATM    9  C   UNL     1     -22.861  -2.947 -11.807  1.00  0.00     0.005 C 
ENDBRANCH   7   8
ENDBRANCH   6   7
ENDBRANCH   5   6
ENDBRANCH   4   5
ENDBRANCH   3   4
ENDBRANCH   2   3
ENDBRANCH   1   2
BRANCH   1  10
HETATM   10  C   UNL     1     -21.162  -5.986  -4.232  1.00  0.00     0.000 C 
BRANCH  10  11
HETATM   11  C   UNL     1     -21.472  -6.942  -3.095  1.00  0.00     0.000 C 
BRANCH  11  12
HETATM   12  C   UNL     1     -22.232  -6.213  -2.002  1.00  0.00     0.000 C 
BRANCH  12  13
HETATM   13  C   UNL     1     -22.259  -7.057  -0.741  1.00  0.00     0.000 C 
BRANCH  13  14
HETATM   14  C   UNL     1     -21.151  -8.096  -0.785  1.00  0.00     0.000 C 
BRANCH  14  15
HETATM   15  C   UNL     1     -21.674  -9.436  -0.292  1.00  0.00     0.004 C 
BRANCH  15  16
HETATM   16  C   UNL     1     -23.109  -9.295   0.193  1.00  0.00     0.026 C 
BRANCH  16  17
HETATM   17  C   UNL     1     -23.941 -10.466  -0.235  1.00  0.00    -0.037 C 
HETATM   18  C   UNL     1     -23.494 -11.370  -1.105  1.00  0.00     0.007 C 
ENDBRANCH  16  17
ENDBRANCH  15  16
ENDBRANCH  14  15
ENDBRANCH  13  14
ENDBRANCH  12  13
ENDBRANCH  11  12
ENDBRANCH  10  11
ENDBRANCH   1  10
TORSDOF 15
ENDMDL
MODEL 7
REMARK VINA RESULT:      -5.8      1.271      8.664
REMARK  15 active torsions:
REMARK  status: ('A' for Active; 'I' for Inactive)
REMARK    1  A    between atoms: C_2  and  C_3 
REMARK    2  A    between atoms: C_3  and  C_4 
REMARK    3  A    between atoms: C_4  and  C_5 
REMARK    4  A    between atoms: C_5  and  C_6 
REMARK    5  A    between atoms: C_6  and  C_7 
REMARK    6  A    between atoms: C_7  and  C_8 
REMARK    7  A    between atoms: C_8  and  C_9 
REMARK    8  A    between atoms: C_9  and  C_10 
REMARK    9  A    between atoms: C_10  and  C_11 
REMARK   10  A    between atoms: C_11  and  C_12 
REMARK   11  A    between atoms: C_12  and  C_13 
REMARK   12  A    between atoms: C_13  and  C_14 
REMARK   13  A    between atoms: C_14  and  C_15 
REMARK   14  A    between atoms: C_15  and  C_16 
REMARK   15  A    between atoms: C_16  and  C_17 
ROOT
HETATM    1  C   UNL     1     -19.747  -4.967  -6.535  1.00  0.00     0.000 C 
ENDROOT
BRANCH   1   2
HETATM    2  C   UNL     1     -19.361  -4.545  -7.940  1.00  0.00     0.000 C 
BRANCH   2   3
HETATM    3  C   UNL     1     -20.465  -3.698  -8.544  1.00  0.00     0.000 C 
BRANCH   3   4
HETATM    4  C   UNL     1     -20.548  -3.948 -10.038  1.00  0.00     0.000 C 
BRANCH   4   5
HETATM    5  C   UNL     1     -21.850  -4.651 -10.373  1.00  0.00     0.000 C 
BRANCH   5   6
HETATM    6  C   UNL     1     -22.964  -4.123  -9.485  1.00  0.00     0.000 C 
BRANCH   6   7
HETATM    7  C   UNL     1     -23.976  -3.359 -10.320  1.00  0.00    -0.000 C 
BRANCH   7   8
HETATM    8  C   UNL     1     -23.980  -3.879 -11.750  1.00  0.00    -0.005 C 
HETATM    9  C   UNL     1     -23.804  -2.733 -12.724  1.00  0.00     0.005 C 
ENDBRANCH   7   8
ENDBRANCH   6   7
ENDBRANCH   5   6
ENDBRANCH   4   5
ENDBRANCH   3   4
ENDBRANCH   2   3
ENDBRANCH   1   2
BRANCH   1  10
HETATM   10  C   UNL     1     -21.191  -4.592  -6.262  1.00  0.00     0.000 C 
BRANCH  10  11
HETATM   11  C   UNL     1     -21.974  -5.822  -5.845  1.00  0.00     0.000 C 
BRANCH  11  12
HETATM   12  C   UNL     1     -21.023  -6.894  -5.346  1.00  0.00     0.000 C 
BRANCH  12  13
HETATM   13  C   UNL     1     -21.406  -7.309  -3.937  1.00  0.00     0.000 C 
BRANCH  13  14
HETATM   14  C   UNL     1     -21.334  -6.112  -3.004  1.00  0.00     0.000 C 
BRANCH  14  15
HETATM   15  C   UNL     1     -22.236  -6.337  -1.800  1.00  0.00     0.004 C 
BRANCH  15  16
HETATM   16  C   UNL     1     -21.987  -7.714  -1.205  1.00  0.00     0.026 C 
BRANCH  16  17
HETATM   17  C   UNL     1     -22.595  -7.831   0.160  1.00  0.00    -0.037 C 
HETATM   18  C   UNL     1     -21.874  -8.171   1.228  1.00  0.00     0.007 C 
ENDBRANCH  16  17
ENDBRANCH  15  16
ENDBRANCH  14  15
ENDBRANCH  13  14
ENDBRANCH  12  13
ENDBRANCH  11  12
ENDBRANCH  10  11
ENDBRANCH   1  10
TORSDOF 15
ENDMDL
MODEL 8
REMARK VINA RESULT:      -5.8     13.207     16.444
REMARK  15 active torsions:
REMARK  status: ('A' for Active; 'I' for Inactive)
REMARK    1  A    between atoms: C_2  and  C_3 
REMARK    2  A    between atoms: C_3  and  C_4 
REMARK    3  A    between atoms: C_4  and  C_5 
REMARK    4  A    between atoms: C_5  and  C_6 
REMARK    5  A    between atoms: C_6  and  C_7 
REMARK    6  A    between atoms: C_7  and  C_8 
REMARK    7  A    between atoms: C_8  and  C_9 
REMARK    8  A    between atoms: C_9  and  C_10 
REMARK    9  A    between atoms: C_10  and  C_11 
REMARK   10  A    between atoms: C_11  and  C_12 
REMARK   11  A    between atoms: C_12  and  C_13 
REMARK   12  A    between atoms: C_13  and  C_14 
REMARK   13  A    between atoms: C_14  and  C_15 
REMARK   14  A    between atoms: C_15  and  C_16 
REMARK   15  A    between atoms: C_16  and  C_17 
ROOT
HETATM    1  C   UNL     1     -34.453  -1.990  -9.888  1.00  0.00     0.000 C 
ENDROOT
BRANCH   1   2
HETATM    2  C   UNL     1     -35.765  -2.238 -10.607  1.00  0.00     0.000 C 
BRANCH   2   3
HETATM    3  C   UNL     1     -36.805  -1.236 -10.141  1.00  0.00     0.000 C 
BRANCH   3   4
HETATM    4  C   UNL     1     -36.731   0.017 -10.993  1.00  0.00     0.000 C 
BRANCH   4   5
HETATM    5  C   UNL     1     -37.423  -0.222 -12.322  1.00  0.00     0.000 C 
BRANCH   5   6
HETATM    6  C   UNL     1     -36.388  -0.368 -13.425  1.00  0.00     0.000 C 
BRANCH   6   7
HETATM    7  C   UNL     1     -35.098   0.322 -13.020  1.00  0.00    -0.000 C 
BRANCH   7   8
HETATM    8  C   UNL     1     -34.647   1.281 -14.112  1.00  0.00    -0.005 C 
HETATM    9  C   UNL     1     -35.632   1.262 -15.263  1.00  0.00     0.005 C 
ENDBRANCH   7   8
ENDBRANCH   6   7
ENDBRANCH   5   6
ENDBRANCH   4   5
ENDBRANCH   3   4
ENDBRANCH   2   3
ENDBRANCH   1   2
BRANCH   1  10
HETATM   10  C   UNL     1     -33.294  -2.204 -10.843  1.00  0.00     0.000 C 
BRANCH  10  11
HETATM   11  C   UNL     1     -33.740  -3.065 -12.011  1.00  0.00     0.000 C 
BRANCH  11  12
HETATM   12  C   UNL     1     -32.745  -4.188 -12.232  1.00  0.00     0.000 C 
BRANCH  12  13
HETATM   13  C   UNL     1     -33.078  -5.359 -11.326  1.00  0.00     0.000 C 
BRANCH  13  14
HETATM   14  C   UNL     1     -34.526  -5.774 -11.521  1.00  0.00     0.000 C 
BRANCH  14  15
HETATM   15  C   UNL     1     -35.228  -5.862 -10.174  1.00  0.00     0.004 C 
BRANCH  15  16
HETATM   16  C   UNL     1     -34.656  -7.011  -9.358  1.00  0.00     0.026 C 
BRANCH  16  17
HETATM   17  C   UNL     1     -34.508  -8.246 -10.193  1.00  0.00    -0.037 C 
HETATM   18  C   UNL     1     -33.805  -9.299  -9.779  1.00  0.00     0.007 C 
ENDBRANCH  16  17
ENDBRANCH  15  16
ENDBRANCH  14  15
ENDBRANCH  13  14
ENDBRANCH  12  13
ENDBRANCH  11  12
ENDBRANCH  10  11
ENDBRANCH   1  10
TORSDOF 15
ENDMDL
MODEL 9
REMARK VINA RESULT:      -5.7      1.626      4.049
REMARK  15 active torsions:
REMARK  status: ('A' for Active; 'I' for Inactive)
REMARK    1  A    between atoms: C_2  and  C_3 
REMARK    2  A    between atoms: C_3  and  C_4 
REMARK    3  A    between atoms: C_4  and  C_5 
REMARK    4  A    between atoms: C_5  and  C_6 
REMARK    5  A    between atoms: C_6  and  C_7 
REMARK    6  A    between atoms: C_7  and  C_8 
REMARK    7  A    between atoms: C_8  and  C_9 
REMARK    8  A    between atoms: C_9  and  C_10 
REMARK    9  A    between atoms: C_10  and  C_11 
REMARK   10  A    between atoms: C_11  and  C_12 
REMARK   11  A    between atoms: C_12  and  C_13 
REMARK   12  A    between atoms: C_13  and  C_14 
REMARK   13  A    between atoms: C_14  and  C_15 
REMARK   14  A    between atoms: C_15  and  C_16 
REMARK   15  A    between atoms: C_16  and  C_17 
ROOT
HETATM    1  C   UNL     1     -21.605  -7.055  -1.278  1.00  0.00     0.000 C 
ENDROOT
BRANCH   1   2
HETATM    2  C   UNL     1     -22.695  -7.458  -0.304  1.00  0.00     0.000 C 
BRANCH   2   3
HETATM    3  C   UNL     1     -22.130  -8.406   0.737  1.00  0.00     0.000 C 
BRANCH   3   4
HETATM    4  C   UNL     1     -22.033  -9.806   0.161  1.00  0.00     0.000 C 
BRANCH   4   5
HETATM    5  C   UNL     1     -23.408 -10.285  -0.265  1.00  0.00     0.000 C 
BRANCH   5   6
HETATM    6  C   UNL     1     -23.323 -10.957  -1.624  1.00  0.00     0.000 C 
BRANCH   6   7
HETATM    7  C   UNL     1     -21.947 -10.738  -2.227  1.00  0.00    -0.000 C 
BRANCH   7   8
HETATM    8  C   UNL     1     -22.062  -9.998  -3.551  1.00  0.00    -0.005 C 
HETATM    9  C   UNL     1     -21.570 -10.875  -4.684  1.00  0.00     0.005 C 
ENDBRANCH   7   8
ENDBRANCH   6   7
ENDBRANCH   5   6
ENDBRANCH   4   5
ENDBRANCH   3   4
ENDBRANCH   2   3
ENDBRANCH   1   2
BRANCH   1  10
HETATM   10  C   UNL     1     -22.214  -6.319  -2.457  1.00  0.00     0.000 C 
BRANCH  10  11
HETATM   11  C   UNL     1     -21.235  -6.303  -3.617  1.00  0.00     0.000 C 
BRANCH  11  12
HETATM   12  C   UNL     1     -21.989  -6.404  -4.929  1.00  0.00     0.000 C 
BRANCH  12  13
HETATM   13  C   UNL     1     -21.031  -6.215  -6.091  1.00  0.00     0.000 C 
BRANCH  13  14
HETATM   14  C   UNL     1     -20.380  -4.845  -6.013  1.00  0.00     0.000 C 
BRANCH  14  15
HETATM   15  C   UNL     1     -20.897  -3.958  -7.134  1.00  0.00     0.004 C 
BRANCH  15  16
HETATM   16  C   UNL     1     -19.970  -4.037  -8.338  1.00  0.00     0.026 C 
BRANCH  16  17
HETATM   17  C   UNL     1     -20.719  -4.449  -9.570  1.00  0.00    -0.037 C 
HETATM   18  C   UNL     1     -20.541  -3.839 -10.741  1.00  0.00     0.007 C 
ENDBRANCH  16  17
ENDBRANCH  15  16
ENDBRANCH  14  15
ENDBRANCH  13  14
ENDBRANCH  12  13
ENDBRANCH  11  12
ENDBRANCH  10  11
ENDBRANCH   1  10
TORSDOF 15
ENDMDL
