MODEL 1
REMARK VINA RESULT:      -6.0      0.000      0.000
REMARK  27 active torsions:
REMARK  status: ('A' for Active; 'I' for Inactive)
REMARK    1  A    between atoms: C_2  and  C_3 
REMARK    2  A    between atoms: C_3  and  C_4 
REMARK    3  A    between atoms: C_4  and  C_5 
REMARK    4  A    between atoms: C_5  and  C_6 
REMARK    5  A    between atoms: C_7  and  C_8 
REMARK    6  A    between atoms: C_8  and  C_9 
REMARK    7  A    between atoms: C_10  and  C_11 
REMARK    8  A    between atoms: C_11  and  C_12 
REMARK    9  A    between atoms: C_13  and  C_14 
REMARK   10  A    between atoms: C_14  and  C_15 
REMARK   11  A    between atoms: C_16  and  C_17 
REMARK   12  A    between atoms: C_17  and  C_18 
REMARK   13  A    between atoms: C_18  and  C_19 
REMARK   14  A    between atoms: C_19  and  C_20 
REMARK   15  A    between atoms: C_20  and  C_21 
REMARK   16  A    between atoms: C_21  and  C_22 
REMARK   17  A    between atoms: C_22  and  C_23 
REMARK   18  A    between atoms: C_23  and  C_24 
REMARK   19  A    between atoms: C_24  and  C_25 
REMARK   20  A    between atoms: C_25  and  C_26 
REMARK   21  A    between atoms: C_26  and  C_27 
REMARK   22  A    between atoms: C_27  and  C_28 
REMARK   23  A    between atoms: C_28  and  C_29 
REMARK   24  A    between atoms: C_29  and  C_30 
REMARK   25  A    between atoms: C_30  and  C_31 
REMARK   26  A    between atoms: C_47  and  O_85 
REMARK   27  A    between atoms: C_71  and  N_78 
ROOT
HETATM    1  C   UNL     1     -20.460 -13.404  -4.963  1.00  0.00     0.484 C 
HETATM    2  C   UNL     1     -19.113 -13.007  -5.521  1.00  0.00     0.014 C 
HETATM    3  C   UNL     1     -17.982 -13.772  -6.200  1.00  0.00     0.091 C 
HETATM    4  C   UNL     1     -16.860 -12.853  -5.772  1.00  0.00     0.186 C 
HETATM    5  O   UNL     1     -17.080 -11.667  -5.870  1.00  0.00    -0.286 OA
HETATM    6  S   UNL     1     -15.227 -13.580  -5.929  1.00  0.00    -0.091 SA
HETATM    7  C   UNL     1     -14.478 -13.872  -4.396  1.00  0.00     0.102 C 
HETATM    8  C   UNL     1     -13.101 -14.475  -4.322  1.00  0.00     0.133 C 
HETATM    9  N   UNL     1     -12.531 -14.434  -2.969  1.00  0.00    -0.360 N 
HETATM   10  C   UNL     1     -13.245 -14.285  -1.772  1.00  0.00     0.219 C 
HETATM   11  O   UNL     1     -14.472 -14.171  -1.739  1.00  0.00    -0.274 OA
HETATM   12  C   UNL     1     -12.506 -14.185  -0.432  1.00  0.00     0.122 C 
HETATM   13  C   UNL     1     -11.128 -14.809  -0.623  1.00  0.00     0.132 C 
HETATM   14  N   UNL     1     -10.298 -14.892   0.580  1.00  0.00    -0.358 N 
HETATM   15  C   UNL     1     -10.572 -14.166   1.730  1.00  0.00     0.247 C 
HETATM   16  O   UNL     1     -11.348 -13.206   1.744  1.00  0.00    -0.271 OA
HETATM   17  C   UNL     1      -9.741 -14.504   2.956  1.00  0.00     0.219 C 
HETATM   18  C   UNL     1     -10.040 -15.892   3.548  1.00  0.00     0.009 C 
HETATM   19  C   UNL     1      -9.703 -17.067   2.610  1.00  0.00     0.020 C 
HETATM   20  C   UNL     1      -9.226 -16.092   4.843  1.00  0.00     0.020 C 
HETATM   21  C   UNL     1     -11.536 -15.904   3.894  1.00  0.00     0.193 C 
HETATM   22  O   UNL     1     -12.308 -15.678   2.735  1.00  0.00    -0.289 OA
HETATM   23  P   UNL     1     -13.992 -15.748   3.127  1.00  0.00     0.417 P 
HETATM   24  O   UNL     1     -13.794 -17.183   3.599  1.00  0.00    -0.624 OA
HETATM   25  O   UNL     1     -13.818 -14.458   4.226  1.00  0.00    -0.624 OA
HETATM   26  O   UNL     1     -15.675 -15.818   3.519  1.00  0.00    -0.180 OA
HETATM   27  P   UNL     1     -16.599 -15.171   2.207  1.00  0.00     0.417 P 
HETATM   28  O   UNL     1     -17.924 -15.433   2.976  1.00  0.00    -0.624 OA
HETATM   29  O   UNL     1     -16.048 -13.735   2.268  1.00  0.00    -0.624 OA
HETATM   30  O   UNL     1     -17.524 -14.524   0.896  1.00  0.00    -0.287 OA
HETATM   31  C   UNL     1     -17.296 -15.278  -0.266  1.00  0.00     0.216 C 
HETATM   32  C   UNL     1     -18.109 -14.712  -1.423  1.00  0.00     0.180 C 
HETATM   33  C   UNL     1     -17.713 -13.235  -1.711  1.00  0.00     0.198 C 
HETATM   34  C   UNL     1     -19.003 -12.529  -2.101  1.00  0.00     0.201 C 
HETATM   35  C   UNL     1     -19.952 -13.650  -2.021  1.00  0.00     0.254 C 
HETATM   36  O   UNL     1     -19.572 -14.654  -1.125  1.00  0.00    -0.354 OA
HETATM   37  N   UNL     1     -20.353 -14.174  -3.373  1.00  0.00    -0.333 N 
HETATM   38  C   UNL     1     -19.169 -15.265  -4.099  1.00  0.00     0.375 C 
HETATM   39  N   UNL     1     -20.121 -15.246  -5.280  1.00  0.00     0.040 NA
HETATM   40  C   UNL     1     -21.696 -15.358  -5.059  1.00  0.00     0.313 C 
HETATM   41  C   UNL     1     -22.545 -15.085  -5.959  1.00  0.00     0.091 C 
HETATM   42  N   UNL     1     -23.770 -14.611  -5.564  1.00  0.00    -0.345 N 
ATOM     43  HN  UNL     1     -24.600 -14.725  -6.146  1.00  0.00     0.167 HD
HETATM   44  C   UNL     1     -23.828 -13.990  -4.376  1.00  0.00     0.179 C 
HETATM   45  N   UNL     1     -22.751 -13.478  -4.111  1.00  0.00    -0.358 N 
ATOM     46  HN  UNL     1     -22.685 -12.464  -4.019  1.00  0.00     0.162 HD
HETATM   47  C   UNL     1     -21.631 -14.248  -3.935  1.00  0.00     0.144 C 
HETATM   48  O   UNL     1     -18.951 -11.891  -3.372  1.00  0.00    -0.368 OA
HETATM   49  O   UNL     1     -16.766 -13.159  -2.760  1.00  0.00    -0.279 OA
HETATM   50  P   UNL     1     -16.349 -11.506  -3.055  1.00  0.00     0.407 P 
HETATM   51  O   UNL     1     -14.873 -11.831  -2.723  1.00  0.00    -0.624 OA
HETATM   52  O   UNL     1     -17.279 -11.094  -4.089  1.00  0.00    -0.279 OA
HETATM   53  O   UNL     1     -15.931  -9.853  -3.350  1.00  0.00    -0.624 OA
HETATM   54  H   UNL     1     -11.552 -14.661  -2.998  1.00  0.00     0.162 HD
HETATM   55  H   UNL     1      -9.575 -15.597   0.567  1.00  0.00     0.162 HD
HETATM   56  H   UNL     1     -18.150 -11.809  -3.871  1.00  0.00     0.387 HD
ENDROOT
BRANCH   1  57
HETATM   57  C   UNL     1     -21.374 -12.204  -3.511  1.00  0.00     0.006 C 
BRANCH  57  58
HETATM   58  C   UNL     1     -22.031 -10.363  -4.095  1.00  0.00     0.000 C 
BRANCH  58  59
HETATM   59  C   UNL     1     -21.331  -9.417  -5.057  1.00  0.00     0.000 C 
BRANCH  59  60
HETATM   60  C   UNL     1     -21.002  -7.942  -4.508  1.00  0.00     0.000 C 
BRANCH  60  61
HETATM   61  C   UNL     1     -21.339  -7.124  -5.697  1.00  0.00     0.000 C 
BRANCH  61  62
HETATM   62  C   UNL     1     -20.161  -6.391  -6.244  1.00  0.00     0.000 C 
BRANCH  62  63
HETATM   63  C   UNL     1     -20.774  -5.090  -6.669  1.00  0.00     0.000 C 
BRANCH  63  64
HETATM   64  C   UNL     1     -20.074  -4.619  -7.894  1.00  0.00     0.000 C 
BRANCH  64  65
HETATM   65  C   UNL     1     -21.114  -4.002  -8.780  1.00  0.00     0.000 C 
BRANCH  65  66
HETATM   66  C   UNL     1     -22.332  -3.749  -7.938  1.00  0.00     0.004 C 
BRANCH  66  67
HETATM   67  C   UNL     1     -23.531  -4.131  -8.749  1.00  0.00     0.027 C 
BRANCH  67  68
HETATM   68  C   UNL     1     -23.195  -4.041 -10.194  1.00  0.00    -0.030 C 
BRANCH  68  69
HETATM   69  C   UNL     1     -24.001  -4.518 -11.160  1.00  0.00    -0.027 C 
BRANCH  69  70
HETATM   70  C   UNL     1     -23.768  -4.262 -12.610  1.00  0.00     0.053 C 
BRANCH  70  71
HETATM   71  C   UNL     1     -24.238  -5.407 -13.488  1.00  0.00    -0.027 C 
HETATM   72  C   UNL     1     -24.699  -5.250 -14.689  1.00  0.00    -0.027 C 
BRANCH  72  73
HETATM   73  C   UNL     1     -25.169  -6.394 -15.568  1.00  0.00     0.053 C 
BRANCH  73  74
HETATM   74  C   UNL     1     -24.995  -6.111 -17.018  1.00  0.00    -0.027 C 
HETATM   75  C   UNL     1     -24.689  -7.063 -17.920  1.00  0.00    -0.027 C 
BRANCH  75  76
HETATM   76  C   UNL     1     -24.515  -6.779 -19.371  1.00  0.00     0.053 C 
BRANCH  76  77
HETATM   77  C   UNL     1     -25.782  -7.022 -20.171  1.00  0.00    -0.027 C 
HETATM   78  C   UNL     1     -26.190  -8.196 -20.533  1.00  0.00    -0.027 C 
BRANCH  78  79
HETATM   79  C   UNL     1     -27.457  -8.439 -21.332  1.00  0.00     0.053 C 
BRANCH  79  80
HETATM   80  C   UNL     1     -28.684  -8.009 -20.605  1.00  0.00    -0.027 C 
HETATM   81  C   UNL     1     -28.986  -8.430 -19.363  1.00  0.00    -0.030 C 
BRANCH  81  82
HETATM   82  C   UNL     1     -30.208  -7.995 -18.640  1.00  0.00     0.027 C 
BRANCH  82  83
HETATM   83  C   UNL     1     -30.099  -6.534 -18.214  1.00  0.00     0.004 C 
BRANCH  83  84
HETATM   84  C   UNL     1     -28.733  -6.260 -17.588  1.00  0.00    -0.000 C 
BRANCH  84  85
HETATM   85  C   UNL     1     -28.535  -7.085 -16.322  1.00  0.00    -0.005 C 
HETATM   86  C   UNL     1     -28.862  -6.267 -15.085  1.00  0.00     0.005 C 
ENDBRANCH  84  85
ENDBRANCH  83  84
ENDBRANCH  82  83
ENDBRANCH  81  82
ENDBRANCH  79  80
ENDBRANCH  78  79
ENDBRANCH  76  77
ENDBRANCH  75  76
ENDBRANCH  73  74
ENDBRANCH  72  73
ENDBRANCH  70  71
ENDBRANCH  69  70
ENDBRANCH  68  69
ENDBRANCH  67  68
ENDBRANCH  66  67
ENDBRANCH  65  66
ENDBRANCH  64  65
ENDBRANCH  63  64
ENDBRANCH  62  63
ENDBRANCH  61  62
ENDBRANCH  60  61
ENDBRANCH  59  60
ENDBRANCH  58  59
ENDBRANCH  57  58
ENDBRANCH   1  57
BRANCH  41  87
HETATM   87  N   UNL     1     -22.358 -15.373  -7.296  1.00  0.00    -0.290 NA
HETATM   88  H   UNL     1     -22.270 -16.369  -7.464  1.00  0.00     0.125 HD
HETATM   89  H   UNL     1     -22.994 -14.846  -7.876  1.00  0.00     0.125 HD
ENDBRANCH  41  87
BRANCH  17  90
HETATM   90  O   UNL     1      -8.368 -14.328   2.646  1.00  0.00    -0.385 OA
HETATM   91  H   UNL     1      -8.032 -13.686   3.301  1.00  0.00     0.210 HD
ENDBRANCH  17  90
TORSDOF 27
ENDMDL
