MODEL 1
REMARK VINA RESULT:      -8.1      0.000      0.000
REMARK  6 active torsions:
REMARK  status: ('A' for Active; 'I' for Inactive)
REMARK    1  A    between atoms: C_4  and  S_26 
REMARK    2  A    between atoms: C_5  and  N_8 
REMARK    3  A    between atoms: N_10  and  C_12 
REMARK    4  A    between atoms: C_14  and  C_22 
REMARK    5  A    between atoms: C_22  and  O_24 
REMARK    6  A    between atoms: S_26  and  O_27 
ROOT
HETATM    1  N   UNL     1     -17.847  -9.433  -3.474  1.00  0.00    -0.299 N 
ATOM      2  HN  UNL     1     -17.492  -8.476  -3.504  1.00  0.00     0.187 HD
HETATM    3  N   UNL     1     -19.060  -9.704  -3.644  1.00  0.00    -0.296 N 
ATOM      4  HN  UNL     1     -19.443 -10.649  -3.637  1.00  0.00     0.187 HD
ENDROOT
BRANCH   3   5
HETATM    5  C   UNL     1     -19.841  -8.518  -3.852  1.00  0.00     0.110 C 
HETATM    6  C   UNL     1     -19.778  -7.880  -5.131  1.00  0.00     0.217 C 
HETATM    7  C   UNL     1     -20.767  -6.863  -5.325  1.00  0.00     0.090 C 
HETATM    8  O   UNL     1     -18.887  -8.202  -6.002  1.00  0.00    -0.285 OA
HETATM    9  C   UNL     1     -21.645  -6.455  -4.309  1.00  0.00     0.034 C 
HETATM   10  C   UNL     1     -21.555  -6.983  -3.020  1.00  0.00    -0.022 A 
HETATM   11  C   UNL     1     -22.420  -6.524  -2.010  1.00  0.00     0.012 A 
HETATM   12  C   UNL     1     -20.602  -7.979  -2.758  1.00  0.00     0.006 A 
HETATM   13  C   UNL     1     -22.306  -6.991  -0.703  1.00  0.00     0.001 A 
HETATM   14  C   UNL     1     -21.298  -7.886  -0.391  1.00  0.00     0.001 A 
HETATM   15  C   UNL     1     -20.463  -8.370  -1.403  1.00  0.00     0.015 A 
BRANCH   7  16
HETATM   16  C   UNL     1     -20.991  -6.129  -6.638  1.00  0.00     0.180 C 
HETATM   17  O   UNL     1     -21.984  -5.452  -6.878  1.00  0.00    -0.646 OA
BRANCH  16  18
HETATM   18  O   UNL     1     -20.005  -6.318  -7.536  1.00  0.00    -0.773 OA
HETATM   19  H   UNL     1     -19.180  -5.875  -7.188  1.00  0.00     0.167 HD
ENDBRANCH  16  18
ENDBRANCH   7  16
ENDBRANCH   3   5
BRANCH   1  20
HETATM   20  C   UNL     1     -17.002 -10.547  -3.235  1.00  0.00     0.072 A 
HETATM   21  C   UNL     1     -16.093 -11.090  -4.164  1.00  0.00     0.117 A 
HETATM   22  C   UNL     1     -15.192 -12.108  -3.824  1.00  0.00     0.035 A 
HETATM   23  C   UNL     1     -15.227 -12.693  -2.562  1.00  0.00    -0.060 A 
HETATM   24  C   UNL     1     -14.299 -13.831  -2.245  1.00  0.00     0.048 C 
HETATM   25  C   UNL     1     -16.152 -12.208  -1.630  1.00  0.00     0.009 A 
HETATM   26  C   UNL     1     -17.010 -11.139  -1.960  1.00  0.00     0.033 A 
BRANCH  21  27
HETATM   27  S   UNL     1     -16.348 -10.813  -5.918  1.00  0.00     0.327 S 
HETATM   28  O   UNL     1     -16.068  -9.416  -6.111  1.00  0.00    -0.191 OA
HETATM   29  O   UNL     1     -15.477 -11.768  -6.584  1.00  0.00    -0.191 OA
BRANCH  27  30
HETATM   30  O   UNL     1     -17.787 -11.190  -5.961  1.00  0.00    -0.086 OA
HETATM   31 CA   UNL     2     -19.645 -10.459  -6.679  1.00  0.00     0.000 Ca
ENDBRANCH  27  30
ENDBRANCH  21  27
ENDBRANCH   1  20
TORSDOF 6
ENDMDL
MODEL 2
REMARK VINA RESULT:      -7.4      2.655      4.064
REMARK  6 active torsions:
REMARK  status: ('A' for Active; 'I' for Inactive)
REMARK    1  A    between atoms: C_4  and  S_26 
REMARK    2  A    between atoms: C_5  and  N_8 
REMARK    3  A    between atoms: N_10  and  C_12 
REMARK    4  A    between atoms: C_14  and  C_22 
REMARK    5  A    between atoms: C_22  and  O_24 
REMARK    6  A    between atoms: S_26  and  O_27 
ROOT
HETATM    1  N   UNL     1     -18.172 -10.727  -4.049  1.00  0.00    -0.299 N 
ATOM      2  HN  UNL     1     -18.988 -11.296  -3.819  1.00  0.00     0.187 HD
HETATM    3  N   UNL     1     -18.117  -9.500  -3.794  1.00  0.00    -0.296 N 
ATOM      4  HN  UNL     1     -17.312  -8.907  -3.996  1.00  0.00     0.187 HD
ENDROOT
BRANCH   3   5
HETATM    5  C   UNL     1     -19.329  -9.033  -3.184  1.00  0.00     0.110 C 
HETATM    6  C   UNL     1     -19.691  -9.563  -1.904  1.00  0.00     0.217 C 
HETATM    7  C   UNL     1     -20.768  -8.866  -1.268  1.00  0.00     0.090 C 
HETATM    8  O   UNL     1     -19.094 -10.588  -1.406  1.00  0.00    -0.285 OA
HETATM    9  C   UNL     1     -21.476  -7.828  -1.895  1.00  0.00     0.034 C 
HETATM   10  C   UNL     1     -21.203  -7.461  -3.214  1.00  0.00    -0.022 A 
HETATM   11  C   UNL     1     -21.958  -6.446  -3.831  1.00  0.00     0.012 A 
HETATM   12  C   UNL     1     -20.165  -8.108  -3.899  1.00  0.00     0.006 A 
HETATM   13  C   UNL     1     -21.746  -6.107  -5.164  1.00  0.00     0.001 A 
HETATM   14  C   UNL     1     -20.808  -6.811  -5.899  1.00  0.00     0.001 A 
HETATM   15  C   UNL     1     -20.033  -7.793  -5.274  1.00  0.00     0.015 A 
BRANCH   7  16
HETATM   16  C   UNL     1     -21.253  -9.151   0.145  1.00  0.00     0.180 C 
HETATM   17  O   UNL     1     -21.822  -8.325   0.848  1.00  0.00    -0.646 OA
BRANCH  16  18
HETATM   18  O   UNL     1     -20.968 -10.397   0.571  1.00  0.00    -0.773 OA
HETATM   19  H   UNL     1     -20.034 -10.613   0.292  1.00  0.00     0.167 HD
ENDBRANCH  16  18
ENDBRANCH   7  16
ENDBRANCH   3   5
BRANCH   1  20
HETATM   20  C   UNL     1     -17.023 -11.270  -4.680  1.00  0.00     0.072 A 
HETATM   21  C   UNL     1     -16.969 -11.731  -6.009  1.00  0.00     0.117 A 
HETATM   22  C   UNL     1     -15.770 -12.132  -6.615  1.00  0.00     0.035 A 
HETATM   23  C   UNL     1     -14.588 -12.180  -5.883  1.00  0.00    -0.060 A 
HETATM   24  C   UNL     1     -13.331 -12.683  -6.535  1.00  0.00     0.048 C 
HETATM   25  C   UNL     1     -14.618 -11.774  -4.545  1.00  0.00     0.009 A 
HETATM   26  C   UNL     1     -15.815 -11.308  -3.962  1.00  0.00     0.033 A 
BRANCH  21  27
HETATM   27  S   UNL     1     -18.480 -12.234  -6.834  1.00  0.00     0.327 S 
HETATM   28  O   UNL     1     -18.077 -12.545  -8.178  1.00  0.00    -0.191 OA
HETATM   29  O   UNL     1     -19.009 -13.322  -6.026  1.00  0.00    -0.191 OA
BRANCH  27  30
HETATM   30  O   UNL     1     -19.222 -10.955  -6.666  1.00  0.00    -0.086 OA
HETATM   31 CA   UNL     2     -21.197 -10.188  -6.774  1.00  0.00     0.000 Ca
ENDBRANCH  27  30
ENDBRANCH  21  27
ENDBRANCH   1  20
TORSDOF 6
ENDMDL
MODEL 3
REMARK VINA RESULT:      -7.3      3.258      4.593
REMARK  6 active torsions:
REMARK  status: ('A' for Active; 'I' for Inactive)
REMARK    1  A    between atoms: C_4  and  S_26 
REMARK    2  A    between atoms: C_5  and  N_8 
REMARK    3  A    between atoms: N_10  and  C_12 
REMARK    4  A    between atoms: C_14  and  C_22 
REMARK    5  A    between atoms: C_22  and  O_24 
REMARK    6  A    between atoms: S_26  and  O_27 
ROOT
HETATM    1  N   UNL     1     -19.863 -10.242  -5.338  1.00  0.00    -0.299 N 
ATOM      2  HN  UNL     1     -19.328  -9.967  -4.514  1.00  0.00     0.187 HD
HETATM    3  N   UNL     1     -20.823  -9.561  -5.772  1.00  0.00    -0.296 N 
ATOM      4  HN  UNL     1     -21.367  -9.799  -6.602  1.00  0.00     0.187 HD
ENDROOT
BRANCH   3   5
HETATM    5  C   UNL     1     -21.061  -8.405  -4.956  1.00  0.00     0.110 C 
HETATM    6  C   UNL     1     -21.553  -8.603  -3.627  1.00  0.00     0.217 C 
HETATM    7  C   UNL     1     -21.523  -7.426  -2.813  1.00  0.00     0.090 C 
HETATM    8  O   UNL     1     -21.993  -9.747  -3.235  1.00  0.00    -0.285 OA
HETATM    9  C   UNL     1     -21.150  -6.168  -3.312  1.00  0.00     0.034 C 
HETATM   10  C   UNL     1     -20.845  -5.986  -4.661  1.00  0.00    -0.022 A 
HETATM   11  C   UNL     1     -20.516  -4.705  -5.141  1.00  0.00     0.012 A 
HETATM   12  C   UNL     1     -20.862  -7.097  -5.518  1.00  0.00     0.006 A 
HETATM   13  C   UNL     1     -20.270  -4.489  -6.495  1.00  0.00     0.001 A 
HETATM   14  C   UNL     1     -20.396  -5.545  -7.380  1.00  0.00     0.001 A 
HETATM   15  C   UNL     1     -20.686  -6.825  -6.897  1.00  0.00     0.015 A 
BRANCH   7  16
HETATM   16  C   UNL     1     -21.871  -7.402  -1.332  1.00  0.00     0.180 C 
HETATM   17  O   UNL     1     -22.707  -6.653  -0.842  1.00  0.00    -0.646 OA
BRANCH  16  18
HETATM   18  O   UNL     1     -21.146  -8.267  -0.595  1.00  0.00    -0.773 OA
HETATM   19  H   UNL     1     -21.586  -8.357   0.297  1.00  0.00     0.167 HD
ENDBRANCH  16  18
ENDBRANCH   7  16
ENDBRANCH   3   5
BRANCH   1  20
HETATM   20  C   UNL     1     -19.573 -11.422  -6.072  1.00  0.00     0.072 A 
HETATM   21  C   UNL     1     -18.378 -12.161  -5.980  1.00  0.00     0.117 A 
HETATM   22  C   UNL     1     -18.205 -13.390  -6.631  1.00  0.00     0.035 A 
HETATM   23  C   UNL     1     -19.188 -13.886  -7.482  1.00  0.00    -0.060 A 
HETATM   24  C   UNL     1     -18.949 -15.169  -8.225  1.00  0.00     0.048 C 
HETATM   25  C   UNL     1     -20.369 -13.151  -7.632  1.00  0.00     0.009 A 
HETATM   26  C   UNL     1     -20.562 -11.948  -6.921  1.00  0.00     0.033 A 
BRANCH  21  27
HETATM   27  S   UNL     1     -16.885 -11.360  -5.391  1.00  0.00     0.327 S 
HETATM   28  O   UNL     1     -17.159 -11.040  -4.017  1.00  0.00    -0.191 OA
HETATM   29  O   UNL     1     -15.815 -12.310  -5.656  1.00  0.00    -0.191 OA
BRANCH  27  30
HETATM   30  O   UNL     1     -16.904 -10.208  -6.335  1.00  0.00    -0.086 OA
HETATM   31 CA   UNL     2     -18.174  -8.623  -6.948  1.00  0.00     0.000 Ca
ENDBRANCH  27  30
ENDBRANCH  21  27
ENDBRANCH   1  20
TORSDOF 6
ENDMDL
MODEL 4
REMARK VINA RESULT:      -7.2      3.309      4.471
REMARK  6 active torsions:
REMARK  status: ('A' for Active; 'I' for Inactive)
REMARK    1  A    between atoms: C_4  and  S_26 
REMARK    2  A    between atoms: C_5  and  N_8 
REMARK    3  A    between atoms: N_10  and  C_12 
REMARK    4  A    between atoms: C_14  and  C_22 
REMARK    5  A    between atoms: C_22  and  O_24 
REMARK    6  A    between atoms: S_26  and  O_27 
ROOT
HETATM    1  N   UNL     1     -18.155 -10.624  -3.963  1.00  0.00    -0.299 N 
ATOM      2  HN  UNL     1     -18.990 -11.203  -3.874  1.00  0.00     0.187 HD
HETATM    3  N   UNL     1     -18.129  -9.423  -3.601  1.00  0.00    -0.296 N 
ATOM      4  HN  UNL     1     -17.307  -8.823  -3.661  1.00  0.00     0.187 HD
ENDROOT
BRANCH   3   5
HETATM    5  C   UNL     1     -19.402  -8.999  -3.092  1.00  0.00     0.110 C 
HETATM    6  C   UNL     1     -19.850  -9.544  -1.847  1.00  0.00     0.217 C 
HETATM    7  C   UNL     1     -20.999  -8.885  -1.301  1.00  0.00     0.090 C 
HETATM    8  O   UNL     1     -19.262 -10.550  -1.301  1.00  0.00    -0.285 OA
HETATM    9  C   UNL     1     -21.686  -7.870  -1.984  1.00  0.00     0.034 C 
HETATM   10  C   UNL     1     -21.319  -7.490  -3.276  1.00  0.00    -0.022 A 
HETATM   11  C   UNL     1     -22.053  -6.499  -3.952  1.00  0.00     0.012 A 
HETATM   12  C   UNL     1     -20.206  -8.100  -3.874  1.00  0.00     0.006 A 
HETATM   13  C   UNL     1     -21.744  -6.149  -5.264  1.00  0.00     0.001 A 
HETATM   14  C   UNL     1     -20.725  -6.819  -5.919  1.00  0.00     0.001 A 
HETATM   15  C   UNL     1     -19.972  -7.777  -5.233  1.00  0.00     0.015 A 
BRANCH   7  16
HETATM   16  C   UNL     1     -21.588  -9.190   0.067  1.00  0.00     0.180 C 
HETATM   17  O   UNL     1     -21.912  -8.329   0.875  1.00  0.00    -0.646 OA
BRANCH  16  18
HETATM   18  O   UNL     1     -21.694 -10.508   0.326  1.00  0.00    -0.773 OA
HETATM   19  H   UNL     1     -22.276 -10.620   1.129  1.00  0.00     0.167 HD
ENDBRANCH  16  18
ENDBRANCH   7  16
ENDBRANCH   3   5
BRANCH   1  20
HETATM   20  C   UNL     1     -16.941 -11.122  -4.505  1.00  0.00     0.072 A 
HETATM   21  C   UNL     1     -16.104 -12.069  -3.885  1.00  0.00     0.117 A 
HETATM   22  C   UNL     1     -14.989 -12.620  -4.530  1.00  0.00     0.035 A 
HETATM   23  C   UNL     1     -14.607 -12.173  -5.792  1.00  0.00    -0.060 A 
HETATM   24  C   UNL     1     -13.366 -12.726  -6.432  1.00  0.00     0.048 C 
HETATM   25  C   UNL     1     -15.392 -11.196  -6.415  1.00  0.00     0.009 A 
HETATM   26  C   UNL     1     -16.551 -10.696  -5.786  1.00  0.00     0.033 A 
BRANCH  21  27
HETATM   27  S   UNL     1     -16.174 -12.282  -2.105  1.00  0.00     0.327 S 
HETATM   28  O   UNL     1     -17.415 -12.968  -1.867  1.00  0.00    -0.191 OA
HETATM   29  O   UNL     1     -14.946 -12.981  -1.758  1.00  0.00    -0.191 OA
BRANCH  27  30
HETATM   30  O   UNL     1     -16.159 -10.839  -1.742  1.00  0.00    -0.086 OA
HETATM   31 CA   UNL     2     -15.406  -8.986  -2.452  1.00  0.00     0.000 Ca
ENDBRANCH  27  30
ENDBRANCH  21  27
ENDBRANCH   1  20
TORSDOF 6
ENDMDL
MODEL 5
REMARK VINA RESULT:      -7.2      4.617      5.874
REMARK  6 active torsions:
REMARK  status: ('A' for Active; 'I' for Inactive)
REMARK    1  A    between atoms: C_4  and  S_26 
REMARK    2  A    between atoms: C_5  and  N_8 
REMARK    3  A    between atoms: N_10  and  C_12 
REMARK    4  A    between atoms: C_14  and  C_22 
REMARK    5  A    between atoms: C_22  and  O_24 
REMARK    6  A    between atoms: S_26  and  O_27 
ROOT
HETATM    1  N   UNL     1     -21.309 -11.737  -0.927  1.00  0.00    -0.299 N 
ATOM      2  HN  UNL     1     -21.531 -11.889  -1.911  1.00  0.00     0.187 HD
HETATM    3  N   UNL     1     -20.669 -10.733  -0.532  1.00  0.00    -0.296 N 
ATOM      4  HN  UNL     1     -20.446 -10.543   0.445  1.00  0.00     0.187 HD
ENDROOT
BRANCH   3   5
HETATM    5  C   UNL     1     -20.292  -9.884  -1.625  1.00  0.00     0.110 C 
HETATM    6  C   UNL     1     -19.276 -10.346  -2.522  1.00  0.00     0.217 C 
HETATM    7  C   UNL     1     -19.143  -9.555  -3.709  1.00  0.00     0.090 C 
HETATM    8  O   UNL     1     -18.551 -11.372  -2.248  1.00  0.00    -0.285 OA
HETATM    9  C   UNL     1     -19.868  -8.371  -3.916  1.00  0.00     0.034 C 
HETATM   10  C   UNL     1     -20.721  -7.863  -2.935  1.00  0.00    -0.022 A 
HETATM   11  C   UNL     1     -21.402  -6.652  -3.155  1.00  0.00     0.012 A 
HETATM   12  C   UNL     1     -20.892  -8.584  -1.744  1.00  0.00     0.006 A 
HETATM   13  C   UNL     1     -22.208  -6.095  -2.166  1.00  0.00     0.001 A 
HETATM   14  C   UNL     1     -22.302  -6.725  -0.937  1.00  0.00     0.001 A 
HETATM   15  C   UNL     1     -21.655  -7.948  -0.733  1.00  0.00     0.015 A 
BRANCH   7  16
HETATM   16  C   UNL     1     -18.228  -9.908  -4.872  1.00  0.00     0.180 C 
HETATM   17  O   UNL     1     -18.567  -9.841  -6.047  1.00  0.00    -0.646 OA
BRANCH  16  18
HETATM   18  O   UNL     1     -17.010 -10.335  -4.487  1.00  0.00    -0.773 OA
HETATM   19  H   UNL     1     -17.099 -11.277  -4.168  1.00  0.00     0.167 HD
ENDBRANCH  16  18
ENDBRANCH   7  16
ENDBRANCH   3   5
BRANCH   1  20
HETATM   20  C   UNL     1     -21.702 -12.648   0.088  1.00  0.00     0.072 A 
HETATM   21  C   UNL     1     -20.865 -13.614   0.679  1.00  0.00     0.117 A 
HETATM   22  C   UNL     1     -21.274 -14.393   1.770  1.00  0.00     0.035 A 
HETATM   23  C   UNL     1     -22.575 -14.306   2.255  1.00  0.00    -0.060 A 
HETATM   24  C   UNL     1     -23.011 -15.204   3.377  1.00  0.00     0.048 C 
HETATM   25  C   UNL     1     -23.446 -13.388   1.657  1.00  0.00     0.009 A 
HETATM   26  C   UNL     1     -23.006 -12.560   0.604  1.00  0.00     0.033 A 
BRANCH  21  27
HETATM   27  S   UNL     1     -19.415 -14.190  -0.206  1.00  0.00     0.327 S 
HETATM   28  O   UNL     1     -19.068 -15.432   0.429  1.00  0.00    -0.191 OA
HETATM   29  O   UNL     1     -19.820 -14.244  -1.603  1.00  0.00    -0.191 OA
BRANCH  27  30
HETATM   30  O   UNL     1     -18.530 -13.037   0.111  1.00  0.00    -0.086 OA
HETATM   31 CA   UNL     2     -18.486 -11.301   1.330  1.00  0.00     0.000 Ca
ENDBRANCH  27  30
ENDBRANCH  21  27
ENDBRANCH   1  20
TORSDOF 6
ENDMDL
MODEL 6
REMARK VINA RESULT:      -7.1      3.881      4.789
REMARK  6 active torsions:
REMARK  status: ('A' for Active; 'I' for Inactive)
REMARK    1  A    between atoms: C_4  and  S_26 
REMARK    2  A    between atoms: C_5  and  N_8 
REMARK    3  A    between atoms: N_10  and  C_12 
REMARK    4  A    between atoms: C_14  and  C_22 
REMARK    5  A    between atoms: C_22  and  O_24 
REMARK    6  A    between atoms: S_26  and  O_27 
ROOT
HETATM    1  N   UNL     1     -17.964 -10.177  -2.275  1.00  0.00    -0.299 N 
ATOM      2  HN  UNL     1     -17.850  -9.463  -1.555  1.00  0.00     0.187 HD
HETATM    3  N   UNL     1     -19.022 -10.299  -2.937  1.00  0.00    -0.296 N 
ATOM      4  HN  UNL     1     -19.161 -10.990  -3.674  1.00  0.00     0.187 HD
ENDROOT
BRANCH   3   5
HETATM    5  C   UNL     1     -20.013  -9.345  -2.529  1.00  0.00     0.110 C 
HETATM    6  C   UNL     1     -20.641  -9.523  -1.255  1.00  0.00     0.217 C 
HETATM    7  C   UNL     1     -21.423  -8.401  -0.829  1.00  0.00     0.090 C 
HETATM    8  O   UNL     1     -20.510 -10.613  -0.586  1.00  0.00    -0.285 OA
HETATM    9  C   UNL     1     -21.642  -7.277  -1.641  1.00  0.00     0.034 C 
HETATM   10  C   UNL     1     -21.154  -7.222  -2.948  1.00  0.00    -0.022 A 
HETATM   11  C   UNL     1     -21.426  -6.100  -3.752  1.00  0.00     0.012 A 
HETATM   12  C   UNL     1     -20.386  -8.291  -3.432  1.00  0.00     0.006 A 
HETATM   13  C   UNL     1     -21.004  -6.051  -5.078  1.00  0.00     0.001 A 
HETATM   14  C   UNL     1     -20.346  -7.143  -5.618  1.00  0.00     0.001 A 
HETATM   15  C   UNL     1     -20.043  -8.241  -4.806  1.00  0.00     0.015 A 
BRANCH   7  16
HETATM   16  C   UNL     1     -22.083  -8.290   0.537  1.00  0.00     0.180 C 
HETATM   17  O   UNL     1     -23.262  -8.002   0.699  1.00  0.00    -0.646 OA
BRANCH  16  18
HETATM   18  O   UNL     1     -21.238  -8.508   1.563  1.00  0.00    -0.773 OA
HETATM   19  H   UNL     1     -21.746  -8.387   2.413  1.00  0.00     0.167 HD
ENDBRANCH  16  18
ENDBRANCH   7  16
ENDBRANCH   3   5
BRANCH   1  20
HETATM   20  C   UNL     1     -16.935 -11.100  -2.595  1.00  0.00     0.072 A 
HETATM   21  C   UNL     1     -16.929 -12.463  -2.240  1.00  0.00     0.117 A 
HETATM   22  C   UNL     1     -15.948 -13.353  -2.701  1.00  0.00     0.035 A 
HETATM   23  C   UNL     1     -14.876 -12.895  -3.460  1.00  0.00    -0.060 A 
HETATM   24  C   UNL     1     -13.799 -13.855  -3.879  1.00  0.00     0.048 C 
HETATM   25  C   UNL     1     -14.828 -11.535  -3.789  1.00  0.00     0.009 A 
HETATM   26  C   UNL     1     -15.853 -10.660  -3.378  1.00  0.00     0.033 A 
BRANCH  21  27
HETATM   27  S   UNL     1     -17.911 -13.019  -0.846  1.00  0.00     0.327 S 
HETATM   28  O   UNL     1     -19.262 -13.040  -1.336  1.00  0.00    -0.191 OA
HETATM   29  O   UNL     1     -17.323 -14.290  -0.451  1.00  0.00    -0.191 OA
BRANCH  27  30
HETATM   30  O   UNL     1     -17.580 -11.899   0.076  1.00  0.00    -0.086 OA
HETATM   31 CA   UNL     2     -16.285 -11.447   1.695  1.00  0.00     0.000 Ca
ENDBRANCH  27  30
ENDBRANCH  21  27
ENDBRANCH   1  20
TORSDOF 6
ENDMDL
MODEL 7
REMARK VINA RESULT:      -7.1      4.038      5.192
REMARK  6 active torsions:
REMARK  status: ('A' for Active; 'I' for Inactive)
REMARK    1  A    between atoms: C_4  and  S_26 
REMARK    2  A    between atoms: C_5  and  N_8 
REMARK    3  A    between atoms: N_10  and  C_12 
REMARK    4  A    between atoms: C_14  and  C_22 
REMARK    5  A    between atoms: C_22  and  O_24 
REMARK    6  A    between atoms: S_26  and  O_27 
ROOT
HETATM    1  N   UNL     1     -18.385 -10.716  -2.216  1.00  0.00    -0.299 N 
ATOM      2  HN  UNL     1     -18.398 -10.755  -1.196  1.00  0.00     0.187 HD
HETATM    3  N   UNL     1     -19.405 -10.433  -2.889  1.00  0.00    -0.296 N 
ATOM      4  HN  UNL     1     -19.421 -10.369  -3.907  1.00  0.00     0.187 HD
ENDROOT
BRANCH   3   5
HETATM    5  C   UNL     1     -20.546 -10.209  -2.048  1.00  0.00     0.110 C 
HETATM    6  C   UNL     1     -21.120 -11.332  -1.371  1.00  0.00     0.217 C 
HETATM    7  C   UNL     1     -22.085 -10.981  -0.373  1.00  0.00     0.090 C 
HETATM    8  O   UNL     1     -20.790 -12.539  -1.670  1.00  0.00    -0.285 OA
HETATM    9  C   UNL     1     -22.509  -9.660  -0.160  1.00  0.00     0.034 C 
HETATM   10  C   UNL     1     -22.052  -8.614  -0.964  1.00  0.00    -0.022 A 
HETATM   11  C   UNL     1     -22.527  -7.307  -0.754  1.00  0.00     0.012 A 
HETATM   12  C   UNL     1     -21.110  -8.890  -1.967  1.00  0.00     0.006 A 
HETATM   13  C   UNL     1     -22.133  -6.260  -1.584  1.00  0.00     0.001 A 
HETATM   14  C   UNL     1     -21.295  -6.526  -2.654  1.00  0.00     0.001 A 
HETATM   15  C   UNL     1     -20.795  -7.818  -2.839  1.00  0.00     0.015 A 
BRANCH   7  16
HETATM   16  C   UNL     1     -22.742 -11.979   0.568  1.00  0.00     0.180 C 
HETATM   17  O   UNL     1     -23.954 -12.086   0.707  1.00  0.00    -0.646 OA
BRANCH  16  18
HETATM   18  O   UNL     1     -21.860 -12.719   1.268  1.00  0.00    -0.773 OA
HETATM   19  H   UNL     1     -22.336 -13.105   2.056  1.00  0.00     0.167 HD
ENDBRANCH  16  18
ENDBRANCH   7  16
ENDBRANCH   3   5
BRANCH   1  20
HETATM   20  C   UNL     1     -17.212 -10.979  -2.970  1.00  0.00     0.072 A 
HETATM   21  C   UNL     1     -16.387 -12.111  -2.819  1.00  0.00     0.117 A 
HETATM   22  C   UNL     1     -15.318 -12.380  -3.684  1.00  0.00     0.035 A 
HETATM   23  C   UNL     1     -14.968 -11.474  -4.681  1.00  0.00    -0.060 A 
HETATM   24  C   UNL     1     -13.773 -11.749  -5.548  1.00  0.00     0.048 C 
HETATM   25  C   UNL     1     -15.739 -10.315  -4.826  1.00  0.00     0.009 A 
HETATM   26  C   UNL     1     -16.854 -10.086  -3.994  1.00  0.00     0.033 A 
BRANCH  21  27
HETATM   27  S   UNL     1     -16.398 -13.013  -1.269  1.00  0.00     0.327 S 
HETATM   28  O   UNL     1     -17.678 -13.666  -1.234  1.00  0.00    -0.191 OA
HETATM   29  O   UNL     1     -15.216 -13.860  -1.315  1.00  0.00    -0.191 OA
BRANCH  27  30
HETATM   30  O   UNL     1     -16.252 -11.839  -0.366  1.00  0.00    -0.086 OA
HETATM   31 CA   UNL     2     -16.166 -11.372   1.702  1.00  0.00     0.000 Ca
ENDBRANCH  27  30
ENDBRANCH  21  27
ENDBRANCH   1  20
TORSDOF 6
ENDMDL
MODEL 8
REMARK VINA RESULT:      -6.8      2.075      2.562
REMARK  6 active torsions:
REMARK  status: ('A' for Active; 'I' for Inactive)
REMARK    1  A    between atoms: C_4  and  S_26 
REMARK    2  A    between atoms: C_5  and  N_8 
REMARK    3  A    between atoms: N_10  and  C_12 
REMARK    4  A    between atoms: C_14  and  C_22 
REMARK    5  A    between atoms: C_22  and  O_24 
REMARK    6  A    between atoms: S_26  and  O_27 
ROOT
HETATM    1  N   UNL     1     -18.207 -10.661  -1.555  1.00  0.00    -0.299 N 
ATOM      2  HN  UNL     1     -17.734  -9.760  -1.630  1.00  0.00     0.187 HD
HETATM    3  N   UNL     1     -19.433 -10.795  -1.786  1.00  0.00    -0.296 N 
ATOM      4  HN  UNL     1     -19.933 -11.683  -1.736  1.00  0.00     0.187 HD
ENDROOT
BRANCH   3   5
HETATM    5  C   UNL     1     -20.045  -9.544  -2.130  1.00  0.00     0.110 C 
HETATM    6  C   UNL     1     -19.782  -8.994  -3.425  1.00  0.00     0.217 C 
HETATM    7  C   UNL     1     -20.621  -7.885  -3.770  1.00  0.00     0.090 C 
HETATM    8  O   UNL     1     -18.853  -9.465  -4.181  1.00  0.00    -0.285 OA
HETATM    9  C   UNL     1     -21.540  -7.322  -2.871  1.00  0.00     0.034 C 
HETATM   10  C   UNL     1     -21.640  -7.780  -1.556  1.00  0.00    -0.022 A 
HETATM   11  C   UNL     1     -22.541  -7.167  -0.665  1.00  0.00     0.012 A 
HETATM   12  C   UNL     1     -20.841  -8.859  -1.149  1.00  0.00     0.006 A 
HETATM   13  C   UNL     1     -22.612  -7.565   0.667  1.00  0.00     0.001 A 
HETATM   14  C   UNL     1     -21.751  -8.548   1.125  1.00  0.00     0.001 A 
HETATM   15  C   UNL     1     -20.883  -9.182   0.230  1.00  0.00     0.015 A 
BRANCH   7  16
HETATM   16  C   UNL     1     -20.626  -7.210  -5.132  1.00  0.00     0.180 C 
HETATM   17  O   UNL     1     -20.433  -6.012  -5.297  1.00  0.00    -0.646 OA
BRANCH  16  18
HETATM   18  O   UNL     1     -20.898  -8.051  -6.149  1.00  0.00    -0.773 OA
HETATM   19  H   UNL     1     -20.722  -7.569  -7.005  1.00  0.00     0.167 HD
ENDBRANCH  16  18
ENDBRANCH   7  16
ENDBRANCH   3   5
BRANCH   1  20
HETATM   20  C   UNL     1     -17.525 -11.847  -1.180  1.00  0.00     0.072 A 
HETATM   21  C   UNL     1     -16.521 -12.479  -1.939  1.00  0.00     0.117 A 
HETATM   22  C   UNL     1     -15.792 -13.574  -1.453  1.00  0.00     0.035 A 
HETATM   23  C   UNL     1     -16.104 -14.143  -0.223  1.00  0.00    -0.060 A 
HETATM   24  C   UNL     1     -15.357 -15.360   0.243  1.00  0.00     0.048 C 
HETATM   25  C   UNL     1     -17.130 -13.567   0.535  1.00  0.00     0.009 A 
HETATM   26  C   UNL     1     -17.814 -12.425   0.068  1.00  0.00     0.033 A 
BRANCH  21  27
HETATM   27  S   UNL     1     -16.436 -12.193  -3.707  1.00  0.00     0.327 S 
HETATM   28  O   UNL     1     -15.519 -13.187  -4.195  1.00  0.00    -0.191 OA
HETATM   29  O   UNL     1     -17.813 -12.268  -4.171  1.00  0.00    -0.191 OA
BRANCH  27  30
HETATM   30  O   UNL     1     -15.904 -10.804  -3.648  1.00  0.00    -0.086 OA
HETATM   31 CA   UNL     2     -16.561  -8.820  -3.284  1.00  0.00     0.000 Ca
ENDBRANCH  27  30
ENDBRANCH  21  27
ENDBRANCH   1  20
TORSDOF 6
ENDMDL
MODEL 9
REMARK VINA RESULT:      -6.7      3.346      6.577
REMARK  6 active torsions:
REMARK  status: ('A' for Active; 'I' for Inactive)
REMARK    1  A    between atoms: C_4  and  S_26 
REMARK    2  A    between atoms: C_5  and  N_8 
REMARK    3  A    between atoms: N_10  and  C_12 
REMARK    4  A    between atoms: C_14  and  C_22 
REMARK    5  A    between atoms: C_22  and  O_24 
REMARK    6  A    between atoms: S_26  and  O_27 
ROOT
HETATM    1  N   UNL     1     -20.409  -9.589  -3.003  1.00  0.00    -0.299 N 
ATOM      2  HN  UNL     1     -20.476 -10.509  -3.438  1.00  0.00     0.187 HD
HETATM    3  N   UNL     1     -20.298  -9.441  -1.762  1.00  0.00    -0.296 N 
ATOM      4  HN  UNL     1     -20.212  -8.537  -1.297  1.00  0.00     0.187 HD
ENDROOT
BRANCH   3   5
HETATM    5  C   UNL     1     -20.306 -10.703  -1.078  1.00  0.00     0.110 C 
HETATM    6  C   UNL     1     -19.076 -11.427  -0.976  1.00  0.00     0.217 C 
HETATM    7  C   UNL     1     -19.126 -12.538  -0.074  1.00  0.00     0.090 C 
HETATM    8  O   UNL     1     -18.040 -11.095  -1.663  1.00  0.00    -0.285 OA
HETATM    9  C   UNL     1     -20.309 -12.943   0.565  1.00  0.00     0.034 C 
HETATM   10  C   UNL     1     -21.526 -12.314   0.300  1.00  0.00    -0.022 A 
HETATM   11  C   UNL     1     -22.702 -12.770   0.924  1.00  0.00     0.012 A 
HETATM   12  C   UNL     1     -21.550 -11.222  -0.580  1.00  0.00     0.006 A 
HETATM   13  C   UNL     1     -23.937 -12.198   0.627  1.00  0.00     0.001 A 
HETATM   14  C   UNL     1     -24.006 -11.198  -0.327  1.00  0.00     0.001 A 
HETATM   15  C   UNL     1     -22.832 -10.720  -0.917  1.00  0.00     0.015 A 
BRANCH   7  16
HETATM   16  C   UNL     1     -17.921 -13.385   0.305  1.00  0.00     0.180 C 
HETATM   17  O   UNL     1     -17.885 -14.604   0.189  1.00  0.00    -0.646 OA
BRANCH  16  18
HETATM   18  O   UNL     1     -16.899 -12.670   0.814  1.00  0.00    -0.773 OA
HETATM   19  H   UNL     1     -16.233 -12.521   0.085  1.00  0.00     0.167 HD
ENDBRANCH  16  18
ENDBRANCH   7  16
ENDBRANCH   3   5
BRANCH   1  20
HETATM   20  C   UNL     1     -20.436  -8.388  -3.758  1.00  0.00     0.072 A 
HETATM   21  C   UNL     1     -19.905  -8.233  -5.053  1.00  0.00     0.117 A 
HETATM   22  C   UNL     1     -20.080  -7.059  -5.799  1.00  0.00     0.035 A 
HETATM   23  C   UNL     1     -20.714  -5.953  -5.242  1.00  0.00    -0.060 A 
HETATM   24  C   UNL     1     -20.826  -4.683  -6.036  1.00  0.00     0.048 C 
HETATM   25  C   UNL     1     -21.211  -6.060  -3.938  1.00  0.00     0.009 A 
HETATM   26  C   UNL     1     -21.089  -7.266  -3.219  1.00  0.00     0.033 A 
BRANCH  21  27
HETATM   27  S   UNL     1     -18.622  -9.349  -5.624  1.00  0.00     0.327 S 
HETATM   28  O   UNL     1     -18.055  -8.698  -6.773  1.00  0.00    -0.191 OA
HETATM   29  O   UNL     1     -17.755  -9.551  -4.473  1.00  0.00    -0.191 OA
BRANCH  27  30
HETATM   30  O   UNL     1     -19.502 -10.514  -5.916  1.00  0.00    -0.086 OA
HETATM   31 CA   UNL     2     -21.551 -10.975  -6.217  1.00  0.00     0.000 Ca
ENDBRANCH  27  30
ENDBRANCH  21  27
ENDBRANCH   1  20
TORSDOF 6
ENDMDL
