MODEL 1
REMARK VINA RESULT:      -6.1      0.000      0.000
REMARK  5 active torsions:
REMARK  status: ('A' for Active; 'I' for Inactive)
REMARK    1  A    between atoms: C_2  and  C_5 
REMARK    2  A    between atoms: C_5  and  C_7 
REMARK    3  A    between atoms: C_7  and  N_8 
REMARK    4  A    between atoms: C_7  and  O_14 
REMARK    5  A    between atoms: O_14  and  C_15 
ROOT
HETATM    1  C   UNL     1     -20.786  -8.899  -2.634  1.00  0.00     0.306 C 
ENDROOT
BRANCH   1   2
HETATM    2  C   UNL     1     -21.876  -9.295  -1.615  1.00  0.00     0.183 C 
HETATM    3  O   UNL     1     -22.484 -10.363  -1.780  1.00  0.00    -0.292 OA
BRANCH   2   4
HETATM    4  C   UNL     1     -22.187  -8.406  -0.387  1.00  0.00     0.014 C 
HETATM    5  C   UNL     1     -23.525  -8.865   0.236  1.00  0.00     0.023 C 
HETATM    6  C   UNL     1     -22.340  -6.930  -0.773  1.00  0.00     0.023 C 
HETATM    7  C   UNL     1     -21.109  -8.581   0.691  1.00  0.00     0.023 C 
ENDBRANCH   2   4
ENDBRANCH   1   2
BRANCH   1   8
HETATM    8  N   UNL     1     -19.561  -9.673  -2.370  1.00  0.00    -0.318 N 
HETATM    9  C   UNL     1     -19.449 -10.869  -1.711  1.00  0.00     0.112 A 
HETATM   10  C   UNL     1     -18.121 -11.211  -1.815  1.00  0.00     0.106 A 
HETATM   11  N   UNL     1     -17.425 -10.250  -2.502  1.00  0.00    -0.361 N 
HETATM   12  C   UNL     1     -18.311  -9.334  -2.813  1.00  0.00     0.185 A 
ATOM     13  HN  UNL     1     -16.429 -10.248  -2.725  1.00  0.00     0.166 HD
ENDBRANCH   1   8
BRANCH   1  14
HETATM   14  O   UNL     1     -21.075  -9.031  -4.016  1.00  0.00    -0.318 OA
BRANCH  14  15
HETATM   15  C   UNL     1     -21.065  -7.918  -4.807  1.00  0.00     0.072 A 
HETATM   16  C   UNL     1     -22.239  -7.159  -4.759  1.00  0.00     0.038 A 
HETATM   17  C   UNL     1     -22.339  -5.960  -5.467  1.00  0.00     0.026 A 
HETATM   18  C   UNL     1     -21.258  -5.513  -6.221  1.00  0.00     0.034 A 
HETATM   19  C   UNL     1     -20.082  -6.259  -6.271  1.00  0.00     0.026 A 
HETATM   20 CL   UNL     1     -21.364  -4.027  -7.079  1.00  0.00    -0.084 Cl
HETATM   21  C   UNL     1     -19.984  -7.462  -5.564  1.00  0.00     0.038 A 
ENDBRANCH  14  15
ENDBRANCH   1  14
TORSDOF 5
ENDMDL
MODEL 2
REMARK VINA RESULT:      -6.0      2.124      3.908
REMARK  5 active torsions:
REMARK  status: ('A' for Active; 'I' for Inactive)
REMARK    1  A    between atoms: C_2  and  C_5 
REMARK    2  A    between atoms: C_5  and  C_7 
REMARK    3  A    between atoms: C_7  and  N_8 
REMARK    4  A    between atoms: C_7  and  O_14 
REMARK    5  A    between atoms: O_14  and  C_15 
ROOT
HETATM    1  C   UNL     1     -21.351  -7.901  -2.936  1.00  0.00     0.306 C 
ENDROOT
BRANCH   1   2
HETATM    2  C   UNL     1     -20.075  -8.755  -3.108  1.00  0.00     0.183 C 
HETATM    3  O   UNL     1     -19.225  -8.741  -2.207  1.00  0.00    -0.292 OA
BRANCH   2   4
HETATM    4  C   UNL     1     -19.869  -9.645  -4.359  1.00  0.00     0.014 C 
HETATM    5  C   UNL     1     -18.886  -8.936  -5.319  1.00  0.00     0.023 C 
HETATM    6  C   UNL     1     -21.178  -9.870  -5.123  1.00  0.00     0.023 C 
HETATM    7  C   UNL     1     -19.225 -10.981  -3.968  1.00  0.00     0.023 C 
ENDBRANCH   2   4
ENDBRANCH   1   2
BRANCH   1   8
HETATM    8  N   UNL     1     -21.944  -8.165  -1.614  1.00  0.00    -0.318 N 
HETATM    9  C   UNL     1     -22.302  -7.251  -0.658  1.00  0.00     0.112 A 
HETATM   10  C   UNL     1     -22.888  -7.993   0.341  1.00  0.00     0.106 A 
HETATM   11  N   UNL     1     -22.880  -9.327   0.025  1.00  0.00    -0.361 N 
HETATM   12  C   UNL     1     -22.297  -9.402  -1.148  1.00  0.00     0.185 A 
ATOM     13  HN  UNL     1     -23.249 -10.097   0.583  1.00  0.00     0.166 HD
ENDBRANCH   1   8
BRANCH   1  14
HETATM   14  O   UNL     1     -21.243  -6.494  -3.075  1.00  0.00    -0.318 OA
BRANCH  14  15
HETATM   15  C   UNL     1     -21.191  -5.952  -4.326  1.00  0.00     0.072 A 
HETATM   16  C   UNL     1     -22.292  -6.250  -5.137  1.00  0.00     0.038 A 
HETATM   17  C   UNL     1     -22.400  -5.704  -6.417  1.00  0.00     0.026 A 
HETATM   18  C   UNL     1     -21.406  -4.851  -6.888  1.00  0.00     0.034 A 
HETATM   19  C   UNL     1     -20.308  -4.543  -6.087  1.00  0.00     0.026 A 
HETATM   20 CL   UNL     1     -21.541  -4.157  -8.455  1.00  0.00    -0.084 Cl
HETATM   21  C   UNL     1     -20.199  -5.093  -4.805  1.00  0.00     0.038 A 
ENDBRANCH  14  15
ENDBRANCH   1  14
TORSDOF 5
ENDMDL
MODEL 3
REMARK VINA RESULT:      -6.0     16.958     19.216
REMARK  5 active torsions:
REMARK  status: ('A' for Active; 'I' for Inactive)
REMARK    1  A    between atoms: C_2  and  C_5 
REMARK    2  A    between atoms: C_5  and  C_7 
REMARK    3  A    between atoms: C_7  and  N_8 
REMARK    4  A    between atoms: C_7  and  O_14 
REMARK    5  A    between atoms: O_14  and  C_15 
ROOT
HETATM    1  C   UNL     1     -35.234  -1.701 -12.272  1.00  0.00     0.306 C 
ENDROOT
BRANCH   1   2
HETATM    2  C   UNL     1     -36.185  -1.681 -11.056  1.00  0.00     0.183 C 
HETATM    3  O   UNL     1     -36.450  -2.752 -10.491  1.00  0.00    -0.292 OA
BRANCH   2   4
HETATM    4  C   UNL     1     -36.772  -0.353 -10.519  1.00  0.00     0.014 C 
HETATM    5  C   UNL     1     -35.771   0.789 -10.811  1.00  0.00     0.023 C 
HETATM    6  C   UNL     1     -36.991  -0.397  -9.002  1.00  0.00     0.023 C 
HETATM    7  C   UNL     1     -38.074  -0.004 -11.251  1.00  0.00     0.023 C 
ENDBRANCH   2   4
ENDBRANCH   1   2
BRANCH   1   8
HETATM    8  N   UNL     1     -34.283  -2.819 -12.136  1.00  0.00    -0.318 N 
HETATM    9  C   UNL     1     -33.351  -3.012 -11.151  1.00  0.00     0.112 A 
HETATM   10  C   UNL     1     -32.790  -4.237 -11.427  1.00  0.00     0.106 A 
HETATM   11  N   UNL     1     -33.342  -4.780 -12.558  1.00  0.00    -0.361 N 
HETATM   12  C   UNL     1     -34.227  -3.903 -12.969  1.00  0.00     0.185 A 
ATOM     13  HN  UNL     1     -33.114  -5.676 -12.988  1.00  0.00     0.166 HD
ENDBRANCH   1   8
BRANCH   1  14
HETATM   14  O   UNL     1     -35.801  -1.790 -13.569  1.00  0.00    -0.318 OA
BRANCH  14  15
HETATM   15  C   UNL     1     -36.036  -0.643 -14.271  1.00  0.00     0.072 A 
HETATM   16  C   UNL     1     -34.977   0.272 -14.263  1.00  0.00     0.038 A 
HETATM   17  C   UNL     1     -35.058   1.457 -14.997  1.00  0.00     0.026 A 
HETATM   18  C   UNL     1     -36.197   1.726 -15.748  1.00  0.00     0.034 A 
HETATM   19  C   UNL     1     -37.255   0.819 -15.768  1.00  0.00     0.026 A 
HETATM   20 CL   UNL     1     -36.297   3.173 -16.672  1.00  0.00    -0.084 Cl
HETATM   21  C   UNL     1     -37.176  -0.367 -15.029  1.00  0.00     0.038 A 
ENDBRANCH  14  15
ENDBRANCH   1  14
TORSDOF 5
ENDMDL
MODEL 4
REMARK VINA RESULT:      -5.9      4.083      6.206
REMARK  5 active torsions:
REMARK  status: ('A' for Active; 'I' for Inactive)
REMARK    1  A    between atoms: C_2  and  C_5 
REMARK    2  A    between atoms: C_5  and  C_7 
REMARK    3  A    between atoms: C_7  and  N_8 
REMARK    4  A    between atoms: C_7  and  O_14 
REMARK    5  A    between atoms: O_14  and  C_15 
ROOT
HETATM    1  C   UNL     1     -21.929 -10.049  -2.284  1.00  0.00     0.306 C 
ENDROOT
BRANCH   1   2
HETATM    2  C   UNL     1     -21.232  -9.118  -1.268  1.00  0.00     0.183 C 
HETATM    3  O   UNL     1     -20.003  -8.969  -1.344  1.00  0.00    -0.292 OA
BRANCH   2   4
HETATM    4  C   UNL     1     -22.043  -8.351  -0.195  1.00  0.00     0.014 C 
HETATM    5  C   UNL     1     -23.372  -9.101   0.056  1.00  0.00     0.023 C 
HETATM    6  C   UNL     1     -22.394  -6.930  -0.652  1.00  0.00     0.023 C 
HETATM    7  C   UNL     1     -21.285  -8.326   1.138  1.00  0.00     0.023 C 
ENDBRANCH   2   4
ENDBRANCH   1   2
BRANCH   1   8
HETATM    8  N   UNL     1     -21.606  -9.612  -3.653  1.00  0.00    -0.318 N 
HETATM    9  C   UNL     1     -21.665  -8.343  -4.166  1.00  0.00     0.112 A 
HETATM   10  C   UNL     1     -21.179  -8.453  -5.447  1.00  0.00     0.106 A 
HETATM   11  N   UNL     1     -20.844  -9.752  -5.730  1.00  0.00    -0.361 N 
HETATM   12  C   UNL     1     -21.122 -10.428  -4.640  1.00  0.00     0.185 A 
ATOM     13  HN  UNL     1     -20.460 -10.117  -6.602  1.00  0.00     0.166 HD
ENDBRANCH   1   8
BRANCH   1  14
HETATM   14  O   UNL     1     -21.665 -11.440  -2.214  1.00  0.00    -0.318 OA
BRANCH  14  15
HETATM   15  C   UNL     1     -22.182 -12.164  -1.179  1.00  0.00     0.072 A 
HETATM   16  C   UNL     1     -21.349 -12.253  -0.058  1.00  0.00     0.038 A 
HETATM   17  C   UNL     1     -21.781 -12.908   1.097  1.00  0.00     0.026 A 
HETATM   18  C   UNL     1     -23.053 -13.470   1.135  1.00  0.00     0.034 A 
HETATM   19  C   UNL     1     -23.893 -13.382   0.026  1.00  0.00     0.026 A 
HETATM   20 CL   UNL     1     -23.603 -14.259   2.561  1.00  0.00    -0.084 Cl
HETATM   21  C   UNL     1     -23.458 -12.729  -1.132  1.00  0.00     0.038 A 
ENDBRANCH  14  15
ENDBRANCH   1  14
TORSDOF 5
ENDMDL
MODEL 5
REMARK VINA RESULT:      -5.8      3.052      4.834
REMARK  5 active torsions:
REMARK  status: ('A' for Active; 'I' for Inactive)
REMARK    1  A    between atoms: C_2  and  C_5 
REMARK    2  A    between atoms: C_5  and  C_7 
REMARK    3  A    between atoms: C_7  and  N_8 
REMARK    4  A    between atoms: C_7  and  O_14 
REMARK    5  A    between atoms: O_14  and  C_15 
ROOT
HETATM    1  C   UNL     1     -20.504  -9.284  -2.411  1.00  0.00     0.306 C 
ENDROOT
BRANCH   1   2
HETATM    2  C   UNL     1     -21.087 -10.252  -1.359  1.00  0.00     0.183 C 
HETATM    3  O   UNL     1     -20.542 -10.320  -0.247  1.00  0.00    -0.292 OA
BRANCH   2   4
HETATM    4  C   UNL     1     -22.350 -11.097  -1.659  1.00  0.00     0.014 C 
HETATM    5  C   UNL     1     -22.052 -12.576  -1.324  1.00  0.00     0.023 C 
HETATM    6  C   UNL     1     -22.745 -11.029  -3.138  1.00  0.00     0.023 C 
HETATM    7  C   UNL     1     -23.515 -10.662  -0.760  1.00  0.00     0.023 C 
ENDBRANCH   2   4
ENDBRANCH   1   2
BRANCH   1   8
HETATM    8  N   UNL     1     -21.250  -8.014  -2.379  1.00  0.00    -0.318 N 
HETATM    9  C   UNL     1     -21.769  -7.373  -1.285  1.00  0.00     0.112 A 
HETATM   10  C   UNL     1     -22.283  -6.195  -1.773  1.00  0.00     0.106 A 
HETATM   11  N   UNL     1     -22.106  -6.113  -3.130  1.00  0.00    -0.361 N 
HETATM   12  C   UNL     1     -21.494  -7.223  -3.469  1.00  0.00     0.185 A 
ATOM     13  HN  UNL     1     -22.389  -5.350  -3.746  1.00  0.00     0.166 HD
ENDBRANCH   1   8
BRANCH   1  14
HETATM   14  O   UNL     1     -19.125  -8.962  -2.339  1.00  0.00    -0.318 OA
BRANCH  14  15
HETATM   15  C   UNL     1     -18.294  -9.369  -3.343  1.00  0.00     0.072 A 
HETATM   16  C   UNL     1     -16.975  -9.612  -2.943  1.00  0.00     0.038 A 
HETATM   17  C   UNL     1     -16.035 -10.097  -3.855  1.00  0.00     0.026 A 
HETATM   18  C   UNL     1     -16.416 -10.347  -5.169  1.00  0.00     0.034 A 
HETATM   19  C   UNL     1     -17.728 -10.114  -5.576  1.00  0.00     0.026 A 
HETATM   20 CL   UNL     1     -15.272 -10.965  -6.293  1.00  0.00    -0.084 Cl
HETATM   21  C   UNL     1     -18.669  -9.624  -4.663  1.00  0.00     0.038 A 
ENDBRANCH  14  15
ENDBRANCH   1  14
TORSDOF 5
ENDMDL
MODEL 6
REMARK VINA RESULT:      -5.7      3.401      4.425
REMARK  5 active torsions:
REMARK  status: ('A' for Active; 'I' for Inactive)
REMARK    1  A    between atoms: C_2  and  C_5 
REMARK    2  A    between atoms: C_5  and  C_7 
REMARK    3  A    between atoms: C_7  and  N_8 
REMARK    4  A    between atoms: C_7  and  O_14 
REMARK    5  A    between atoms: O_14  and  C_15 
ROOT
HETATM    1  C   UNL     1     -20.302  -9.403  -2.060  1.00  0.00     0.306 C 
ENDROOT
BRANCH   1   2
HETATM    2  C   UNL     1     -21.269  -8.564  -1.196  1.00  0.00     0.183 C 
HETATM    3  O   UNL     1     -21.588  -7.432  -1.589  1.00  0.00    -0.292 OA
BRANCH   2   4
HETATM    4  C   UNL     1     -21.866  -9.129   0.116  1.00  0.00     0.014 C 
HETATM    5  C   UNL     1     -22.128  -7.957   1.090  1.00  0.00     0.023 C 
HETATM    6  C   UNL     1     -20.905 -10.100   0.811  1.00  0.00     0.023 C 
HETATM    7  C   UNL     1     -23.221  -9.797  -0.153  1.00  0.00     0.023 C 
ENDBRANCH   2   4
ENDBRANCH   1   2
BRANCH   1   8
HETATM    8  N   UNL     1     -21.050 -10.479  -2.733  1.00  0.00    -0.318 N 
HETATM    9  C   UNL     1     -20.967 -11.827  -2.507  1.00  0.00     0.112 A 
HETATM   10  C   UNL     1     -21.927 -12.384  -3.319  1.00  0.00     0.106 A 
HETATM   11  N   UNL     1     -22.575 -11.415  -4.040  1.00  0.00    -0.361 N 
HETATM   12  C   UNL     1     -22.021 -10.282  -3.678  1.00  0.00     0.185 A 
ATOM     13  HN  UNL     1     -23.328 -11.546  -4.715  1.00  0.00     0.166 HD
ENDBRANCH   1   8
BRANCH   1  14
HETATM   14  O   UNL     1     -19.538  -8.739  -3.053  1.00  0.00    -0.318 OA
BRANCH  14  15
HETATM   15  C   UNL     1     -18.403  -9.331  -3.525  1.00  0.00     0.072 A 
HETATM   16  C   UNL     1     -18.401  -9.568  -4.904  1.00  0.00     0.038 A 
HETATM   17  C   UNL     1     -17.275 -10.107  -5.531  1.00  0.00     0.026 A 
HETATM   18  C   UNL     1     -16.144 -10.404  -4.777  1.00  0.00     0.034 A 
HETATM   19  C   UNL     1     -16.133 -10.166  -3.404  1.00  0.00     0.026 A 
HETATM   20 CL   UNL     1     -14.746 -11.048  -5.543  1.00  0.00    -0.084 Cl
HETATM   21  C   UNL     1     -17.263  -9.629  -2.777  1.00  0.00     0.038 A 
ENDBRANCH  14  15
ENDBRANCH   1  14
TORSDOF 5
ENDMDL
MODEL 7
REMARK VINA RESULT:      -5.5     18.699     20.027
REMARK  5 active torsions:
REMARK  status: ('A' for Active; 'I' for Inactive)
REMARK    1  A    between atoms: C_2  and  C_5 
REMARK    2  A    between atoms: C_5  and  C_7 
REMARK    3  A    between atoms: C_7  and  N_8 
REMARK    4  A    between atoms: C_7  and  O_14 
REMARK    5  A    between atoms: O_14  and  C_15 
ROOT
HETATM    1  C   UNL     1     -16.241   9.727   3.771  1.00  0.00     0.306 C 
ENDROOT
BRANCH   1   2
HETATM    2  C   UNL     1     -15.439  10.517   2.713  1.00  0.00     0.183 C 
HETATM    3  O   UNL     1     -15.497  11.755   2.726  1.00  0.00    -0.292 OA
BRANCH   2   4
HETATM    4  C   UNL     1     -14.546   9.791   1.677  1.00  0.00     0.014 C 
HETATM    5  C   UNL     1     -14.607  10.562   0.339  1.00  0.00     0.023 C 
HETATM    6  C   UNL     1     -15.029   8.361   1.409  1.00  0.00     0.023 C 
HETATM    7  C   UNL     1     -13.080   9.799   2.131  1.00  0.00     0.023 C 
ENDBRANCH   2   4
ENDBRANCH   1   2
BRANCH   1   8
HETATM    8  N   UNL     1     -15.381   9.452   4.935  1.00  0.00    -0.318 N 
HETATM    9  C   UNL     1     -15.165  10.251   6.027  1.00  0.00     0.112 A 
HETATM   10  C   UNL     1     -14.366   9.506   6.862  1.00  0.00     0.106 A 
HETATM   11  N   UNL     1     -14.079   8.289   6.300  1.00  0.00    -0.361 N 
HETATM   12  C   UNL     1     -14.691   8.288   5.140  1.00  0.00     0.185 A 
ATOM     13  HN  UNL     1     -13.511   7.542   6.700  1.00  0.00     0.166 HD
ENDBRANCH   1   8
BRANCH   1  14
HETATM   14  O   UNL     1     -17.445  10.291   4.262  1.00  0.00    -0.318 OA
BRANCH  14  15
HETATM   15  C   UNL     1     -18.634   9.891   3.726  1.00  0.00     0.072 A 
HETATM   16  C   UNL     1     -19.121  10.718   2.707  1.00  0.00     0.038 A 
HETATM   17  C   UNL     1     -20.294  10.390   2.025  1.00  0.00     0.026 A 
HETATM   18  C   UNL     1     -20.980   9.226   2.357  1.00  0.00     0.034 A 
HETATM   19  C   UNL     1     -20.502   8.392   3.365  1.00  0.00     0.026 A 
HETATM   20 CL   UNL     1     -22.414   8.802   1.508  1.00  0.00    -0.084 Cl
HETATM   21  C   UNL     1     -19.328   8.724   4.051  1.00  0.00     0.038 A 
ENDBRANCH  14  15
ENDBRANCH   1  14
TORSDOF 5
ENDMDL
MODEL 8
REMARK VINA RESULT:      -5.5      1.792      2.150
REMARK  5 active torsions:
REMARK  status: ('A' for Active; 'I' for Inactive)
REMARK    1  A    between atoms: C_2  and  C_5 
REMARK    2  A    between atoms: C_5  and  C_7 
REMARK    3  A    between atoms: C_7  and  N_8 
REMARK    4  A    between atoms: C_7  and  O_14 
REMARK    5  A    between atoms: O_14  and  C_15 
ROOT
HETATM    1  C   UNL     1     -20.989  -9.300  -2.649  1.00  0.00     0.306 C 
ENDROOT
BRANCH   1   2
HETATM    2  C   UNL     1     -20.930  -9.451  -1.114  1.00  0.00     0.183 C 
HETATM    3  O   UNL     1     -20.099 -10.231  -0.624  1.00  0.00    -0.292 OA
BRANCH   2   4
HETATM    4  C   UNL     1     -21.857  -8.623  -0.190  1.00  0.00     0.014 C 
HETATM    5  C   UNL     1     -23.211  -9.358  -0.054  1.00  0.00     0.023 C 
HETATM    6  C   UNL     1     -22.142  -7.232  -0.766  1.00  0.00     0.023 C 
HETATM    7  C   UNL     1     -21.261  -8.521   1.220  1.00  0.00     0.023 C 
ENDBRANCH   2   4
ENDBRANCH   1   2
BRANCH   1   8
HETATM    8  N   UNL     1     -21.381 -10.584  -3.255  1.00  0.00    -0.318 N 
HETATM    9  C   UNL     1     -22.634 -11.134  -3.322  1.00  0.00     0.112 A 
HETATM   10  C   UNL     1     -22.481 -12.282  -4.061  1.00  0.00     0.106 A 
HETATM   11  N   UNL     1     -21.171 -12.452  -4.430  1.00  0.00    -0.361 N 
HETATM   12  C   UNL     1     -20.531 -11.425  -3.923  1.00  0.00     0.185 A 
ATOM     13  HN  UNL     1     -20.778 -13.215  -4.981  1.00  0.00     0.166 HD
ENDBRANCH   1   8
BRANCH   1  14
HETATM   14  O   UNL     1     -21.835  -8.302  -3.195  1.00  0.00    -0.318 OA
BRANCH  14  15
HETATM   15  C   UNL     1     -21.436  -7.630  -4.314  1.00  0.00     0.072 A 
HETATM   16  C   UNL     1     -22.334  -6.654  -4.758  1.00  0.00     0.038 A 
HETATM   17  C   UNL     1     -22.020  -5.845  -5.852  1.00  0.00     0.026 A 
HETATM   18  C   UNL     1     -20.800  -6.008  -6.501  1.00  0.00     0.034 A 
HETATM   19  C   UNL     1     -19.896  -6.974  -6.064  1.00  0.00     0.026 A 
HETATM   20 CL   UNL     1     -20.395  -5.002  -7.836  1.00  0.00    -0.084 Cl
HETATM   21  C   UNL     1     -20.213  -7.786  -4.969  1.00  0.00     0.038 A 
ENDBRANCH  14  15
ENDBRANCH   1  14
TORSDOF 5
ENDMDL
MODEL 9
REMARK VINA RESULT:      -5.4     16.058     18.126
REMARK  5 active torsions:
REMARK  status: ('A' for Active; 'I' for Inactive)
REMARK    1  A    between atoms: C_2  and  C_5 
REMARK    2  A    between atoms: C_5  and  C_7 
REMARK    3  A    between atoms: C_7  and  N_8 
REMARK    4  A    between atoms: C_7  and  O_14 
REMARK    5  A    between atoms: O_14  and  C_15 
ROOT
HETATM    1  C   UNL     1     -23.424   8.379  -2.456  1.00  0.00     0.306 C 
ENDROOT
BRANCH   1   2
HETATM    2  C   UNL     1     -22.123   8.634  -3.247  1.00  0.00     0.183 C 
HETATM    3  O   UNL     1     -21.487   7.660  -3.676  1.00  0.00    -0.292 OA
BRANCH   2   4
HETATM    4  C   UNL     1     -21.632  10.073  -3.540  1.00  0.00     0.014 C 
HETATM    5  C   UNL     1     -21.550  10.854  -2.208  1.00  0.00     0.023 C 
HETATM    6  C   UNL     1     -22.596  10.830  -4.461  1.00  0.00     0.023 C 
HETATM    7  C   UNL     1     -20.216  10.049  -4.131  1.00  0.00     0.023 C 
ENDBRANCH   2   4
ENDBRANCH   1   2
BRANCH   1   8
HETATM    8  N   UNL     1     -24.386   7.660  -3.309  1.00  0.00    -0.318 N 
HETATM    9  C   UNL     1     -24.842   8.021  -4.549  1.00  0.00     0.112 A 
HETATM   10  C   UNL     1     -25.642   6.978  -4.952  1.00  0.00     0.106 A 
HETATM   11  N   UNL     1     -25.696   6.006  -3.987  1.00  0.00    -0.361 N 
HETATM   12  C   UNL     1     -24.943   6.447  -3.007  1.00  0.00     0.185 A 
ATOM     13  HN  UNL     1     -26.212   5.127  -4.022  1.00  0.00     0.166 HD
ENDBRANCH   1   8
BRANCH   1  14
HETATM   14  O   UNL     1     -23.339   7.671  -1.230  1.00  0.00    -0.318 OA
BRANCH  14  15
HETATM   15  C   UNL     1     -23.652   8.314  -0.068  1.00  0.00     0.072 A 
HETATM   16  C   UNL     1     -25.025   8.446   0.173  1.00  0.00     0.038 A 
HETATM   17  C   UNL     1     -25.485   9.024   1.357  1.00  0.00     0.026 A 
HETATM   18  C   UNL     1     -24.572   9.465   2.309  1.00  0.00     0.034 A 
HETATM   19  C   UNL     1     -23.203   9.333   2.082  1.00  0.00     0.026 A 
HETATM   20 CL   UNL     1     -25.130  10.158   3.780  1.00  0.00    -0.084 Cl
HETATM   21  C   UNL     1     -22.742   8.757   0.893  1.00  0.00     0.038 A 
ENDBRANCH  14  15
ENDBRANCH   1  14
TORSDOF 5
ENDMDL
