MODEL 1
REMARK VINA RESULT:      -7.9      0.000      0.000
REMARK  5 active torsions:
REMARK  status: ('A' for Active; 'I' for Inactive)
REMARK    1  A    between atoms: C_3  and  O_17 
REMARK    2  A    between atoms: C_6  and  C_7 
REMARK    3  A    between atoms: C_8  and  C_9 
REMARK    4  A    between atoms: C_11  and  O_16 
REMARK    5  A    between atoms: C_13  and  O_15 
ROOT
HETATM    1  C   UNL     1     -20.876  -6.715  -5.469  1.00  0.00    -0.031 A 
HETATM    2  C   UNL     1     -21.619  -6.011  -4.509  1.00  0.00     0.048 A 
HETATM    3  C   UNL     1     -21.648  -6.453  -3.187  1.00  0.00     0.069 A 
HETATM    4  C   UNL     1     -20.962  -7.597  -2.797  1.00  0.00     0.073 A 
HETATM    5  C   UNL     1     -20.245  -8.305  -3.753  1.00  0.00     0.069 A 
HETATM    6  C   UNL     1     -20.199  -7.878  -5.078  1.00  0.00     0.048 A 
ENDROOT
BRANCH   1   7
HETATM    7  C   UNL     1     -20.837  -6.313  -6.886  1.00  0.00     0.012 C 
HETATM    8  C   UNL     1     -21.455  -5.226  -7.380  1.00  0.00     0.012 C 
BRANCH   8   9
HETATM    9  C   UNL     1     -21.450  -4.828  -8.795  1.00  0.00    -0.036 A 
HETATM   10  C   UNL     1     -20.271  -4.577  -9.509  1.00  0.00     0.014 A 
HETATM   11  C   UNL     1     -20.317  -4.182 -10.850  1.00  0.00     0.037 A 
HETATM   12  C   UNL     1     -21.548  -4.025 -11.476  1.00  0.00     0.065 A 
HETATM   13  C   UNL     1     -22.730  -4.248 -10.783  1.00  0.00     0.037 A 
HETATM   14  C   UNL     1     -22.680  -4.643  -9.444  1.00  0.00     0.014 A 
BRANCH  12  15
HETATM   15  O   UNL     1     -21.637  -3.647 -12.783  1.00  0.00    -0.361 OA
HETATM   16  H   UNL     1     -21.335  -2.728 -12.860  1.00  0.00     0.217 HD
ENDBRANCH  12  15
ENDBRANCH   8   9
ENDBRANCH   1   7
BRANCH   3  17
HETATM   17  O   UNL     1     -22.356  -5.782  -2.233  1.00  0.00    -0.361 OA
HETATM   18  H   UNL     1     -22.737  -4.981  -2.632  1.00  0.00     0.217 HD
ENDBRANCH   3  17
BRANCH   5  19
HETATM   19  O   UNL     1     -19.564  -9.444  -3.432  1.00  0.00    -0.361 OA
HETATM   20  H   UNL     1     -20.196 -10.181  -3.403  1.00  0.00     0.217 HD
ENDBRANCH   5  19
TORSDOF 5
ENDMDL
MODEL 2
REMARK VINA RESULT:      -7.9      2.034      7.704
REMARK  5 active torsions:
REMARK  status: ('A' for Active; 'I' for Inactive)
REMARK    1  A    between atoms: C_3  and  O_17 
REMARK    2  A    between atoms: C_6  and  C_7 
REMARK    3  A    between atoms: C_8  and  C_9 
REMARK    4  A    between atoms: C_11  and  O_16 
REMARK    5  A    between atoms: C_13  and  O_15 
ROOT
HETATM    1  C   UNL     1     -21.404  -5.092  -6.844  1.00  0.00    -0.031 A 
HETATM    2  C   UNL     1     -20.472  -5.166  -7.890  1.00  0.00     0.048 A 
HETATM    3  C   UNL     1     -20.804  -4.686  -9.157  1.00  0.00     0.069 A 
HETATM    4  C   UNL     1     -22.058  -4.144  -9.413  1.00  0.00     0.073 A 
HETATM    5  C   UNL     1     -22.987  -4.092  -8.382  1.00  0.00     0.069 A 
HETATM    6  C   UNL     1     -22.673  -4.561  -7.109  1.00  0.00     0.048 A 
ENDROOT
BRANCH   1   7
HETATM    7  C   UNL     1     -21.119  -5.614  -5.496  1.00  0.00     0.012 C 
HETATM    8  C   UNL     1     -21.936  -6.439  -4.818  1.00  0.00     0.012 C 
BRANCH   8   9
HETATM    9  C   UNL     1     -21.682  -6.945  -3.462  1.00  0.00    -0.036 A 
HETATM   10  C   UNL     1     -20.872  -8.061  -3.208  1.00  0.00     0.014 A 
HETATM   11  C   UNL     1     -20.674  -8.518  -1.901  1.00  0.00     0.037 A 
HETATM   12  C   UNL     1     -21.297  -7.863  -0.845  1.00  0.00     0.065 A 
HETATM   13  C   UNL     1     -22.119  -6.769  -1.074  1.00  0.00     0.037 A 
HETATM   14  C   UNL     1     -22.315  -6.315  -2.380  1.00  0.00     0.014 A 
BRANCH  12  15
HETATM   15  O   UNL     1     -21.124  -8.272   0.445  1.00  0.00    -0.361 OA
HETATM   16  H   UNL     1     -21.570  -7.639   1.031  1.00  0.00     0.217 HD
ENDBRANCH  12  15
ENDBRANCH   8   9
ENDBRANCH   1   7
BRANCH   3  17
HETATM   17  O   UNL     1     -19.913  -4.738 -10.189  1.00  0.00    -0.361 OA
HETATM   18  H   UNL     1     -20.251  -4.197 -10.922  1.00  0.00     0.217 HD
ENDBRANCH   3  17
BRANCH   5  19
HETATM   19  O   UNL     1     -24.238  -3.583  -8.579  1.00  0.00    -0.361 OA
HETATM   20  H   UNL     1     -24.710  -4.161  -9.202  1.00  0.00     0.217 HD
ENDBRANCH   5  19
TORSDOF 5
ENDMDL
MODEL 3
REMARK VINA RESULT:      -7.8      0.306      2.333
REMARK  5 active torsions:
REMARK  status: ('A' for Active; 'I' for Inactive)
REMARK    1  A    between atoms: C_3  and  O_17 
REMARK    2  A    between atoms: C_6  and  C_7 
REMARK    3  A    between atoms: C_8  and  C_9 
REMARK    4  A    between atoms: C_11  and  O_16 
REMARK    5  A    between atoms: C_13  and  O_15 
ROOT
HETATM    1  C   UNL     1     -20.917  -6.815  -5.322  1.00  0.00    -0.031 A 
HETATM    2  C   UNL     1     -20.191  -7.946  -4.920  1.00  0.00     0.048 A 
HETATM    3  C   UNL     1     -20.217  -8.355  -3.587  1.00  0.00     0.069 A 
HETATM    4  C   UNL     1     -20.942  -7.650  -2.633  1.00  0.00     0.073 A 
HETATM    5  C   UNL     1     -21.642  -6.518  -3.029  1.00  0.00     0.069 A 
HETATM    6  C   UNL     1     -21.633  -6.095  -4.356  1.00  0.00     0.048 A 
ENDROOT
BRANCH   1   7
HETATM    7  C   UNL     1     -20.898  -6.318  -6.709  1.00  0.00     0.012 C 
HETATM    8  C   UNL     1     -21.528  -5.203  -7.120  1.00  0.00     0.012 C 
BRANCH   8   9
HETATM    9  C   UNL     1     -21.544  -4.710  -8.505  1.00  0.00    -0.036 A 
HETATM   10  C   UNL     1     -22.709  -4.248  -9.132  1.00  0.00     0.014 A 
HETATM   11  C   UNL     1     -22.680  -3.806 -10.459  1.00  0.00     0.037 A 
HETATM   12  C   UNL     1     -21.483  -3.836 -11.164  1.00  0.00     0.065 A 
HETATM   13  C   UNL     1     -20.320  -4.308 -10.570  1.00  0.00     0.037 A 
HETATM   14  C   UNL     1     -20.353  -4.749  -9.245  1.00  0.00     0.014 A 
BRANCH  12  15
HETATM   15  O   UNL     1     -21.409  -3.408 -12.457  1.00  0.00    -0.361 OA
HETATM   16  H   UNL     1     -20.800  -2.653 -12.497  1.00  0.00     0.217 HD
ENDBRANCH  12  15
ENDBRANCH   8   9
ENDBRANCH   1   7
BRANCH   3  17
HETATM   17  O   UNL     1     -19.527  -9.457  -3.172  1.00  0.00    -0.361 OA
HETATM   18  H   UNL     1     -19.839  -9.705  -2.285  1.00  0.00     0.217 HD
ENDBRANCH   3  17
BRANCH   5  19
HETATM   19  O   UNL     1     -22.359  -5.777  -2.134  1.00  0.00    -0.361 OA
HETATM   20  H   UNL     1     -21.986  -5.921  -1.248  1.00  0.00     0.217 HD
ENDBRANCH   5  19
TORSDOF 5
ENDMDL
MODEL 4
REMARK VINA RESULT:      -7.8      2.028      7.496
REMARK  5 active torsions:
REMARK  status: ('A' for Active; 'I' for Inactive)
REMARK    1  A    between atoms: C_3  and  O_17 
REMARK    2  A    between atoms: C_6  and  C_7 
REMARK    3  A    between atoms: C_8  and  C_9 
REMARK    4  A    between atoms: C_11  and  O_16 
REMARK    5  A    between atoms: C_13  and  O_15 
ROOT
HETATM    1  C   UNL     1     -21.565  -5.150  -6.895  1.00  0.00    -0.031 A 
HETATM    2  C   UNL     1     -22.806  -4.552  -7.164  1.00  0.00     0.048 A 
HETATM    3  C   UNL     1     -23.072  -4.033  -8.430  1.00  0.00     0.069 A 
HETATM    4  C   UNL     1     -22.119  -4.081  -9.441  1.00  0.00     0.073 A 
HETATM    5  C   UNL     1     -20.883  -4.653  -9.167  1.00  0.00     0.069 A 
HETATM    6  C   UNL     1     -20.599  -5.182  -7.910  1.00  0.00     0.048 A 
ENDROOT
BRANCH   1   7
HETATM    7  C   UNL     1     -21.218  -5.684  -5.567  1.00  0.00     0.012 C 
HETATM    8  C   UNL     1     -22.048  -6.421  -4.809  1.00  0.00     0.012 C 
BRANCH   8   9
HETATM    9  C   UNL     1     -21.728  -6.936  -3.469  1.00  0.00    -0.036 A 
HETATM   10  C   UNL     1     -20.854  -8.011  -3.259  1.00  0.00     0.014 A 
HETATM   11  C   UNL     1     -20.595  -8.480  -1.967  1.00  0.00     0.037 A 
HETATM   12  C   UNL     1     -21.220  -7.877  -0.882  1.00  0.00     0.065 A 
HETATM   13  C   UNL     1     -22.104  -6.823  -1.067  1.00  0.00     0.037 A 
HETATM   14  C   UNL     1     -22.362  -6.358  -2.359  1.00  0.00     0.014 A 
BRANCH  12  15
HETATM   15  O   UNL     1     -20.989  -8.298   0.395  1.00  0.00    -0.361 OA
HETATM   16  H   UNL     1     -21.597  -7.829   0.988  1.00  0.00     0.217 HD
ENDBRANCH  12  15
ENDBRANCH   8   9
ENDBRANCH   1   7
BRANCH   3  17
HETATM   17  O   UNL     1     -24.273  -3.455  -8.719  1.00  0.00    -0.361 OA
HETATM   18  H   UNL     1     -24.928  -3.750  -8.063  1.00  0.00     0.217 HD
ENDBRANCH   3  17
BRANCH   5  19
HETATM   19  O   UNL     1     -19.904  -4.716 -10.116  1.00  0.00    -0.361 OA
HETATM   20  H   UNL     1     -19.191  -4.106  -9.861  1.00  0.00     0.217 HD
ENDBRANCH   5  19
TORSDOF 5
ENDMDL
MODEL 5
REMARK VINA RESULT:      -7.7      1.355      7.506
REMARK  5 active torsions:
REMARK  status: ('A' for Active; 'I' for Inactive)
REMARK    1  A    between atoms: C_3  and  O_17 
REMARK    2  A    between atoms: C_6  and  C_7 
REMARK    3  A    between atoms: C_8  and  C_9 
REMARK    4  A    between atoms: C_11  and  O_16 
REMARK    5  A    between atoms: C_13  and  O_15 
ROOT
HETATM    1  C   UNL     1     -22.109  -4.382  -8.545  1.00  0.00    -0.031 A 
HETATM    2  C   UNL     1     -21.058  -4.225  -9.461  1.00  0.00     0.048 A 
HETATM    3  C   UNL     1     -21.311  -3.708 -10.731  1.00  0.00     0.069 A 
HETATM    4  C   UNL     1     -22.598  -3.357 -11.121  1.00  0.00     0.073 A 
HETATM    5  C   UNL     1     -23.640  -3.534 -10.220  1.00  0.00     0.069 A 
HETATM    6  C   UNL     1     -23.408  -4.043  -8.945  1.00  0.00     0.048 A 
ENDROOT
BRANCH   1   7
HETATM    7  C   UNL     1     -21.905  -4.953  -7.202  1.00  0.00     0.012 C 
HETATM    8  C   UNL     1     -21.130  -6.021  -6.946  1.00  0.00     0.012 C 
BRANCH   8   9
HETATM    9  C   UNL     1     -20.940  -6.622  -5.617  1.00  0.00    -0.036 A 
HETATM   10  C   UNL     1     -20.204  -7.797  -5.415  1.00  0.00     0.014 A 
HETATM   11  C   UNL     1     -20.066  -8.342  -4.134  1.00  0.00     0.037 A 
HETATM   12  C   UNL     1     -20.675  -7.715  -3.053  1.00  0.00     0.065 A 
HETATM   13  C   UNL     1     -21.425  -6.561  -3.233  1.00  0.00     0.037 A 
HETATM   14  C   UNL     1     -21.561  -6.019  -4.513  1.00  0.00     0.014 A 
BRANCH  12  15
HETATM   15  O   UNL     1     -20.560  -8.209  -1.787  1.00  0.00    -0.361 OA
HETATM   16  H   UNL     1     -20.991  -7.592  -1.175  1.00  0.00     0.217 HD
ENDBRANCH  12  15
ENDBRANCH   8   9
ENDBRANCH   1   7
BRANCH   3  17
HETATM   17  O   UNL     1     -20.305  -3.538 -11.638  1.00  0.00    -0.361 OA
HETATM   18  H   UNL     1     -20.666  -3.663 -12.533  1.00  0.00     0.217 HD
ENDBRANCH   3  17
BRANCH   5  19
HETATM   19  O   UNL     1     -24.926  -3.219 -10.551  1.00  0.00    -0.361 OA
HETATM   20  H   UNL     1     -24.972  -3.088 -11.514  1.00  0.00     0.217 HD
ENDBRANCH   5  19
TORSDOF 5
ENDMDL
MODEL 6
REMARK VINA RESULT:      -7.6      1.290      7.329
REMARK  5 active torsions:
REMARK  status: ('A' for Active; 'I' for Inactive)
REMARK    1  A    between atoms: C_3  and  O_17 
REMARK    2  A    between atoms: C_6  and  C_7 
REMARK    3  A    between atoms: C_8  and  C_9 
REMARK    4  A    between atoms: C_11  and  O_16 
REMARK    5  A    between atoms: C_13  and  O_15 
ROOT
HETATM    1  C   UNL     1     -22.088  -4.455  -8.753  1.00  0.00    -0.031 A 
HETATM    2  C   UNL     1     -23.335  -4.001  -9.208  1.00  0.00     0.048 A 
HETATM    3  C   UNL     1     -23.462  -3.481 -10.496  1.00  0.00     0.069 A 
HETATM    4  C   UNL     1     -22.365  -3.386 -11.343  1.00  0.00     0.073 A 
HETATM    5  C   UNL     1     -21.127  -3.815 -10.884  1.00  0.00     0.069 A 
HETATM    6  C   UNL     1     -20.979  -4.342  -9.603  1.00  0.00     0.048 A 
ENDROOT
BRANCH   1   7
HETATM    7  C   UNL     1     -21.889  -4.982  -7.392  1.00  0.00     0.012 C 
HETATM    8  C   UNL     1     -21.116  -6.042  -7.099  1.00  0.00     0.012 C 
BRANCH   8   9
HETATM    9  C   UNL     1     -20.930  -6.599  -5.751  1.00  0.00    -0.036 A 
HETATM   10  C   UNL     1     -20.165  -7.747  -5.503  1.00  0.00     0.014 A 
HETATM   11  C   UNL     1     -20.032  -8.251  -4.205  1.00  0.00     0.037 A 
HETATM   12  C   UNL     1     -20.676  -7.612  -3.153  1.00  0.00     0.065 A 
HETATM   13  C   UNL     1     -21.456  -6.485  -3.377  1.00  0.00     0.037 A 
HETATM   14  C   UNL     1     -21.587  -5.984  -4.675  1.00  0.00     0.014 A 
BRANCH  12  15
HETATM   15  O   UNL     1     -20.567  -8.067  -1.872  1.00  0.00    -0.361 OA
HETATM   16  H   UNL     1     -21.256  -8.734  -1.722  1.00  0.00     0.217 HD
ENDBRANCH  12  15
ENDBRANCH   8   9
ENDBRANCH   1   7
BRANCH   3  17
HETATM   17  O   UNL     1     -24.666  -3.041 -10.964  1.00  0.00    -0.361 OA
HETATM   18  H   UNL     1     -25.309  -3.055 -10.236  1.00  0.00     0.217 HD
ENDBRANCH   3  17
BRANCH   5  19
HETATM   19  O   UNL     1     -20.011  -3.733 -11.666  1.00  0.00    -0.361 OA
HETATM   20  H   UNL     1     -19.938  -4.554 -12.183  1.00  0.00     0.217 HD
ENDBRANCH   5  19
TORSDOF 5
ENDMDL
MODEL 7
REMARK VINA RESULT:      -7.5      2.826      7.880
REMARK  5 active torsions:
REMARK  status: ('A' for Active; 'I' for Inactive)
REMARK    1  A    between atoms: C_3  and  O_17 
REMARK    2  A    between atoms: C_6  and  C_7 
REMARK    3  A    between atoms: C_8  and  C_9 
REMARK    4  A    between atoms: C_11  and  O_16 
REMARK    5  A    between atoms: C_13  and  O_15 
ROOT
HETATM    1  C   UNL     1     -21.172  -5.709  -5.693  1.00  0.00    -0.031 A 
HETATM    2  C   UNL     1     -22.435  -5.313  -6.159  1.00  0.00     0.048 A 
HETATM    3  C   UNL     1     -22.540  -4.496  -7.284  1.00  0.00     0.069 A 
HETATM    4  C   UNL     1     -21.408  -4.045  -7.953  1.00  0.00     0.073 A 
HETATM    5  C   UNL     1     -20.158  -4.420  -7.477  1.00  0.00     0.069 A 
HETATM    6  C   UNL     1     -20.032  -5.240  -6.358  1.00  0.00     0.048 A 
ENDROOT
BRANCH   1   7
HETATM    7  C   UNL     1     -21.001  -6.543  -4.491  1.00  0.00     0.012 C 
HETATM    8  C   UNL     1     -21.661  -6.347  -3.336  1.00  0.00     0.012 C 
BRANCH   8   9
HETATM    9  C   UNL     1     -21.480  -7.151  -2.119  1.00  0.00    -0.036 A 
HETATM   10  C   UNL     1     -20.529  -8.176  -2.021  1.00  0.00     0.014 A 
HETATM   11  C   UNL     1     -20.405  -8.928  -0.848  1.00  0.00     0.037 A 
HETATM   12  C   UNL     1     -21.244  -8.661   0.228  1.00  0.00     0.065 A 
HETATM   13  C   UNL     1     -22.207  -7.664   0.147  1.00  0.00     0.037 A 
HETATM   14  C   UNL     1     -22.328  -6.916  -1.026  1.00  0.00     0.014 A 
BRANCH  12  15
HETATM   15  O   UNL     1     -21.153  -9.366   1.392  1.00  0.00    -0.361 OA
HETATM   16  H   UNL     1     -20.344  -9.093   1.854  1.00  0.00     0.217 HD
ENDBRANCH  12  15
ENDBRANCH   8   9
ENDBRANCH   1   7
BRANCH   3  17
HETATM   17  O   UNL     1     -23.757  -4.104  -7.761  1.00  0.00    -0.361 OA
HETATM   18  H   UNL     1     -24.321  -4.889  -7.862  1.00  0.00     0.217 HD
ENDBRANCH   3  17
BRANCH   5  19
HETATM   19  O   UNL     1     -19.011  -3.998  -8.085  1.00  0.00    -0.361 OA
HETATM   20  H   UNL     1     -19.146  -4.024  -9.047  1.00  0.00     0.217 HD
ENDBRANCH   5  19
TORSDOF 5
ENDMDL
MODEL 8
REMARK VINA RESULT:      -7.2      2.065      3.108
REMARK  5 active torsions:
REMARK  status: ('A' for Active; 'I' for Inactive)
REMARK    1  A    between atoms: C_3  and  O_17 
REMARK    2  A    between atoms: C_6  and  C_7 
REMARK    3  A    between atoms: C_8  and  C_9 
REMARK    4  A    between atoms: C_11  and  O_16 
REMARK    5  A    between atoms: C_13  and  O_15 
ROOT
HETATM    1  C   UNL     1     -21.454  -7.075  -2.383  1.00  0.00    -0.031 A 
HETATM    2  C   UNL     1     -22.445  -6.784  -1.434  1.00  0.00     0.048 A 
HETATM    3  C   UNL     1     -22.603  -7.603  -0.316  1.00  0.00     0.069 A 
HETATM    4  C   UNL     1     -21.802  -8.722  -0.126  1.00  0.00     0.073 A 
HETATM    5  C   UNL     1     -20.836  -9.021  -1.078  1.00  0.00     0.069 A 
HETATM    6  C   UNL     1     -20.658  -8.213  -2.199  1.00  0.00     0.048 A 
ENDROOT
BRANCH   1   7
HETATM    7  C   UNL     1     -21.264  -6.265  -3.599  1.00  0.00     0.012 C 
HETATM    8  C   UNL     1     -21.428  -6.730  -4.849  1.00  0.00     0.012 C 
BRANCH   8   9
HETATM    9  C   UNL     1     -21.215  -5.944  -6.073  1.00  0.00    -0.036 A 
HETATM   10  C   UNL     1     -20.007  -5.960  -6.783  1.00  0.00     0.014 A 
HETATM   11  C   UNL     1     -19.843  -5.180  -7.933  1.00  0.00     0.037 A 
HETATM   12  C   UNL     1     -20.888  -4.373  -8.367  1.00  0.00     0.065 A 
HETATM   13  C   UNL     1     -22.087  -4.326  -7.669  1.00  0.00     0.037 A 
HETATM   14  C   UNL     1     -22.247  -5.106  -6.521  1.00  0.00     0.014 A 
BRANCH  12  15
HETATM   15  O   UNL     1     -20.772  -3.602  -9.487  1.00  0.00    -0.361 OA
HETATM   16  H   UNL     1     -21.633  -3.579  -9.935  1.00  0.00     0.217 HD
ENDBRANCH  12  15
ENDBRANCH   8   9
ENDBRANCH   1   7
BRANCH   3  17
HETATM   17  O   UNL     1     -23.555  -7.338   0.626  1.00  0.00    -0.361 OA
HETATM   18  H   UNL     1     -24.331  -7.898   0.453  1.00  0.00     0.217 HD
ENDBRANCH   3  17
BRANCH   5  19
HETATM   19  O   UNL     1     -20.028 -10.115  -0.952  1.00  0.00    -0.361 OA
HETATM   20  H   UNL     1     -19.104  -9.813  -0.934  1.00  0.00     0.217 HD
ENDBRANCH   5  19
TORSDOF 5
ENDMDL
MODEL 9
REMARK VINA RESULT:      -7.1      1.514      7.490
REMARK  5 active torsions:
REMARK  status: ('A' for Active; 'I' for Inactive)
REMARK    1  A    between atoms: C_3  and  O_17 
REMARK    2  A    between atoms: C_6  and  C_7 
REMARK    3  A    between atoms: C_8  and  C_9 
REMARK    4  A    between atoms: C_11  and  O_16 
REMARK    5  A    between atoms: C_13  and  O_15 
ROOT
HETATM    1  C   UNL     1     -21.313  -4.833  -8.092  1.00  0.00    -0.031 A 
HETATM    2  C   UNL     1     -20.541  -4.639  -9.248  1.00  0.00     0.048 A 
HETATM    3  C   UNL     1     -21.084  -3.972 -10.346  1.00  0.00     0.069 A 
HETATM    4  C   UNL     1     -22.393  -3.504 -10.327  1.00  0.00     0.073 A 
HETATM    5  C   UNL     1     -23.162  -3.717  -9.190  1.00  0.00     0.069 A 
HETATM    6  C   UNL     1     -22.637  -4.376  -8.081  1.00  0.00     0.048 A 
ENDROOT
BRANCH   1   7
HETATM    7  C   UNL     1     -20.802  -5.560  -6.917  1.00  0.00     0.012 C 
HETATM    8  C   UNL     1     -21.405  -6.630  -6.370  1.00  0.00     0.012 C 
BRANCH   8   9
HETATM    9  C   UNL     1     -20.926  -7.348  -5.180  1.00  0.00    -0.036 A 
HETATM   10  C   UNL     1     -21.549  -7.244  -3.929  1.00  0.00     0.014 A 
HETATM   11  C   UNL     1     -21.045  -7.932  -2.820  1.00  0.00     0.037 A 
HETATM   12  C   UNL     1     -19.907  -8.717  -2.961  1.00  0.00     0.065 A 
HETATM   13  C   UNL     1     -19.261  -8.820  -4.185  1.00  0.00     0.037 A 
HETATM   14  C   UNL     1     -19.767  -8.131  -5.291  1.00  0.00     0.014 A 
BRANCH  12  15
HETATM   15  O   UNL     1     -19.387  -9.409  -1.906  1.00  0.00    -0.361 OA
HETATM   16  H   UNL     1     -18.528  -9.776  -2.172  1.00  0.00     0.217 HD
ENDBRANCH  12  15
ENDBRANCH   8   9
ENDBRANCH   1   7
BRANCH   3  17
HETATM   17  O   UNL     1     -20.352  -3.763 -11.478  1.00  0.00    -0.361 OA
HETATM   18  H   UNL     1     -20.952  -3.478 -12.189  1.00  0.00     0.217 HD
ENDBRANCH   3  17
BRANCH   5  19
HETATM   19  O   UNL     1     -24.457  -3.292  -9.119  1.00  0.00    -0.361 OA
HETATM   20  H   UNL     1     -24.498  -2.377  -9.446  1.00  0.00     0.217 HD
ENDBRANCH   5  19
TORSDOF 5
ENDMDL
