MODEL 1
REMARK VINA RESULT:      -7.1      0.000      0.000
REMARK  15 active torsions:
REMARK  status: ('A' for Active; 'I' for Inactive)
REMARK    1  A    between atoms: C_2  and  C_3 
REMARK    2  A    between atoms: C_3  and  C_4 
REMARK    3  A    between atoms: C_4  and  C_5 
REMARK    4  A    between atoms: C_5  and  C_6 
REMARK    5  A    between atoms: C_6  and  C_7 
REMARK    6  A    between atoms: C_7  and  C_8 
REMARK    7  A    between atoms: C_8  and  C_9 
REMARK    8  A    between atoms: C_9  and  C_10 
REMARK    9  A    between atoms: C_10  and  O_11 
REMARK   10  A    between atoms: O_11  and  C_12 
REMARK   11  A    between atoms: C_13  and  O_22 
REMARK   12  A    between atoms: C_14  and  O_21 
REMARK   13  A    between atoms: C_15  and  O_20 
REMARK   14  A    between atoms: C_16  and  C_18 
REMARK   15  A    between atoms: C_18  and  O_19 
ROOT
HETATM    1  C   UNL     1     -21.850  -3.451 -10.027  1.00  0.00     0.291 C 
HETATM    2  C   UNL     1     -23.153  -3.954  -9.365  1.00  0.00     0.204 C 
HETATM    3  C   UNL     1     -23.926  -4.852 -10.355  1.00  0.00     0.183 C 
HETATM    4  C   UNL     1     -24.107  -4.164 -11.717  1.00  0.00     0.180 C 
HETATM    5  C   UNL     1     -22.723  -3.754 -12.235  1.00  0.00     0.179 C 
HETATM    6  O   UNL     1     -22.123  -2.833 -11.299  1.00  0.00    -0.348 OA
ENDROOT
BRANCH   1   7
HETATM    7  O   UNL     1     -20.947  -4.549 -10.154  1.00  0.00    -0.359 OA
BRANCH   7   8
HETATM    8  C   UNL     1     -19.853  -4.486  -9.241  1.00  0.00     0.171 C 
BRANCH   8   9
HETATM    9  C   UNL     1     -20.218  -5.289  -7.992  1.00  0.00     0.026 C 
BRANCH   9  10
HETATM   10  C   UNL     1     -20.063  -4.505  -6.682  1.00  0.00     0.002 C 
BRANCH  10  11
HETATM   11  C   UNL     1     -20.244  -5.378  -5.442  1.00  0.00     0.000 C 
BRANCH  11  12
HETATM   12  C   UNL     1     -21.111  -6.600  -5.735  1.00  0.00     0.000 C 
BRANCH  12  13
HETATM   13  C   UNL     1     -22.059  -6.879  -4.572  1.00  0.00     0.000 C 
BRANCH  13  14
HETATM   14  C   UNL     1     -21.591  -6.178  -3.299  1.00  0.00     0.000 C 
BRANCH  14  15
HETATM   15  C   UNL     1     -21.421  -7.176  -2.156  1.00  0.00    -0.000 C 
BRANCH  15  16
HETATM   16  C   UNL     1     -22.342  -6.836  -0.990  1.00  0.00    -0.005 C 
HETATM   17  C   UNL     1     -22.311  -7.918   0.077  1.00  0.00     0.005 C 
ENDBRANCH  15  16
ENDBRANCH  14  15
ENDBRANCH  13  14
ENDBRANCH  12  13
ENDBRANCH  11  12
ENDBRANCH  10  11
ENDBRANCH   9  10
ENDBRANCH   8   9
ENDBRANCH   7   8
ENDBRANCH   1   7
BRANCH   2  18
HETATM   18  O   UNL     1     -23.962  -2.839  -8.946  1.00  0.00    -0.388 OA
HETATM   19  H   UNL     1     -23.393  -2.049  -8.969  1.00  0.00     0.210 HD
ENDBRANCH   2  18
BRANCH   3  20
HETATM   20  O   UNL     1     -25.206  -5.198  -9.823  1.00  0.00    -0.390 OA
HETATM   21  H   UNL     1     -25.286  -4.699  -8.990  1.00  0.00     0.210 HD
ENDBRANCH   3  20
BRANCH   5  22
HETATM   22  C   UNL     1     -22.771  -3.080 -13.610  1.00  0.00     0.198 C 
BRANCH  22  23
HETATM   23  O   UNL     1     -23.839  -3.627 -14.385  1.00  0.00    -0.398 OA
HETATM   24  H   UNL     1     -24.037  -4.499 -13.989  1.00  0.00     0.209 HD
ENDBRANCH  22  23
ENDBRANCH   5  22
BRANCH   4  25
HETATM   25  O   UNL     1     -24.966  -3.018 -11.540  1.00  0.00    -0.390 OA
HETATM   26  H   UNL     1     -25.338  -2.762 -12.405  1.00  0.00     0.210 HD
ENDBRANCH   4  25
TORSDOF 15
ENDMDL
MODEL 2
REMARK VINA RESULT:      -5.9      5.667      9.920
REMARK  15 active torsions:
REMARK  status: ('A' for Active; 'I' for Inactive)
REMARK    1  A    between atoms: C_2  and  C_3 
REMARK    2  A    between atoms: C_3  and  C_4 
REMARK    3  A    between atoms: C_4  and  C_5 
REMARK    4  A    between atoms: C_5  and  C_6 
REMARK    5  A    between atoms: C_6  and  C_7 
REMARK    6  A    between atoms: C_7  and  C_8 
REMARK    7  A    between atoms: C_8  and  C_9 
REMARK    8  A    between atoms: C_9  and  C_10 
REMARK    9  A    between atoms: C_10  and  O_11 
REMARK   10  A    between atoms: O_11  and  C_12 
REMARK   11  A    between atoms: C_13  and  O_22 
REMARK   12  A    between atoms: C_14  and  O_21 
REMARK   13  A    between atoms: C_15  and  O_20 
REMARK   14  A    between atoms: C_16  and  C_18 
REMARK   15  A    between atoms: C_18  and  O_19 
ROOT
HETATM    1  C   UNL     1     -20.075  -9.075  -2.624  1.00  0.00     0.291 C 
HETATM    2  C   UNL     1     -20.253 -10.545  -2.179  1.00  0.00     0.204 C 
HETATM    3  C   UNL     1     -21.721 -10.789  -1.766  1.00  0.00     0.183 C 
HETATM    4  C   UNL     1     -22.203  -9.737  -0.755  1.00  0.00     0.180 C 
HETATM    5  C   UNL     1     -21.976  -8.348  -1.364  1.00  0.00     0.179 C 
HETATM    6  O   UNL     1     -20.566  -8.170  -1.617  1.00  0.00    -0.348 OA
ENDROOT
BRANCH   1   7
HETATM    7  O   UNL     1     -20.741  -8.890  -3.873  1.00  0.00    -0.359 OA
BRANCH   7   8
HETATM    8  C   UNL     1     -20.204  -7.815  -4.642  1.00  0.00     0.171 C 
BRANCH   8   9
HETATM    9  C   UNL     1     -21.332  -7.210  -5.480  1.00  0.00     0.026 C 
BRANCH   9  10
HETATM   10  C   UNL     1     -20.841  -6.324  -6.633  1.00  0.00     0.002 C 
BRANCH  10  11
HETATM   11  C   UNL     1     -20.512  -4.900  -6.190  1.00  0.00     0.000 C 
BRANCH  11  12
HETATM   12  C   UNL     1     -20.581  -3.917  -7.356  1.00  0.00     0.000 C 
BRANCH  12  13
HETATM   13  C   UNL     1     -22.024  -3.723  -7.811  1.00  0.00     0.000 C 
BRANCH  13  14
HETATM   14  C   UNL     1     -22.200  -4.128  -9.273  1.00  0.00     0.000 C 
BRANCH  14  15
HETATM   15  C   UNL     1     -20.846  -4.316  -9.956  1.00  0.00    -0.000 C 
BRANCH  15  16
HETATM   16  C   UNL     1     -20.711  -3.401 -11.168  1.00  0.00    -0.005 C 
HETATM   17  C   UNL     1     -21.995  -3.363 -11.981  1.00  0.00     0.005 C 
ENDBRANCH  15  16
ENDBRANCH  14  15
ENDBRANCH  13  14
ENDBRANCH  12  13
ENDBRANCH  11  12
ENDBRANCH  10  11
ENDBRANCH   9  10
ENDBRANCH   8   9
ENDBRANCH   7   8
ENDBRANCH   1   7
BRANCH   2  18
HETATM   18  O   UNL     1     -19.357 -10.850  -1.095  1.00  0.00    -0.388 OA
HETATM   19  H   UNL     1     -19.076 -10.001  -0.709  1.00  0.00     0.210 HD
ENDBRANCH   2  18
BRANCH   3  20
HETATM   20  O   UNL     1     -21.871 -12.094  -1.202  1.00  0.00    -0.390 OA
HETATM   21  H   UNL     1     -21.563 -12.018  -0.281  1.00  0.00     0.210 HD
ENDBRANCH   3  20
BRANCH   5  22
HETATM   22  C   UNL     1     -22.450  -7.209  -0.455  1.00  0.00     0.198 C 
BRANCH  22  23
HETATM   23  O   UNL     1     -23.553  -7.646   0.341  1.00  0.00    -0.398 OA
HETATM   24  H   UNL     1     -23.205  -7.742   1.249  1.00  0.00     0.209 HD
ENDBRANCH  22  23
ENDBRANCH   5  22
BRANCH   4  25
HETATM   25  O   UNL     1     -21.461  -9.905   0.470  1.00  0.00    -0.390 OA
HETATM   26  H   UNL     1     -22.082  -9.900   1.223  1.00  0.00     0.210 HD
ENDBRANCH   4  25
TORSDOF 15
ENDMDL
MODEL 3
REMARK VINA RESULT:      -5.7      5.652      9.839
REMARK  15 active torsions:
REMARK  status: ('A' for Active; 'I' for Inactive)
REMARK    1  A    between atoms: C_2  and  C_3 
REMARK    2  A    between atoms: C_3  and  C_4 
REMARK    3  A    between atoms: C_4  and  C_5 
REMARK    4  A    between atoms: C_5  and  C_6 
REMARK    5  A    between atoms: C_6  and  C_7 
REMARK    6  A    between atoms: C_7  and  C_8 
REMARK    7  A    between atoms: C_8  and  C_9 
REMARK    8  A    between atoms: C_9  and  C_10 
REMARK    9  A    between atoms: C_10  and  O_11 
REMARK   10  A    between atoms: O_11  and  C_12 
REMARK   11  A    between atoms: C_13  and  O_22 
REMARK   12  A    between atoms: C_14  and  O_21 
REMARK   13  A    between atoms: C_15  and  O_20 
REMARK   14  A    between atoms: C_16  and  C_18 
REMARK   15  A    between atoms: C_18  and  O_19 
ROOT
HETATM    1  C   UNL     1     -20.186  -9.571  -1.926  1.00  0.00     0.291 C 
HETATM    2  C   UNL     1     -20.761 -10.681  -1.015  1.00  0.00     0.204 C 
HETATM    3  C   UNL     1     -22.273 -10.449  -0.805  1.00  0.00     0.183 C 
HETATM    4  C   UNL     1     -22.565  -9.012  -0.348  1.00  0.00     0.180 C 
HETATM    5  C   UNL     1     -21.948  -8.049  -1.371  1.00  0.00     0.179 C 
HETATM    6  O   UNL     1     -20.522  -8.265  -1.421  1.00  0.00    -0.348 OA
ENDROOT
BRANCH   1   7
HETATM    7  O   UNL     1     -20.676  -9.768  -3.253  1.00  0.00    -0.359 OA
BRANCH   7   8
HETATM    8  C   UNL     1     -19.950  -9.030  -4.235  1.00  0.00     0.171 C 
BRANCH   8   9
HETATM    9  C   UNL     1     -20.928  -8.113  -4.969  1.00  0.00     0.026 C 
BRANCH   9  10
HETATM   10  C   UNL     1     -20.263  -6.894  -5.624  1.00  0.00     0.002 C 
BRANCH  10  11
HETATM   11  C   UNL     1     -21.233  -5.735  -5.845  1.00  0.00     0.000 C 
BRANCH  11  12
HETATM   12  C   UNL     1     -20.501  -4.454  -6.238  1.00  0.00     0.000 C 
BRANCH  12  13
HETATM   13  C   UNL     1     -21.302  -3.673  -7.276  1.00  0.00     0.000 C 
BRANCH  13  14
HETATM   14  C   UNL     1     -20.864  -4.030  -8.694  1.00  0.00     0.000 C 
BRANCH  14  15
HETATM   15  C   UNL     1     -22.052  -4.491  -9.535  1.00  0.00    -0.000 C 
BRANCH  15  16
HETATM   16  C   UNL     1     -21.772  -4.317 -11.022  1.00  0.00    -0.005 C 
HETATM   17  C   UNL     1     -20.730  -3.238 -11.269  1.00  0.00     0.005 C 
ENDBRANCH  15  16
ENDBRANCH  14  15
ENDBRANCH  13  14
ENDBRANCH  12  13
ENDBRANCH  11  12
ENDBRANCH  10  11
ENDBRANCH   9  10
ENDBRANCH   8   9
ENDBRANCH   7   8
ENDBRANCH   1   7
BRANCH   2  18
HETATM   18  O   UNL     1     -20.065 -10.701   0.244  1.00  0.00    -0.388 OA
HETATM   19  H   UNL     1     -19.221 -11.165   0.097  1.00  0.00     0.210 HD
ENDBRANCH   2  18
BRANCH   3  20
HETATM   20  O   UNL     1     -22.790 -11.369   0.160  1.00  0.00    -0.390 OA
HETATM   21  H   UNL     1     -22.166 -12.117   0.168  1.00  0.00     0.210 HD
ENDBRANCH   3  20
BRANCH   5  22
HETATM   22  C   UNL     1     -22.201  -6.575  -1.038  1.00  0.00     0.198 C 
BRANCH  22  23
HETATM   23  O   UNL     1     -22.629  -5.876  -2.208  1.00  0.00    -0.398 OA
HETATM   24  H   UNL     1     -22.821  -4.963  -1.919  1.00  0.00     0.209 HD
ENDBRANCH  22  23
ENDBRANCH   5  22
BRANCH   4  25
HETATM   25  O   UNL     1     -21.996  -8.824   0.964  1.00  0.00    -0.390 OA
HETATM   26  H   UNL     1     -21.692  -7.901   1.051  1.00  0.00     0.210 HD
ENDBRANCH   4  25
TORSDOF 15
ENDMDL
MODEL 4
REMARK VINA RESULT:      -5.5     12.753     14.670
REMARK  15 active torsions:
REMARK  status: ('A' for Active; 'I' for Inactive)
REMARK    1  A    between atoms: C_2  and  C_3 
REMARK    2  A    between atoms: C_3  and  C_4 
REMARK    3  A    between atoms: C_4  and  C_5 
REMARK    4  A    between atoms: C_5  and  C_6 
REMARK    5  A    between atoms: C_6  and  C_7 
REMARK    6  A    between atoms: C_7  and  C_8 
REMARK    7  A    between atoms: C_8  and  C_9 
REMARK    8  A    between atoms: C_9  and  C_10 
REMARK    9  A    between atoms: C_10  and  O_11 
REMARK   10  A    between atoms: O_11  and  C_12 
REMARK   11  A    between atoms: C_13  and  O_22 
REMARK   12  A    between atoms: C_14  and  O_21 
REMARK   13  A    between atoms: C_15  and  O_20 
REMARK   14  A    between atoms: C_16  and  C_18 
REMARK   15  A    between atoms: C_18  and  O_19 
ROOT
HETATM    1  C   UNL     1     -35.778  -1.605 -15.901  1.00  0.00     0.291 C 
HETATM    2  C   UNL     1     -36.358  -0.285 -16.461  1.00  0.00     0.204 C 
HETATM    3  C   UNL     1     -35.718   0.915 -15.729  1.00  0.00     0.183 C 
HETATM    4  C   UNL     1     -35.806   0.757 -14.203  1.00  0.00     0.180 C 
HETATM    5  C   UNL     1     -35.168  -0.585 -13.824  1.00  0.00     0.179 C 
HETATM    6  O   UNL     1     -35.896  -1.652 -14.467  1.00  0.00    -0.348 OA
ENDROOT
BRANCH   1   7
HETATM    7  O   UNL     1     -34.420  -1.724 -16.325  1.00  0.00    -0.359 OA
BRANCH   7   8
HETATM    8  C   UNL     1     -34.126  -2.988 -16.919  1.00  0.00     0.171 C 
BRANCH   8   9
HETATM    9  C   UNL     1     -34.405  -4.082 -15.888  1.00  0.00     0.026 C 
BRANCH   9  10
HETATM   10  C   UNL     1     -33.377  -4.138 -14.749  1.00  0.00     0.002 C 
BRANCH  10  11
HETATM   11  C   UNL     1     -34.025  -4.165 -13.365  1.00  0.00     0.000 C 
BRANCH  11  12
HETATM   12  C   UNL     1     -32.990  -3.994 -12.255  1.00  0.00     0.000 C 
BRANCH  12  13
HETATM   13  C   UNL     1     -33.670  -3.936 -10.891  1.00  0.00     0.000 C 
BRANCH  13  14
HETATM   14  C   UNL     1     -34.679  -5.069 -10.728  1.00  0.00     0.000 C 
BRANCH  14  15
HETATM   15  C   UNL     1     -33.977  -6.425 -10.684  1.00  0.00    -0.000 C 
BRANCH  15  16
HETATM   16  C   UNL     1     -34.764  -7.423  -9.843  1.00  0.00    -0.005 C 
HETATM   17  C   UNL     1     -34.081  -8.781  -9.807  1.00  0.00     0.005 C 
ENDBRANCH  15  16
ENDBRANCH  14  15
ENDBRANCH  13  14
ENDBRANCH  12  13
ENDBRANCH  11  12
ENDBRANCH  10  11
ENDBRANCH   9  10
ENDBRANCH   8   9
ENDBRANCH   7   8
ENDBRANCH   1   7
BRANCH   2  18
HETATM   18  O   UNL     1     -37.790  -0.270 -16.316  1.00  0.00    -0.388 OA
HETATM   19  H   UNL     1     -38.139   0.340 -16.991  1.00  0.00     0.210 HD
ENDBRANCH   2  18
BRANCH   3  20
HETATM   20  O   UNL     1     -36.355   2.135 -16.119  1.00  0.00    -0.390 OA
HETATM   21  H   UNL     1     -37.311   1.963 -16.051  1.00  0.00     0.210 HD
ENDBRANCH   3  20
BRANCH   5  22
HETATM   22  C   UNL     1     -35.167  -0.844 -12.313  1.00  0.00     0.198 C 
BRANCH  22  23
HETATM   23  O   UNL     1     -36.466  -1.262 -11.889  1.00  0.00    -0.398 OA
HETATM   24  H   UNL     1     -37.100  -0.800 -12.473  1.00  0.00     0.209 HD
ENDBRANCH  22  23
ENDBRANCH   5  22
BRANCH   4  25
HETATM   25  O   UNL     1     -37.194   0.811 -13.817  1.00  0.00    -0.390 OA
HETATM   26  H   UNL     1     -37.258   0.735 -12.846  1.00  0.00     0.210 HD
ENDBRANCH   4  25
TORSDOF 15
ENDMDL
MODEL 5
REMARK VINA RESULT:      -5.5      4.818      8.950
REMARK  15 active torsions:
REMARK  status: ('A' for Active; 'I' for Inactive)
REMARK    1  A    between atoms: C_2  and  C_3 
REMARK    2  A    between atoms: C_3  and  C_4 
REMARK    3  A    between atoms: C_4  and  C_5 
REMARK    4  A    between atoms: C_5  and  C_6 
REMARK    5  A    between atoms: C_6  and  C_7 
REMARK    6  A    between atoms: C_7  and  C_8 
REMARK    7  A    between atoms: C_8  and  C_9 
REMARK    8  A    between atoms: C_9  and  C_10 
REMARK    9  A    between atoms: C_10  and  O_11 
REMARK   10  A    between atoms: O_11  and  C_12 
REMARK   11  A    between atoms: C_13  and  O_22 
REMARK   12  A    between atoms: C_14  and  O_21 
REMARK   13  A    between atoms: C_15  and  O_20 
REMARK   14  A    between atoms: C_16  and  C_18 
REMARK   15  A    between atoms: C_18  and  O_19 
ROOT
HETATM    1  C   UNL     1     -20.665  -8.401  -5.170  1.00  0.00     0.291 C 
HETATM    2  C   UNL     1     -21.174  -8.692  -3.739  1.00  0.00     0.204 C 
HETATM    3  C   UNL     1     -19.972  -8.876  -2.787  1.00  0.00     0.183 C 
HETATM    4  C   UNL     1     -18.964  -9.894  -3.342  1.00  0.00     0.180 C 
HETATM    5  C   UNL     1     -18.551  -9.441  -4.748  1.00  0.00     0.179 C 
HETATM    6  O   UNL     1     -19.720  -9.402  -5.593  1.00  0.00    -0.348 OA
ENDROOT
BRANCH   1   7
HETATM    7  O   UNL     1     -20.097  -7.091  -5.196  1.00  0.00    -0.359 OA
BRANCH   7   8
HETATM    8  C   UNL     1     -21.067  -6.062  -5.385  1.00  0.00     0.171 C 
BRANCH   8   9
HETATM    9  C   UNL     1     -20.364  -4.837  -5.971  1.00  0.00     0.026 C 
BRANCH   9  10
HETATM   10  C   UNL     1     -19.698  -5.095  -7.330  1.00  0.00     0.002 C 
BRANCH  10  11
HETATM   11  C   UNL     1     -20.056  -4.041  -8.377  1.00  0.00     0.000 C 
BRANCH  11  12
HETATM   12  C   UNL     1     -20.142  -4.644  -9.777  1.00  0.00     0.000 C 
BRANCH  12  13
HETATM   13  C   UNL     1     -20.509  -3.575 -10.801  1.00  0.00     0.000 C 
BRANCH  13  14
HETATM   14  C   UNL     1     -21.568  -4.085 -11.775  1.00  0.00     0.000 C 
BRANCH  14  15
HETATM   15  C   UNL     1     -22.828  -3.223 -11.715  1.00  0.00    -0.000 C 
BRANCH  15  16
HETATM   16  C   UNL     1     -23.539  -3.384 -10.377  1.00  0.00    -0.005 C 
HETATM   17  C   UNL     1     -24.033  -4.808 -10.177  1.00  0.00     0.005 C 
ENDBRANCH  15  16
ENDBRANCH  14  15
ENDBRANCH  13  14
ENDBRANCH  12  13
ENDBRANCH  11  12
ENDBRANCH  10  11
ENDBRANCH   9  10
ENDBRANCH   8   9
ENDBRANCH   7   8
ENDBRANCH   1   7
BRANCH   2  18
HETATM   18  O   UNL     1     -22.013  -9.861  -3.738  1.00  0.00    -0.388 OA
HETATM   19  H   UNL     1     -22.418  -9.922  -2.853  1.00  0.00     0.210 HD
ENDBRANCH   2  18
BRANCH   3  20
HETATM   20  O   UNL     1     -20.417  -9.302  -1.497  1.00  0.00    -0.390 OA
HETATM   21  H   UNL     1     -20.529  -8.486  -0.977  1.00  0.00     0.210 HD
ENDBRANCH   3  20
BRANCH   5  22
HETATM   22  C   UNL     1     -17.517 -10.367  -5.398  1.00  0.00     0.198 C 
BRANCH  22  23
HETATM   23  O   UNL     1     -16.886 -11.172  -4.400  1.00  0.00    -0.398 OA
HETATM   24  H   UNL     1     -17.367 -12.023  -4.400  1.00  0.00     0.209 HD
ENDBRANCH  22  23
ENDBRANCH   5  22
BRANCH   4  25
HETATM   25  O   UNL     1     -19.592 -11.192  -3.369  1.00  0.00    -0.390 OA
HETATM   26  H   UNL     1     -20.158 -11.257  -4.160  1.00  0.00     0.210 HD
ENDBRANCH   4  25
TORSDOF 15
ENDMDL
MODEL 6
REMARK VINA RESULT:      -5.3     12.889     15.531
REMARK  15 active torsions:
REMARK  status: ('A' for Active; 'I' for Inactive)
REMARK    1  A    between atoms: C_2  and  C_3 
REMARK    2  A    between atoms: C_3  and  C_4 
REMARK    3  A    between atoms: C_4  and  C_5 
REMARK    4  A    between atoms: C_5  and  C_6 
REMARK    5  A    between atoms: C_6  and  C_7 
REMARK    6  A    between atoms: C_7  and  C_8 
REMARK    7  A    between atoms: C_8  and  C_9 
REMARK    8  A    between atoms: C_9  and  C_10 
REMARK    9  A    between atoms: C_10  and  O_11 
REMARK   10  A    between atoms: O_11  and  C_12 
REMARK   11  A    between atoms: C_13  and  O_22 
REMARK   12  A    between atoms: C_14  and  O_21 
REMARK   13  A    between atoms: C_15  and  O_20 
REMARK   14  A    between atoms: C_16  and  C_18 
REMARK   15  A    between atoms: C_18  and  O_19 
ROOT
HETATM    1  C   UNL     1     -25.114   7.718  -4.400  1.00  0.00     0.291 C 
HETATM    2  C   UNL     1     -25.431   7.053  -3.041  1.00  0.00     0.204 C 
HETATM    3  C   UNL     1     -24.835   7.900  -1.896  1.00  0.00     0.183 C 
HETATM    4  C   UNL     1     -23.351   8.212  -2.140  1.00  0.00     0.180 C 
HETATM    5  C   UNL     1     -23.222   8.885  -3.512  1.00  0.00     0.179 C 
HETATM    6  O   UNL     1     -23.703   7.980  -4.528  1.00  0.00    -0.348 OA
ENDROOT
BRANCH   1   7
HETATM    7  O   UNL     1     -25.887   8.912  -4.517  1.00  0.00    -0.359 OA
BRANCH   7   8
HETATM    8  C   UNL     1     -26.432   9.103  -5.822  1.00  0.00     0.171 C 
BRANCH   8   9
HETATM    9  C   UNL     1     -25.995  10.477  -6.332  1.00  0.00     0.026 C 
BRANCH   9  10
HETATM   10  C   UNL     1     -26.436  10.773  -7.773  1.00  0.00     0.002 C 
BRANCH  10  11
HETATM   11  C   UNL     1     -25.944   9.727  -8.772  1.00  0.00     0.000 C 
BRANCH  11  12
HETATM   12  C   UNL     1     -25.745  10.325 -10.162  1.00  0.00     0.000 C 
BRANCH  12  13
HETATM   13  C   UNL     1     -25.519   9.224 -11.194  1.00  0.00     0.000 C 
BRANCH  13  14
HETATM   14  C   UNL     1     -26.270   7.951 -10.815  1.00  0.00     0.000 C 
BRANCH  14  15
HETATM   15  C   UNL     1     -25.408   6.713 -11.058  1.00  0.00    -0.000 C 
BRANCH  15  16
HETATM   16  C   UNL     1     -25.761   5.598 -10.081  1.00  0.00    -0.005 C 
HETATM   17  C   UNL     1     -25.812   6.109  -8.650  1.00  0.00     0.005 C 
ENDBRANCH  15  16
ENDBRANCH  14  15
ENDBRANCH  13  14
ENDBRANCH  12  13
ENDBRANCH  11  12
ENDBRANCH  10  11
ENDBRANCH   9  10
ENDBRANCH   8   9
ENDBRANCH   7   8
ENDBRANCH   1   7
BRANCH   2  18
HETATM   18  O   UNL     1     -24.913   5.711  -3.010  1.00  0.00    -0.388 OA
HETATM   19  H   UNL     1     -24.121   5.697  -3.578  1.00  0.00     0.210 HD
ENDBRANCH   2  18
BRANCH   3  20
HETATM   20  O   UNL     1     -24.979   7.223  -0.645  1.00  0.00    -0.390 OA
HETATM   21  H   UNL     1     -25.264   7.904  -0.010  1.00  0.00     0.210 HD
ENDBRANCH   3  20
BRANCH   5  22
HETATM   22  C   UNL     1     -21.781   9.275  -3.858  1.00  0.00     0.198 C 
BRANCH  22  23
HETATM   23  O   UNL     1     -21.045   8.119  -4.259  1.00  0.00    -0.398 OA
HETATM   24  H   UNL     1     -20.145   8.436  -4.474  1.00  0.00     0.209 HD
ENDBRANCH  22  23
ENDBRANCH   5  22
BRANCH   4  25
HETATM   25  O   UNL     1     -22.608   6.977  -2.085  1.00  0.00    -0.390 OA
HETATM   26  H   UNL     1     -21.656   7.173  -2.170  1.00  0.00     0.210 HD
ENDBRANCH   4  25
TORSDOF 15
ENDMDL
MODEL 7
REMARK VINA RESULT:      -5.3     17.315     19.404
REMARK  15 active torsions:
REMARK  status: ('A' for Active; 'I' for Inactive)
REMARK    1  A    between atoms: C_2  and  C_3 
REMARK    2  A    between atoms: C_3  and  C_4 
REMARK    3  A    between atoms: C_4  and  C_5 
REMARK    4  A    between atoms: C_5  and  C_6 
REMARK    5  A    between atoms: C_6  and  C_7 
REMARK    6  A    between atoms: C_7  and  C_8 
REMARK    7  A    between atoms: C_8  and  C_9 
REMARK    8  A    between atoms: C_9  and  C_10 
REMARK    9  A    between atoms: C_10  and  O_11 
REMARK   10  A    between atoms: O_11  and  C_12 
REMARK   11  A    between atoms: C_13  and  O_22 
REMARK   12  A    between atoms: C_14  and  O_21 
REMARK   13  A    between atoms: C_15  and  O_20 
REMARK   14  A    between atoms: C_16  and  C_18 
REMARK   15  A    between atoms: C_18  and  O_19 
ROOT
HETATM    1  C   UNL     1     -16.763  10.013   3.222  1.00  0.00     0.291 C 
HETATM    2  C   UNL     1     -15.828   9.640   2.048  1.00  0.00     0.204 C 
HETATM    3  C   UNL     1     -15.113   8.306   2.357  1.00  0.00     0.183 C 
HETATM    4  C   UNL     1     -14.447   8.331   3.742  1.00  0.00     0.180 C 
HETATM    5  C   UNL     1     -15.516   8.693   4.781  1.00  0.00     0.179 C 
HETATM    6  O   UNL     1     -16.050   9.997   4.473  1.00  0.00    -0.348 OA
ENDROOT
BRANCH   1   7
HETATM    7  O   UNL     1     -17.869   9.110   3.231  1.00  0.00    -0.359 OA
BRANCH   7   8
HETATM    8  C   UNL     1     -19.089   9.721   3.651  1.00  0.00     0.171 C 
BRANCH   8   9
HETATM    9  C   UNL     1     -20.049   9.750   2.461  1.00  0.00     0.026 C 
BRANCH   9  10
HETATM   10  C   UNL     1     -21.231   8.779   2.594  1.00  0.00     0.002 C 
BRANCH  10  11
HETATM   11  C   UNL     1     -22.322   9.026   1.554  1.00  0.00     0.000 C 
BRANCH  11  12
HETATM   12  C   UNL     1     -23.639   9.439   2.207  1.00  0.00     0.000 C 
BRANCH  12  13
HETATM   13  C   UNL     1     -24.825   8.994   1.356  1.00  0.00     0.000 C 
BRANCH  13  14
HETATM   14  C   UNL     1     -24.382   8.634  -0.060  1.00  0.00     0.000 C 
BRANCH  14  15
HETATM   15  C   UNL     1     -25.274   7.544  -0.651  1.00  0.00    -0.000 C 
BRANCH  15  16
HETATM   16  C   UNL     1     -24.455   6.542  -1.456  1.00  0.00    -0.005 C 
HETATM   17  C   UNL     1     -22.976   6.896  -1.445  1.00  0.00     0.005 C 
ENDBRANCH  15  16
ENDBRANCH  14  15
ENDBRANCH  13  14
ENDBRANCH  12  13
ENDBRANCH  11  12
ENDBRANCH  10  11
ENDBRANCH   9  10
ENDBRANCH   8   9
ENDBRANCH   7   8
ENDBRANCH   1   7
BRANCH   2  18
HETATM   18  O   UNL     1     -14.873  10.692   1.818  1.00  0.00    -0.388 OA
HETATM   19  H   UNL     1     -14.033  10.410   2.223  1.00  0.00     0.210 HD
ENDBRANCH   2  18
BRANCH   3  20
HETATM   20  O   UNL     1     -14.128   8.025   1.360  1.00  0.00    -0.390 OA
HETATM   21  H   UNL     1     -14.251   8.704   0.673  1.00  0.00     0.210 HD
ENDBRANCH   3  20
BRANCH   5  22
HETATM   22  C   UNL     1     -14.976   8.718   6.214  1.00  0.00     0.198 C 
BRANCH  22  23
HETATM   23  O   UNL     1     -13.704   8.070   6.269  1.00  0.00    -0.398 OA
HETATM   24  H   UNL     1     -13.750   7.453   7.025  1.00  0.00     0.209 HD
ENDBRANCH  22  23
ENDBRANCH   5  22
BRANCH   4  25
HETATM   25  O   UNL     1     -13.382   9.303   3.720  1.00  0.00    -0.390 OA
HETATM   26  H   UNL     1     -13.690  10.105   3.259  1.00  0.00     0.210 HD
ENDBRANCH   4  25
TORSDOF 15
ENDMDL
MODEL 8
REMARK VINA RESULT:      -5.2      6.520      8.652
REMARK  15 active torsions:
REMARK  status: ('A' for Active; 'I' for Inactive)
REMARK    1  A    between atoms: C_2  and  C_3 
REMARK    2  A    between atoms: C_3  and  C_4 
REMARK    3  A    between atoms: C_4  and  C_5 
REMARK    4  A    between atoms: C_5  and  C_6 
REMARK    5  A    between atoms: C_6  and  C_7 
REMARK    6  A    between atoms: C_7  and  C_8 
REMARK    7  A    between atoms: C_8  and  C_9 
REMARK    8  A    between atoms: C_9  and  C_10 
REMARK    9  A    between atoms: C_10  and  O_11 
REMARK   10  A    between atoms: O_11  and  C_12 
REMARK   11  A    between atoms: C_13  and  O_22 
REMARK   12  A    between atoms: C_14  and  O_21 
REMARK   13  A    between atoms: C_15  and  O_20 
REMARK   14  A    between atoms: C_16  and  C_18 
REMARK   15  A    between atoms: C_18  and  O_19 
ROOT
HETATM    1  C   UNL     1     -19.281 -10.202  -4.828  1.00  0.00     0.291 C 
HETATM    2  C   UNL     1     -17.870  -9.782  -4.356  1.00  0.00     0.204 C 
HETATM    3  C   UNL     1     -16.874  -9.898  -5.530  1.00  0.00     0.183 C 
HETATM    4  C   UNL     1     -16.955 -11.277  -6.204  1.00  0.00     0.180 C 
HETATM    5  C   UNL     1     -18.409 -11.519  -6.626  1.00  0.00     0.179 C 
HETATM    6  O   UNL     1     -19.250 -11.499  -5.454  1.00  0.00    -0.348 OA
ENDROOT
BRANCH   1   7
HETATM    7  O   UNL     1     -19.787  -9.200  -5.710  1.00  0.00    -0.359 OA
BRANCH   7   8
HETATM    8  C   UNL     1     -20.039  -7.955  -5.060  1.00  0.00     0.171 C 
BRANCH   8   9
HETATM    9  C   UNL     1     -21.350  -8.074  -4.281  1.00  0.00     0.026 C 
BRANCH   9  10
HETATM   10  C   UNL     1     -21.960  -6.722  -3.883  1.00  0.00     0.002 C 
BRANCH  10  11
HETATM   11  C   UNL     1     -21.403  -6.184  -2.567  1.00  0.00     0.000 C 
BRANCH  11  12
HETATM   12  C   UNL     1     -22.335  -6.484  -1.395  1.00  0.00     0.000 C 
BRANCH  12  13
HETATM   13  C   UNL     1     -21.791  -7.638  -0.558  1.00  0.00     0.000 C 
BRANCH  13  14
HETATM   14  C   UNL     1     -22.700  -7.931   0.633  1.00  0.00     0.000 C 
BRANCH  14  15
HETATM   15  C   UNL     1     -23.632  -9.103   0.334  1.00  0.00    -0.000 C 
BRANCH  15  16
HETATM   16  C   UNL     1     -23.010 -10.055  -0.681  1.00  0.00    -0.005 C 
HETATM   17  C   UNL     1     -23.286 -11.507  -0.324  1.00  0.00     0.005 C 
ENDBRANCH  15  16
ENDBRANCH  14  15
ENDBRANCH  13  14
ENDBRANCH  12  13
ENDBRANCH  11  12
ENDBRANCH  10  11
ENDBRANCH   9  10
ENDBRANCH   8   9
ENDBRANCH   7   8
ENDBRANCH   1   7
BRANCH   2  18
HETATM   18  O   UNL     1     -17.452 -10.597  -3.247  1.00  0.00    -0.388 OA
HETATM   19  H   UNL     1     -18.189 -10.612  -2.609  1.00  0.00     0.210 HD
ENDBRANCH   2  18
BRANCH   3  20
HETATM   20  O   UNL     1     -15.538  -9.667  -5.077  1.00  0.00    -0.390 OA
HETATM   21  H   UNL     1     -15.449  -8.700  -5.009  1.00  0.00     0.210 HD
ENDBRANCH   3  20
BRANCH   5  22
HETATM   22  C   UNL     1     -18.612 -12.858  -7.342  1.00  0.00     0.198 C 
BRANCH  22  23
HETATM   23  O   UNL     1     -17.346 -13.448  -7.642  1.00  0.00    -0.398 OA
HETATM   24  H   UNL     1     -17.540 -14.357  -7.945  1.00  0.00     0.209 HD
ENDBRANCH  22  23
ENDBRANCH   5  22
BRANCH   4  25
HETATM   25  O   UNL     1     -16.505 -12.273  -5.263  1.00  0.00    -0.390 OA
HETATM   26  H   UNL     1     -16.143 -11.827  -4.475  1.00  0.00     0.210 HD
ENDBRANCH   4  25
TORSDOF 15
ENDMDL
MODEL 9
REMARK VINA RESULT:      -5.2      5.056      8.731
REMARK  15 active torsions:
REMARK  status: ('A' for Active; 'I' for Inactive)
REMARK    1  A    between atoms: C_2  and  C_3 
REMARK    2  A    between atoms: C_3  and  C_4 
REMARK    3  A    between atoms: C_4  and  C_5 
REMARK    4  A    between atoms: C_5  and  C_6 
REMARK    5  A    between atoms: C_6  and  C_7 
REMARK    6  A    between atoms: C_7  and  C_8 
REMARK    7  A    between atoms: C_8  and  C_9 
REMARK    8  A    between atoms: C_9  and  C_10 
REMARK    9  A    between atoms: C_10  and  O_11 
REMARK   10  A    between atoms: O_11  and  C_12 
REMARK   11  A    between atoms: C_13  and  O_22 
REMARK   12  A    between atoms: C_14  and  O_21 
REMARK   13  A    between atoms: C_15  and  O_20 
REMARK   14  A    between atoms: C_16  and  C_18 
REMARK   15  A    between atoms: C_18  and  O_19 
ROOT
HETATM    1  C   UNL     1     -20.517  -9.590  -5.092  1.00  0.00     0.291 C 
HETATM    2  C   UNL     1     -21.048 -11.000  -5.439  1.00  0.00     0.204 C 
HETATM    3  C   UNL     1     -19.950 -12.051  -5.162  1.00  0.00     0.183 C 
HETATM    4  C   UNL     1     -18.622 -11.668  -5.833  1.00  0.00     0.180 C 
HETATM    5  C   UNL     1     -18.236 -10.261  -5.363  1.00  0.00     0.179 C 
HETATM    6  O   UNL     1     -19.267  -9.332  -5.759  1.00  0.00    -0.348 OA
ENDROOT
BRANCH   1   7
HETATM    7  O   UNL     1     -20.393  -9.483  -3.673  1.00  0.00    -0.359 OA
BRANCH   7   8
HETATM    8  C   UNL     1     -20.770  -8.201  -3.172  1.00  0.00     0.171 C 
BRANCH   8   9
HETATM    9  C   UNL     1     -21.607  -7.493  -4.238  1.00  0.00     0.026 C 
BRANCH   9  10
HETATM   10  C   UNL     1     -21.270  -6.004  -4.403  1.00  0.00     0.002 C 
BRANCH  10  11
HETATM   11  C   UNL     1     -21.365  -5.531  -5.853  1.00  0.00     0.000 C 
BRANCH  11  12
HETATM   12  C   UNL     1     -20.178  -6.014  -6.682  1.00  0.00     0.000 C 
BRANCH  12  13
HETATM   13  C   UNL     1     -19.288  -4.841  -7.082  1.00  0.00     0.000 C 
BRANCH  13  14
HETATM   14  C   UNL     1     -19.991  -3.933  -8.088  1.00  0.00     0.000 C 
BRANCH  14  15
HETATM   15  C   UNL     1     -20.176  -4.642  -9.428  1.00  0.00    -0.000 C 
BRANCH  15  16
HETATM   16  C   UNL     1     -21.517  -4.283 -10.058  1.00  0.00    -0.005 C 
HETATM   17  C   UNL     1     -21.344  -3.765 -11.477  1.00  0.00     0.005 C 
ENDBRANCH  15  16
ENDBRANCH  14  15
ENDBRANCH  13  14
ENDBRANCH  12  13
ENDBRANCH  11  12
ENDBRANCH  10  11
ENDBRANCH   9  10
ENDBRANCH   8   9
ENDBRANCH   7   8
ENDBRANCH   1   7
BRANCH   2  18
HETATM   18  O   UNL     1     -21.470 -11.049  -6.813  1.00  0.00    -0.388 OA
HETATM   19  H   UNL     1     -21.868 -11.926  -6.959  1.00  0.00     0.210 HD
ENDBRANCH   2  18
BRANCH   3  20
HETATM   20  O   UNL     1     -20.363 -13.339  -5.624  1.00  0.00    -0.390 OA
HETATM   21  H   UNL     1     -19.749 -13.973  -5.213  1.00  0.00     0.210 HD
ENDBRANCH   3  20
BRANCH   5  22
HETATM   22  C   UNL     1     -16.903  -9.777  -5.944  1.00  0.00     0.198 C 
BRANCH  22  23
HETATM   23  O   UNL     1     -16.067 -10.896  -6.245  1.00  0.00    -0.398 OA
HETATM   24  H   UNL     1     -16.670 -11.656  -6.366  1.00  0.00     0.209 HD
ENDBRANCH  22  23
ENDBRANCH   5  22
BRANCH   4  25
HETATM   25  O   UNL     1     -18.801 -11.717  -7.263  1.00  0.00    -0.390 OA
HETATM   26  H   UNL     1     -18.299 -10.988  -7.673  1.00  0.00     0.210 HD
ENDBRANCH   4  25
TORSDOF 15
ENDMDL
