MODEL 1
REMARK VINA RESULT:      -5.8      0.000      0.000
REMARK  2 active torsions:
REMARK  status: ('A' for Active; 'I' for Inactive)
REMARK    1  A    between atoms: C_1  and  C_2 
REMARK    2  A    between atoms: C_1  and  C_6 
ROOT
HETATM    1  C   UNL     1     -33.936  -4.418 -10.596  1.00  0.00     0.383 C 
HETATM    2  F   UNL     1     -35.156  -3.811 -10.500  1.00  0.00    -0.230 F 
ENDROOT
BRANCH   1   3
HETATM    3  C   UNL     1     -34.092  -5.867 -10.920  1.00  0.00     0.426 C 
HETATM    4  F   UNL     1     -32.909  -6.518 -10.967  1.00  0.00    -0.168 F 
HETATM    5  F   UNL     1     -34.824  -6.485  -9.959  1.00  0.00    -0.168 F 
HETATM    6  F   UNL     1     -34.721  -6.084 -12.094  1.00  0.00    -0.168 F 
ENDBRANCH   1   3
BRANCH   1   7
HETATM    7  C   UNL     1     -33.089  -3.761 -11.640  1.00  0.00     0.426 C 
HETATM    8  F   UNL     1     -32.029  -4.520 -11.992  1.00  0.00    -0.168 F 
HETATM    9  F   UNL     1     -33.775  -3.467 -12.761  1.00  0.00    -0.168 F 
HETATM   10  F   UNL     1     -32.587  -2.598 -11.167  1.00  0.00    -0.168 F 
ENDBRANCH   1   7
TORSDOF 2
ENDMDL
MODEL 2
REMARK VINA RESULT:      -5.8      0.069      1.190
REMARK  2 active torsions:
REMARK  status: ('A' for Active; 'I' for Inactive)
REMARK    1  A    between atoms: C_1  and  C_2 
REMARK    2  A    between atoms: C_1  and  C_6 
ROOT
HETATM    1  C   UNL     1     -33.916  -4.386 -10.572  1.00  0.00     0.383 C 
HETATM    2  F   UNL     1     -35.147  -3.804 -10.467  1.00  0.00    -0.230 F 
ENDROOT
BRANCH   1   3
HETATM    3  C   UNL     1     -34.044  -5.836 -10.903  1.00  0.00     0.426 C 
HETATM    4  F   UNL     1     -34.787  -6.511  -9.998  1.00  0.00    -0.168 F 
HETATM    5  F   UNL     1     -34.672  -5.990 -12.096  1.00  0.00    -0.168 F 
HETATM    6  F   UNL     1     -32.854  -6.465 -11.001  1.00  0.00    -0.168 F 
ENDBRANCH   1   3
BRANCH   1   7
HETATM    7  C   UNL     1     -33.088  -3.706 -11.617  1.00  0.00     0.426 C 
HETATM    8  F   UNL     1     -32.031  -4.454 -11.999  1.00  0.00    -0.168 F 
HETATM    9  F   UNL     1     -33.792  -3.395 -12.722  1.00  0.00    -0.168 F 
HETATM   10  F   UNL     1     -32.583  -2.550 -11.130  1.00  0.00    -0.168 F 
ENDBRANCH   1   7
TORSDOF 2
ENDMDL
MODEL 3
REMARK VINA RESULT:      -5.6      1.087      3.142
REMARK  2 active torsions:
REMARK  status: ('A' for Active; 'I' for Inactive)
REMARK    1  A    between atoms: C_1  and  C_2 
REMARK    2  A    between atoms: C_1  and  C_6 
ROOT
HETATM    1  C   UNL     1     -34.473  -4.400 -11.723  1.00  0.00     0.383 C 
HETATM    2  F   UNL     1     -35.757  -4.105 -11.365  1.00  0.00    -0.230 F 
ENDROOT
BRANCH   1   3
HETATM    3  C   UNL     1     -33.554  -3.278 -11.369  1.00  0.00     0.426 C 
HETATM    4  F   UNL     1     -32.266  -3.546 -11.674  1.00  0.00    -0.168 F 
HETATM    5  F   UNL     1     -33.884  -2.165 -12.072  1.00  0.00    -0.168 F 
HETATM    6  F   UNL     1     -33.602  -2.945 -10.062  1.00  0.00    -0.168 F 
ENDBRANCH   1   3
BRANCH   1   7
HETATM    7  C   UNL     1     -34.005  -5.657 -11.058  1.00  0.00     0.426 C 
HETATM    8  F   UNL     1     -34.742  -6.730 -11.414  1.00  0.00    -0.168 F 
HETATM    9  F   UNL     1     -32.715  -5.939 -11.321  1.00  0.00    -0.168 F 
HETATM   10  F   UNL     1     -34.119  -5.543  -9.716  1.00  0.00    -0.168 F 
ENDBRANCH   1   7
TORSDOF 2
ENDMDL
MODEL 4
REMARK VINA RESULT:      -5.6      1.152      2.446
REMARK  2 active torsions:
REMARK  status: ('A' for Active; 'I' for Inactive)
REMARK    1  A    between atoms: C_1  and  C_2 
REMARK    2  A    between atoms: C_1  and  C_6 
ROOT
HETATM    1  C   UNL     1     -33.347  -3.971 -11.858  1.00  0.00     0.383 C 
HETATM    2  F   UNL     1     -32.016  -3.702 -11.712  1.00  0.00    -0.230 F 
ENDROOT
BRANCH   1   3
HETATM    3  C   UNL     1     -33.697  -5.271 -11.213  1.00  0.00     0.426 C 
HETATM    4  F   UNL     1     -34.715  -5.902 -11.838  1.00  0.00    -0.168 F 
HETATM    5  F   UNL     1     -32.639  -6.119 -11.266  1.00  0.00    -0.168 F 
HETATM    6  F   UNL     1     -34.035  -5.144  -9.913  1.00  0.00    -0.168 F 
ENDBRANCH   1   3
BRANCH   1   7
HETATM    7  C   UNL     1     -34.184  -2.879 -11.268  1.00  0.00     0.426 C 
HETATM    8  F   UNL     1     -35.477  -3.242 -11.132  1.00  0.00    -0.168 F 
HETATM    9  F   UNL     1     -33.741  -2.475 -10.063  1.00  0.00    -0.168 F 
HETATM   10  F   UNL     1     -34.173  -1.796 -12.078  1.00  0.00    -0.168 F 
ENDBRANCH   1   7
TORSDOF 2
ENDMDL
MODEL 5
REMARK VINA RESULT:      -5.4      9.846     11.324
REMARK  2 active torsions:
REMARK  status: ('A' for Active; 'I' for Inactive)
REMARK    1  A    between atoms: C_1  and  C_2 
REMARK    2  A    between atoms: C_1  and  C_6 
ROOT
HETATM    1  C   UNL     1     -22.668  -2.744 -12.028  1.00  0.00     0.383 C 
HETATM    2  F   UNL     1     -22.493  -2.925 -13.370  1.00  0.00    -0.230 F 
ENDROOT
BRANCH   1   3
HETATM    3  C   UNL     1     -23.967  -3.330 -11.581  1.00  0.00     0.426 C 
HETATM    4  F   UNL     1     -24.346  -2.882 -10.364  1.00  0.00    -0.168 F 
HETATM    5  F   UNL     1     -24.958  -2.979 -12.439  1.00  0.00    -0.168 F 
HETATM    6  F   UNL     1     -23.950  -4.678 -11.530  1.00  0.00    -0.168 F 
ENDBRANCH   1   3
BRANCH   1   7
HETATM    7  C   UNL     1     -21.547  -3.361 -11.251  1.00  0.00     0.426 C 
HETATM    8  F   UNL     1     -21.827  -3.451  -9.934  1.00  0.00    -0.168 F 
HETATM    9  F   UNL     1     -21.224  -4.593 -11.689  1.00  0.00    -0.168 F 
HETATM   10  F   UNL     1     -20.435  -2.600 -11.356  1.00  0.00    -0.168 F 
ENDBRANCH   1   7
TORSDOF 2
ENDMDL
MODEL 6
REMARK VINA RESULT:      -5.4      9.359     10.639
REMARK  2 active torsions:
REMARK  status: ('A' for Active; 'I' for Inactive)
REMARK    1  A    between atoms: C_1  and  C_2 
REMARK    2  A    between atoms: C_1  and  C_6 
ROOT
HETATM    1  C   UNL     1     -23.796  -2.975 -11.566  1.00  0.00     0.383 C 
HETATM    2  F   UNL     1     -24.766  -3.332 -12.460  1.00  0.00    -0.230 F 
ENDROOT
BRANCH   1   3
HETATM    3  C   UNL     1     -24.025  -3.637 -10.248  1.00  0.00     0.426 C 
HETATM    4  F   UNL     1     -22.971  -3.504  -9.412  1.00  0.00    -0.168 F 
HETATM    5  F   UNL     1     -25.081  -3.067  -9.616  1.00  0.00    -0.168 F 
HETATM    6  F   UNL     1     -24.294  -4.955 -10.355  1.00  0.00    -0.168 F 
ENDBRANCH   1   3
BRANCH   1   7
HETATM    7  C   UNL     1     -22.436  -3.334 -12.077  1.00  0.00     0.426 C 
HETATM    8  F   UNL     1     -21.471  -2.544 -11.562  1.00  0.00    -0.168 F 
HETATM    9  F   UNL     1     -22.102  -4.613 -11.820  1.00  0.00    -0.168 F 
HETATM   10  F   UNL     1     -22.386  -3.174 -13.419  1.00  0.00    -0.168 F 
ENDBRANCH   1   7
TORSDOF 2
ENDMDL
MODEL 7
REMARK VINA RESULT:      -5.4      1.034      3.200
REMARK  2 active torsions:
REMARK  status: ('A' for Active; 'I' for Inactive)
REMARK    1  A    between atoms: C_1  and  C_2 
REMARK    2  A    between atoms: C_1  and  C_6 
ROOT
HETATM    1  C   UNL     1     -33.667  -3.995 -10.731  1.00  0.00     0.383 C 
HETATM    2  F   UNL     1     -32.668  -3.492 -11.515  1.00  0.00    -0.230 F 
ENDROOT
BRANCH   1   3
HETATM    3  C   UNL     1     -34.952  -3.282 -10.991  1.00  0.00     0.426 C 
HETATM    4  F   UNL     1     -34.998  -2.067 -10.402  1.00  0.00    -0.168 F 
HETATM    5  F   UNL     1     -35.105  -3.062 -12.321  1.00  0.00    -0.168 F 
HETATM    6  F   UNL     1     -36.035  -3.973 -10.580  1.00  0.00    -0.168 F 
ENDBRANCH   1   3
BRANCH   1   7
HETATM    7  C   UNL     1     -33.852  -5.461 -10.972  1.00  0.00     0.426 C 
HETATM    8  F   UNL     1     -32.682  -6.093 -11.206  1.00  0.00    -0.168 F 
HETATM    9  F   UNL     1     -34.459  -6.087  -9.946  1.00  0.00    -0.168 F 
HETATM   10  F   UNL     1     -34.620  -5.659 -12.067  1.00  0.00    -0.168 F 
ENDBRANCH   1   7
TORSDOF 2
ENDMDL
MODEL 8
REMARK VINA RESULT:      -5.4      2.065      3.815
REMARK  2 active torsions:
REMARK  status: ('A' for Active; 'I' for Inactive)
REMARK    1  A    between atoms: C_1  and  C_2 
REMARK    2  A    between atoms: C_1  and  C_6 
ROOT
HETATM    1  C   UNL     1     -34.305  -2.791 -12.226  1.00  0.00     0.383 C 
HETATM    2  F   UNL     1     -35.136  -3.870 -12.332  1.00  0.00    -0.230 F 
ENDROOT
BRANCH   1   3
HETATM    3  C   UNL     1     -35.084  -1.550 -11.941  1.00  0.00     0.426 C 
HETATM    4  F   UNL     1     -36.174  -1.429 -12.730  1.00  0.00    -0.168 F 
HETATM    5  F   UNL     1     -35.543  -1.569 -10.664  1.00  0.00    -0.168 F 
HETATM    6  F   UNL     1     -34.355  -0.423 -12.080  1.00  0.00    -0.168 F 
ENDBRANCH   1   3
BRANCH   1   7
HETATM    7  C   UNL     1     -33.286  -3.000 -11.150  1.00  0.00     0.426 C 
HETATM    8  F   UNL     1     -32.859  -1.836 -10.616  1.00  0.00    -0.168 F 
HETATM    9  F   UNL     1     -33.739  -3.772 -10.144  1.00  0.00    -0.168 F 
HETATM   10  F   UNL     1     -32.193  -3.613 -11.657  1.00  0.00    -0.168 F 
ENDBRANCH   1   7
TORSDOF 2
ENDMDL
MODEL 9
REMARK VINA RESULT:      -5.3      1.310      2.475
REMARK  2 active torsions:
REMARK  status: ('A' for Active; 'I' for Inactive)
REMARK    1  A    between atoms: C_1  and  C_2 
REMARK    2  A    between atoms: C_1  and  C_6 
ROOT
HETATM    1  C   UNL     1     -34.193  -4.630 -11.230  1.00  0.00     0.383 C 
HETATM    2  F   UNL     1     -33.874  -5.200 -10.030  1.00  0.00    -0.230 F 
ENDROOT
BRANCH   1   3
HETATM    3  C   UNL     1     -35.082  -3.447 -11.033  1.00  0.00     0.426 C 
HETATM    4  F   UNL     1     -34.521  -2.504 -10.245  1.00  0.00    -0.168 F 
HETATM    5  F   UNL     1     -35.331  -2.846 -12.223  1.00  0.00    -0.168 F 
HETATM    6  F   UNL     1     -36.278  -3.766 -10.496  1.00  0.00    -0.168 F 
ENDBRANCH   1   3
BRANCH   1   7
HETATM    7  C   UNL     1     -32.961  -4.212 -11.970  1.00  0.00     0.426 C 
HETATM    8  F   UNL     1     -31.980  -5.137 -11.895  1.00  0.00    -0.168 F 
HETATM    9  F   UNL     1     -33.193  -3.964 -13.273  1.00  0.00    -0.168 F 
HETATM   10  F   UNL     1     -32.459  -3.077 -11.434  1.00  0.00    -0.168 F 
ENDBRANCH   1   7
TORSDOF 2
ENDMDL
