MODEL 1
REMARK VINA RESULT:      -6.0      0.000      0.000
REMARK  5 active torsions:
REMARK  status: ('A' for Active; 'I' for Inactive)
REMARK    1  A    between atoms: CG_2  and  CB_7 
REMARK    2  A    between atoms: CB_7  and  CA_8 
REMARK    3  A    between atoms: CA_8  and  C_9 
REMARK    4  A    between atoms: CA_8  and  N_12 
REMARK    5  A    between atoms: C_9  and  OXT_11 
ROOT
ATOM      1  CB  HIS A   1     -22.782  -2.812 -12.054  1.00  0.00     0.105 C 
ENDROOT
BRANCH   1   2
ATOM      2  CG  HIS A   1     -23.191  -3.263 -10.693  1.00  0.00     0.028 A 
ATOM      3  CD2 HIS A   1     -24.418  -3.352 -10.075  1.00  0.00     0.114 A 
ATOM      4  NE2 HIS A   1     -24.279  -3.778  -8.782  1.00  0.00    -0.360 N 
ATOM      5  CE1 HIS A   1     -22.996  -4.002  -8.620  1.00  0.00     0.180 A 
ATOM      6  HE2 HIS A   1     -25.018  -3.896  -8.089  1.00  0.00     0.166 HD
ATOM      7  ND1 HIS A   1     -22.293  -3.723  -9.758  1.00  0.00    -0.355 N 
ATOM      8  HD1 HIS A   1     -21.292  -3.817  -9.871  1.00  0.00     0.166 HD
ENDBRANCH   1   2
BRANCH   1   9
ATOM      9  CA  HIS A   1     -23.899  -2.974 -13.100  1.00  0.00     0.320 C 
BRANCH   9  10
ATOM     10  C   HIS A   1     -23.593  -2.124 -14.345  1.00  0.00     0.174 C 
ATOM     11  O   HIS A   1     -22.770  -2.439 -15.197  1.00  0.00    -0.648 OA
BRANCH  10  12
ATOM     12  OXT HIS A   1     -24.295  -0.973 -14.420  1.00  0.00    -0.775 OA
ATOM     13  HXT HIS A   1     -25.252  -1.067 -14.232  1.00  0.00     0.167 HD
ENDBRANCH  10  12
ENDBRANCH   9  10
BRANCH   9  14
ATOM     14  N   HIS A   1     -24.006  -4.398 -13.497  1.00  0.00     0.093 N 
ATOM     15  H1  HIS A   1     -23.375  -4.547 -14.294  1.00  0.00     0.314 HD
ATOM     16  H2  HIS A   1     -24.934  -4.559 -13.896  1.00  0.00     0.314 HD
ENDBRANCH   9  14
ENDBRANCH   1   9
TORSDOF 5
ENDMDL
MODEL 2
REMARK VINA RESULT:      -5.7      1.919      2.477
REMARK  5 active torsions:
REMARK  status: ('A' for Active; 'I' for Inactive)
REMARK    1  A    between atoms: CG_2  and  CB_7 
REMARK    2  A    between atoms: CB_7  and  CA_8 
REMARK    3  A    between atoms: CA_8  and  C_9 
REMARK    4  A    between atoms: CA_8  and  N_12 
REMARK    5  A    between atoms: C_9  and  OXT_11 
ROOT
ATOM      1  CB  HIS A   1     -21.845  -2.859 -11.495  1.00  0.00     0.105 C 
ENDROOT
BRANCH   1   2
ATOM      2  CG  HIS A   1     -21.702  -3.624 -10.223  1.00  0.00     0.028 A 
ATOM      3  CD2 HIS A   1     -20.696  -4.426  -9.732  1.00  0.00     0.114 A 
ATOM      4  NE2 HIS A   1     -21.051  -4.961  -8.523  1.00  0.00    -0.360 N 
ATOM      5  CE1 HIS A   1     -22.230  -4.455  -8.246  1.00  0.00     0.180 A 
ATOM      6  HE2 HIS A   1     -20.512  -5.616  -7.957  1.00  0.00     0.166 HD
ATOM      7  ND1 HIS A   1     -22.661  -3.621  -9.238  1.00  0.00    -0.355 N 
ATOM      8  HD1 HIS A   1     -23.539  -3.119  -9.245  1.00  0.00     0.166 HD
ENDBRANCH   1   2
BRANCH   1   9
ATOM      9  CA  HIS A   1     -22.843  -3.503 -12.472  1.00  0.00     0.320 C 
BRANCH   9  10
ATOM     10  C   HIS A   1     -24.259  -2.950 -12.234  1.00  0.00     0.174 C 
ATOM     11  O   HIS A   1     -24.923  -3.194 -11.234  1.00  0.00    -0.648 OA
BRANCH  10  12
ATOM     12  OXT HIS A   1     -24.734  -2.183 -13.239  1.00  0.00    -0.775 OA
ATOM     13  HXT HIS A   1     -25.476  -1.596 -12.986  1.00  0.00     0.167 HD
ENDBRANCH  10  12
ENDBRANCH   9  10
BRANCH   9  14
ATOM     14  N   HIS A   1     -22.435  -3.208 -13.867  1.00  0.00     0.093 N 
ATOM     15  H1  HIS A   1     -22.375  -4.101 -14.369  1.00  0.00     0.314 HD
ATOM     16  H2  HIS A   1     -21.469  -2.872 -13.863  1.00  0.00     0.314 HD
ENDBRANCH   9  14
ENDBRANCH   1   9
TORSDOF 5
ENDMDL
MODEL 3
REMARK VINA RESULT:      -5.6      3.283      4.909
REMARK  5 active torsions:
REMARK  status: ('A' for Active; 'I' for Inactive)
REMARK    1  A    between atoms: CG_2  and  CB_7 
REMARK    2  A    between atoms: CB_7  and  CA_8 
REMARK    3  A    between atoms: CA_8  and  C_9 
REMARK    4  A    between atoms: CA_8  and  N_12 
REMARK    5  A    between atoms: C_9  and  OXT_11 
ROOT
ATOM      1  CB  HIS A   1     -24.159  -3.035 -10.695  1.00  0.00     0.105 C 
ENDROOT
BRANCH   1   2
ATOM      2  CG  HIS A   1     -23.548  -3.005 -12.054  1.00  0.00     0.028 A 
ATOM      3  CD2 HIS A   1     -22.387  -3.543 -12.562  1.00  0.00     0.114 A 
ATOM      4  NE2 HIS A   1     -22.225  -3.195 -13.876  1.00  0.00    -0.360 N 
ATOM      5  CE1 HIS A   1     -23.295  -2.502 -14.191  1.00  0.00     0.180 A 
ATOM      6  HE2 HIS A   1     -21.439  -3.426 -14.482  1.00  0.00     0.166 HD
ATOM      7  ND1 HIS A   1     -24.139  -2.375 -13.125  1.00  0.00    -0.355 N 
ATOM      8  HD1 HIS A   1     -25.022  -1.882 -13.129  1.00  0.00     0.166 HD
ENDBRANCH   1   2
BRANCH   1   9
ATOM      9  CA  HIS A   1     -23.877  -4.344  -9.939  1.00  0.00     0.320 C 
BRANCH   9  10
ATOM     10  C   HIS A   1     -23.037  -4.066  -8.681  1.00  0.00     0.174 C 
ATOM     11  O   HIS A   1     -21.847  -3.775  -8.709  1.00  0.00    -0.648 OA
BRANCH  10  12
ATOM     12  OXT HIS A   1     -23.714  -4.195  -7.519  1.00  0.00    -0.775 OA
ATOM     13  HXT HIS A   1     -23.161  -4.117  -6.715  1.00  0.00     0.167 HD
ENDBRANCH  10  12
ENDBRANCH   9  10
BRANCH   9  14
ATOM     14  N   HIS A   1     -25.158  -4.974  -9.539  1.00  0.00     0.093 N 
ATOM     15  H1  HIS A   1     -25.686  -4.284  -8.991  1.00  0.00     0.314 HD
ATOM     16  H2  HIS A   1     -24.963  -5.715  -8.862  1.00  0.00     0.314 HD
ENDBRANCH   9  14
ENDBRANCH   1   9
TORSDOF 5
ENDMDL
MODEL 4
REMARK VINA RESULT:      -5.5      2.176      3.127
REMARK  5 active torsions:
REMARK  status: ('A' for Active; 'I' for Inactive)
REMARK    1  A    between atoms: CG_2  and  CB_7 
REMARK    2  A    between atoms: CB_7  and  CA_8 
REMARK    3  A    between atoms: CA_8  and  C_9 
REMARK    4  A    between atoms: CA_8  and  N_12 
REMARK    5  A    between atoms: C_9  and  OXT_11 
ROOT
ATOM      1  CB  HIS A   1     -23.203  -4.625 -10.165  1.00  0.00     0.105 C 
ENDROOT
BRANCH   1   2
ATOM      2  CG  HIS A   1     -22.179  -4.281  -9.138  1.00  0.00     0.028 A 
ATOM      3  CD2 HIS A   1     -20.805  -4.373  -9.131  1.00  0.00     0.114 A 
ATOM      4  NE2 HIS A   1     -20.300  -3.980  -7.921  1.00  0.00    -0.360 N 
ATOM      5  CE1 HIS A   1     -21.338  -3.600  -7.212  1.00  0.00     0.180 A 
ATOM      6  HE2 HIS A   1     -19.322  -3.983  -7.630  1.00  0.00     0.166 HD
ATOM      7  ND1 HIS A   1     -22.501  -3.744  -7.913  1.00  0.00    -0.355 N 
ATOM      8  HD1 HIS A   1     -23.426  -3.518  -7.572  1.00  0.00     0.166 HD
ENDBRANCH   1   2
BRANCH   1   9
ATOM      9  CA  HIS A   1     -24.110  -3.437 -10.529  1.00  0.00     0.320 C 
BRANCH   9  10
ATOM     10  C   HIS A   1     -24.326  -3.375 -12.051  1.00  0.00     0.174 C 
ATOM     11  O   HIS A   1     -25.308  -2.865 -12.577  1.00  0.00    -0.648 OA
BRANCH  10  12
ATOM     12  OXT HIS A   1     -23.347  -3.956 -12.777  1.00  0.00    -0.775 OA
ATOM     13  HXT HIS A   1     -22.693  -3.331 -13.153  1.00  0.00     0.167 HD
ENDBRANCH  10  12
ENDBRANCH   9  10
BRANCH   9  14
ATOM     14  N   HIS A   1     -25.423  -3.589  -9.858  1.00  0.00     0.093 N 
ATOM     15  H1  HIS A   1     -26.068  -2.909 -10.278  1.00  0.00     0.314 HD
ATOM     16  H2  HIS A   1     -25.338  -3.269  -8.891  1.00  0.00     0.314 HD
ENDBRANCH   9  14
ENDBRANCH   1   9
TORSDOF 5
ENDMDL
MODEL 5
REMARK VINA RESULT:      -5.5      1.552      2.014
REMARK  5 active torsions:
REMARK  status: ('A' for Active; 'I' for Inactive)
REMARK    1  A    between atoms: CG_2  and  CB_7 
REMARK    2  A    between atoms: CB_7  and  CA_8 
REMARK    3  A    between atoms: CA_8  and  C_9 
REMARK    4  A    between atoms: CA_8  and  N_12 
REMARK    5  A    between atoms: C_9  and  OXT_11 
ROOT
ATOM      1  CB  HIS A   1     -22.769  -2.225 -12.817  1.00  0.00     0.105 C 
ENDROOT
BRANCH   1   2
ATOM      2  CG  HIS A   1     -23.131  -3.229 -11.777  1.00  0.00     0.028 A 
ATOM      3  CD2 HIS A   1     -22.474  -4.337 -11.288  1.00  0.00     0.114 A 
ATOM      4  NE2 HIS A   1     -23.243  -4.986 -10.361  1.00  0.00    -0.360 N 
ATOM      5  CE1 HIS A   1     -24.331  -4.263 -10.236  1.00  0.00     0.180 A 
ATOM      6  HE2 HIS A   1     -23.017  -5.851  -9.869  1.00  0.00     0.166 HD
ATOM      7  ND1 HIS A   1     -24.304  -3.174 -11.061  1.00  0.00    -0.355 N 
ATOM      8  HD1 HIS A   1     -25.032  -2.476 -11.139  1.00  0.00     0.166 HD
ENDBRANCH   1   2
BRANCH   1   9
ATOM      9  CA  HIS A   1     -23.313  -2.584 -14.211  1.00  0.00     0.320 C 
BRANCH   9  10
ATOM     10  C   HIS A   1     -23.718  -1.309 -14.972  1.00  0.00     0.174 C 
ATOM     11  O   HIS A   1     -24.769  -0.709 -14.780  1.00  0.00    -0.648 OA
BRANCH  10  12
ATOM     12  OXT HIS A   1     -22.824  -0.908 -15.902  1.00  0.00    -0.775 OA
ATOM     13  HXT HIS A   1     -22.718  -1.525 -16.656  1.00  0.00     0.167 HD
ENDBRANCH  10  12
ENDBRANCH   9  10
BRANCH   9  14
ATOM     14  N   HIS A   1     -22.270  -3.300 -14.983  1.00  0.00     0.093 N 
ATOM     15  H1  HIS A   1     -22.729  -4.066 -15.490  1.00  0.00     0.314 HD
ATOM     16  H2  HIS A   1     -21.651  -3.784 -14.330  1.00  0.00     0.314 HD
ENDBRANCH   9  14
ENDBRANCH   1   9
TORSDOF 5
ENDMDL
MODEL 6
REMARK VINA RESULT:      -5.5      3.375      4.927
REMARK  5 active torsions:
REMARK  status: ('A' for Active; 'I' for Inactive)
REMARK    1  A    between atoms: CG_2  and  CB_7 
REMARK    2  A    between atoms: CB_7  and  CA_8 
REMARK    3  A    between atoms: CA_8  and  C_9 
REMARK    4  A    between atoms: CA_8  and  N_12 
REMARK    5  A    between atoms: C_9  and  OXT_11 
ROOT
ATOM      1  CB  HIS A   1     -22.584  -4.601 -10.830  1.00  0.00     0.105 C 
ENDROOT
BRANCH   1   2
ATOM      2  CG  HIS A   1     -23.001  -3.708 -11.949  1.00  0.00     0.028 A 
ATOM      3  CD2 HIS A   1     -24.097  -2.894 -12.127  1.00  0.00     0.114 A 
ATOM      4  NE2 HIS A   1     -24.067  -2.303 -13.361  1.00  0.00    -0.360 N 
ATOM      5  CE1 HIS A   1     -22.943  -2.699 -13.914  1.00  0.00     0.180 A 
ATOM      6  HE2 HIS A   1     -24.769  -1.685 -13.766  1.00  0.00     0.166 HD
ATOM      7  ND1 HIS A   1     -22.250  -3.538 -13.089  1.00  0.00    -0.355 N 
ATOM      8  HD1 HIS A   1     -21.360  -3.970 -13.301  1.00  0.00     0.166 HD
ENDBRANCH   1   2
BRANCH   1   9
ATOM      9  CA  HIS A   1     -22.057  -3.827  -9.610  1.00  0.00     0.320 C 
BRANCH   9  10
ATOM     10  C   HIS A   1     -22.980  -4.046  -8.398  1.00  0.00     0.174 C 
ATOM     11  O   HIS A   1     -22.606  -4.539  -7.341  1.00  0.00    -0.648 OA
BRANCH  10  12
ATOM     12  OXT HIS A   1     -24.262  -3.671  -8.599  1.00  0.00    -0.775 OA
ATOM     13  HXT HIS A   1     -24.791  -3.577  -7.780  1.00  0.00     0.167 HD
ENDBRANCH  10  12
ENDBRANCH   9  10
BRANCH   9  14
ATOM     14  N   HIS A   1     -20.693  -4.298  -9.272  1.00  0.00     0.093 N 
ATOM     15  H1  HIS A   1     -20.484  -5.104  -9.873  1.00  0.00     0.314 HD
ATOM     16  H2  HIS A   1     -20.706  -4.700  -8.333  1.00  0.00     0.314 HD
ENDBRANCH   9  14
ENDBRANCH   1   9
TORSDOF 5
ENDMDL
MODEL 7
REMARK VINA RESULT:      -5.4      2.985      4.676
REMARK  5 active torsions:
REMARK  status: ('A' for Active; 'I' for Inactive)
REMARK    1  A    between atoms: CG_2  and  CB_7 
REMARK    2  A    between atoms: CB_7  and  CA_8 
REMARK    3  A    between atoms: CA_8  and  C_9 
REMARK    4  A    between atoms: CA_8  and  N_12 
REMARK    5  A    between atoms: C_9  and  OXT_11 
ROOT
ATOM      1  CB  HIS A   1     -22.216  -4.352 -11.586  1.00  0.00     0.105 C 
ENDROOT
BRANCH   1   2
ATOM      2  CG  HIS A   1     -22.756  -3.416 -12.613  1.00  0.00     0.028 A 
ATOM      3  CD2 HIS A   1     -23.777  -2.492 -12.580  1.00  0.00     0.114 A 
ATOM      4  NE2 HIS A   1     -23.935  -1.902 -13.805  1.00  0.00    -0.360 N 
ATOM      5  CE1 HIS A   1     -22.993  -2.410 -14.566  1.00  0.00     0.180 A 
ATOM      6  HE2 HIS A   1     -24.638  -1.212 -14.071  1.00  0.00     0.166 HD
ATOM      7  ND1 HIS A   1     -22.237  -3.320 -13.883  1.00  0.00    -0.355 N 
ATOM      8  HD1 HIS A   1     -21.458  -3.841 -14.262  1.00  0.00     0.166 HD
ENDBRANCH   1   2
BRANCH   1   9
ATOM      9  CA  HIS A   1     -22.399  -3.836 -10.149  1.00  0.00     0.320 C 
BRANCH   9  10
ATOM     10  C   HIS A   1     -23.764  -4.275  -9.592  1.00  0.00     0.174 C 
ATOM     11  O   HIS A   1     -24.484  -5.105 -10.134  1.00  0.00    -0.648 OA
BRANCH  10  12
ATOM     12  OXT HIS A   1     -24.128  -3.649  -8.452  1.00  0.00    -0.775 OA
ATOM     13  HXT HIS A   1     -25.067  -3.372  -8.422  1.00  0.00     0.167 HD
ENDBRANCH  10  12
ENDBRANCH   9  10
BRANCH   9  14
ATOM     14  N   HIS A   1     -21.324  -4.379  -9.284  1.00  0.00     0.093 N 
ATOM     15  H1  HIS A   1     -21.015  -3.624  -8.660  1.00  0.00     0.314 HD
ATOM     16  H2  HIS A   1     -20.499  -4.563  -9.860  1.00  0.00     0.314 HD
ENDBRANCH   9  14
ENDBRANCH   1   9
TORSDOF 5
ENDMDL
MODEL 8
REMARK VINA RESULT:      -5.4      3.030      3.897
REMARK  5 active torsions:
REMARK  status: ('A' for Active; 'I' for Inactive)
REMARK    1  A    between atoms: CG_2  and  CB_7 
REMARK    2  A    between atoms: CB_7  and  CA_8 
REMARK    3  A    between atoms: CA_8  and  C_9 
REMARK    4  A    between atoms: CA_8  and  N_12 
REMARK    5  A    between atoms: C_9  and  OXT_11 
ROOT
ATOM      1  CB  HIS A   1     -21.881  -3.737 -10.234  1.00  0.00     0.105 C 
ENDROOT
BRANCH   1   2
ATOM      2  CG  HIS A   1     -21.212  -4.119  -8.958  1.00  0.00     0.028 A 
ATOM      3  CD2 HIS A   1     -20.089  -4.869  -8.687  1.00  0.00     0.114 A 
ATOM      4  NE2 HIS A   1     -19.899  -4.987  -7.337  1.00  0.00    -0.360 N 
ATOM      5  CE1 HIS A   1     -20.854  -4.276  -6.783  1.00  0.00     0.180 A 
ATOM      6  HE2 HIS A   1     -19.169  -5.516  -6.861  1.00  0.00     0.166 HD
ATOM      7  ND1 HIS A   1     -21.667  -3.712  -7.725  1.00  0.00    -0.355 N 
ATOM      8  HD1 HIS A   1     -22.469  -3.126  -7.536  1.00  0.00     0.166 HD
ENDBRANCH   1   2
BRANCH   1   9
ATOM      9  CA  HIS A   1     -23.184  -4.515 -10.483  1.00  0.00     0.320 C 
BRANCH   9  10
ATOM     10  C   HIS A   1     -24.403  -3.651 -10.115  1.00  0.00     0.174 C 
ATOM     11  O   HIS A   1     -25.164  -3.162 -10.941  1.00  0.00    -0.648 OA
BRANCH  10  12
ATOM     12  OXT HIS A   1     -24.560  -3.446  -8.789  1.00  0.00    -0.775 OA
ATOM     13  HXT HIS A   1     -25.413  -3.763  -8.427  1.00  0.00     0.167 HD
ENDBRANCH  10  12
ENDBRANCH   9  10
BRANCH   9  14
ATOM     14  N   HIS A   1     -23.273  -4.894 -11.914  1.00  0.00     0.093 N 
ATOM     15  H1  HIS A   1     -23.682  -5.834 -11.962  1.00  0.00     0.314 HD
ATOM     16  H2  HIS A   1     -22.327  -5.027 -12.278  1.00  0.00     0.314 HD
ENDBRANCH   9  14
ENDBRANCH   1   9
TORSDOF 5
ENDMDL
MODEL 9
REMARK VINA RESULT:      -5.0      3.337      4.479
REMARK  5 active torsions:
REMARK  status: ('A' for Active; 'I' for Inactive)
REMARK    1  A    between atoms: CG_2  and  CB_7 
REMARK    2  A    between atoms: CB_7  and  CA_8 
REMARK    3  A    between atoms: CA_8  and  C_9 
REMARK    4  A    between atoms: CA_8  and  N_12 
REMARK    5  A    between atoms: C_9  and  OXT_11 
ROOT
ATOM      1  CB  HIS A   1     -21.939  -4.624  -9.185  1.00  0.00     0.105 C 
ENDROOT
BRANCH   1   2
ATOM      2  CG  HIS A   1     -21.263  -4.861  -7.878  1.00  0.00     0.028 A 
ATOM      3  CD2 HIS A   1     -20.753  -4.004  -6.928  1.00  0.00     0.114 A 
ATOM      4  NE2 HIS A   1     -20.170  -4.705  -5.906  1.00  0.00    -0.360 N 
ATOM      5  CE1 HIS A   1     -20.366  -5.971  -6.191  1.00  0.00     0.180 A 
ATOM      6  HE2 HIS A   1     -19.685  -4.322  -5.095  1.00  0.00     0.166 HD
ATOM      7  ND1 HIS A   1     -21.042  -6.120  -7.369  1.00  0.00    -0.355 N 
ATOM      8  HD1 HIS A   1     -21.304  -7.001  -7.790  1.00  0.00     0.166 HD
ENDBRANCH   1   2
BRANCH   1   9
ATOM      9  CA  HIS A   1     -23.210  -3.768  -9.056  1.00  0.00     0.320 C 
BRANCH   9  10
ATOM     10  C   HIS A   1     -24.111  -3.957 -10.289  1.00  0.00     0.174 C 
ATOM     11  O   HIS A   1     -23.822  -4.676 -11.237  1.00  0.00    -0.648 OA
BRANCH  10  12
ATOM     12  OXT HIS A   1     -25.254  -3.239 -10.258  1.00  0.00    -0.775 OA
ATOM     13  HXT HIS A   1     -25.944  -3.546 -10.882  1.00  0.00     0.167 HD
ENDBRANCH  10  12
ENDBRANCH   9  10
BRANCH   9  14
ATOM     14  N   HIS A   1     -23.959  -4.169  -7.841  1.00  0.00     0.093 N 
ATOM     15  H1  HIS A   1     -24.187  -5.166  -7.931  1.00  0.00     0.314 HD
ATOM     16  H2  HIS A   1     -24.874  -3.714  -7.853  1.00  0.00     0.314 HD
ENDBRANCH   9  14
ENDBRANCH   1   9
TORSDOF 5
ENDMDL
