MODEL 1
REMARK VINA RESULT:      -5.5      0.000      0.000
REMARK  2 active torsions:
REMARK  status: ('A' for Active; 'I' for Inactive)
REMARK    1  A    between atoms: C_2  and  C_5 
REMARK    2  A    between atoms: C_8  and  O_11 
ROOT
HETATM    1  C   UNL     1     -21.392  -9.497  -0.199  1.00  0.00    -0.007 C 
HETATM    2  C   UNL     1     -22.000  -8.369   0.661  1.00  0.00     0.008 C 
HETATM    3  C   UNL     1     -22.701  -7.264  -0.127  1.00  0.00     0.032 C 
HETATM    4  C   UNL     1     -21.899  -6.745  -1.320  1.00  0.00     0.118 C 
HETATM    5  C   UNL     1     -21.194  -7.821  -2.138  1.00  0.00     0.032 C 
HETATM    6  C   UNL     1     -20.489  -8.847  -1.269  1.00  0.00     0.008 C 
ENDROOT
BRANCH   1   7
HETATM    7  C   UNL     1     -22.386 -10.622  -0.700  1.00  0.00    -0.048 C 
HETATM    8  C   UNL     1     -22.591 -10.709  -2.222  1.00  0.00     0.015 C 
HETATM    9  C   UNL     1     -23.790 -10.398  -0.086  1.00  0.00     0.015 C 
HETATM   10  C   UNL     1     -21.902 -12.006  -0.212  1.00  0.00     0.015 C 
ENDBRANCH   1   7
BRANCH   4  11
HETATM   11  O   UNL     1     -22.774  -6.006  -2.175  1.00  0.00    -0.396 OA
HETATM   12  H   UNL     1     -23.009  -6.582  -2.928  1.00  0.00     0.210 HD
ENDBRANCH   4  11
TORSDOF 2
ENDMDL
MODEL 2
REMARK VINA RESULT:      -5.2     17.070     18.082
REMARK  2 active torsions:
REMARK  status: ('A' for Active; 'I' for Inactive)
REMARK    1  A    between atoms: C_2  and  C_5 
REMARK    2  A    between atoms: C_8  and  O_11 
ROOT
HETATM    1  C   UNL     1     -35.130  -3.014 -11.964  1.00  0.00    -0.007 C 
HETATM    2  C   UNL     1     -35.132  -1.799 -12.916  1.00  0.00     0.008 C 
HETATM    3  C   UNL     1     -35.251  -0.441 -12.227  1.00  0.00     0.032 C 
HETATM    4  C   UNL     1     -36.347  -0.375 -11.164  1.00  0.00     0.118 C 
HETATM    5  C   UNL     1     -36.448  -1.603 -10.267  1.00  0.00     0.032 C 
HETATM    6  C   UNL     1     -36.366  -2.904 -11.046  1.00  0.00     0.008 C 
ENDROOT
BRANCH   1   7
HETATM    7  C   UNL     1     -33.755  -3.362 -11.261  1.00  0.00    -0.048 C 
HETATM    8  C   UNL     1     -33.041  -2.192 -10.564  1.00  0.00     0.015 C 
HETATM    9  C   UNL     1     -32.756  -3.920 -12.304  1.00  0.00     0.015 C 
HETATM   10  C   UNL     1     -33.970  -4.475 -10.210  1.00  0.00     0.015 C 
ENDBRANCH   1   7
BRANCH   4  11
HETATM   11  O   UNL     1     -36.131   0.780 -10.351  1.00  0.00    -0.396 OA
HETATM   12  H   UNL     1     -35.223   1.098 -10.523  1.00  0.00     0.210 HD
ENDBRANCH   4  11
TORSDOF 2
ENDMDL
MODEL 3
REMARK VINA RESULT:      -5.1      1.619      2.200
REMARK  2 active torsions:
REMARK  status: ('A' for Active; 'I' for Inactive)
REMARK    1  A    between atoms: C_2  and  C_5 
REMARK    2  A    between atoms: C_8  and  O_11 
ROOT
HETATM    1  C   UNL     1     -21.171  -7.747  -0.822  1.00  0.00    -0.007 C 
HETATM    2  C   UNL     1     -21.914  -6.492  -1.326  1.00  0.00     0.008 C 
HETATM    3  C   UNL     1     -22.445  -6.587  -2.755  1.00  0.00     0.032 C 
HETATM    4  C   UNL     1     -21.432  -7.130  -3.762  1.00  0.00     0.118 C 
HETATM    5  C   UNL     1     -20.600  -8.308  -3.265  1.00  0.00     0.032 C 
HETATM    6  C   UNL     1     -20.078  -8.101  -1.854  1.00  0.00     0.008 C 
ENDROOT
BRANCH   1   7
HETATM    7  C   UNL     1     -22.068  -8.942  -0.303  1.00  0.00    -0.048 C 
HETATM    8  C   UNL     1     -22.610  -9.895  -1.383  1.00  0.00     0.015 C 
HETATM    9  C   UNL     1     -23.305  -8.388   0.446  1.00  0.00     0.015 C 
HETATM   10  C   UNL     1     -21.273  -9.791   0.716  1.00  0.00     0.015 C 
ENDBRANCH   1   7
BRANCH   4  11
HETATM   11  O   UNL     1     -22.125  -7.517  -4.950  1.00  0.00    -0.396 OA
HETATM   12  H   UNL     1     -22.965  -7.937  -4.681  1.00  0.00     0.210 HD
ENDBRANCH   4  11
TORSDOF 2
ENDMDL
MODEL 4
REMARK VINA RESULT:      -5.0      2.708      4.397
REMARK  2 active torsions:
REMARK  status: ('A' for Active; 'I' for Inactive)
REMARK    1  A    between atoms: C_2  and  C_5 
REMARK    2  A    between atoms: C_8  and  O_11 
ROOT
HETATM    1  C   UNL     1     -22.631 -10.008  -1.012  1.00  0.00    -0.007 C 
HETATM    2  C   UNL     1     -23.842 -10.803  -0.481  1.00  0.00     0.008 C 
HETATM    3  C   UNL     1     -23.505 -11.880   0.548  1.00  0.00     0.032 C 
HETATM    4  C   UNL     1     -22.326 -12.770   0.157  1.00  0.00     0.118 C 
HETATM    5  C   UNL     1     -21.147 -12.035  -0.470  1.00  0.00     0.032 C 
HETATM    6  C   UNL     1     -21.578 -11.020  -1.513  1.00  0.00     0.008 C 
ENDROOT
BRANCH   1   7
HETATM    7  C   UNL     1     -22.101  -8.828  -0.099  1.00  0.00    -0.048 C 
HETATM    8  C   UNL     1     -21.142  -9.234   1.033  1.00  0.00     0.015 C 
HETATM    9  C   UNL     1     -23.292  -8.109   0.579  1.00  0.00     0.015 C 
HETATM   10  C   UNL     1     -21.380  -7.774  -0.970  1.00  0.00     0.015 C 
ENDBRANCH   1   7
BRANCH   4  11
HETATM   11  O   UNL     1     -21.876 -13.474   1.316  1.00  0.00    -0.396 OA
HETATM   12  H   UNL     1     -22.011 -14.428   1.155  1.00  0.00     0.210 HD
ENDBRANCH   4  11
TORSDOF 2
ENDMDL
MODEL 5
REMARK VINA RESULT:      -4.9      2.401      4.156
REMARK  2 active torsions:
REMARK  status: ('A' for Active; 'I' for Inactive)
REMARK    1  A    between atoms: C_2  and  C_5 
REMARK    2  A    between atoms: C_8  and  O_11 
ROOT
HETATM    1  C   UNL     1     -21.343  -9.792  -0.767  1.00  0.00    -0.007 C 
HETATM    2  C   UNL     1     -21.913 -10.201  -2.141  1.00  0.00     0.008 C 
HETATM    3  C   UNL     1     -23.115 -11.141  -2.088  1.00  0.00     0.032 C 
HETATM    4  C   UNL     1     -22.940 -12.323  -1.134  1.00  0.00     0.118 C 
HETATM    5  C   UNL     1     -22.284 -11.982   0.199  1.00  0.00     0.032 C 
HETATM    6  C   UNL     1     -21.071 -11.082   0.039  1.00  0.00     0.008 C 
ENDROOT
BRANCH   1   7
HETATM    7  C   UNL     1     -22.094  -8.627  -0.005  1.00  0.00    -0.048 C 
HETATM    8  C   UNL     1     -23.567  -8.894   0.348  1.00  0.00     0.015 C 
HETATM    9  C   UNL     1     -22.082  -7.340  -0.866  1.00  0.00     0.015 C 
HETATM   10  C   UNL     1     -21.350  -8.292   1.308  1.00  0.00     0.015 C 
ENDBRANCH   1   7
BRANCH   4  11
HETATM   11  O   UNL     1     -24.220 -12.908  -0.888  1.00  0.00    -0.396 OA
HETATM   12  H   UNL     1     -24.567 -12.527  -0.058  1.00  0.00     0.210 HD
ENDBRANCH   4  11
TORSDOF 2
ENDMDL
MODEL 6
REMARK VINA RESULT:      -4.9      2.156      4.026
REMARK  2 active torsions:
REMARK  status: ('A' for Active; 'I' for Inactive)
REMARK    1  A    between atoms: C_2  and  C_5 
REMARK    2  A    between atoms: C_8  and  O_11 
ROOT
HETATM    1  C   UNL     1     -22.547 -10.447   0.312  1.00  0.00    -0.007 C 
HETATM    2  C   UNL     1     -21.440 -11.520   0.278  1.00  0.00     0.008 C 
HETATM    3  C   UNL     1     -20.901 -11.848  -1.113  1.00  0.00     0.032 C 
HETATM    4  C   UNL     1     -21.986 -12.071  -2.166  1.00  0.00     0.118 C 
HETATM    5  C   UNL     1     -23.155 -11.093  -2.101  1.00  0.00     0.032 C 
HETATM    6  C   UNL     1     -23.650 -10.868  -0.684  1.00  0.00     0.008 C 
ENDROOT
BRANCH   1   7
HETATM    7  C   UNL     1     -22.076  -8.937   0.248  1.00  0.00    -0.048 C 
HETATM    8  C   UNL     1     -21.406  -8.497  -1.065  1.00  0.00     0.015 C 
HETATM    9  C   UNL     1     -21.049  -8.658   1.373  1.00  0.00     0.015 C 
HETATM   10  C   UNL     1     -23.279  -8.000   0.500  1.00  0.00     0.015 C 
ENDBRANCH   1   7
BRANCH   4  11
HETATM   11  O   UNL     1     -21.391 -12.002  -3.463  1.00  0.00    -0.396 OA
HETATM   12  H   UNL     1     -20.426 -11.911  -3.342  1.00  0.00     0.210 HD
ENDBRANCH   4  11
TORSDOF 2
ENDMDL
MODEL 7
REMARK VINA RESULT:      -4.7     15.614     17.203
REMARK  2 active torsions:
REMARK  status: ('A' for Active; 'I' for Inactive)
REMARK    1  A    between atoms: C_2  and  C_5 
REMARK    2  A    between atoms: C_8  and  O_11 
ROOT
HETATM    1  C   UNL     1     -23.304   7.270  -1.638  1.00  0.00    -0.007 C 
HETATM    2  C   UNL     1     -22.587   7.859  -2.871  1.00  0.00     0.008 C 
HETATM    3  C   UNL     1     -23.509   8.291  -4.008  1.00  0.00     0.032 C 
HETATM    4  C   UNL     1     -24.578   7.261  -4.370  1.00  0.00     0.118 C 
HETATM    5  C   UNL     1     -25.241   6.578  -3.179  1.00  0.00     0.032 C 
HETATM    6  C   UNL     1     -24.240   6.142  -2.124  1.00  0.00     0.008 C 
ENDROOT
BRANCH   1   7
HETATM    7  C   UNL     1     -23.918   8.307  -0.612  1.00  0.00    -0.048 C 
HETATM    8  C   UNL     1     -25.346   8.006  -0.125  1.00  0.00     0.015 C 
HETATM    9  C   UNL     1     -23.967   9.716  -1.251  1.00  0.00     0.015 C 
HETATM   10  C   UNL     1     -23.010   8.413   0.635  1.00  0.00     0.015 C 
ENDBRANCH   1   7
BRANCH   4  11
HETATM   11  O   UNL     1     -25.583   7.899  -5.161  1.00  0.00    -0.396 OA
HETATM   12  H   UNL     1     -25.193   8.095  -6.035  1.00  0.00     0.210 HD
ENDBRANCH   4  11
TORSDOF 2
ENDMDL
MODEL 8
REMARK VINA RESULT:      -4.7     25.680     26.642
REMARK  2 active torsions:
REMARK  status: ('A' for Active; 'I' for Inactive)
REMARK    1  A    between atoms: C_2  and  C_5 
REMARK    2  A    between atoms: C_8  and  O_11 
ROOT
HETATM    1  C   UNL     1     -12.218   4.672 -20.211  1.00  0.00    -0.007 C 
HETATM    2  C   UNL     1     -12.587   6.087 -20.704  1.00  0.00     0.008 C 
HETATM    3  C   UNL     1     -11.401   6.958 -21.111  1.00  0.00     0.032 C 
HETATM    4  C   UNL     1     -10.249   6.953 -20.107  1.00  0.00     0.118 C 
HETATM    5  C   UNL     1      -9.919   5.588 -19.514  1.00  0.00     0.032 C 
HETATM    6  C   UNL     1     -11.159   4.817 -19.097  1.00  0.00     0.008 C 
ENDROOT
BRANCH   1   7
HETATM    7  C   UNL     1     -11.930   3.585 -21.324  1.00  0.00    -0.048 C 
HETATM    8  C   UNL     1     -11.224   4.092 -22.593  1.00  0.00     0.015 C 
HETATM    9  C   UNL     1     -13.260   2.946 -21.794  1.00  0.00     0.015 C 
HETATM   10  C   UNL     1     -11.072   2.443 -20.733  1.00  0.00     0.015 C 
ENDBRANCH   1   7
BRANCH   4  11
HETATM   11  O   UNL     1      -9.083   7.481 -20.741  1.00  0.00    -0.396 OA
HETATM   12  H   UNL     1      -9.296   8.383 -21.050  1.00  0.00     0.210 HD
ENDBRANCH   4  11
TORSDOF 2
ENDMDL
MODEL 9
REMARK VINA RESULT:      -4.7      2.073      3.524
REMARK  2 active torsions:
REMARK  status: ('A' for Active; 'I' for Inactive)
REMARK    1  A    between atoms: C_2  and  C_5 
REMARK    2  A    between atoms: C_8  and  O_11 
ROOT
HETATM    1  C   UNL     1     -20.692  -8.978  -1.110  1.00  0.00    -0.007 C 
HETATM    2  C   UNL     1     -20.701  -8.437  -2.555  1.00  0.00     0.008 C 
HETATM    3  C   UNL     1     -21.610  -9.193  -3.521  1.00  0.00     0.032 C 
HETATM    4  C   UNL     1     -21.470 -10.713  -3.449  1.00  0.00     0.118 C 
HETATM    5  C   UNL     1     -21.353 -11.282  -2.039  1.00  0.00     0.032 C 
HETATM    6  C   UNL     1     -20.392 -10.491  -1.169  1.00  0.00     0.008 C 
ENDROOT
BRANCH   1   7
HETATM    7  C   UNL     1     -21.889  -8.530  -0.176  1.00  0.00    -0.048 C 
HETATM    8  C   UNL     1     -23.105  -9.472  -0.143  1.00  0.00     0.015 C 
HETATM    9  C   UNL     1     -22.424  -7.149  -0.630  1.00  0.00     0.015 C 
HETATM   10  C   UNL     1     -21.387  -8.358   1.276  1.00  0.00     0.015 C 
ENDBRANCH   1   7
BRANCH   4  11
HETATM   11  O   UNL     1     -22.592 -11.310  -4.101  1.00  0.00    -0.396 OA
HETATM   12  H   UNL     1     -23.353 -10.707  -3.995  1.00  0.00     0.210 HD
ENDBRANCH   4  11
TORSDOF 2
ENDMDL
