MODEL 1
REMARK VINA RESULT:      -6.0      0.000      0.000
REMARK  9 active torsions:
REMARK  status: ('A' for Active; 'I' for Inactive)
REMARK    1  A    between atoms: C_1  and  C_2 
REMARK    2  A    between atoms: C_1  and  C_5 
REMARK    3  A    between atoms: C_2  and  O_4 
REMARK    4  A    between atoms: C_5  and  C_6 
REMARK    5  A    between atoms: C_5  and  C_10 
REMARK    6  A    between atoms: C_5  and  O_13 
REMARK    7  A    between atoms: C_6  and  C_7 
REMARK    8  A    between atoms: C_7  and  O_9 
REMARK    9  A    between atoms: C_10  and  O_12 
ROOT
HETATM    1  C   UNL     1     -22.420  -3.737 -11.035  1.00  0.00     0.161 C 
ENDROOT
BRANCH   1   2
HETATM    2  C   UNL     1     -23.103  -3.650  -9.662  1.00  0.00     0.159 C 
BRANCH   2   3
HETATM    3  C   UNL     1     -24.583  -3.867  -9.785  1.00  0.00     0.142 C 
HETATM    4  O   UNL     1     -25.357  -2.958 -10.060  1.00  0.00    -0.650 OA
BRANCH   3   5
HETATM    5  O   UNL     1     -24.980  -5.140  -9.620  1.00  0.00    -0.776 OA
HETATM    6  H   UNL     1     -24.359  -5.814  -9.963  1.00  0.00     0.167 HD
ENDBRANCH   3   5
ENDBRANCH   2   3
ENDBRANCH   1   2
BRANCH   1   7
HETATM    7  C   UNL     1     -22.485  -2.501 -11.936  1.00  0.00     0.159 C 
BRANCH   7   8
HETATM    8  C   UNL     1     -23.184  -2.772 -13.242  1.00  0.00     0.142 C 
HETATM    9  O   UNL     1     -24.392  -2.655 -13.383  1.00  0.00    -0.650 OA
BRANCH   8  10
HETATM   10  O   UNL     1     -22.368  -3.176 -14.234  1.00  0.00    -0.776 OA
HETATM   11  H   UNL     1     -21.435  -3.330 -13.997  1.00  0.00     0.167 HD
ENDBRANCH   8  10
ENDBRANCH   7   8
ENDBRANCH   1   7
BRANCH   1  12
HETATM   12  C   UNL     1     -20.942  -4.091 -10.819  1.00  0.00     0.176 C 
HETATM   13  O   UNL     1     -20.477  -4.584  -9.805  1.00  0.00    -0.648 OA
BRANCH  12  14
HETATM   14  O   UNL     1     -20.181  -3.731 -11.884  1.00  0.00    -0.774 OA
HETATM   15  H   UNL     1     -19.646  -4.520 -12.147  1.00  0.00     0.167 HD
ENDBRANCH  12  14
ENDBRANCH   1  12
BRANCH   1  16
HETATM   16  O   UNL     1     -22.959  -4.848 -11.804  1.00  0.00    -0.378 OA
HETATM   17  H   UNL     1     -22.262  -5.546 -11.820  1.00  0.00     0.211 HD
ENDBRANCH   1  16
TORSDOF 9
ENDMDL
MODEL 2
REMARK VINA RESULT:      -5.9      0.945      3.859
REMARK  9 active torsions:
REMARK  status: ('A' for Active; 'I' for Inactive)
REMARK    1  A    between atoms: C_1  and  C_2 
REMARK    2  A    between atoms: C_1  and  C_5 
REMARK    3  A    between atoms: C_2  and  O_4 
REMARK    4  A    between atoms: C_5  and  C_6 
REMARK    5  A    between atoms: C_5  and  C_10 
REMARK    6  A    between atoms: C_5  and  O_13 
REMARK    7  A    between atoms: C_6  and  C_7 
REMARK    8  A    between atoms: C_7  and  O_9 
REMARK    9  A    between atoms: C_10  and  O_12 
ROOT
HETATM    1  C   UNL     1     -23.259  -3.645 -10.741  1.00  0.00     0.161 C 
ENDROOT
BRANCH   1   2
HETATM    2  C   UNL     1     -23.468  -2.624 -11.870  1.00  0.00     0.159 C 
BRANCH   2   3
HETATM    3  C   UNL     1     -23.450  -3.296 -13.211  1.00  0.00     0.142 C 
HETATM    4  O   UNL     1     -24.463  -3.754 -13.726  1.00  0.00    -0.650 OA
BRANCH   3   5
HETATM    5  O   UNL     1     -22.252  -3.308 -13.818  1.00  0.00    -0.776 OA
HETATM    6  H   UNL     1     -22.064  -2.527 -14.378  1.00  0.00     0.167 HD
ENDBRANCH   3   5
ENDBRANCH   2   3
ENDBRANCH   1   2
BRANCH   1   7
HETATM    7  C   UNL     1     -21.974  -3.532  -9.917  1.00  0.00     0.159 C 
BRANCH   7   8
HETATM    8  C   UNL     1     -20.742  -3.867 -10.715  1.00  0.00     0.142 C 
HETATM    9  O   UNL     1     -20.182  -4.951 -10.645  1.00  0.00    -0.650 OA
BRANCH   8  10
HETATM   10  O   UNL     1     -20.296  -2.863 -11.494  1.00  0.00    -0.776 OA
HETATM   11  H   UNL     1     -20.285  -3.028 -12.455  1.00  0.00     0.167 HD
ENDBRANCH   8  10
ENDBRANCH   7   8
ENDBRANCH   1   7
BRANCH   1  12
HETATM   12  C   UNL     1     -24.452  -3.555  -9.779  1.00  0.00     0.176 C 
HETATM   13  O   UNL     1     -25.592  -3.267 -10.098  1.00  0.00    -0.648 OA
BRANCH  12  14
HETATM   14  O   UNL     1     -24.075  -3.777  -8.494  1.00  0.00    -0.774 OA
HETATM   15  H   UNL     1     -24.681  -4.464  -8.121  1.00  0.00     0.167 HD
ENDBRANCH  12  14
ENDBRANCH   1  12
BRANCH   1  16
HETATM   16  O   UNL     1     -23.307  -5.001 -11.264  1.00  0.00    -0.378 OA
HETATM   17  H   UNL     1     -22.642  -5.524 -10.758  1.00  0.00     0.211 HD
ENDBRANCH   1  16
TORSDOF 9
ENDMDL
MODEL 3
REMARK VINA RESULT:      -5.9      0.855      3.950
REMARK  9 active torsions:
REMARK  status: ('A' for Active; 'I' for Inactive)
REMARK    1  A    between atoms: C_1  and  C_2 
REMARK    2  A    between atoms: C_1  and  C_5 
REMARK    3  A    between atoms: C_2  and  O_4 
REMARK    4  A    between atoms: C_5  and  C_6 
REMARK    5  A    between atoms: C_5  and  C_10 
REMARK    6  A    between atoms: C_5  and  O_13 
REMARK    7  A    between atoms: C_6  and  C_7 
REMARK    8  A    between atoms: C_7  and  O_9 
REMARK    9  A    between atoms: C_10  and  O_12 
ROOT
HETATM    1  C   UNL     1     -23.217  -3.293 -12.235  1.00  0.00     0.161 C 
ENDROOT
BRANCH   1   2
HETATM    2  C   UNL     1     -22.039  -2.629 -11.507  1.00  0.00     0.159 C 
BRANCH   2   3
HETATM    3  C   UNL     1     -21.054  -3.656 -11.030  1.00  0.00     0.142 C 
HETATM    4  O   UNL     1     -21.222  -4.292  -9.996  1.00  0.00    -0.650 OA
BRANCH   3   5
HETATM    5  O   UNL     1     -20.008  -3.855 -11.849  1.00  0.00    -0.776 OA
HETATM    6  H   UNL     1     -20.243  -4.128 -12.760  1.00  0.00     0.167 HD
ENDBRANCH   3   5
ENDBRANCH   2   3
ENDBRANCH   1   2
BRANCH   1   7
HETATM    7  C   UNL     1     -24.607  -3.144 -11.611  1.00  0.00     0.159 C 
BRANCH   7   8
HETATM    8  C   UNL     1     -24.685  -3.723 -10.224  1.00  0.00     0.142 C 
HETATM    9  O   UNL     1     -24.542  -4.915  -9.995  1.00  0.00    -0.650 OA
BRANCH   8  10
HETATM   10  O   UNL     1     -24.950  -2.821  -9.260  1.00  0.00    -0.776 OA
HETATM   11  H   UNL     1     -25.197  -3.174  -8.386  1.00  0.00     0.167 HD
ENDBRANCH   8  10
ENDBRANCH   7   8
ENDBRANCH   1   7
BRANCH   1  12
HETATM   12  C   UNL     1     -23.275  -2.742 -13.666  1.00  0.00     0.176 C 
HETATM   13  O   UNL     1     -24.159  -2.030 -14.111  1.00  0.00    -0.648 OA
BRANCH  12  14
HETATM   14  O   UNL     1     -22.241  -3.197 -14.419  1.00  0.00    -0.774 OA
HETATM   15  H   UNL     1     -21.489  -3.388 -13.806  1.00  0.00     0.167 HD
ENDBRANCH  12  14
ENDBRANCH   1  12
BRANCH   1  16
HETATM   16  O   UNL     1     -22.978  -4.719 -12.397  1.00  0.00    -0.378 OA
HETATM   17  H   UNL     1     -22.001  -4.839 -12.448  1.00  0.00     0.211 HD
ENDBRANCH   1  16
TORSDOF 9
ENDMDL
MODEL 4
REMARK VINA RESULT:      -5.7      1.233      3.458
REMARK  9 active torsions:
REMARK  status: ('A' for Active; 'I' for Inactive)
REMARK    1  A    between atoms: C_1  and  C_2 
REMARK    2  A    between atoms: C_1  and  C_5 
REMARK    3  A    between atoms: C_2  and  O_4 
REMARK    4  A    between atoms: C_5  and  C_6 
REMARK    5  A    between atoms: C_5  and  C_10 
REMARK    6  A    between atoms: C_5  and  O_13 
REMARK    7  A    between atoms: C_6  and  C_7 
REMARK    8  A    between atoms: C_7  and  O_9 
REMARK    9  A    between atoms: C_10  and  O_12 
ROOT
HETATM    1  C   UNL     1     -23.236  -3.462 -11.463  1.00  0.00     0.161 C 
ENDROOT
BRANCH   1   2
HETATM    2  C   UNL     1     -22.227  -4.582 -11.164  1.00  0.00     0.159 C 
BRANCH   2   3
HETATM    3  C   UNL     1     -20.882  -4.014 -10.816  1.00  0.00     0.142 C 
HETATM    4  O   UNL     1     -20.527  -3.841  -9.656  1.00  0.00    -0.650 OA
BRANCH   3   5
HETATM    5  O   UNL     1     -20.088  -3.761 -11.869  1.00  0.00    -0.776 OA
HETATM    6  H   UNL     1     -20.274  -4.300 -12.665  1.00  0.00     0.167 HD
ENDBRANCH   3   5
ENDBRANCH   2   3
ENDBRANCH   1   2
BRANCH   1   7
HETATM    7  C   UNL     1     -24.073  -3.589 -12.739  1.00  0.00     0.159 C 
BRANCH   7   8
HETATM    8  C   UNL     1     -23.646  -2.622 -13.811  1.00  0.00     0.142 C 
HETATM    9  O   UNL     1     -22.660  -2.802 -14.510  1.00  0.00    -0.650 OA
BRANCH   8  10
HETATM   10  O   UNL     1     -24.430  -1.532 -13.919  1.00  0.00    -0.776 OA
HETATM   11  H   UNL     1     -24.633  -1.057 -13.093  1.00  0.00     0.167 HD
ENDBRANCH   8  10
ENDBRANCH   7   8
ENDBRANCH   1   7
BRANCH   1  12
HETATM   12  C   UNL     1     -24.196  -3.344 -10.272  1.00  0.00     0.176 C 
HETATM   13  O   UNL     1     -25.406  -3.222 -10.354  1.00  0.00    -0.648 OA
BRANCH  12  14
HETATM   14  O   UNL     1     -23.528  -3.329  -9.091  1.00  0.00    -0.774 OA
HETATM   15  H   UNL     1     -22.567  -3.215  -9.295  1.00  0.00     0.167 HD
ENDBRANCH  12  14
ENDBRANCH   1  12
BRANCH   1  16
HETATM   16  O   UNL     1     -22.564  -2.173 -11.527  1.00  0.00    -0.378 OA
HETATM   17  H   UNL     1     -23.222  -1.496 -11.243  1.00  0.00     0.211 HD
ENDBRANCH   1  16
TORSDOF 9
ENDMDL
MODEL 5
REMARK VINA RESULT:      -5.5      1.493      2.279
REMARK  9 active torsions:
REMARK  status: ('A' for Active; 'I' for Inactive)
REMARK    1  A    between atoms: C_1  and  C_2 
REMARK    2  A    between atoms: C_1  and  C_5 
REMARK    3  A    between atoms: C_2  and  O_4 
REMARK    4  A    between atoms: C_5  and  C_6 
REMARK    5  A    between atoms: C_5  and  C_10 
REMARK    6  A    between atoms: C_5  and  O_13 
REMARK    7  A    between atoms: C_6  and  C_7 
REMARK    8  A    between atoms: C_7  and  O_9 
REMARK    9  A    between atoms: C_10  and  O_12 
ROOT
HETATM    1  C   UNL     1     -22.357  -3.876 -10.507  1.00  0.00     0.161 C 
ENDROOT
BRANCH   1   2
HETATM    2  C   UNL     1     -21.987  -3.440  -9.081  1.00  0.00     0.159 C 
BRANCH   2   3
HETATM    3  C   UNL     1     -22.637  -4.330  -8.062  1.00  0.00     0.142 C 
HETATM    4  O   UNL     1     -22.010  -5.181  -7.444  1.00  0.00    -0.650 OA
BRANCH   3   5
HETATM    5  O   UNL     1     -23.940  -4.083  -7.849  1.00  0.00    -0.776 OA
HETATM    6  H   UNL     1     -24.339  -3.422  -8.451  1.00  0.00     0.167 HD
ENDBRANCH   3   5
ENDBRANCH   2   3
ENDBRANCH   1   2
BRANCH   1   7
HETATM    7  C   UNL     1     -23.105  -2.867 -11.382  1.00  0.00     0.159 C 
BRANCH   7   8
HETATM    8  C   UNL     1     -24.585  -3.135 -11.441  1.00  0.00     0.142 C 
HETATM    9  O   UNL     1     -25.270  -3.289 -10.441  1.00  0.00    -0.650 OA
BRANCH   8  10
HETATM   10  O   UNL     1     -25.085  -3.212 -12.689  1.00  0.00    -0.776 OA
HETATM   11  H   UNL     1     -24.460  -3.457 -13.396  1.00  0.00     0.167 HD
ENDBRANCH   8  10
ENDBRANCH   7   8
ENDBRANCH   1   7
BRANCH   1  12
HETATM   12  C   UNL     1     -21.070  -4.281 -11.239  1.00  0.00     0.176 C 
HETATM   13  O   UNL     1     -20.074  -4.742 -10.709  1.00  0.00    -0.648 OA
BRANCH  12  14
HETATM   14  O   UNL     1     -21.143  -4.004 -12.567  1.00  0.00    -0.774 OA
HETATM   15  H   UNL     1     -21.854  -3.328 -12.690  1.00  0.00     0.167 HD
ENDBRANCH  12  14
ENDBRANCH   1  12
BRANCH   1  16
HETATM   16  O   UNL     1     -23.163  -5.087 -10.478  1.00  0.00    -0.378 OA
HETATM   17  H   UNL     1     -23.969  -4.904 -11.015  1.00  0.00     0.211 HD
ENDBRANCH   1  16
TORSDOF 9
ENDMDL
MODEL 6
REMARK VINA RESULT:      -5.5      1.565      4.680
REMARK  9 active torsions:
REMARK  status: ('A' for Active; 'I' for Inactive)
REMARK    1  A    between atoms: C_1  and  C_2 
REMARK    2  A    between atoms: C_1  and  C_5 
REMARK    3  A    between atoms: C_2  and  O_4 
REMARK    4  A    between atoms: C_5  and  C_6 
REMARK    5  A    between atoms: C_5  and  C_10 
REMARK    6  A    between atoms: C_5  and  O_13 
REMARK    7  A    between atoms: C_6  and  C_7 
REMARK    8  A    between atoms: C_7  and  O_9 
REMARK    9  A    between atoms: C_10  and  O_12 
ROOT
HETATM    1  C   UNL     1     -23.267  -3.928  -9.909  1.00  0.00     0.161 C 
ENDROOT
BRANCH   1   2
HETATM    2  C   UNL     1     -22.125  -3.117 -10.540  1.00  0.00     0.159 C 
BRANCH   2   3
HETATM    3  C   UNL     1     -21.296  -3.976 -11.449  1.00  0.00     0.142 C 
HETATM    4  O   UNL     1     -20.387  -4.684 -11.031  1.00  0.00    -0.650 OA
BRANCH   3   5
HETATM    5  O   UNL     1     -21.662  -3.943 -12.742  1.00  0.00    -0.776 OA
HETATM    6  H   UNL     1     -22.490  -4.422 -12.948  1.00  0.00     0.167 HD
ENDBRANCH   3   5
ENDBRANCH   2   3
ENDBRANCH   1   2
BRANCH   1   7
HETATM    7  C   UNL     1     -23.266  -4.083  -8.386  1.00  0.00     0.159 C 
BRANCH   7   8
HETATM    8  C   UNL     1     -21.880  -4.249  -7.822  1.00  0.00     0.142 C 
HETATM    9  O   UNL     1     -21.345  -3.403  -7.120  1.00  0.00    -0.650 OA
BRANCH   8  10
HETATM   10  O   UNL     1     -21.271  -5.398  -8.174  1.00  0.00    -0.776 OA
HETATM   11  H   UNL     1     -21.521  -6.195  -7.673  1.00  0.00     0.167 HD
ENDBRANCH   8  10
ENDBRANCH   7   8
ENDBRANCH   1   7
BRANCH   1  12
HETATM   12  C   UNL     1     -24.600  -3.289 -10.322  1.00  0.00     0.176 C 
HETATM   13  O   UNL     1     -24.984  -3.141 -11.469  1.00  0.00    -0.648 OA
BRANCH  12  14
HETATM   14  O   UNL     1     -25.294  -2.839  -9.245  1.00  0.00    -0.774 OA
HETATM   15  H   UNL     1     -24.678  -2.850  -8.471  1.00  0.00     0.167 HD
ENDBRANCH  12  14
ENDBRANCH   1  12
BRANCH   1  16
HETATM   16  O   UNL     1     -23.310  -5.270 -10.470  1.00  0.00    -0.378 OA
HETATM   17  H   UNL     1     -23.873  -5.222 -11.278  1.00  0.00     0.211 HD
ENDBRANCH   1  16
TORSDOF 9
ENDMDL
MODEL 7
REMARK VINA RESULT:      -5.3      8.370      9.832
REMARK  9 active torsions:
REMARK  status: ('A' for Active; 'I' for Inactive)
REMARK    1  A    between atoms: C_1  and  C_2 
REMARK    2  A    between atoms: C_1  and  C_5 
REMARK    3  A    between atoms: C_2  and  O_4 
REMARK    4  A    between atoms: C_5  and  C_6 
REMARK    5  A    between atoms: C_5  and  C_10 
REMARK    6  A    between atoms: C_5  and  O_13 
REMARK    7  A    between atoms: C_6  and  C_7 
REMARK    8  A    between atoms: C_7  and  O_9 
REMARK    9  A    between atoms: C_10  and  O_12 
ROOT
HETATM    1  C   UNL     1     -29.180  -6.636 -16.831  1.00  0.00     0.161 C 
ENDROOT
BRANCH   1   2
HETATM    2  C   UNL     1     -29.661  -8.059 -17.152  1.00  0.00     0.159 C 
BRANCH   2   3
HETATM    3  C   UNL     1     -30.065  -8.178 -18.592  1.00  0.00     0.142 C 
HETATM    4  O   UNL     1     -31.126  -7.732 -19.012  1.00  0.00    -0.650 OA
BRANCH   3   5
HETATM    5  O   UNL     1     -29.152  -8.761 -19.386  1.00  0.00    -0.776 OA
HETATM    6  H   UNL     1     -28.220  -8.598 -19.134  1.00  0.00     0.167 HD
ENDBRANCH   3   5
ENDBRANCH   2   3
ENDBRANCH   1   2
BRANCH   1   7
HETATM    7  C   UNL     1     -30.117  -5.741 -16.017  1.00  0.00     0.159 C 
BRANCH   7   8
HETATM    8  C   UNL     1     -31.204  -5.124 -16.856  1.00  0.00     0.142 C 
HETATM    9  O   UNL     1     -31.075  -4.046 -17.418  1.00  0.00    -0.650 OA
BRANCH   8  10
HETATM   10  O   UNL     1     -32.337  -5.849 -16.917  1.00  0.00    -0.776 OA
HETATM   11  H   UNL     1     -33.080  -5.545 -16.364  1.00  0.00     0.167 HD
ENDBRANCH   8  10
ENDBRANCH   7   8
ENDBRANCH   1   7
BRANCH   1  12
HETATM   12  C   UNL     1     -27.844  -6.734 -16.082  1.00  0.00     0.176 C 
HETATM   13  O   UNL     1     -27.641  -7.413 -15.091  1.00  0.00    -0.648 OA
BRANCH  12  14
HETATM   14  O   UNL     1     -26.907  -5.912 -16.622  1.00  0.00    -0.774 OA
HETATM   15  H   UNL     1     -26.506  -6.385 -17.392  1.00  0.00     0.167 HD
ENDBRANCH  12  14
ENDBRANCH   1  12
BRANCH   1  16
HETATM   16  O   UNL     1     -28.866  -5.915 -18.055  1.00  0.00    -0.378 OA
HETATM   17  H   UNL     1     -29.067  -6.526 -18.803  1.00  0.00     0.211 HD
ENDBRANCH   1  16
TORSDOF 9
ENDMDL
MODEL 8
REMARK VINA RESULT:      -5.3      8.316      9.512
REMARK  9 active torsions:
REMARK  status: ('A' for Active; 'I' for Inactive)
REMARK    1  A    between atoms: C_1  and  C_2 
REMARK    2  A    between atoms: C_1  and  C_5 
REMARK    3  A    between atoms: C_2  and  O_4 
REMARK    4  A    between atoms: C_5  and  C_6 
REMARK    5  A    between atoms: C_5  and  C_10 
REMARK    6  A    between atoms: C_5  and  O_13 
REMARK    7  A    between atoms: C_6  and  C_7 
REMARK    8  A    between atoms: C_7  and  O_9 
REMARK    9  A    between atoms: C_10  and  O_12 
ROOT
HETATM    1  C   UNL     1     -28.865  -6.921 -16.870  1.00  0.00     0.161 C 
ENDROOT
BRANCH   1   2
HETATM    2  C   UNL     1     -29.725  -5.964 -16.031  1.00  0.00     0.159 C 
BRANCH   2   3
HETATM    3  C   UNL     1     -30.957  -5.550 -16.781  1.00  0.00     0.142 C 
HETATM    4  O   UNL     1     -31.094  -4.423 -17.241  1.00  0.00    -0.650 OA
BRANCH   3   5
HETATM    5  O   UNL     1     -31.866  -6.524 -16.949  1.00  0.00    -0.776 OA
HETATM    6  H   UNL     1     -31.516  -7.435 -16.869  1.00  0.00     0.167 HD
ENDBRANCH   3   5
ENDBRANCH   2   3
ENDBRANCH   1   2
BRANCH   1   7
HETATM    7  C   UNL     1     -28.919  -6.767 -18.392  1.00  0.00     0.159 C 
BRANCH   7   8
HETATM    8  C   UNL     1     -29.598  -7.928 -19.070  1.00  0.00     0.142 C 
HETATM    9  O   UNL     1     -30.794  -8.151 -18.961  1.00  0.00    -0.650 OA
BRANCH   8  10
HETATM   10  O   UNL     1     -28.770  -8.713 -19.786  1.00  0.00    -0.776 OA
HETATM   11  H   UNL     1     -27.931  -8.966 -19.361  1.00  0.00     0.167 HD
ENDBRANCH   8  10
ENDBRANCH   7   8
ENDBRANCH   1   7
BRANCH   1  12
HETATM   12  C   UNL     1     -27.403  -6.776 -16.428  1.00  0.00     0.176 C 
HETATM   13  O   UNL     1     -26.876  -7.401 -15.524  1.00  0.00    -0.648 OA
BRANCH  12  14
HETATM   14  O   UNL     1     -26.763  -5.806 -17.130  1.00  0.00    -0.774 OA
HETATM   15  H   UNL     1     -27.445  -5.326 -17.662  1.00  0.00     0.167 HD
ENDBRANCH  12  14
ENDBRANCH   1  12
BRANCH   1  16
HETATM   16  O   UNL     1     -29.206  -8.305 -16.575  1.00  0.00    -0.378 OA
HETATM   17  H   UNL     1     -30.086  -8.474 -16.984  1.00  0.00     0.211 HD
ENDBRANCH   1  16
TORSDOF 9
ENDMDL
MODEL 9
REMARK VINA RESULT:      -5.2      8.566     10.319
REMARK  9 active torsions:
REMARK  status: ('A' for Active; 'I' for Inactive)
REMARK    1  A    between atoms: C_1  and  C_2 
REMARK    2  A    between atoms: C_1  and  C_5 
REMARK    3  A    between atoms: C_2  and  O_4 
REMARK    4  A    between atoms: C_5  and  C_6 
REMARK    5  A    between atoms: C_5  and  C_10 
REMARK    6  A    between atoms: C_5  and  O_13 
REMARK    7  A    between atoms: C_6  and  C_7 
REMARK    8  A    between atoms: C_7  and  O_9 
REMARK    9  A    between atoms: C_10  and  O_12 
ROOT
HETATM    1  C   UNL     1     -29.892  -6.260 -17.663  1.00  0.00     0.161 C 
ENDROOT
BRANCH   1   2
HETATM    2  C   UNL     1     -28.955  -5.575 -18.668  1.00  0.00     0.159 C 
BRANCH   2   3
HETATM    3  C   UNL     1     -27.539  -6.035 -18.482  1.00  0.00     0.142 C 
HETATM    4  O   UNL     1     -26.886  -5.753 -17.484  1.00  0.00    -0.650 OA
BRANCH   3   5
HETATM    5  O   UNL     1     -27.067  -6.817 -19.468  1.00  0.00    -0.776 OA
HETATM    6  H   UNL     1     -26.514  -7.568 -19.170  1.00  0.00     0.167 HD
ENDBRANCH   3   5
ENDBRANCH   2   3
ENDBRANCH   1   2
BRANCH   1   7
HETATM    7  C   UNL     1     -31.353  -5.804 -17.636  1.00  0.00     0.159 C 
BRANCH   7   8
HETATM    8  C   UNL     1     -31.541  -4.503 -16.901  1.00  0.00     0.142 C 
HETATM    9  O   UNL     1     -31.320  -3.416 -17.412  1.00  0.00    -0.650 OA
BRANCH   8  10
HETATM   10  O   UNL     1     -31.952  -4.641 -15.626  1.00  0.00    -0.776 OA
HETATM   11  H   UNL     1     -32.914  -4.610 -15.472  1.00  0.00     0.167 HD
ENDBRANCH   8  10
ENDBRANCH   7   8
ENDBRANCH   1   7
BRANCH   1  12
HETATM   12  C   UNL     1     -29.869  -7.771 -17.930  1.00  0.00     0.176 C 
HETATM   13  O   UNL     1     -30.370  -8.323 -18.895  1.00  0.00    -0.648 OA
BRANCH  12  14
HETATM   14  O   UNL     1     -29.270  -8.449 -16.918  1.00  0.00    -0.774 OA
HETATM   15  H   UNL     1     -29.471  -7.967 -16.078  1.00  0.00     0.167 HD
ENDBRANCH  12  14
ENDBRANCH   1  12
BRANCH   1  16
HETATM   16  O   UNL     1     -29.381  -6.116 -16.308  1.00  0.00    -0.378 OA
HETATM   17  H   UNL     1     -30.065  -5.624 -15.797  1.00  0.00     0.211 HD
ENDBRANCH   1  16
TORSDOF 9
ENDMDL
