MODEL 1
REMARK VINA RESULT:      -5.5      0.000      0.000
REMARK  4 active torsions:
REMARK  status: ('A' for Active; 'I' for Inactive)
REMARK    1  A    between atoms: N_5  and  C_11 
REMARK    2  A    between atoms: N_8  and  C_9 
REMARK    3  A    between atoms: C_9  and  O_10 
REMARK    4  A    between atoms: C_11  and  O_12 
ROOT
HETATM    1  C   UNL     1     -10.705   3.729 -19.964  1.00  0.00     0.049 C 
HETATM    2  C   UNL     1     -11.089   5.025 -20.672  1.00  0.00     0.113 C 
HETATM    3  C   UNL     1     -10.187   6.182 -20.222  1.00  0.00     0.257 C 
HETATM    4  O   UNL     1      -8.976   6.121 -20.042  1.00  0.00    -0.270 OA
HETATM    5  N   UNL     1     -10.946   7.308 -20.098  1.00  0.00    -0.246 N 
HETATM    6  C   UNL     1     -12.253   6.941 -19.954  1.00  0.00     0.331 C 
HETATM    7  O   UNL     1     -13.143   7.628 -19.476  1.00  0.00    -0.246 OA
HETATM    8  N   UNL     1     -12.383   5.605 -20.315  1.00  0.00    -0.295 N 
HETATM    9  C   UNL     1     -10.976   4.891 -22.194  1.00  0.00     0.049 C 
ENDROOT
BRANCH   5  10
HETATM   10  C   UNL     1     -10.474   8.562 -19.588  1.00  0.00     0.303 C 
BRANCH  10  11
HETATM   11  O   UNL     1     -10.250   8.482 -18.194  1.00  0.00    -0.382 OA
HETATM   12  H   UNL     1      -9.564   7.795 -18.073  1.00  0.00     0.211 HD
ENDBRANCH  10  11
ENDBRANCH   5  10
BRANCH   8  13
HETATM   13  C   UNL     1     -13.513   4.845 -19.860  1.00  0.00     0.296 C 
BRANCH  13  14
HETATM   14  O   UNL     1     -14.683   5.409 -20.400  1.00  0.00    -0.382 OA
HETATM   15  H   UNL     1     -15.391   4.775 -20.204  1.00  0.00     0.211 HD
ENDBRANCH  13  14
ENDBRANCH   8  13
TORSDOF 4
ENDMDL
MODEL 2
REMARK VINA RESULT:      -5.4     16.767     18.255
REMARK  4 active torsions:
REMARK  status: ('A' for Active; 'I' for Inactive)
REMARK    1  A    between atoms: N_5  and  C_11 
REMARK    2  A    between atoms: N_8  and  C_9 
REMARK    3  A    between atoms: C_9  and  O_10 
REMARK    4  A    between atoms: C_11  and  O_12 
ROOT
HETATM    1  C   UNL     1     -22.682  -4.823 -11.986  1.00  0.00     0.049 C 
HETATM    2  C   UNL     1     -22.205  -3.859 -10.904  1.00  0.00     0.113 C 
HETATM    3  C   UNL     1     -20.920  -4.374 -10.242  1.00  0.00     0.257 C 
HETATM    4  O   UNL     1     -19.971  -4.890 -10.821  1.00  0.00    -0.270 OA
HETATM    5  N   UNL     1     -20.984  -4.121  -8.903  1.00  0.00    -0.246 N 
HETATM    6  C   UNL     1     -22.291  -3.947  -8.552  1.00  0.00     0.331 C 
HETATM    7  O   UNL     1     -22.753  -4.056  -7.427  1.00  0.00    -0.246 OA
HETATM    8  N   UNL     1     -23.040  -3.756  -9.707  1.00  0.00    -0.295 N 
HETATM    9  C   UNL     1     -21.928  -2.464 -11.471  1.00  0.00     0.049 C 
ENDROOT
BRANCH   5  10
HETATM   10  C   UNL     1     -20.016  -4.559  -7.940  1.00  0.00     0.303 C 
BRANCH  10  11
HETATM   11  O   UNL     1     -20.112  -5.955  -7.736  1.00  0.00    -0.382 OA
HETATM   12  H   UNL     1     -19.207  -6.306  -7.859  1.00  0.00     0.211 HD
ENDBRANCH  10  11
ENDBRANCH   5  10
BRANCH   8  13
HETATM   13  C   UNL     1     -24.458  -3.983  -9.688  1.00  0.00     0.296 C 
BRANCH  13  14
HETATM   14  O   UNL     1     -25.090  -2.841  -9.161  1.00  0.00    -0.382 OA
HETATM   15  H   UNL     1     -25.734  -3.176  -8.516  1.00  0.00     0.211 HD
ENDBRANCH  13  14
ENDBRANCH   8  13
TORSDOF 4
ENDMDL
MODEL 3
REMARK VINA RESULT:      -5.3      1.469      3.810
REMARK  4 active torsions:
REMARK  status: ('A' for Active; 'I' for Inactive)
REMARK    1  A    between atoms: N_5  and  C_11 
REMARK    2  A    between atoms: N_8  and  C_9 
REMARK    3  A    between atoms: C_9  and  O_10 
REMARK    4  A    between atoms: C_11  and  O_12 
ROOT
HETATM    1  C   UNL     1     -10.810   4.079 -22.370  1.00  0.00     0.049 C 
HETATM    2  C   UNL     1     -11.563   4.121 -21.044  1.00  0.00     0.113 C 
HETATM    3  C   UNL     1     -13.075   3.985 -21.269  1.00  0.00     0.257 C 
HETATM    4  O   UNL     1     -13.617   3.222 -22.060  1.00  0.00    -0.270 OA
HETATM    5  N   UNL     1     -13.724   4.822 -20.410  1.00  0.00    -0.246 N 
HETATM    6  C   UNL     1     -12.854   5.792 -20.004  1.00  0.00     0.331 C 
HETATM    7  O   UNL     1     -13.159   6.879 -19.537  1.00  0.00    -0.246 OA
HETATM    8  N   UNL     1     -11.563   5.398 -20.332  1.00  0.00    -0.295 N 
HETATM    9  C   UNL     1     -11.114   2.997 -20.105  1.00  0.00     0.049 C 
ENDROOT
BRANCH   5  10
HETATM   10  C   UNL     1     -15.139   5.054 -20.405  1.00  0.00     0.303 C 
BRANCH  10  11
HETATM   11  O   UNL     1     -15.583   5.399 -19.107  1.00  0.00    -0.382 OA
HETATM   12  H   UNL     1     -15.864   6.334 -19.161  1.00  0.00     0.211 HD
ENDBRANCH  10  11
ENDBRANCH   5  10
BRANCH   8  13
HETATM   13  C   UNL     1     -10.516   6.377 -20.427  1.00  0.00     0.296 C 
BRANCH  13  14
HETATM   14  O   UNL     1     -10.277   6.908 -19.146  1.00  0.00    -0.382 OA
HETATM   15  H   UNL     1     -10.866   7.676 -19.070  1.00  0.00     0.211 HD
ENDBRANCH  13  14
ENDBRANCH   8  13
TORSDOF 4
ENDMDL
MODEL 4
REMARK VINA RESULT:      -5.1     16.246     17.957
REMARK  4 active torsions:
REMARK  status: ('A' for Active; 'I' for Inactive)
REMARK    1  A    between atoms: N_5  and  C_11 
REMARK    2  A    between atoms: N_8  and  C_9 
REMARK    3  A    between atoms: C_9  and  O_10 
REMARK    4  A    between atoms: C_11  and  O_12 
ROOT
HETATM    1  C   UNL     1     -21.968  -3.262  -8.923  1.00  0.00     0.049 C 
HETATM    2  C   UNL     1     -22.674  -3.988 -10.065  1.00  0.00     0.113 C 
HETATM    3  C   UNL     1     -22.025  -3.645 -11.413  1.00  0.00     0.257 C 
HETATM    4  O   UNL     1     -20.822  -3.550 -11.628  1.00  0.00    -0.270 OA
HETATM    5  N   UNL     1     -23.006  -3.507 -12.350  1.00  0.00    -0.246 N 
HETATM    6  C   UNL     1     -24.187  -3.257 -11.714  1.00  0.00     0.331 C 
HETATM    7  O   UNL     1     -25.176  -2.741 -12.213  1.00  0.00    -0.246 OA
HETATM    8  N   UNL     1     -24.039  -3.560 -10.366  1.00  0.00    -0.295 N 
HETATM    9  C   UNL     1     -22.628  -5.508  -9.883  1.00  0.00     0.049 C 
ENDROOT
BRANCH   5  10
HETATM   10  C   UNL     1     -22.794  -3.078 -13.702  1.00  0.00     0.303 C 
BRANCH  10  11
HETATM   11  O   UNL     1     -23.713  -3.704 -14.575  1.00  0.00    -0.382 OA
HETATM   12  H   UNL     1     -24.540  -3.185 -14.509  1.00  0.00     0.211 HD
ENDBRANCH  10  11
ENDBRANCH   5  10
BRANCH   8  13
HETATM   13  C   UNL     1     -24.942  -2.997  -9.401  1.00  0.00     0.296 C 
BRANCH  13  14
HETATM   14  O   UNL     1     -26.255  -3.374  -9.738  1.00  0.00    -0.382 OA
HETATM   15  H   UNL     1     -26.499  -2.817 -10.494  1.00  0.00     0.211 HD
ENDBRANCH  13  14
ENDBRANCH   8  13
TORSDOF 4
ENDMDL
MODEL 5
REMARK VINA RESULT:      -5.0      1.170      3.554
REMARK  4 active torsions:
REMARK  status: ('A' for Active; 'I' for Inactive)
REMARK    1  A    between atoms: N_5  and  C_11 
REMARK    2  A    between atoms: N_8  and  C_9 
REMARK    3  A    between atoms: C_9  and  O_10 
REMARK    4  A    between atoms: C_11  and  O_12 
ROOT
HETATM    1  C   UNL     1      -9.071   6.471 -21.039  1.00  0.00     0.049 C 
HETATM    2  C   UNL     1     -10.176   6.108 -20.053  1.00  0.00     0.113 C 
HETATM    3  C   UNL     1     -11.283   5.300 -20.746  1.00  0.00     0.257 C 
HETATM    4  O   UNL     1     -11.113   4.406 -21.566  1.00  0.00    -0.270 OA
HETATM    5  N   UNL     1     -12.492   5.709 -20.265  1.00  0.00    -0.246 N 
HETATM    6  C   UNL     1     -12.349   6.953 -19.722  1.00  0.00     0.331 C 
HETATM    7  O   UNL     1     -13.246   7.758 -19.525  1.00  0.00    -0.246 OA
HETATM    8  N   UNL     1     -10.994   7.212 -19.551  1.00  0.00    -0.295 N 
HETATM    9  C   UNL     1      -9.639   5.279 -18.882  1.00  0.00     0.049 C 
ENDROOT
BRANCH   5  10
HETATM   10  C   UNL     1     -13.762   5.263 -20.757  1.00  0.00     0.303 C 
BRANCH  10  11
HETATM   11  O   UNL     1     -14.753   5.375 -19.754  1.00  0.00    -0.382 OA
HETATM   12  H   UNL     1     -15.065   6.301 -19.789  1.00  0.00     0.211 HD
ENDBRANCH  10  11
ENDBRANCH   5  10
BRANCH   8  13
HETATM   13  C   UNL     1     -10.532   8.565 -19.420  1.00  0.00     0.296 C 
BRANCH  13  14
HETATM   14  O   UNL     1     -10.198   8.800 -18.073  1.00  0.00    -0.382 OA
HETATM   15  H   UNL     1     -10.712   9.580 -17.811  1.00  0.00     0.211 HD
ENDBRANCH  13  14
ENDBRANCH   8  13
TORSDOF 4
ENDMDL
MODEL 6
REMARK VINA RESULT:      -4.9     16.409     17.904
REMARK  4 active torsions:
REMARK  status: ('A' for Active; 'I' for Inactive)
REMARK    1  A    between atoms: N_5  and  C_11 
REMARK    2  A    between atoms: N_8  and  C_9 
REMARK    3  A    between atoms: C_9  and  O_10 
REMARK    4  A    between atoms: C_11  and  O_12 
ROOT
HETATM    1  C   UNL     1     -20.154  -3.282  -8.482  1.00  0.00     0.049 C 
HETATM    2  C   UNL     1     -20.767  -4.228  -9.510  1.00  0.00     0.113 C 
HETATM    3  C   UNL     1     -21.118  -3.477 -10.802  1.00  0.00     0.257 C 
HETATM    4  O   UNL     1     -20.428  -2.623 -11.346  1.00  0.00    -0.270 OA
HETATM    5  N   UNL     1     -22.307  -3.949 -11.275  1.00  0.00    -0.246 N 
HETATM    6  C   UNL     1     -22.980  -4.547 -10.250  1.00  0.00     0.331 C 
HETATM    7  O   UNL     1     -24.182  -4.759 -10.207  1.00  0.00    -0.246 OA
HETATM    8  N   UNL     1     -22.094  -4.758  -9.199  1.00  0.00    -0.295 N 
HETATM    9  C   UNL     1     -19.815  -5.373  -9.863  1.00  0.00     0.049 C 
ENDROOT
BRANCH   5  10
HETATM   10  C   UNL     1     -23.011  -3.411 -12.402  1.00  0.00     0.303 C 
BRANCH  10  11
HETATM   11  O   UNL     1     -22.169  -3.353 -13.536  1.00  0.00    -0.382 OA
HETATM   12  H   UNL     1     -22.411  -4.123 -14.089  1.00  0.00     0.211 HD
ENDBRANCH  10  11
ENDBRANCH   5  10
BRANCH   8  13
HETATM   13  C   UNL     1     -22.595  -4.957  -7.868  1.00  0.00     0.296 C 
BRANCH  13  14
HETATM   14  O   UNL     1     -23.662  -4.065  -7.649  1.00  0.00    -0.382 OA
HETATM   15  H   UNL     1     -23.764  -4.015  -6.685  1.00  0.00     0.211 HD
ENDBRANCH  13  14
ENDBRANCH   8  13
TORSDOF 4
ENDMDL
MODEL 7
REMARK VINA RESULT:      -4.8      1.780      4.115
REMARK  4 active torsions:
REMARK  status: ('A' for Active; 'I' for Inactive)
REMARK    1  A    between atoms: N_5  and  C_11 
REMARK    2  A    between atoms: N_8  and  C_9 
REMARK    3  A    between atoms: C_9  and  O_10 
REMARK    4  A    between atoms: C_11  and  O_12 
ROOT
HETATM    1  C   UNL     1     -12.615   9.255 -21.070  1.00  0.00     0.049 C 
HETATM    2  C   UNL     1     -11.725   8.028 -21.242  1.00  0.00     0.113 C 
HETATM    3  C   UNL     1     -12.509   6.740 -20.958  1.00  0.00     0.257 C 
HETATM    4  O   UNL     1     -13.658   6.504 -21.316  1.00  0.00    -0.270 OA
HETATM    5  N   UNL     1     -11.703   5.875 -20.279  1.00  0.00    -0.246 N 
HETATM    6  C   UNL     1     -10.695   6.585 -19.693  1.00  0.00     0.331 C 
HETATM    7  O   UNL     1     -10.014   6.218 -18.747  1.00  0.00    -0.246 OA
HETATM    8  N   UNL     1     -10.656   7.853 -20.260  1.00  0.00    -0.295 N 
HETATM    9  C   UNL     1     -11.153   7.938 -22.660  1.00  0.00     0.049 C 
ENDROOT
BRANCH   5  10
HETATM   10  C   UNL     1     -12.123   4.614 -19.742  1.00  0.00     0.303 C 
BRANCH  10  11
HETATM   11  O   UNL     1     -11.105   3.643 -19.893  1.00  0.00    -0.382 OA
HETATM   12  H   UNL     1     -10.404   3.890 -19.257  1.00  0.00     0.211 HD
ENDBRANCH  10  11
ENDBRANCH   5  10
BRANCH   8  13
HETATM   13  C   UNL     1     -10.015   8.932 -19.561  1.00  0.00     0.296 C 
BRANCH  13  14
HETATM   14  O   UNL     1     -10.341   8.842 -18.195  1.00  0.00    -0.382 OA
HETATM   15  H   UNL     1     -10.182   9.728 -17.832  1.00  0.00     0.211 HD
ENDBRANCH  13  14
ENDBRANCH   8  13
TORSDOF 4
ENDMDL
MODEL 8
REMARK VINA RESULT:      -4.7     23.894     25.340
REMARK  4 active torsions:
REMARK  status: ('A' for Active; 'I' for Inactive)
REMARK    1  A    between atoms: N_5  and  C_11 
REMARK    2  A    between atoms: N_8  and  C_9 
REMARK    3  A    between atoms: C_9  and  O_10 
REMARK    4  A    between atoms: C_11  and  O_12 
ROOT
HETATM    1  C   UNL     1     -21.685  -9.944  -3.829  1.00  0.00     0.049 C 
HETATM    2  C   UNL     1     -21.054  -8.978  -2.831  1.00  0.00     0.113 C 
HETATM    3  C   UNL     1     -21.545  -9.266  -1.406  1.00  0.00     0.257 C 
HETATM    4  O   UNL     1     -21.695 -10.376  -0.909  1.00  0.00    -0.270 OA
HETATM    5  N   UNL     1     -21.745  -8.081  -0.762  1.00  0.00    -0.246 N 
HETATM    6  C   UNL     1     -21.898  -7.096  -1.695  1.00  0.00     0.331 C 
HETATM    7  O   UNL     1     -22.430  -6.012  -1.513  1.00  0.00    -0.246 OA
HETATM    8  N   UNL     1     -21.469  -7.579  -2.926  1.00  0.00    -0.295 N 
HETATM    9  C   UNL     1     -19.526  -9.073  -2.841  1.00  0.00     0.049 C 
ENDROOT
BRANCH   5  10
HETATM   10  C   UNL     1     -22.310  -7.946   0.549  1.00  0.00     0.303 C 
BRANCH  10  11
HETATM   11  O   UNL     1     -23.710  -7.761   0.472  1.00  0.00    -0.382 OA
HETATM   12  H   UNL     1     -23.843  -6.943  -0.048  1.00  0.00     0.211 HD
ENDBRANCH  10  11
ENDBRANCH   5  10
BRANCH   8  13
HETATM   13  C   UNL     1     -21.909  -6.945  -4.137  1.00  0.00     0.296 C 
BRANCH  13  14
HETATM   14  O   UNL     1     -21.332  -5.664  -4.211  1.00  0.00    -0.382 OA
HETATM   15  H   UNL     1     -22.003  -5.057  -3.860  1.00  0.00     0.211 HD
ENDBRANCH  13  14
ENDBRANCH   8  13
TORSDOF 4
ENDMDL
MODEL 9
REMARK VINA RESULT:      -4.7     24.782     26.257
REMARK  4 active torsions:
REMARK  status: ('A' for Active; 'I' for Inactive)
REMARK    1  A    between atoms: N_5  and  C_11 
REMARK    2  A    between atoms: N_8  and  C_9 
REMARK    3  A    between atoms: C_9  and  O_10 
REMARK    4  A    between atoms: C_11  and  O_12 
ROOT
HETATM    1  C   UNL     1     -23.467 -10.577  -0.327  1.00  0.00     0.049 C 
HETATM    2  C   UNL     1     -22.224  -9.699  -0.429  1.00  0.00     0.113 C 
HETATM    3  C   UNL     1     -22.595  -8.213  -0.333  1.00  0.00     0.257 C 
HETATM    4  O   UNL     1     -23.415  -7.726   0.436  1.00  0.00    -0.270 OA
HETATM    5  N   UNL     1     -21.826  -7.510  -1.214  1.00  0.00    -0.246 N 
HETATM    6  C   UNL     1     -21.361  -8.367  -2.169  1.00  0.00     0.331 C 
HETATM    7  O   UNL     1     -20.955  -8.054  -3.278  1.00  0.00    -0.246 OA
HETATM    8  N   UNL     1     -21.549  -9.671  -1.727  1.00  0.00    -0.295 N 
HETATM    9  C   UNL     1     -21.216 -10.015   0.679  1.00  0.00     0.049 C 
ENDROOT
BRANCH   5  10
HETATM   10  C   UNL     1     -21.968  -6.110  -1.488  1.00  0.00     0.303 C 
BRANCH  10  11
HETATM   11  O   UNL     1     -22.733  -5.905  -2.660  1.00  0.00    -0.382 OA
HETATM   12  H   UNL     1     -22.261  -5.216  -3.170  1.00  0.00     0.211 HD
ENDBRANCH  10  11
ENDBRANCH   5  10
BRANCH   8  13
HETATM   13  C   UNL     1     -21.565 -10.753  -2.670  1.00  0.00     0.296 C 
BRANCH  13  14
HETATM   14  O   UNL     1     -22.445 -10.425  -3.719  1.00  0.00    -0.382 OA
HETATM   15  H   UNL     1     -23.173 -11.063  -3.656  1.00  0.00     0.211 HD
ENDBRANCH  13  14
ENDBRANCH   8  13
TORSDOF 4
ENDMDL
