MODEL 1
REMARK VINA RESULT:      -7.0      0.000      0.000
REMARK  6 active torsions:
REMARK  status: ('A' for Active; 'I' for Inactive)
REMARK    1  A    between atoms: C_1  and  O_13 
REMARK    2  A    between atoms: C_2  and  O_12 
REMARK    3  A    between atoms: C_3  and  C_9 
REMARK    4  A    between atoms: C_5  and  O_8 
REMARK    5  A    between atoms: C_6  and  O_7 
REMARK    6  A    between atoms: C_9  and  O_11 
ROOT
HETATM    1  C   UNL     1     -22.620  -4.398 -10.007  1.00  0.00     0.183 C 
HETATM    2  C   UNL     1     -22.626  -4.186 -11.531  1.00  0.00     0.189 C 
HETATM    3  C   UNL     1     -23.429  -2.928 -11.881  1.00  0.00     0.253 C 
HETATM    4  O   UNL     1     -24.776  -3.077 -11.394  1.00  0.00    -0.340 OA
HETATM    5  C   UNL     1     -24.814  -3.125  -9.968  1.00  0.00     0.289 C 
HETATM    6  C   UNL     1     -24.051  -4.361  -9.440  1.00  0.00     0.204 C 
ENDROOT
BRANCH   3   7
HETATM    7  C   UNL     1     -23.483  -2.699 -13.385  1.00  0.00     0.172 C 
HETATM    8  O   UNL     1     -24.408  -2.166 -13.972  1.00  0.00    -0.648 OA
BRANCH   7   9
HETATM    9  O   UNL     1     -22.386  -3.191 -14.018  1.00  0.00    -0.774 OA
HETATM   10  H   UNL     1     -21.593  -3.066 -13.442  1.00  0.00     0.167 HD
ENDBRANCH   7   9
ENDBRANCH   3   7
BRANCH   2  11
HETATM   11  O   UNL     1     -23.214  -5.354 -12.128  1.00  0.00    -0.390 OA
HETATM   12  H   UNL     1     -23.699  -5.104 -12.937  1.00  0.00     0.210 HD
ENDBRANCH   2  11
BRANCH   1  13
HETATM   13  O   UNL     1     -21.801  -3.448  -9.309  1.00  0.00    -0.390 OA
HETATM   14  H   UNL     1     -21.920  -2.549  -9.655  1.00  0.00     0.210 HD
ENDBRANCH   1  13
BRANCH   5  15
HETATM   15  O   UNL     1     -26.180  -3.138  -9.588  1.00  0.00    -0.368 OA
HETATM   16  H   UNL     1     -26.356  -2.330  -9.076  1.00  0.00     0.212 HD
ENDBRANCH   5  15
BRANCH   6  17
HETATM   17  O   UNL     1     -24.030  -4.369  -8.010  1.00  0.00    -0.388 OA
HETATM   18  H   UNL     1     -23.592  -5.202  -7.736  1.00  0.00     0.210 HD
ENDBRANCH   6  17
TORSDOF 6
ENDMDL
MODEL 2
REMARK VINA RESULT:      -6.1      1.512      4.649
REMARK  6 active torsions:
REMARK  status: ('A' for Active; 'I' for Inactive)
REMARK    1  A    between atoms: C_1  and  O_13 
REMARK    2  A    between atoms: C_2  and  O_12 
REMARK    3  A    between atoms: C_3  and  C_9 
REMARK    4  A    between atoms: C_5  and  O_8 
REMARK    5  A    between atoms: C_6  and  O_7 
REMARK    6  A    between atoms: C_9  and  O_11 
ROOT
HETATM    1  C   UNL     1     -23.766  -3.645 -11.827  1.00  0.00     0.183 C 
HETATM    2  C   UNL     1     -23.885  -4.126 -10.369  1.00  0.00     0.189 C 
HETATM    3  C   UNL     1     -22.741  -3.544  -9.532  1.00  0.00     0.253 C 
HETATM    4  O   UNL     1     -21.483  -3.966 -10.093  1.00  0.00    -0.340 OA
HETATM    5  C   UNL     1     -21.277  -3.410 -11.391  1.00  0.00     0.289 C 
HETATM    6  C   UNL     1     -22.354  -3.911 -12.380  1.00  0.00     0.204 C 
ENDROOT
BRANCH   3   7
HETATM    7  C   UNL     1     -22.807  -4.021  -8.088  1.00  0.00     0.172 C 
HETATM    8  O   UNL     1     -21.839  -4.324  -7.412  1.00  0.00    -0.648 OA
BRANCH   7   9
HETATM    9  O   UNL     1     -24.086  -4.104  -7.633  1.00  0.00    -0.774 OA
HETATM   10  H   UNL     1     -24.394  -5.041  -7.696  1.00  0.00     0.167 HD
ENDBRANCH   7   9
ENDBRANCH   3   7
BRANCH   2  11
HETATM   11  O   UNL     1     -23.835  -5.562 -10.382  1.00  0.00    -0.390 OA
HETATM   12  H   UNL     1     -23.099  -5.873  -9.823  1.00  0.00     0.210 HD
ENDBRANCH   2  11
BRANCH   1  13
HETATM   13  O   UNL     1     -24.093  -2.257 -11.992  1.00  0.00    -0.390 OA
HETATM   14  H   UNL     1     -24.349  -2.055 -12.906  1.00  0.00     0.210 HD
ENDBRANCH   1  13
BRANCH   5  15
HETATM   15  O   UNL     1     -19.969  -3.772 -11.797  1.00  0.00    -0.368 OA
HETATM   16  H   UNL     1     -19.875  -4.734 -11.683  1.00  0.00     0.212 HD
ENDBRANCH   5  15
BRANCH   6  17
HETATM   17  O   UNL     1     -22.188  -3.298 -13.662  1.00  0.00    -0.388 OA
HETATM   18  H   UNL     1     -22.563  -3.915 -14.324  1.00  0.00     0.210 HD
ENDBRANCH   6  17
TORSDOF 6
ENDMDL
MODEL 3
REMARK VINA RESULT:      -6.0     11.770     13.704
REMARK  6 active torsions:
REMARK  status: ('A' for Active; 'I' for Inactive)
REMARK    1  A    between atoms: C_1  and  O_13 
REMARK    2  A    between atoms: C_2  and  O_12 
REMARK    3  A    between atoms: C_3  and  C_9 
REMARK    4  A    between atoms: C_5  and  O_8 
REMARK    5  A    between atoms: C_6  and  O_7 
REMARK    6  A    between atoms: C_9  and  O_11 
ROOT
HETATM    1  C   UNL     1     -36.963   0.337 -15.377  1.00  0.00     0.183 C 
HETATM    2  C   UNL     1     -36.763   0.181 -13.859  1.00  0.00     0.189 C 
HETATM    3  C   UNL     1     -35.334  -0.288 -13.565  1.00  0.00     0.253 C 
HETATM    4  O   UNL     1     -35.104  -1.546 -14.229  1.00  0.00    -0.340 OA
HETATM    5  C   UNL     1     -35.134  -1.400 -15.648  1.00  0.00     0.289 C 
HETATM    6  C   UNL     1     -36.530  -0.938 -16.123  1.00  0.00     0.204 C 
ENDROOT
BRANCH   3   7
HETATM    7  C   UNL     1     -35.105  -0.483 -12.073  1.00  0.00     0.172 C 
HETATM    8  O   UNL     1     -34.297  -1.257 -11.591  1.00  0.00    -0.648 OA
BRANCH   7   9
HETATM    9  O   UNL     1     -35.936   0.287 -11.322  1.00  0.00    -0.774 OA
HETATM   10  H   UNL     1     -35.399   0.841 -10.705  1.00  0.00     0.167 HD
ENDBRANCH   7   9
ENDBRANCH   3   7
BRANCH   2  11
HETATM   11  O   UNL     1     -37.726  -0.779 -13.393  1.00  0.00    -0.390 OA
HETATM   12  H   UNL     1     -38.238  -1.127 -14.146  1.00  0.00     0.210 HD
ENDBRANCH   2  11
BRANCH   1  13
HETATM   13  O   UNL     1     -36.272   1.471 -15.923  1.00  0.00    -0.390 OA
HETATM   14  H   UNL     1     -35.362   1.248 -16.178  1.00  0.00     0.210 HD
ENDBRANCH   1  13
BRANCH   5  15
HETATM   15  O   UNL     1     -34.769  -2.653 -16.204  1.00  0.00    -0.368 OA
HETATM   16  H   UNL     1     -34.426  -2.494 -17.100  1.00  0.00     0.212 HD
ENDBRANCH   5  15
BRANCH   6  17
HETATM   17  O   UNL     1     -36.539  -0.725 -17.538  1.00  0.00    -0.388 OA
HETATM   18  H   UNL     1     -37.463  -0.523 -17.791  1.00  0.00     0.210 HD
ENDBRANCH   6  17
TORSDOF 6
ENDMDL
MODEL 4
REMARK VINA RESULT:      -5.9      7.298      8.718
REMARK  6 active torsions:
REMARK  status: ('A' for Active; 'I' for Inactive)
REMARK    1  A    between atoms: C_1  and  O_13 
REMARK    2  A    between atoms: C_2  and  O_12 
REMARK    3  A    between atoms: C_3  and  C_9 
REMARK    4  A    between atoms: C_5  and  O_8 
REMARK    5  A    between atoms: C_6  and  O_7 
REMARK    6  A    between atoms: C_9  and  O_11 
ROOT
HETATM    1  C   UNL     1     -29.587  -6.983 -18.292  1.00  0.00     0.183 C 
HETATM    2  C   UNL     1     -28.097  -6.595 -18.317  1.00  0.00     0.189 C 
HETATM    3  C   UNL     1     -27.503  -6.716 -16.909  1.00  0.00     0.253 C 
HETATM    4  O   UNL     1     -28.227  -5.850 -16.014  1.00  0.00    -0.340 OA
HETATM    5  C   UNL     1     -29.579  -6.277 -15.854  1.00  0.00     0.289 C 
HETATM    6  C   UNL     1     -30.340  -6.203 -17.197  1.00  0.00     0.204 C 
ENDROOT
BRANCH   3   7
HETATM    7  C   UNL     1     -26.035  -6.312 -16.886  1.00  0.00     0.172 C 
HETATM    8  O   UNL     1     -25.486  -5.744 -15.958  1.00  0.00    -0.648 OA
BRANCH   7   9
HETATM    9  O   UNL     1     -25.398  -6.630 -18.044  1.00  0.00    -0.774 OA
HETATM   10  H   UNL     1     -25.108  -7.574 -18.009  1.00  0.00     0.167 HD
ENDBRANCH   7   9
ENDBRANCH   3   7
BRANCH   2  11
HETATM   11  O   UNL     1     -28.010  -5.244 -18.798  1.00  0.00    -0.390 OA
HETATM   12  H   UNL     1     -27.336  -5.186 -19.500  1.00  0.00     0.210 HD
ENDBRANCH   2  11
BRANCH   1  13
HETATM   13  O   UNL     1     -29.801  -8.391 -18.113  1.00  0.00    -0.390 OA
HETATM   14  H   UNL     1     -30.701  -8.652 -18.365  1.00  0.00     0.210 HD
ENDBRANCH   1  13
BRANCH   5  15
HETATM   15  O   UNL     1     -30.163  -5.448 -14.864  1.00  0.00    -0.368 OA
HETATM   16  H   UNL     1     -30.103  -4.527 -15.170  1.00  0.00     0.212 HD
ENDBRANCH   5  15
BRANCH   6  17
HETATM   17  O   UNL     1     -31.674  -6.698 -17.051  1.00  0.00    -0.388 OA
HETATM   18  H   UNL     1     -31.611  -7.673 -16.983  1.00  0.00     0.210 HD
ENDBRANCH   6  17
TORSDOF 6
ENDMDL
MODEL 5
REMARK VINA RESULT:      -5.8      1.460      3.765
REMARK  6 active torsions:
REMARK  status: ('A' for Active; 'I' for Inactive)
REMARK    1  A    between atoms: C_1  and  O_13 
REMARK    2  A    between atoms: C_2  and  O_12 
REMARK    3  A    between atoms: C_3  and  C_9 
REMARK    4  A    between atoms: C_5  and  O_8 
REMARK    5  A    between atoms: C_6  and  O_7 
REMARK    6  A    between atoms: C_9  and  O_11 
ROOT
HETATM    1  C   UNL     1     -23.149  -3.872 -12.398  1.00  0.00     0.183 C 
HETATM    2  C   UNL     1     -21.837  -3.997 -11.603  1.00  0.00     0.189 C 
HETATM    3  C   UNL     1     -22.134  -4.452 -10.170  1.00  0.00     0.253 C 
HETATM    4  O   UNL     1     -23.007  -3.494  -9.542  1.00  0.00    -0.340 OA
HETATM    5  C   UNL     1     -24.289  -3.466 -10.167  1.00  0.00     0.289 C 
HETATM    6  C   UNL     1     -24.172  -3.007 -11.639  1.00  0.00     0.204 C 
ENDROOT
BRANCH   3   7
HETATM    7  C   UNL     1     -20.862  -4.560  -9.342  1.00  0.00     0.172 C 
HETATM    8  O   UNL     1     -20.798  -4.368  -8.140  1.00  0.00    -0.648 OA
BRANCH   7   9
HETATM    9  O   UNL     1     -19.779  -4.866 -10.104  1.00  0.00    -0.774 OA
HETATM   10  H   UNL     1     -18.955  -4.664  -9.597  1.00  0.00     0.167 HD
ENDBRANCH   7   9
ENDBRANCH   3   7
BRANCH   2  11
HETATM   11  O   UNL     1     -21.202  -2.708 -11.611  1.00  0.00    -0.390 OA
HETATM   12  H   UNL     1     -21.272  -2.310 -12.499  1.00  0.00     0.210 HD
ENDBRANCH   2  11
BRANCH   1  13
HETATM   13  O   UNL     1     -23.737  -5.142 -12.718  1.00  0.00    -0.390 OA
HETATM   14  H   UNL     1     -24.207  -5.116 -13.568  1.00  0.00     0.210 HD
ENDBRANCH   1  13
BRANCH   5  15
HETATM   15  O   UNL     1     -25.108  -2.599  -9.402  1.00  0.00    -0.368 OA
HETATM   16  H   UNL     1     -24.536  -2.121  -8.777  1.00  0.00     0.212 HD
ENDBRANCH   5  15
BRANCH   6  17
HETATM   17  O   UNL     1     -25.448  -3.047 -12.285  1.00  0.00    -0.388 OA
HETATM   18  H   UNL     1     -25.409  -2.414 -13.032  1.00  0.00     0.210 HD
ENDBRANCH   6  17
TORSDOF 6
ENDMDL
MODEL 6
REMARK VINA RESULT:      -5.8      9.493     11.259
REMARK  6 active torsions:
REMARK  status: ('A' for Active; 'I' for Inactive)
REMARK    1  A    between atoms: C_1  and  O_13 
REMARK    2  A    between atoms: C_2  and  O_12 
REMARK    3  A    between atoms: C_3  and  C_9 
REMARK    4  A    between atoms: C_5  and  O_8 
REMARK    5  A    between atoms: C_6  and  O_7 
REMARK    6  A    between atoms: C_9  and  O_11 
ROOT
HETATM    1  C   UNL     1     -33.615  -3.819 -10.651  1.00  0.00     0.183 C 
HETATM    2  C   UNL     1     -34.325  -2.454 -10.702  1.00  0.00     0.189 C 
HETATM    3  C   UNL     1     -35.280  -2.406 -11.900  1.00  0.00     0.253 C 
HETATM    4  O   UNL     1     -34.531  -2.622 -13.111  1.00  0.00    -0.340 OA
HETATM    5  C   UNL     1     -33.984  -3.939 -13.159  1.00  0.00     0.289 C 
HETATM    6  C   UNL     1     -32.974  -4.156 -12.010  1.00  0.00     0.204 C 
ENDROOT
BRANCH   3   7
HETATM    7  C   UNL     1     -35.981  -1.058 -12.003  1.00  0.00     0.172 C 
HETATM    8  O   UNL     1     -35.806  -0.125 -11.238  1.00  0.00    -0.648 OA
BRANCH   7   9
HETATM    9  O   UNL     1     -36.863  -1.017 -13.036  1.00  0.00    -0.774 OA
HETATM   10  H   UNL     1     -37.405  -0.193 -12.971  1.00  0.00     0.167 HD
ENDBRANCH   7   9
ENDBRANCH   3   7
BRANCH   2  11
HETATM   11  O   UNL     1     -33.310  -1.442 -10.813  1.00  0.00    -0.390 OA
HETATM   12  H   UNL     1     -32.621  -1.731 -11.439  1.00  0.00     0.210 HD
ENDBRANCH   2  11
BRANCH   1  13
HETATM   13  O   UNL     1     -34.482  -4.890 -10.249  1.00  0.00    -0.390 OA
HETATM   14  H   UNL     1     -33.992  -5.599  -9.802  1.00  0.00     0.210 HD
ENDBRANCH   1  13
BRANCH   5  15
HETATM   15  O   UNL     1     -33.384  -4.096 -14.433  1.00  0.00    -0.368 OA
HETATM   16  H   UNL     1     -34.083  -4.020 -15.105  1.00  0.00     0.212 HD
ENDBRANCH   5  15
BRANCH   6  17
HETATM   17  O   UNL     1     -32.480  -5.499 -12.017  1.00  0.00    -0.388 OA
HETATM   18  H   UNL     1     -32.970  -5.979 -12.715  1.00  0.00     0.210 HD
ENDBRANCH   6  17
TORSDOF 6
ENDMDL
MODEL 7
REMARK VINA RESULT:      -5.5     10.534     11.731
REMARK  6 active torsions:
REMARK  status: ('A' for Active; 'I' for Inactive)
REMARK    1  A    between atoms: C_1  and  O_13 
REMARK    2  A    between atoms: C_2  and  O_12 
REMARK    3  A    between atoms: C_3  and  C_9 
REMARK    4  A    between atoms: C_5  and  O_8 
REMARK    5  A    between atoms: C_6  and  O_7 
REMARK    6  A    between atoms: C_9  and  O_11 
ROOT
HETATM    1  C   UNL     1     -34.664  -1.982 -10.737  1.00  0.00     0.183 C 
HETATM    2  C   UNL     1     -34.965  -3.492 -10.699  1.00  0.00     0.189 C 
HETATM    3  C   UNL     1     -34.399  -4.169 -11.952  1.00  0.00     0.253 C 
HETATM    4  O   UNL     1     -34.993  -3.573 -13.121  1.00  0.00    -0.340 OA
HETATM    5  C   UNL     1     -34.606  -2.207 -13.264  1.00  0.00     0.289 C 
HETATM    6  C   UNL     1     -35.117  -1.365 -12.073  1.00  0.00     0.204 C 
ENDROOT
BRANCH   3   7
HETATM    7  C   UNL     1     -34.703  -5.661 -11.966  1.00  0.00     0.172 C 
HETATM    8  O   UNL     1     -34.559  -6.407 -11.013  1.00  0.00    -0.648 OA
BRANCH   7   9
HETATM    9  O   UNL     1     -35.127  -6.086 -13.185  1.00  0.00    -0.774 OA
HETATM   10  H   UNL     1     -35.209  -5.310 -13.791  1.00  0.00     0.167 HD
ENDBRANCH   7   9
ENDBRANCH   3   7
BRANCH   2  11
HETATM   11  O   UNL     1     -36.393  -3.646 -10.631  1.00  0.00    -0.390 OA
HETATM   12  H   UNL     1     -36.683  -3.642  -9.700  1.00  0.00     0.210 HD
ENDBRANCH   2  11
BRANCH   1  13
HETATM   13  O   UNL     1     -33.280  -1.678 -10.511  1.00  0.00    -0.390 OA
HETATM   14  H   UNL     1     -32.707  -2.433 -10.723  1.00  0.00     0.210 HD
ENDBRANCH   1  13
BRANCH   5  15
HETATM   15  O   UNL     1     -35.129  -1.753 -14.501  1.00  0.00    -0.368 OA
HETATM   16  H   UNL     1     -36.097  -1.838 -14.466  1.00  0.00     0.212 HD
ENDBRANCH   5  15
BRANCH   6  17
HETATM   17  O   UNL     1     -34.669  -0.010 -12.182  1.00  0.00    -0.388 OA
HETATM   18  H   UNL     1     -34.178   0.195 -11.359  1.00  0.00     0.210 HD
ENDBRANCH   6  17
TORSDOF 6
ENDMDL
MODEL 8
REMARK VINA RESULT:      -5.4      1.552      2.855
REMARK  6 active torsions:
REMARK  status: ('A' for Active; 'I' for Inactive)
REMARK    1  A    between atoms: C_1  and  O_13 
REMARK    2  A    between atoms: C_2  and  O_12 
REMARK    3  A    between atoms: C_3  and  C_9 
REMARK    4  A    between atoms: C_5  and  O_8 
REMARK    5  A    between atoms: C_6  and  O_7 
REMARK    6  A    between atoms: C_9  and  O_11 
ROOT
HETATM    1  C   UNL     1     -23.866  -4.441 -10.964  1.00  0.00     0.183 C 
HETATM    2  C   UNL     1     -24.120  -3.609 -12.235  1.00  0.00     0.189 C 
HETATM    3  C   UNL     1     -22.884  -3.648 -13.140  1.00  0.00     0.253 C 
HETATM    4  O   UNL     1     -21.753  -3.122 -12.419  1.00  0.00    -0.340 OA
HETATM    5  C   UNL     1     -21.400  -3.958 -11.319  1.00  0.00     0.289 C 
HETATM    6  C   UNL     1     -22.549  -4.021 -10.287  1.00  0.00     0.204 C 
ENDROOT
BRANCH   3   7
HETATM    7  C   UNL     1     -23.085  -2.812 -14.397  1.00  0.00     0.172 C 
HETATM    8  O   UNL     1     -23.911  -1.923 -14.514  1.00  0.00    -0.648 OA
BRANCH   7   9
HETATM    9  O   UNL     1     -22.253  -3.190 -15.403  1.00  0.00    -0.774 OA
HETATM   10  H   UNL     1     -22.529  -4.076 -15.740  1.00  0.00     0.167 HD
ENDBRANCH   7   9
ENDBRANCH   3   7
BRANCH   2  11
HETATM   11  O   UNL     1     -24.412  -2.264 -11.821  1.00  0.00    -0.390 OA
HETATM   12  H   UNL     1     -25.244  -2.248 -11.311  1.00  0.00     0.210 HD
ENDBRANCH   2  11
BRANCH   1  13
HETATM   13  O   UNL     1     -23.852  -5.855 -11.209  1.00  0.00    -0.390 OA
HETATM   14  H   UNL     1     -23.646  -6.357 -10.404  1.00  0.00     0.210 HD
ENDBRANCH   1  13
BRANCH   5  15
HETATM   15  O   UNL     1     -20.209  -3.432 -10.760  1.00  0.00    -0.368 OA
HETATM   16  H   UNL     1     -19.571  -3.302 -11.482  1.00  0.00     0.212 HD
ENDBRANCH   5  15
BRANCH   6  17
HETATM   17  O   UNL     1     -22.222  -4.915  -9.219  1.00  0.00    -0.388 OA
HETATM   18  H   UNL     1     -22.221  -4.387  -8.394  1.00  0.00     0.210 HD
ENDBRANCH   6  17
TORSDOF 6
ENDMDL
MODEL 9
REMARK VINA RESULT:      -5.4      1.650      3.831
REMARK  6 active torsions:
REMARK  status: ('A' for Active; 'I' for Inactive)
REMARK    1  A    between atoms: C_1  and  O_13 
REMARK    2  A    between atoms: C_2  and  O_12 
REMARK    3  A    between atoms: C_3  and  C_9 
REMARK    4  A    between atoms: C_5  and  O_8 
REMARK    5  A    between atoms: C_6  and  O_7 
REMARK    6  A    between atoms: C_9  and  O_11 
ROOT
HETATM    1  C   UNL     1     -21.989  -3.573 -12.160  1.00  0.00     0.183 C 
HETATM    2  C   UNL     1     -23.451  -3.828 -11.750  1.00  0.00     0.189 C 
HETATM    3  C   UNL     1     -23.632  -3.546 -10.254  1.00  0.00     0.253 C 
HETATM    4  O   UNL     1     -22.748  -4.400  -9.502  1.00  0.00    -0.340 OA
HETATM    5  C   UNL     1     -21.379  -4.082  -9.750  1.00  0.00     0.289 C 
HETATM    6  C   UNL     1     -21.018  -4.327 -11.232  1.00  0.00     0.204 C 
ENDROOT
BRANCH   3   7
HETATM    7  C   UNL     1     -25.060  -3.816  -9.803  1.00  0.00     0.172 C 
HETATM    8  O   UNL     1     -25.934  -2.970  -9.722  1.00  0.00    -0.648 OA
BRANCH   7   9
HETATM    9  O   UNL     1     -25.253  -5.118  -9.463  1.00  0.00    -0.774 OA
HETATM   10  H   UNL     1     -24.863  -5.284  -8.571  1.00  0.00     0.167 HD
ENDBRANCH   7   9
ENDBRANCH   3   7
BRANCH   2  11
HETATM   11  O   UNL     1     -23.752  -5.200 -12.054  1.00  0.00    -0.390 OA
HETATM   12  H   UNL     1     -23.414  -5.425 -12.941  1.00  0.00     0.210 HD
ENDBRANCH   2  11
BRANCH   1  13
HETATM   13  O   UNL     1     -21.646  -2.179 -12.184  1.00  0.00    -0.390 OA
HETATM   14  H   UNL     1     -20.696  -2.046 -12.334  1.00  0.00     0.210 HD
ENDBRANCH   1  13
BRANCH   5  15
HETATM   15  O   UNL     1     -20.601  -4.878  -8.873  1.00  0.00    -0.368 OA
HETATM   16  H   UNL     1     -21.118  -5.024  -8.062  1.00  0.00     0.212 HD
ENDBRANCH   5  15
BRANCH   6  17
HETATM   17  O   UNL     1     -19.666  -3.941 -11.494  1.00  0.00    -0.388 OA
HETATM   18  H   UNL     1     -19.147  -4.154 -10.691  1.00  0.00     0.210 HD
ENDBRANCH   6  17
TORSDOF 6
ENDMDL
