MODEL 1
REMARK VINA RESULT:      -5.6      0.000      0.000
REMARK  9 active torsions:
REMARK  status: ('A' for Active; 'I' for Inactive)
REMARK    1  A    between atoms: C_2  and  C_3 
REMARK    2  A    between atoms: C_3  and  C_4 
REMARK    3  A    between atoms: C_4  and  C_5 
REMARK    4  A    between atoms: C_5  and  C_6 
REMARK    5  A    between atoms: C_6  and  C_7 
REMARK    6  A    between atoms: C_7  and  C_8 
REMARK    7  A    between atoms: C_8  and  C_9 
REMARK    8  A    between atoms: C_9  and  C_10 
REMARK    9  A    between atoms: C_10  and  C_11 
ROOT
HETATM    1  C   UNL     1     -33.628  -2.229 -11.153  1.00  0.00     0.000 C 
ENDROOT
BRANCH   1   2
HETATM    2  C   UNL     1     -35.062  -2.082 -10.671  1.00  0.00     0.000 C 
BRANCH   2   3
HETATM    3  C   UNL     1     -35.820  -1.106 -11.559  1.00  0.00     0.000 C 
BRANCH   3   4
HETATM    4  C   UNL     1     -35.058  -0.870 -12.855  1.00  0.00    -0.000 C 
BRANCH   4   5
HETATM    5  C   UNL     1     -34.931   0.618 -13.137  1.00  0.00    -0.005 C 
HETATM    6  C   UNL     1     -34.894   0.873 -14.637  1.00  0.00     0.005 C 
ENDBRANCH   4   5
ENDBRANCH   3   4
ENDBRANCH   2   3
ENDBRANCH   1   2
BRANCH   1   7
HETATM    7  C   UNL     1     -33.235  -3.695 -11.187  1.00  0.00     0.000 C 
BRANCH   7   8
HETATM    8  C   UNL     1     -34.001  -4.416 -12.286  1.00  0.00     0.000 C 
BRANCH   8   9
HETATM    9  C   UNL     1     -34.633  -5.688 -11.743  1.00  0.00     0.000 C 
BRANCH   9  10
HETATM   10  C   UNL     1     -34.340  -5.828 -10.257  1.00  0.00    -0.000 C 
BRANCH  10  11
HETATM   11  C   UNL     1     -34.990  -7.088  -9.696  1.00  0.00    -0.005 C 
HETATM   12  C   UNL     1     -34.207  -8.319 -10.108  1.00  0.00     0.005 C 
ENDBRANCH  10  11
ENDBRANCH   9  10
ENDBRANCH   8   9
ENDBRANCH   7   8
ENDBRANCH   1   7
TORSDOF 9
ENDMDL
MODEL 2
REMARK VINA RESULT:      -5.3      1.931      2.864
REMARK  9 active torsions:
REMARK  status: ('A' for Active; 'I' for Inactive)
REMARK    1  A    between atoms: C_2  and  C_3 
REMARK    2  A    between atoms: C_3  and  C_4 
REMARK    3  A    between atoms: C_4  and  C_5 
REMARK    4  A    between atoms: C_5  and  C_6 
REMARK    5  A    between atoms: C_6  and  C_7 
REMARK    6  A    between atoms: C_7  and  C_8 
REMARK    7  A    between atoms: C_8  and  C_9 
REMARK    8  A    between atoms: C_9  and  C_10 
REMARK    9  A    between atoms: C_10  and  C_11 
ROOT
HETATM    1  C   UNL     1     -34.279  -1.839 -11.231  1.00  0.00     0.000 C 
ENDROOT
BRANCH   1   2
HETATM    2  C   UNL     1     -35.783  -1.917 -11.027  1.00  0.00     0.000 C 
BRANCH   2   3
HETATM    3  C   UNL     1     -36.376  -0.520 -10.923  1.00  0.00     0.000 C 
BRANCH   3   4
HETATM    4  C   UNL     1     -37.328  -0.436  -9.739  1.00  0.00    -0.000 C 
BRANCH   4   5
HETATM    5  C   UNL     1     -36.584  -0.013  -8.482  1.00  0.00    -0.005 C 
HETATM    6  C   UNL     1     -37.181   1.269  -7.919  1.00  0.00     0.005 C 
ENDBRANCH   4   5
ENDBRANCH   3   4
ENDBRANCH   2   3
ENDBRANCH   1   2
BRANCH   1   7
HETATM    7  C   UNL     1     -33.600  -3.021 -10.564  1.00  0.00     0.000 C 
BRANCH   7   8
HETATM    8  C   UNL     1     -33.006  -3.946 -11.617  1.00  0.00     0.000 C 
BRANCH   8   9
HETATM    9  C   UNL     1     -33.311  -5.396 -11.279  1.00  0.00     0.000 C 
BRANCH   9  10
HETATM   10  C   UNL     1     -34.742  -5.531 -10.781  1.00  0.00    -0.000 C 
BRANCH  10  11
HETATM   11  C   UNL     1     -34.829  -6.566  -9.664  1.00  0.00    -0.005 C 
HETATM   12  C   UNL     1     -34.551  -7.955 -10.204  1.00  0.00     0.005 C 
ENDBRANCH  10  11
ENDBRANCH   9  10
ENDBRANCH   8   9
ENDBRANCH   7   8
ENDBRANCH   1   7
TORSDOF 9
ENDMDL
MODEL 3
REMARK VINA RESULT:      -5.3     12.119     13.582
REMARK  9 active torsions:
REMARK  status: ('A' for Active; 'I' for Inactive)
REMARK    1  A    between atoms: C_2  and  C_3 
REMARK    2  A    between atoms: C_3  and  C_4 
REMARK    3  A    between atoms: C_4  and  C_5 
REMARK    4  A    between atoms: C_5  and  C_6 
REMARK    5  A    between atoms: C_6  and  C_7 
REMARK    6  A    between atoms: C_7  and  C_8 
REMARK    7  A    between atoms: C_8  and  C_9 
REMARK    8  A    between atoms: C_9  and  C_10 
REMARK    9  A    between atoms: C_10  and  C_11 
ROOT
HETATM    1  C   UNL     1     -23.684  -3.717  -8.866  1.00  0.00     0.000 C 
ENDROOT
BRANCH   1   2
HETATM    2  C   UNL     1     -24.067  -4.408 -10.164  1.00  0.00     0.000 C 
BRANCH   2   3
HETATM    3  C   UNL     1     -22.829  -4.665 -11.011  1.00  0.00     0.000 C 
BRANCH   3   4
HETATM    4  C   UNL     1     -22.331  -3.365 -11.626  1.00  0.00    -0.000 C 
BRANCH   4   5
HETATM    5  C   UNL     1     -20.864  -3.143 -11.292  1.00  0.00    -0.005 C 
HETATM    6  C   UNL     1     -20.208  -4.455 -10.886  1.00  0.00     0.005 C 
ENDBRANCH   4   5
ENDBRANCH   3   4
ENDBRANCH   2   3
ENDBRANCH   1   2
BRANCH   1   7
HETATM    7  C   UNL     1     -22.634  -4.530  -8.131  1.00  0.00     0.000 C 
BRANCH   7   8
HETATM    8  C   UNL     1     -21.623  -3.603  -7.470  1.00  0.00     0.000 C 
BRANCH   8   9
HETATM    9  C   UNL     1     -20.328  -4.349  -7.189  1.00  0.00     0.000 C 
BRANCH   9  10
HETATM   10  C   UNL     1     -20.241  -4.716  -5.716  1.00  0.00    -0.000 C 
BRANCH  10  11
HETATM   11  C   UNL     1     -20.516  -6.202  -5.513  1.00  0.00    -0.005 C 
HETATM   12  C   UNL     1     -21.924  -6.417  -4.993  1.00  0.00     0.005 C 
ENDBRANCH  10  11
ENDBRANCH   9  10
ENDBRANCH   8   9
ENDBRANCH   7   8
ENDBRANCH   1   7
TORSDOF 9
ENDMDL
MODEL 4
REMARK VINA RESULT:      -5.2     12.181     13.618
REMARK  9 active torsions:
REMARK  status: ('A' for Active; 'I' for Inactive)
REMARK    1  A    between atoms: C_2  and  C_3 
REMARK    2  A    between atoms: C_3  and  C_4 
REMARK    3  A    between atoms: C_4  and  C_5 
REMARK    4  A    between atoms: C_5  and  C_6 
REMARK    5  A    between atoms: C_6  and  C_7 
REMARK    6  A    between atoms: C_7  and  C_8 
REMARK    7  A    between atoms: C_8  and  C_9 
REMARK    8  A    between atoms: C_9  and  C_10 
REMARK    9  A    between atoms: C_10  and  C_11 
ROOT
HETATM    1  C   UNL     1     -20.408  -4.551  -9.822  1.00  0.00     0.000 C 
ENDROOT
BRANCH   1   2
HETATM    2  C   UNL     1     -20.686  -3.432 -10.813  1.00  0.00     0.000 C 
BRANCH   2   3
HETATM    3  C   UNL     1     -22.180  -3.316 -11.075  1.00  0.00     0.000 C 
BRANCH   3   4
HETATM    4  C   UNL     1     -22.817  -4.698 -11.113  1.00  0.00    -0.000 C 
BRANCH   4   5
HETATM    5  C   UNL     1     -24.047  -4.744 -10.221  1.00  0.00    -0.005 C 
HETATM    6  C   UNL     1     -24.308  -3.377  -9.606  1.00  0.00     0.005 C 
ENDBRANCH   4   5
ENDBRANCH   3   4
ENDBRANCH   2   3
ENDBRANCH   1   2
BRANCH   1   7
HETATM    7  C   UNL     1     -19.971  -3.972  -8.489  1.00  0.00     0.000 C 
BRANCH   7   8
HETATM    8  C   UNL     1     -21.186  -3.691  -7.617  1.00  0.00     0.000 C 
BRANCH   8   9
HETATM    9  C   UNL     1     -21.611  -4.952  -6.880  1.00  0.00     0.000 C 
BRANCH   9  10
HETATM   10  C   UNL     1     -20.399  -5.636  -6.266  1.00  0.00    -0.000 C 
BRANCH  10  11
HETATM   11  C   UNL     1     -20.822  -6.848  -5.444  1.00  0.00    -0.005 C 
HETATM   12  C   UNL     1     -22.245  -6.682  -4.946  1.00  0.00     0.005 C 
ENDBRANCH  10  11
ENDBRANCH   9  10
ENDBRANCH   8   9
ENDBRANCH   7   8
ENDBRANCH   1   7
TORSDOF 9
ENDMDL
MODEL 5
REMARK VINA RESULT:      -5.2     12.060     14.127
REMARK  9 active torsions:
REMARK  status: ('A' for Active; 'I' for Inactive)
REMARK    1  A    between atoms: C_2  and  C_3 
REMARK    2  A    between atoms: C_3  and  C_4 
REMARK    3  A    between atoms: C_4  and  C_5 
REMARK    4  A    between atoms: C_5  and  C_6 
REMARK    5  A    between atoms: C_6  and  C_7 
REMARK    6  A    between atoms: C_7  and  C_8 
REMARK    7  A    between atoms: C_8  and  C_9 
REMARK    8  A    between atoms: C_9  and  C_10 
REMARK    9  A    between atoms: C_10  and  C_11 
ROOT
HETATM    1  C   UNL     1     -20.519  -4.884  -9.364  1.00  0.00     0.000 C 
ENDROOT
BRANCH   1   2
HETATM    2  C   UNL     1     -20.095  -3.793  -8.394  1.00  0.00     0.000 C 
BRANCH   2   3
HETATM    3  C   UNL     1     -21.026  -3.763  -7.192  1.00  0.00     0.000 C 
BRANCH   3   4
HETATM    4  C   UNL     1     -21.682  -5.123  -6.998  1.00  0.00    -0.000 C 
BRANCH   4   5
HETATM    5  C   UNL     1     -21.343  -5.690  -5.628  1.00  0.00    -0.005 C 
HETATM    6  C   UNL     1     -21.325  -7.211  -5.673  1.00  0.00     0.005 C 
ENDBRANCH   4   5
ENDBRANCH   3   4
ENDBRANCH   2   3
ENDBRANCH   1   2
BRANCH   1   7
HETATM    7  C   UNL     1     -20.169  -4.484 -10.785  1.00  0.00     0.000 C 
BRANCH   7   8
HETATM    8  C   UNL     1     -20.918  -3.218 -11.174  1.00  0.00     0.000 C 
BRANCH   8   9
HETATM    9  C   UNL     1     -22.014  -3.539 -12.177  1.00  0.00     0.000 C 
BRANCH   9  10
HETATM   10  C   UNL     1     -23.363  -3.073 -11.650  1.00  0.00    -0.000 C 
BRANCH  10  11
HETATM   11  C   UNL     1     -23.969  -4.119 -10.721  1.00  0.00    -0.005 C 
HETATM   12  C   UNL     1     -24.228  -3.526  -9.350  1.00  0.00     0.005 C 
ENDBRANCH  10  11
ENDBRANCH   9  10
ENDBRANCH   8   9
ENDBRANCH   7   8
ENDBRANCH   1   7
TORSDOF 9
ENDMDL
MODEL 6
REMARK VINA RESULT:      -5.2     12.657     14.848
REMARK  9 active torsions:
REMARK  status: ('A' for Active; 'I' for Inactive)
REMARK    1  A    between atoms: C_2  and  C_3 
REMARK    2  A    between atoms: C_3  and  C_4 
REMARK    3  A    between atoms: C_4  and  C_5 
REMARK    4  A    between atoms: C_5  and  C_6 
REMARK    5  A    between atoms: C_6  and  C_7 
REMARK    6  A    between atoms: C_7  and  C_8 
REMARK    7  A    between atoms: C_8  and  C_9 
REMARK    8  A    between atoms: C_9  and  C_10 
REMARK    9  A    between atoms: C_10  and  C_11 
ROOT
HETATM    1  C   UNL     1     -21.190  -3.663  -7.489  1.00  0.00     0.000 C 
ENDROOT
BRANCH   1   2
HETATM    2  C   UNL     1     -19.981  -4.453  -7.017  1.00  0.00     0.000 C 
BRANCH   2   3
HETATM    3  C   UNL     1     -20.239  -5.042  -5.638  1.00  0.00     0.000 C 
BRANCH   3   4
HETATM    4  C   UNL     1     -20.858  -6.427  -5.762  1.00  0.00    -0.000 C 
BRANCH   4   5
HETATM    5  C   UNL     1     -21.980  -6.604  -4.753  1.00  0.00    -0.005 C 
HETATM    6  C   UNL     1     -21.494  -6.257  -3.353  1.00  0.00     0.005 C 
ENDBRANCH   4   5
ENDBRANCH   3   4
ENDBRANCH   2   3
ENDBRANCH   1   2
BRANCH   1   7
HETATM    7  C   UNL     1     -21.682  -4.205  -8.818  1.00  0.00     0.000 C 
BRANCH   7   8
HETATM    8  C   UNL     1     -20.501  -4.593  -9.695  1.00  0.00     0.000 C 
BRANCH   8   9
HETATM    9  C   UNL     1     -20.554  -3.842 -11.016  1.00  0.00     0.000 C 
BRANCH   9  10
HETATM   10  C   UNL     1     -21.881  -4.097 -11.714  1.00  0.00    -0.000 C 
BRANCH  10  11
HETATM   11  C   UNL     1     -22.577  -2.782 -12.047  1.00  0.00    -0.005 C 
HETATM   12  C   UNL     1     -24.056  -3.010 -12.293  1.00  0.00     0.005 C 
ENDBRANCH  10  11
ENDBRANCH   9  10
ENDBRANCH   8   9
ENDBRANCH   7   8
ENDBRANCH   1   7
TORSDOF 9
ENDMDL
MODEL 7
REMARK VINA RESULT:      -5.1     14.148     15.489
REMARK  9 active torsions:
REMARK  status: ('A' for Active; 'I' for Inactive)
REMARK    1  A    between atoms: C_2  and  C_3 
REMARK    2  A    between atoms: C_3  and  C_4 
REMARK    3  A    between atoms: C_4  and  C_5 
REMARK    4  A    between atoms: C_5  and  C_6 
REMARK    5  A    between atoms: C_6  and  C_7 
REMARK    6  A    between atoms: C_7  and  C_8 
REMARK    7  A    between atoms: C_8  and  C_9 
REMARK    8  A    between atoms: C_9  and  C_10 
REMARK    9  A    between atoms: C_10  and  C_11 
ROOT
HETATM    1  C   UNL     1     -20.530  -6.255  -5.926  1.00  0.00     0.000 C 
ENDROOT
BRANCH   1   2
HETATM    2  C   UNL     1     -19.863  -4.894  -6.038  1.00  0.00     0.000 C 
BRANCH   2   3
HETATM    3  C   UNL     1     -19.309  -4.689  -7.440  1.00  0.00     0.000 C 
BRANCH   3   4
HETATM    4  C   UNL     1     -20.221  -3.769  -8.238  1.00  0.00    -0.000 C 
BRANCH   4   5
HETATM    5  C   UNL     1     -21.005  -4.559  -9.273  1.00  0.00    -0.005 C 
HETATM    6  C   UNL     1     -20.396  -4.373 -10.656  1.00  0.00     0.005 C 
ENDBRANCH   4   5
ENDBRANCH   3   4
ENDBRANCH   2   3
ENDBRANCH   1   2
BRANCH   1   7
HETATM    7  C   UNL     1     -21.853  -6.130  -5.194  1.00  0.00     0.000 C 
BRANCH   7   8
HETATM    8  C   UNL     1     -21.856  -7.022  -3.961  1.00  0.00     0.000 C 
BRANCH   8   9
HETATM    9  C   UNL     1     -21.371  -6.246  -2.747  1.00  0.00     0.000 C 
BRANCH   9  10
HETATM   10  C   UNL     1     -22.323  -6.448  -1.578  1.00  0.00    -0.000 C 
BRANCH  10  11
HETATM   11  C   UNL     1     -21.841  -7.584  -0.681  1.00  0.00    -0.005 C 
HETATM   12  C   UNL     1     -22.930  -7.994   0.290  1.00  0.00     0.005 C 
ENDBRANCH  10  11
ENDBRANCH   9  10
ENDBRANCH   8   9
ENDBRANCH   7   8
ENDBRANCH   1   7
TORSDOF 9
ENDMDL
MODEL 8
REMARK VINA RESULT:      -5.1     13.558     15.760
REMARK  9 active torsions:
REMARK  status: ('A' for Active; 'I' for Inactive)
REMARK    1  A    between atoms: C_2  and  C_3 
REMARK    2  A    between atoms: C_3  and  C_4 
REMARK    3  A    between atoms: C_4  and  C_5 
REMARK    4  A    between atoms: C_5  and  C_6 
REMARK    5  A    between atoms: C_6  and  C_7 
REMARK    6  A    between atoms: C_7  and  C_8 
REMARK    7  A    between atoms: C_8  and  C_9 
REMARK    8  A    between atoms: C_9  and  C_10 
REMARK    9  A    between atoms: C_10  and  C_11 
ROOT
HETATM    1  C   UNL     1     -20.638  -6.220  -6.412  1.00  0.00     0.000 C 
ENDROOT
BRANCH   1   2
HETATM    2  C   UNL     1     -21.677  -6.474  -5.333  1.00  0.00     0.000 C 
BRANCH   2   3
HETATM    3  C   UNL     1     -21.173  -5.980  -3.986  1.00  0.00     0.000 C 
BRANCH   3   4
HETATM    4  C   UNL     1     -21.504  -6.988  -2.895  1.00  0.00    -0.000 C 
BRANCH   4   5
HETATM    5  C   UNL     1     -22.272  -6.321  -1.765  1.00  0.00    -0.005 C 
HETATM    6  C   UNL     1     -22.323  -7.233  -0.548  1.00  0.00     0.005 C 
ENDBRANCH   4   5
ENDBRANCH   3   4
ENDBRANCH   2   3
ENDBRANCH   1   2
BRANCH   1   7
HETATM    7  C   UNL     1     -20.008  -4.853  -6.220  1.00  0.00     0.000 C 
BRANCH   7   8
HETATM    8  C   UNL     1     -20.012  -4.084  -7.533  1.00  0.00     0.000 C 
BRANCH   8   9
HETATM    9  C   UNL     1     -20.779  -4.857  -8.595  1.00  0.00     0.000 C 
BRANCH   9  10
HETATM   10  C   UNL     1     -21.906  -4.004  -9.156  1.00  0.00    -0.000 C 
BRANCH  10  11
HETATM   11  C   UNL     1     -21.921  -4.064 -10.679  1.00  0.00    -0.005 C 
HETATM   12  C   UNL     1     -20.529  -3.838 -11.235  1.00  0.00     0.005 C 
ENDBRANCH  10  11
ENDBRANCH   9  10
ENDBRANCH   8   9
ENDBRANCH   7   8
ENDBRANCH   1   7
TORSDOF 9
ENDMDL
MODEL 9
REMARK VINA RESULT:      -5.1     26.684     28.268
REMARK  9 active torsions:
REMARK  status: ('A' for Active; 'I' for Inactive)
REMARK    1  A    between atoms: C_2  and  C_3 
REMARK    2  A    between atoms: C_3  and  C_4 
REMARK    3  A    between atoms: C_4  and  C_5 
REMARK    4  A    between atoms: C_5  and  C_6 
REMARK    5  A    between atoms: C_6  and  C_7 
REMARK    6  A    between atoms: C_7  and  C_8 
REMARK    7  A    between atoms: C_8  and  C_9 
REMARK    8  A    between atoms: C_9  and  C_10 
REMARK    9  A    between atoms: C_10  and  C_11 
ROOT
HETATM    1  C   UNL     1     -13.697   9.147   3.418  1.00  0.00     0.000 C 
ENDROOT
BRANCH   1   2
HETATM    2  C   UNL     1     -13.400   9.105   4.908  1.00  0.00     0.000 C 
BRANCH   2   3
HETATM    3  C   UNL     1     -14.498   8.352   5.645  1.00  0.00     0.000 C 
BRANCH   3   4
HETATM    4  C   UNL     1     -14.898   9.104   6.906  1.00  0.00    -0.000 C 
BRANCH   4   5
HETATM    5  C   UNL     1     -14.292  10.499   6.913  1.00  0.00    -0.005 C 
HETATM    6  C   UNL     1     -15.361  11.543   6.624  1.00  0.00     0.005 C 
ENDBRANCH   4   5
ENDBRANCH   3   4
ENDBRANCH   2   3
ENDBRANCH   1   2
BRANCH   1   7
HETATM    7  C   UNL     1     -14.522   7.938   3.015  1.00  0.00     0.000 C 
BRANCH   7   8
HETATM    8  C   UNL     1     -15.289   8.231   1.734  1.00  0.00     0.000 C 
BRANCH   8   9
HETATM    9  C   UNL     1     -16.055   9.539   1.864  1.00  0.00     0.000 C 
BRANCH   9  10
HETATM   10  C   UNL     1     -17.405   9.295   2.519  1.00  0.00    -0.000 C 
BRANCH  10  11
HETATM   11  C   UNL     1     -17.466   9.958   3.891  1.00  0.00    -0.005 C 
HETATM   12  C   UNL     1     -18.068   9.014   4.912  1.00  0.00     0.005 C 
ENDBRANCH  10  11
ENDBRANCH   9  10
ENDBRANCH   8   9
ENDBRANCH   7   8
ENDBRANCH   1   7
TORSDOF 9
ENDMDL
