MODEL 1
REMARK VINA RESULT:      -4.8      0.000      0.000
REMARK  24 active torsions:
REMARK  status: ('A' for Active; 'I' for Inactive)
REMARK    1  A    between atoms: C_1  and  C_2 
REMARK    2  A    between atoms: C_1  and  O_66 
REMARK    3  A    between atoms: C_4  and  O_65 
REMARK    4  A    between atoms: C_5  and  O_64 
REMARK    5  A    between atoms: C_10  and  C_62 
REMARK    6  A    between atoms: C_13  and  O_16 
REMARK    7  A    between atoms: C_14  and  O_15 
REMARK    8  A    between atoms: C_19  and  C_60 
REMARK    9  A    between atoms: C_22  and  O_25 
REMARK   10  A    between atoms: C_23  and  O_24 
REMARK   11  A    between atoms: C_28  and  C_58 
REMARK   12  A    between atoms: C_31  and  O_34 
REMARK   13  A    between atoms: C_32  and  O_33 
REMARK   14  A    between atoms: C_37  and  C_56 
REMARK   15  A    between atoms: C_40  and  O_43 
REMARK   16  A    between atoms: C_41  and  O_42 
REMARK   17  A    between atoms: C_46  and  C_54 
REMARK   18  A    between atoms: C_50  and  O_53 
REMARK   19  A    between atoms: C_51  and  O_52 
REMARK   20  A    between atoms: C_54  and  O_55 
REMARK   21  A    between atoms: C_56  and  O_57 
REMARK   22  A    between atoms: C_58  and  O_59 
REMARK   23  A    between atoms: C_60  and  O_61 
REMARK   24  A    between atoms: C_62  and  O_63 
ROOT
HETATM    1  C   UNL     1     -20.317  -9.092  -3.258  1.00  0.00     0.180 C 
HETATM    2  C   UNL     1     -19.690 -10.517  -3.727  1.00  0.00     0.187 C 
HETATM    3  C   UNL     1     -20.937 -11.286  -3.757  1.00  0.00     0.183 C 
HETATM    4  C   UNL     1     -21.441 -11.232  -2.359  1.00  0.00     0.204 C 
HETATM    5  C   UNL     1     -21.813 -10.094  -1.527  1.00  0.00     0.292 C 
HETATM    6  O   UNL     1     -20.752  -9.103  -1.832  1.00  0.00    -0.348 OA
HETATM    7  O   UNL     1     -21.713 -10.681  -0.128  1.00  0.00    -0.348 OA
HETATM    8  C   UNL     1     -21.845 -12.239   0.188  1.00  0.00     0.187 C 
HETATM    9  C   UNL     1     -21.183 -13.524  -0.544  1.00  0.00     0.180 C 
HETATM   10  O   UNL     1     -21.588 -13.746  -1.885  1.00  0.00    -0.348 OA
HETATM   11  C   UNL     1     -22.941 -13.979  -2.099  1.00  0.00     0.292 C 
HETATM   12  C   UNL     1     -23.889 -13.115  -1.119  1.00  0.00     0.204 C 
HETATM   13  C   UNL     1     -23.319 -12.563   0.234  1.00  0.00     0.183 C 
HETATM   14  O   UNL     1     -23.060 -15.385  -2.215  1.00  0.00    -0.348 OA
HETATM   15  C   UNL     1     -22.452 -16.019  -3.423  1.00  0.00     0.187 C 
HETATM   16  C   UNL     1     -20.931 -15.934  -3.796  1.00  0.00     0.180 C 
HETATM   17  O   UNL     1     -20.523 -14.815  -4.574  1.00  0.00    -0.348 OA
HETATM   18  C   UNL     1     -21.207 -14.473  -5.775  1.00  0.00     0.292 C 
HETATM   19  C   UNL     1     -22.755 -14.660  -5.622  1.00  0.00     0.204 C 
HETATM   20  C   UNL     1     -23.279 -15.787  -4.695  1.00  0.00     0.183 C 
HETATM   21  O   UNL     1     -20.526 -14.971  -6.926  1.00  0.00    -0.348 OA
HETATM   22  C   UNL     1     -19.179 -14.424  -7.259  1.00  0.00     0.187 C 
HETATM   23  C   UNL     1     -18.056 -14.504  -6.182  1.00  0.00     0.180 C 
HETATM   24  O   UNL     1     -17.866 -13.323  -5.386  1.00  0.00    -0.348 OA
HETATM   25  C   UNL     1     -17.588 -12.081  -6.030  1.00  0.00     0.292 C 
HETATM   26  C   UNL     1     -18.673 -11.834  -7.126  1.00  0.00     0.204 C 
HETATM   27  C   UNL     1     -19.048 -13.061  -8.003  1.00  0.00     0.183 C 
HETATM   28  O   UNL     1     -16.235 -11.829  -6.477  1.00  0.00    -0.348 OA
HETATM   29  C   UNL     1     -15.153 -11.473  -5.518  1.00  0.00     0.187 C 
HETATM   30  C   UNL     1     -14.973 -12.519  -4.431  1.00  0.00     0.180 C 
HETATM   31  O   UNL     1     -16.036 -12.275  -3.534  1.00  0.00    -0.348 OA
HETATM   32  C   UNL     1     -15.877 -11.192  -2.652  1.00  0.00     0.292 C 
HETATM   33  C   UNL     1     -15.844  -9.903  -3.463  1.00  0.00     0.204 C 
HETATM   34  C   UNL     1     -15.118 -10.046  -4.828  1.00  0.00     0.183 C 
HETATM   35  O   UNL     1     -15.016 -11.601  -1.611  1.00  0.00    -0.348 OA
HETATM   36  C   UNL     1     -15.556 -12.740  -0.854  1.00  0.00     0.187 C 
HETATM   37  C   UNL     1     -16.155 -13.951  -1.644  1.00  0.00     0.180 C 
HETATM   38  O   UNL     1     -17.447 -13.734  -2.297  1.00  0.00    -0.348 OA
HETATM   39  C   UNL     1     -18.314 -12.577  -1.989  1.00  0.00     0.292 C 
HETATM   40  O   UNL     1     -18.456 -11.290  -3.063  1.00  0.00    -0.348 OA
HETATM   41  C   UNL     1     -18.000 -12.058  -0.451  1.00  0.00     0.204 C 
HETATM   42  C   UNL     1     -16.631 -12.377   0.149  1.00  0.00     0.183 C 
ENDROOT
BRANCH   1  43
HETATM   43  C   UNL     1     -21.597  -8.623  -4.137  1.00  0.00     0.198 C 
BRANCH  43  44
HETATM   44  O   UNL     1     -21.268  -8.160  -5.440  1.00  0.00    -0.398 OA
HETATM   45  H   UNL     1     -21.041  -8.953  -5.980  1.00  0.00     0.209 HD
ENDBRANCH  43  44
ENDBRANCH   1  43
BRANCH   3  46
HETATM   46  O   UNL     1     -20.669 -12.582  -4.167  1.00  0.00    -0.390 OA
HETATM   47  H   UNL     1     -19.720 -12.709  -4.387  1.00  0.00     0.210 HD
ENDBRANCH   3  46
BRANCH   4  48
HETATM   48  O   UNL     1     -20.263 -11.501  -1.601  1.00  0.00    -0.388 OA
HETATM   49  H   UNL     1     -19.483 -11.234  -2.151  1.00  0.00     0.210 HD
ENDBRANCH   4  48
BRANCH  41  50
HETATM   50  O   UNL     1     -18.851 -12.486   0.644  1.00  0.00    -0.388 OA
HETATM   51  H   UNL     1     -19.090 -13.428   0.528  1.00  0.00     0.210 HD
ENDBRANCH  41  50
BRANCH  37  52
HETATM   52  C   UNL     1     -16.198 -15.238  -0.760  1.00  0.00     0.198 C 
BRANCH  52  53
HETATM   53  O   UNL     1     -17.367 -16.016  -1.022  1.00  0.00    -0.398 OA
HETATM   54  H   UNL     1     -17.870 -15.533  -1.700  1.00  0.00     0.209 HD
ENDBRANCH  52  53
ENDBRANCH  37  52
BRANCH  42  55
HETATM   55  O   UNL     1     -16.264 -11.325   1.050  1.00  0.00    -0.390 OA
HETATM   56  H   UNL     1     -15.966 -10.589   0.474  1.00  0.00     0.210 HD
ENDBRANCH  42  55
BRANCH   9  57
HETATM   57  C   UNL     1     -21.020 -14.913   0.094  1.00  0.00     0.198 C 
BRANCH  57  58
HETATM   58  O   UNL     1     -19.642 -15.161   0.427  1.00  0.00    -0.398 OA
HETATM   59  H   UNL     1     -19.467 -14.669   1.259  1.00  0.00     0.209 HD
ENDBRANCH  57  58
ENDBRANCH   9  57
BRANCH  13  60
HETATM   60  O   UNL     1     -24.014 -11.373   0.664  1.00  0.00    -0.390 OA
HETATM   61  H   UNL     1     -23.470 -10.965   1.369  1.00  0.00     0.210 HD
ENDBRANCH  13  60
BRANCH  12  62
HETATM   62  O   UNL     1     -25.157 -13.743  -0.938  1.00  0.00    -0.388 OA
HETATM   63  H   UNL     1     -25.265 -14.406  -1.641  1.00  0.00     0.210 HD
ENDBRANCH  12  62
BRANCH  33  64
HETATM   64  O   UNL     1     -15.443  -8.788  -2.655  1.00  0.00    -0.388 OA
HETATM   65  H   UNL     1     -15.101  -9.150  -1.813  1.00  0.00     0.210 HD
ENDBRANCH  33  64
BRANCH  30  66
HETATM   66  C   UNL     1     -13.588 -12.586  -3.756  1.00  0.00     0.198 C 
BRANCH  66  67
HETATM   67  O   UNL     1     -13.297 -13.895  -3.306  1.00  0.00    -0.398 OA
HETATM   68  H   UNL     1     -14.062 -14.194  -2.785  1.00  0.00     0.209 HD
ENDBRANCH  66  67
ENDBRANCH  30  66
BRANCH  34  69
HETATM   69  O   UNL     1     -15.548  -9.037  -5.743  1.00  0.00    -0.390 OA
HETATM   70  H   UNL     1     -16.091  -9.460  -6.429  1.00  0.00     0.210 HD
ENDBRANCH  34  69
BRANCH  16  71
HETATM   71  C   UNL     1     -20.456 -17.183  -4.564  1.00  0.00     0.198 C 
BRANCH  71  72
HETATM   72  O   UNL     1     -19.076 -17.095  -4.888  1.00  0.00    -0.398 OA
HETATM   73  H   UNL     1     -19.010 -16.657  -5.755  1.00  0.00     0.209 HD
ENDBRANCH  71  72
ENDBRANCH  16  71
BRANCH  20  74
HETATM   74  O   UNL     1     -24.652 -15.552  -4.323  1.00  0.00    -0.390 OA
HETATM   75  H   UNL     1     -25.214 -16.138  -4.869  1.00  0.00     0.210 HD
ENDBRANCH  20  74
BRANCH  19  76
HETATM   76  O   UNL     1     -23.438 -14.761  -6.919  1.00  0.00    -0.388 OA
HETATM   77  H   UNL     1     -23.533 -15.712  -7.128  1.00  0.00     0.210 HD
ENDBRANCH  19  76
BRANCH  26  78
HETATM   78  O   UNL     1     -18.314 -10.696  -7.927  1.00  0.00    -0.388 OA
HETATM   79  H   UNL     1     -18.914  -9.967  -7.671  1.00  0.00     0.210 HD
ENDBRANCH  26  78
BRANCH  23  80
HETATM   80  C   UNL     1     -16.713 -14.944  -6.790  1.00  0.00     0.198 C 
BRANCH  80  81
HETATM   81  O   UNL     1     -16.552 -16.355  -6.749  1.00  0.00    -0.398 OA
HETATM   82  H   UNL     1     -17.430 -16.757  -6.873  1.00  0.00     0.209 HD
ENDBRANCH  80  81
ENDBRANCH  23  80
BRANCH  27  83
HETATM   83  O   UNL     1     -20.208 -12.821  -8.813  1.00  0.00    -0.390 OA
HETATM   84  H   UNL     1     -20.997 -12.880  -8.250  1.00  0.00     0.210 HD
ENDBRANCH  27  83
TORSDOF 24
ENDMDL
MODEL 2
REMARK VINA RESULT:      -4.6      1.366      1.597
REMARK  24 active torsions:
REMARK  status: ('A' for Active; 'I' for Inactive)
REMARK    1  A    between atoms: C_1  and  C_2 
REMARK    2  A    between atoms: C_1  and  O_66 
REMARK    3  A    between atoms: C_4  and  O_65 
REMARK    4  A    between atoms: C_5  and  O_64 
REMARK    5  A    between atoms: C_10  and  C_62 
REMARK    6  A    between atoms: C_13  and  O_16 
REMARK    7  A    between atoms: C_14  and  O_15 
REMARK    8  A    between atoms: C_19  and  C_60 
REMARK    9  A    between atoms: C_22  and  O_25 
REMARK   10  A    between atoms: C_23  and  O_24 
REMARK   11  A    between atoms: C_28  and  C_58 
REMARK   12  A    between atoms: C_31  and  O_34 
REMARK   13  A    between atoms: C_32  and  O_33 
REMARK   14  A    between atoms: C_37  and  C_56 
REMARK   15  A    between atoms: C_40  and  O_43 
REMARK   16  A    between atoms: C_41  and  O_42 
REMARK   17  A    between atoms: C_46  and  C_54 
REMARK   18  A    between atoms: C_50  and  O_53 
REMARK   19  A    between atoms: C_51  and  O_52 
REMARK   20  A    between atoms: C_54  and  O_55 
REMARK   21  A    between atoms: C_56  and  O_57 
REMARK   22  A    between atoms: C_58  and  O_59 
REMARK   23  A    between atoms: C_60  and  O_61 
REMARK   24  A    between atoms: C_62  and  O_63 
ROOT
HETATM    1  C   UNL     1     -20.214 -10.115  -1.144  1.00  0.00     0.180 C 
HETATM    2  C   UNL     1     -19.722 -11.282  -2.164  1.00  0.00     0.187 C 
HETATM    3  C   UNL     1     -21.005 -11.972  -2.315  1.00  0.00     0.183 C 
HETATM    4  C   UNL     1     -21.350 -12.421  -0.941  1.00  0.00     0.204 C 
HETATM    5  C   UNL     1     -21.567 -11.657   0.282  1.00  0.00     0.292 C 
HETATM    6  O   UNL     1     -20.491 -10.636   0.225  1.00  0.00    -0.348 OA
HETATM    7  O   UNL     1     -21.348 -12.711   1.355  1.00  0.00    -0.348 OA
HETATM    8  C   UNL     1     -21.530 -14.277   1.106  1.00  0.00     0.187 C 
HETATM    9  C   UNL     1     -21.024 -15.217  -0.112  1.00  0.00     0.180 C 
HETATM   10  O   UNL     1     -21.584 -14.935  -1.384  1.00  0.00    -0.348 OA
HETATM   11  C   UNL     1     -22.963 -15.058  -1.502  1.00  0.00     0.292 C 
HETATM   12  C   UNL     1     -23.749 -14.595  -0.170  1.00  0.00     0.204 C 
HETATM   13  C   UNL     1     -23.007 -14.577   1.211  1.00  0.00     0.183 C 
HETATM   14  O   UNL     1     -23.172 -16.325  -2.098  1.00  0.00    -0.348 OA
HETATM   15  C   UNL     1     -22.734 -16.486  -3.516  1.00  0.00     0.187 C 
HETATM   16  C   UNL     1     -21.260 -16.291  -4.016  1.00  0.00     0.180 C 
HETATM   17  O   UNL     1     -20.878 -14.971  -4.385  1.00  0.00    -0.348 OA
HETATM   18  C   UNL     1     -21.668 -14.209  -5.292  1.00  0.00     0.292 C 
HETATM   19  C   UNL     1     -23.199 -14.420  -5.029  1.00  0.00     0.204 C 
HETATM   20  C   UNL     1     -23.681 -15.799  -4.511  1.00  0.00     0.183 C 
HETATM   21  O   UNL     1     -21.145 -14.265  -6.619  1.00  0.00    -0.348 OA
HETATM   22  C   UNL     1     -19.814 -13.652  -6.894  1.00  0.00     0.187 C 
HETATM   23  C   UNL     1     -18.587 -14.130  -6.062  1.00  0.00     0.180 C 
HETATM   24  O   UNL     1     -18.247 -13.319  -4.925  1.00  0.00    -0.348 OA
HETATM   25  C   UNL     1     -17.972 -11.933  -5.111  1.00  0.00     0.292 C 
HETATM   26  C   UNL     1     -19.154 -11.292  -5.906  1.00  0.00     0.204 C 
HETATM   27  C   UNL     1     -19.690 -12.113  -7.111  1.00  0.00     0.183 C 
HETATM   28  O   UNL     1     -16.663 -11.552  -5.599  1.00  0.00    -0.348 OA
HETATM   29  C   UNL     1     -15.466 -11.581  -4.714  1.00  0.00     0.187 C 
HETATM   30  C   UNL     1     -15.226 -12.952  -4.104  1.00  0.00     0.180 C 
HETATM   31  O   UNL     1     -16.171 -13.035  -3.058  1.00  0.00    -0.348 OA
HETATM   32  C   UNL     1     -15.857 -12.348  -1.872  1.00  0.00     0.292 C 
HETATM   33  C   UNL     1     -15.841 -10.853  -2.166  1.00  0.00     0.204 C 
HETATM   34  C   UNL     1     -15.277 -10.501  -3.569  1.00  0.00     0.183 C 
HETATM   35  O   UNL     1     -14.912 -13.116  -1.160  1.00  0.00    -0.348 OA
HETATM   36  C   UNL     1     -15.429 -14.445  -0.801  1.00  0.00     0.187 C 
HETATM   37  C   UNL     1     -16.177 -15.281  -1.893  1.00  0.00     0.180 C 
HETATM   38  O   UNL     1     -17.518 -14.826  -2.263  1.00  0.00    -0.348 OA
HETATM   39  C   UNL     1     -18.281 -13.848  -1.459  1.00  0.00     0.292 C 
HETATM   40  O   UNL     1     -18.467 -12.258  -1.976  1.00  0.00    -0.348 OA
HETATM   41  C   UNL     1     -17.774 -13.924   0.113  1.00  0.00     0.204 C 
HETATM   42  C   UNL     1     -16.367 -14.456   0.388  1.00  0.00     0.183 C 
ENDROOT
BRANCH   1  43
HETATM   43  C   UNL     1     -21.553  -9.344  -1.634  1.00  0.00     0.198 C 
BRANCH  43  44
HETATM   44  O   UNL     1     -21.315  -8.311  -2.581  1.00  0.00    -0.398 OA
HETATM   45  H   UNL     1     -20.390  -7.998  -2.441  1.00  0.00     0.209 HD
ENDBRANCH  43  44
ENDBRANCH   1  43
BRANCH   3  46
HETATM   46  O   UNL     1     -20.855 -13.036  -3.191  1.00  0.00    -0.390 OA
HETATM   47  H   UNL     1     -20.636 -12.734  -4.100  1.00  0.00     0.210 HD
ENDBRANCH   3  46
BRANCH   4  48
HETATM   48  O   UNL     1     -20.113 -12.961  -0.478  1.00  0.00    -0.388 OA
HETATM   49  H   UNL     1     -20.197 -13.949  -0.477  1.00  0.00     0.210 HD
ENDBRANCH   4  48
BRANCH  41  50
HETATM   50  O   UNL     1     -18.523 -14.710   1.076  1.00  0.00    -0.388 OA
HETATM   51  H   UNL     1     -19.168 -14.139   1.539  1.00  0.00     0.210 HD
ENDBRANCH  41  50
BRANCH  37  52
HETATM   52  C   UNL     1     -16.194 -16.800  -1.530  1.00  0.00     0.198 C 
BRANCH  52  53
HETATM   53  O   UNL     1     -17.435 -17.183  -0.934  1.00  0.00    -0.398 OA
HETATM   54  H   UNL     1     -18.083 -17.227  -1.658  1.00  0.00     0.209 HD
ENDBRANCH  52  53
ENDBRANCH  37  52
BRANCH  42  55
HETATM   55  O   UNL     1     -15.846 -13.806   1.554  1.00  0.00    -0.390 OA
HETATM   56  H   UNL     1     -15.056 -14.329   1.806  1.00  0.00     0.210 HD
ENDBRANCH  42  55
BRANCH   9  57
HETATM   57  C   UNL     1     -20.870 -16.746  -0.038  1.00  0.00     0.198 C 
BRANCH  57  58
HETATM   58  O   UNL     1     -19.790 -17.106   0.844  1.00  0.00    -0.398 OA
HETATM   59  H   UNL     1     -19.815 -18.084   0.923  1.00  0.00     0.209 HD
ENDBRANCH  57  58
ENDBRANCH   9  57
BRANCH  13  60
HETATM   60  O   UNL     1     -23.583 -13.615   2.120  1.00  0.00    -0.390 OA
HETATM   61  H   UNL     1     -23.823 -12.829   1.587  1.00  0.00     0.210 HD
ENDBRANCH  13  60
BRANCH  12  62
HETATM   62  O   UNL     1     -25.023 -15.230  -0.073  1.00  0.00    -0.388 OA
HETATM   63  H   UNL     1     -25.703 -14.568  -0.286  1.00  0.00     0.210 HD
ENDBRANCH  12  62
BRANCH  33  64
HETATM   64  O   UNL     1     -15.294 -10.111  -1.068  1.00  0.00    -0.388 OA
HETATM   65  H   UNL     1     -15.239  -9.175  -1.351  1.00  0.00     0.210 HD
ENDBRANCH  33  64
BRANCH  30  66
HETATM   66  C   UNL     1     -13.783 -13.275  -3.672  1.00  0.00     0.198 C 
BRANCH  66  67
HETATM   67  O   UNL     1     -13.417 -14.592  -4.039  1.00  0.00    -0.398 OA
HETATM   68  H   UNL     1     -14.242 -15.080  -4.206  1.00  0.00     0.209 HD
ENDBRANCH  66  67
ENDBRANCH  30  66
BRANCH  34  69
HETATM   69  O   UNL     1     -15.747  -9.224  -4.003  1.00  0.00    -0.390 OA
HETATM   70  H   UNL     1     -16.686  -9.148  -3.762  1.00  0.00     0.210 HD
ENDBRANCH  34  69
BRANCH  16  71
HETATM   71  C   UNL     1     -20.941 -17.183  -5.231  1.00  0.00     0.198 C 
BRANCH  71  72
HETATM   72  O   UNL     1     -19.605 -16.993  -5.673  1.00  0.00    -0.398 OA
HETATM   73  H   UNL     1     -19.068 -17.706  -5.285  1.00  0.00     0.209 HD
ENDBRANCH  71  72
ENDBRANCH  16  71
BRANCH  20  74
HETATM   74  O   UNL     1     -24.990 -15.697  -3.916  1.00  0.00    -0.390 OA
HETATM   75  H   UNL     1     -25.436 -14.919  -4.307  1.00  0.00     0.210 HD
ENDBRANCH  20  74
BRANCH  19  76
HETATM   76  O   UNL     1     -24.023 -14.037  -6.183  1.00  0.00    -0.388 OA
HETATM   77  H   UNL     1     -23.925 -13.071  -6.308  1.00  0.00     0.210 HD
ENDBRANCH  19  76
BRANCH  26  78
HETATM   78  O   UNL     1     -18.821  -9.946  -6.283  1.00  0.00    -0.388 OA
HETATM   79  H   UNL     1     -17.983  -9.722  -5.831  1.00  0.00     0.210 HD
ENDBRANCH  26  78
BRANCH  23  80
HETATM   80  C   UNL     1     -17.344 -14.336  -6.945  1.00  0.00     0.198 C 
BRANCH  80  81
HETATM   81  O   UNL     1     -17.037 -15.715  -7.109  1.00  0.00    -0.398 OA
HETATM   82  H   UNL     1     -17.526 -16.036  -7.886  1.00  0.00     0.209 HD
ENDBRANCH  80  81
ENDBRANCH  23  80
BRANCH  27  83
HETATM   83  O   UNL     1     -20.915 -11.582  -7.635  1.00  0.00    -0.390 OA
HETATM   84  H   UNL     1     -21.585 -11.599  -6.932  1.00  0.00     0.210 HD
ENDBRANCH  27  83
TORSDOF 24
ENDMDL
MODEL 3
REMARK VINA RESULT:      -3.8      1.828      5.870
REMARK  24 active torsions:
REMARK  status: ('A' for Active; 'I' for Inactive)
REMARK    1  A    between atoms: C_1  and  C_2 
REMARK    2  A    between atoms: C_1  and  O_66 
REMARK    3  A    between atoms: C_4  and  O_65 
REMARK    4  A    between atoms: C_5  and  O_64 
REMARK    5  A    between atoms: C_10  and  C_62 
REMARK    6  A    between atoms: C_13  and  O_16 
REMARK    7  A    between atoms: C_14  and  O_15 
REMARK    8  A    between atoms: C_19  and  C_60 
REMARK    9  A    between atoms: C_22  and  O_25 
REMARK   10  A    between atoms: C_23  and  O_24 
REMARK   11  A    between atoms: C_28  and  C_58 
REMARK   12  A    between atoms: C_31  and  O_34 
REMARK   13  A    between atoms: C_32  and  O_33 
REMARK   14  A    between atoms: C_37  and  C_56 
REMARK   15  A    between atoms: C_40  and  O_43 
REMARK   16  A    between atoms: C_41  and  O_42 
REMARK   17  A    between atoms: C_46  and  C_54 
REMARK   18  A    between atoms: C_50  and  O_53 
REMARK   19  A    between atoms: C_51  and  O_52 
REMARK   20  A    between atoms: C_54  and  O_55 
REMARK   21  A    between atoms: C_56  and  O_57 
REMARK   22  A    between atoms: C_58  and  O_59 
REMARK   23  A    between atoms: C_60  and  O_61 
REMARK   24  A    between atoms: C_62  and  O_63 
ROOT
HETATM    1  C   UNL     1     -21.676 -12.336  -6.653  1.00  0.00     0.180 C 
HETATM    2  C   UNL     1     -20.790 -12.999  -5.462  1.00  0.00     0.187 C 
HETATM    3  C   UNL     1     -21.350 -12.234  -4.345  1.00  0.00     0.183 C 
HETATM    4  C   UNL     1     -21.036 -10.818  -4.669  1.00  0.00     0.204 C 
HETATM    5  C   UNL     1     -21.419  -9.998  -5.813  1.00  0.00     0.292 C 
HETATM    6  O   UNL     1     -21.267 -10.934  -6.954  1.00  0.00    -0.348 OA
HETATM    7  O   UNL     1     -20.367  -8.902  -5.781  1.00  0.00    -0.348 OA
HETATM    8  C   UNL     1     -19.573  -8.476  -4.464  1.00  0.00     0.187 C 
HETATM    9  C   UNL     1     -18.861  -9.380  -3.324  1.00  0.00     0.180 C 
HETATM   10  O   UNL     1     -19.727 -10.199  -2.555  1.00  0.00    -0.348 OA
HETATM   11  C   UNL     1     -20.707  -9.551  -1.814  1.00  0.00     0.292 C 
HETATM   12  C   UNL     1     -21.305  -8.253  -2.566  1.00  0.00     0.204 C 
HETATM   13  C   UNL     1     -20.468  -7.542  -3.685  1.00  0.00     0.183 C 
HETATM   14  O   UNL     1     -20.194  -9.488  -0.497  1.00  0.00    -0.348 OA
HETATM   15  C   UNL     1     -20.065 -10.779   0.242  1.00  0.00     0.187 C 
HETATM   16  C   UNL     1     -19.189 -11.989  -0.237  1.00  0.00     0.180 C 
HETATM   17  O   UNL     1     -19.810 -12.922  -1.113  1.00  0.00    -0.348 OA
HETATM   18  C   UNL     1     -21.071 -13.498  -0.791  1.00  0.00     0.292 C 
HETATM   19  C   UNL     1     -22.030 -12.441  -0.142  1.00  0.00     0.204 C 
HETATM   20  C   UNL     1     -21.416 -11.319   0.733  1.00  0.00     0.183 C 
HETATM   21  O   UNL     1     -20.925 -14.796  -0.215  1.00  0.00    -0.348 OA
HETATM   22  C   UNL     1     -20.371 -15.897  -1.054  1.00  0.00     0.187 C 
HETATM   23  C   UNL     1     -18.976 -15.698  -1.718  1.00  0.00     0.180 C 
HETATM   24  O   UNL     1     -18.990 -15.245  -3.081  1.00  0.00    -0.348 OA
HETATM   25  C   UNL     1     -19.694 -16.001  -4.064  1.00  0.00     0.292 C 
HETATM   26  C   UNL     1     -21.149 -16.249  -3.554  1.00  0.00     0.204 C 
HETATM   27  C   UNL     1     -21.290 -16.653  -2.061  1.00  0.00     0.183 C 
HETATM   28  O   UNL     1     -19.055 -17.181  -4.609  1.00  0.00    -0.348 OA
HETATM   29  C   UNL     1     -17.953 -17.078  -5.605  1.00  0.00     0.187 C 
HETATM   30  C   UNL     1     -16.784 -16.252  -5.095  1.00  0.00     0.180 C 
HETATM   31  O   UNL     1     -17.218 -14.915  -5.234  1.00  0.00    -0.348 OA
HETATM   32  C   UNL     1     -17.164 -14.368  -6.527  1.00  0.00     0.292 C 
HETATM   33  C   UNL     1     -18.153 -15.116  -7.414  1.00  0.00     0.204 C 
HETATM   34  C   UNL     1     -18.248 -16.632  -7.097  1.00  0.00     0.183 C 
HETATM   35  O   UNL     1     -15.823 -14.023  -6.799  1.00  0.00    -0.348 OA
HETATM   36  C   UNL     1     -15.301 -13.026  -5.854  1.00  0.00     0.187 C 
HETATM   37  C   UNL     1     -15.567 -13.229  -4.324  1.00  0.00     0.180 C 
HETATM   38  O   UNL     1     -16.935 -12.996  -3.860  1.00  0.00    -0.348 OA
HETATM   39  C   UNL     1     -17.951 -12.303  -4.681  1.00  0.00     0.292 C 
HETATM   40  O   UNL     1     -19.198 -13.156  -5.420  1.00  0.00    -0.348 OA
HETATM   41  C   UNL     1     -17.190 -11.288  -5.743  1.00  0.00     0.204 C 
HETATM   42  C   UNL     1     -15.745 -11.605  -6.127  1.00  0.00     0.183 C 
ENDROOT
BRANCH   1  43
HETATM   43  C   UNL     1     -23.267 -12.306  -6.342  1.00  0.00     0.198 C 
BRANCH  43  44
HETATM   44  O   UNL     1     -23.856 -13.593  -6.210  1.00  0.00    -0.398 OA
HETATM   45  H   UNL     1     -24.831 -13.476  -6.303  1.00  0.00     0.209 HD
ENDBRANCH  43  44
ENDBRANCH   1  43
BRANCH   3  46
HETATM   46  O   UNL     1     -20.755 -12.644  -3.162  1.00  0.00    -0.390 OA
HETATM   47  H   UNL     1     -21.284 -12.384  -2.376  1.00  0.00     0.210 HD
ENDBRANCH   3  46
BRANCH   4  48
HETATM   48  O   UNL     1     -19.673 -10.896  -5.083  1.00  0.00    -0.388 OA
HETATM   49  H   UNL     1     -19.621 -11.547  -5.828  1.00  0.00     0.210 HD
ENDBRANCH   4  48
BRANCH  41  50
HETATM   50  O   UNL     1     -17.055  -9.879  -5.425  1.00  0.00    -0.388 OA
HETATM   51  H   UNL     1     -17.928  -9.442  -5.479  1.00  0.00     0.210 HD
ENDBRANCH  41  50
BRANCH  37  52
HETATM   52  C   UNL     1     -14.550 -12.418  -3.460  1.00  0.00     0.198 C 
BRANCH  52  53
HETATM   53  O   UNL     1     -15.176 -11.845  -2.311  1.00  0.00    -0.398 OA
HETATM   54  H   UNL     1     -14.461 -11.471  -1.768  1.00  0.00     0.209 HD
ENDBRANCH  52  53
ENDBRANCH  37  52
BRANCH  42  55
HETATM   55  O   UNL     1     -15.516 -11.165  -7.471  1.00  0.00    -0.390 OA
HETATM   56  H   UNL     1     -15.519 -11.984  -8.011  1.00  0.00     0.210 HD
ENDBRANCH  42  55
BRANCH   9  57
HETATM   57  C   UNL     1     -17.770  -8.881  -2.360  1.00  0.00     0.198 C 
BRANCH  57  58
HETATM   58  O   UNL     1     -16.567  -9.657  -2.511  1.00  0.00    -0.398 OA
HETATM   59  H   UNL     1     -15.995  -9.427  -1.747  1.00  0.00     0.209 HD
ENDBRANCH  57  58
ENDBRANCH   9  57
BRANCH  13  60
HETATM   60  O   UNL     1     -21.313  -6.855  -4.634  1.00  0.00    -0.390 OA
HETATM   61  H   UNL     1     -22.127  -7.390  -4.730  1.00  0.00     0.210 HD
ENDBRANCH  13  60
BRANCH  12  62
HETATM   62  O   UNL     1     -21.840  -7.314  -1.634  1.00  0.00    -0.388 OA
HETATM   63  H   UNL     1     -21.411  -7.469  -0.776  1.00  0.00     0.210 HD
ENDBRANCH  12  62
BRANCH  33  64
HETATM   64  O   UNL     1     -17.977 -14.775  -8.795  1.00  0.00    -0.388 OA
HETATM   65  H   UNL     1     -18.526 -15.394  -9.318  1.00  0.00     0.210 HD
ENDBRANCH  33  64
BRANCH  30  66
HETATM   66  C   UNL     1     -15.408 -16.532  -5.731  1.00  0.00     0.198 C 
BRANCH  66  67
HETATM   67  O   UNL     1     -14.473 -16.972  -4.763  1.00  0.00    -0.398 OA
HETATM   68  H   UNL     1     -13.602 -16.639  -5.038  1.00  0.00     0.209 HD
ENDBRANCH  66  67
ENDBRANCH  30  66
BRANCH  34  69
HETATM   69  O   UNL     1     -19.494 -17.170  -7.544  1.00  0.00    -0.390 OA
HETATM   70  H   UNL     1     -19.881 -16.549  -8.183  1.00  0.00     0.210 HD
ENDBRANCH  34  69
BRANCH  16  71
HETATM   71  C   UNL     1     -18.647 -12.812   0.949  1.00  0.00     0.198 C 
BRANCH  71  72
HETATM   72  O   UNL     1     -17.842 -13.892   0.500  1.00  0.00    -0.398 OA
HETATM   73  H   UNL     1     -17.158 -13.521  -0.084  1.00  0.00     0.209 HD
ENDBRANCH  71  72
ENDBRANCH  16  71
BRANCH  20  74
HETATM   74  O   UNL     1     -22.335 -10.218   0.879  1.00  0.00    -0.390 OA
HETATM   75  H   UNL     1     -22.787 -10.092   0.020  1.00  0.00     0.210 HD
ENDBRANCH  20  74
BRANCH  19  76
HETATM   76  O   UNL     1     -23.132 -13.068   0.601  1.00  0.00    -0.388 OA
HETATM   77  H   UNL     1     -23.780 -12.367   0.815  1.00  0.00     0.210 HD
ENDBRANCH  19  76
BRANCH  26  78
HETATM   78  O   UNL     1     -21.825 -17.172  -4.423  1.00  0.00    -0.388 OA
HETATM   79  H   UNL     1     -21.154 -17.812  -4.737  1.00  0.00     0.210 HD
ENDBRANCH  26  78
BRANCH  23  80
HETATM   80  C   UNL     1     -18.102 -16.959  -1.597  1.00  0.00     0.198 C 
BRANCH  80  81
HETATM   81  O   UNL     1     -16.958 -16.732  -0.785  1.00  0.00    -0.398 OA
HETATM   82  H   UNL     1     -17.000 -17.351  -0.035  1.00  0.00     0.209 HD
ENDBRANCH  80  81
ENDBRANCH  23  80
BRANCH  27  83
HETATM   83  O   UNL     1     -22.652 -16.626  -1.612  1.00  0.00    -0.390 OA
HETATM   84  H   UNL     1     -22.864 -17.488  -1.216  1.00  0.00     0.210 HD
ENDBRANCH  27  83
TORSDOF 24
ENDMDL
MODEL 4
REMARK VINA RESULT:      -3.2      1.796      5.462
REMARK  24 active torsions:
REMARK  status: ('A' for Active; 'I' for Inactive)
REMARK    1  A    between atoms: C_1  and  C_2 
REMARK    2  A    between atoms: C_1  and  O_66 
REMARK    3  A    between atoms: C_4  and  O_65 
REMARK    4  A    between atoms: C_5  and  O_64 
REMARK    5  A    between atoms: C_10  and  C_62 
REMARK    6  A    between atoms: C_13  and  O_16 
REMARK    7  A    between atoms: C_14  and  O_15 
REMARK    8  A    between atoms: C_19  and  C_60 
REMARK    9  A    between atoms: C_22  and  O_25 
REMARK   10  A    between atoms: C_23  and  O_24 
REMARK   11  A    between atoms: C_28  and  C_58 
REMARK   12  A    between atoms: C_31  and  O_34 
REMARK   13  A    between atoms: C_32  and  O_33 
REMARK   14  A    between atoms: C_37  and  C_56 
REMARK   15  A    between atoms: C_40  and  O_43 
REMARK   16  A    between atoms: C_41  and  O_42 
REMARK   17  A    between atoms: C_46  and  C_54 
REMARK   18  A    between atoms: C_50  and  O_53 
REMARK   19  A    between atoms: C_51  and  O_52 
REMARK   20  A    between atoms: C_54  and  O_55 
REMARK   21  A    between atoms: C_56  and  O_57 
REMARK   22  A    between atoms: C_58  and  O_59 
REMARK   23  A    between atoms: C_60  and  O_61 
REMARK   24  A    between atoms: C_62  and  O_63 
ROOT
HETATM    1  C   UNL     1     -15.880 -12.495  -0.570  1.00  0.00     0.180 C 
HETATM    2  C   UNL     1     -17.136 -12.377  -1.597  1.00  0.00     0.187 C 
HETATM    3  C   UNL     1     -18.212 -12.561  -0.622  1.00  0.00     0.183 C 
HETATM    4  C   UNL     1     -17.972 -13.912  -0.052  1.00  0.00     0.204 C 
HETATM    5  C   UNL     1     -16.823 -14.448   0.669  1.00  0.00     0.292 C 
HETATM    6  O   UNL     1     -15.673 -13.889  -0.083  1.00  0.00    -0.348 OA
HETATM    7  O   UNL     1     -17.003 -15.945   0.480  1.00  0.00    -0.348 OA
HETATM    8  C   UNL     1     -18.410 -16.637   0.182  1.00  0.00     0.187 C 
HETATM    9  C   UNL     1     -19.587 -16.227  -0.853  1.00  0.00     0.180 C 
HETATM   10  O   UNL     1     -20.232 -14.990  -0.597  1.00  0.00    -0.348 OA
HETATM   11  C   UNL     1     -20.887 -14.867   0.622  1.00  0.00     0.292 C 
HETATM   12  C   UNL     1     -20.122 -15.624   1.824  1.00  0.00     0.204 C 
HETATM   13  C   UNL     1     -19.122 -16.789   1.505  1.00  0.00     0.183 C 
HETATM   14  O   UNL     1     -22.253 -15.100   0.333  1.00  0.00    -0.348 OA
HETATM   15  C   UNL     1     -22.956 -14.073  -0.491  1.00  0.00     0.187 C 
HETATM   16  C   UNL     1     -22.532 -13.660  -1.943  1.00  0.00     0.180 C 
HETATM   17  O   UNL     1     -21.563 -12.624  -2.057  1.00  0.00    -0.348 OA
HETATM   18  C   UNL     1     -21.731 -11.389  -1.368  1.00  0.00     0.292 C 
HETATM   19  C   UNL     1     -22.311 -11.615   0.070  1.00  0.00     0.204 C 
HETATM   20  C   UNL     1     -23.284 -12.799   0.302  1.00  0.00     0.183 C 
HETATM   21  O   UNL     1     -22.274 -10.382  -2.221  1.00  0.00    -0.348 OA
HETATM   22  C   UNL     1     -21.461  -9.898  -3.373  1.00  0.00     0.187 C 
HETATM   23  C   UNL     1     -20.955 -10.940  -4.415  1.00  0.00     0.180 C 
HETATM   24  O   UNL     1     -19.613 -11.418  -4.223  1.00  0.00    -0.348 OA
HETATM   25  C   UNL     1     -18.537 -10.485  -4.171  1.00  0.00     0.292 C 
HETATM   26  C   UNL     1     -18.882  -9.383  -3.119  1.00  0.00     0.204 C 
HETATM   27  C   UNL     1     -20.337  -8.841  -3.151  1.00  0.00     0.183 C 
HETATM   28  O   UNL     1     -18.022  -9.962  -5.420  1.00  0.00    -0.348 OA
HETATM   29  C   UNL     1     -17.152 -10.784  -6.305  1.00  0.00     0.187 C 
HETATM   30  C   UNL     1     -17.810 -12.090  -6.718  1.00  0.00     0.180 C 
HETATM   31  O   UNL     1     -17.672 -12.920  -5.585  1.00  0.00    -0.348 OA
HETATM   32  C   UNL     1     -16.411 -13.508  -5.386  1.00  0.00     0.292 C 
HETATM   33  C   UNL     1     -15.400 -12.405  -5.095  1.00  0.00     0.204 C 
HETATM   34  C   UNL     1     -15.653 -11.103  -5.901  1.00  0.00     0.183 C 
HETATM   35  O   UNL     1     -16.294 -14.600  -6.272  1.00  0.00    -0.348 OA
HETATM   36  C   UNL     1     -17.323 -15.623  -6.037  1.00  0.00     0.187 C 
HETATM   37  C   UNL     1     -18.808 -15.166  -5.846  1.00  0.00     0.180 C 
HETATM   38  O   UNL     1     -19.133 -14.505  -4.581  1.00  0.00    -0.348 OA
HETATM   39  C   UNL     1     -18.234 -14.538  -3.408  1.00  0.00     0.292 C 
HETATM   40  O   UNL     1     -17.339 -13.184  -2.964  1.00  0.00    -0.348 OA
HETATM   41  C   UNL     1     -17.294 -15.895  -3.483  1.00  0.00     0.204 C 
HETATM   42  C   UNL     1     -17.053 -16.527  -4.854  1.00  0.00     0.183 C 
ENDROOT
BRANCH   1  43
HETATM   43  C   UNL     1     -16.023 -11.554   0.743  1.00  0.00     0.198 C 
BRANCH  43  44
HETATM   44  O   UNL     1     -15.371 -12.067   1.897  1.00  0.00    -0.398 OA
HETATM   45  H   UNL     1     -15.012 -11.294   2.394  1.00  0.00     0.209 HD
ENDBRANCH  43  44
ENDBRANCH   1  43
BRANCH   3  46
HETATM   46  O   UNL     1     -19.437 -12.475  -1.266  1.00  0.00    -0.390 OA
HETATM   47  H   UNL     1     -19.593 -11.581  -1.640  1.00  0.00     0.210 HD
ENDBRANCH   3  46
BRANCH   4  48
HETATM   48  O   UNL     1     -17.702 -14.690  -1.217  1.00  0.00    -0.388 OA
HETATM   49  H   UNL     1     -17.845 -14.108  -2.007  1.00  0.00     0.210 HD
ENDBRANCH   4  48
BRANCH  41  50
HETATM   50  O   UNL     1     -17.672 -17.079  -2.733  1.00  0.00    -0.388 OA
HETATM   51  H   UNL     1     -16.880 -17.475  -2.316  1.00  0.00     0.210 HD
ENDBRANCH  41  50
BRANCH  37  52
HETATM   52  C   UNL     1     -19.802 -16.338  -6.124  1.00  0.00     0.198 C 
BRANCH  52  53
HETATM   53  O   UNL     1     -21.060 -16.122  -5.483  1.00  0.00    -0.398 OA
HETATM   54  H   UNL     1     -21.539 -16.967  -5.532  1.00  0.00     0.209 HD
ENDBRANCH  52  53
ENDBRANCH  37  52
BRANCH  42  55
HETATM   55  O   UNL     1     -15.757 -17.136  -4.862  1.00  0.00    -0.390 OA
HETATM   56  H   UNL     1     -15.556 -17.296  -5.808  1.00  0.00     0.210 HD
ENDBRANCH  42  55
BRANCH   9  57
HETATM   57  C   UNL     1     -20.677 -17.183  -1.368  1.00  0.00     0.198 C 
BRANCH  57  58
HETATM   58  O   UNL     1     -20.713 -17.182  -2.808  1.00  0.00    -0.398 OA
HETATM   59  H   UNL     1     -20.020 -17.813  -3.100  1.00  0.00     0.209 HD
ENDBRANCH  57  58
ENDBRANCH   9  57
BRANCH  13  60
HETATM   60  O   UNL     1     -18.114 -16.929   2.529  1.00  0.00    -0.390 OA
HETATM   61  H   UNL     1     -18.066 -16.072   2.999  1.00  0.00     0.210 HD
ENDBRANCH  13  60
BRANCH  12  62
HETATM   62  O   UNL     1     -21.024 -15.979   2.871  1.00  0.00    -0.388 OA
HETATM   63  H   UNL     1     -20.893 -15.352   3.603  1.00  0.00     0.210 HD
ENDBRANCH  12  62
BRANCH  33  64
HETATM   64  O   UNL     1     -14.057 -12.907  -5.122  1.00  0.00    -0.388 OA
HETATM   65  H   UNL     1     -13.465 -12.161  -4.897  1.00  0.00     0.210 HD
ENDBRANCH  33  64
BRANCH  30  66
HETATM   66  C   UNL     1     -17.313 -12.732  -8.029  1.00  0.00     0.198 C 
BRANCH  66  67
HETATM   67  O   UNL     1     -18.395 -13.124  -8.853  1.00  0.00    -0.398 OA
HETATM   68  H   UNL     1     -18.989 -13.664  -8.304  1.00  0.00     0.209 HD
ENDBRANCH  66  67
ENDBRANCH  30  66
BRANCH  34  69
HETATM   69  O   UNL     1     -15.059  -9.977  -5.251  1.00  0.00    -0.390 OA
HETATM   70  H   UNL     1     -15.765  -9.347  -5.030  1.00  0.00     0.210 HD
ENDBRANCH  34  69
BRANCH  16  71
HETATM   71  C   UNL     1     -23.738 -13.211  -2.791  1.00  0.00     0.198 C 
BRANCH  71  72
HETATM   72  O   UNL     1     -23.455 -13.302  -4.179  1.00  0.00    -0.398 OA
HETATM   73  H   UNL     1     -23.085 -12.445  -4.456  1.00  0.00     0.209 HD
ENDBRANCH  71  72
ENDBRANCH  16  71
BRANCH  20  74
HETATM   74  O   UNL     1     -23.370 -13.130   1.703  1.00  0.00    -0.390 OA
HETATM   75  H   UNL     1     -24.169 -12.695   2.063  1.00  0.00     0.210 HD
ENDBRANCH  20  74
BRANCH  19  76
HETATM   76  O   UNL     1     -22.912 -10.396   0.628  1.00  0.00    -0.388 OA
HETATM   77  H   UNL     1     -23.745 -10.654   1.072  1.00  0.00     0.210 HD
ENDBRANCH  19  76
BRANCH  26  78
HETATM   78  O   UNL     1     -17.915  -8.322  -3.183  1.00  0.00    -0.388 OA
HETATM   79  H   UNL     1     -17.209  -8.615  -3.794  1.00  0.00     0.210 HD
ENDBRANCH  26  78
BRANCH  23  80
HETATM   80  C   UNL     1     -21.123 -10.430  -5.858  1.00  0.00     0.198 C 
BRANCH  80  81
HETATM   81  O   UNL     1     -21.092  -9.010  -5.922  1.00  0.00    -0.398 OA
HETATM   82  H   UNL     1     -21.986  -8.705  -6.155  1.00  0.00     0.209 HD
ENDBRANCH  80  81
ENDBRANCH  23  80
BRANCH  27  83
HETATM   83  O   UNL     1     -20.641  -8.020  -2.014  1.00  0.00    -0.390 OA
HETATM   84  H   UNL     1     -21.565  -7.726  -2.083  1.00  0.00     0.210 HD
ENDBRANCH  27  83
TORSDOF 24
ENDMDL
MODEL 5
REMARK VINA RESULT:      -3.2      1.889      7.787
REMARK  24 active torsions:
REMARK  status: ('A' for Active; 'I' for Inactive)
REMARK    1  A    between atoms: C_1  and  C_2 
REMARK    2  A    between atoms: C_1  and  O_66 
REMARK    3  A    between atoms: C_4  and  O_65 
REMARK    4  A    between atoms: C_5  and  O_64 
REMARK    5  A    between atoms: C_10  and  C_62 
REMARK    6  A    between atoms: C_13  and  O_16 
REMARK    7  A    between atoms: C_14  and  O_15 
REMARK    8  A    between atoms: C_19  and  C_60 
REMARK    9  A    between atoms: C_22  and  O_25 
REMARK   10  A    between atoms: C_23  and  O_24 
REMARK   11  A    between atoms: C_28  and  C_58 
REMARK   12  A    between atoms: C_31  and  O_34 
REMARK   13  A    between atoms: C_32  and  O_33 
REMARK   14  A    between atoms: C_37  and  C_56 
REMARK   15  A    between atoms: C_40  and  O_43 
REMARK   16  A    between atoms: C_41  and  O_42 
REMARK   17  A    between atoms: C_46  and  C_54 
REMARK   18  A    between atoms: C_50  and  O_53 
REMARK   19  A    between atoms: C_51  and  O_52 
REMARK   20  A    between atoms: C_54  and  O_55 
REMARK   21  A    between atoms: C_56  and  O_57 
REMARK   22  A    between atoms: C_58  and  O_59 
REMARK   23  A    between atoms: C_60  and  O_61 
REMARK   24  A    between atoms: C_62  and  O_63 
ROOT
HETATM    1  C   UNL     1     -16.694 -10.095  -4.768  1.00  0.00     0.180 C 
HETATM    2  C   UNL     1     -17.562 -11.255  -4.028  1.00  0.00     0.187 C 
HETATM    3  C   UNL     1     -16.448 -11.969  -3.398  1.00  0.00     0.183 C 
HETATM    4  C   UNL     1     -15.606 -12.422  -4.536  1.00  0.00     0.204 C 
HETATM    5  C   UNL     1     -14.921 -11.660  -5.574  1.00  0.00     0.292 C 
HETATM    6  O   UNL     1     -15.918 -10.619  -5.928  1.00  0.00    -0.348 OA
HETATM    7  O   UNL     1     -14.725 -12.707  -6.657  1.00  0.00    -0.348 OA
HETATM    8  C   UNL     1     -14.678 -14.277  -6.371  1.00  0.00     0.187 C 
HETATM    9  C   UNL     1     -15.632 -15.210  -5.452  1.00  0.00     0.180 C 
HETATM   10  O   UNL     1     -15.603 -14.940  -4.059  1.00  0.00    -0.348 OA
HETATM   11  C   UNL     1     -14.379 -15.089  -3.419  1.00  0.00     0.292 C 
HETATM   12  C   UNL     1     -13.131 -14.638  -4.339  1.00  0.00     0.204 C 
HETATM   13  C   UNL     1     -13.281 -14.604  -5.899  1.00  0.00     0.183 C 
HETATM   14  O   UNL     1     -14.438 -16.360  -2.800  1.00  0.00    -0.348 OA
HETATM   15  C   UNL     1     -15.392 -16.516  -1.662  1.00  0.00     0.187 C 
HETATM   16  C   UNL     1     -16.941 -16.295  -1.770  1.00  0.00     0.180 C 
HETATM   17  O   UNL     1     -17.414 -14.969  -1.565  1.00  0.00    -0.348 OA
HETATM   18  C   UNL     1     -17.025 -14.224  -0.417  1.00  0.00     0.292 C 
HETATM   19  C   UNL     1     -15.515 -14.462  -0.069  1.00  0.00     0.204 C 
HETATM   20  C   UNL     1     -14.893 -15.849  -0.372  1.00  0.00     0.183 C 
HETATM   21  O   UNL     1     -18.021 -14.272   0.604  1.00  0.00    -0.348 OA
HETATM   22  C   UNL     1     -19.345 -13.635   0.349  1.00  0.00     0.187 C 
HETATM   23  C   UNL     1     -20.162 -14.089  -0.897  1.00  0.00     0.180 C 
HETATM   24  O   UNL     1     -20.023 -13.269  -2.070  1.00  0.00    -0.348 OA
HETATM   25  C   UNL     1     -20.325 -11.878  -1.992  1.00  0.00     0.292 C 
HETATM   26  C   UNL     1     -19.533 -11.261  -0.796  1.00  0.00     0.204 C 
HETATM   27  C   UNL     1     -19.518 -12.095   0.515  1.00  0.00     0.183 C 
HETATM   28  O   UNL     1     -21.715 -11.475  -2.045  1.00  0.00    -0.348 OA
HETATM   29  C   UNL     1     -22.477 -11.479  -3.324  1.00  0.00     0.187 C 
HETATM   30  C   UNL     1     -22.484 -12.845  -3.992  1.00  0.00     0.180 C 
HETATM   31  O   UNL     1     -21.210 -12.944  -4.592  1.00  0.00    -0.348 OA
HETATM   32  C   UNL     1     -21.030 -12.248  -5.800  1.00  0.00     0.292 C 
HETATM   33  C   UNL     1     -21.134 -10.753  -5.522  1.00  0.00     0.204 C 
HETATM   34  C   UNL     1     -22.191 -10.394  -4.444  1.00  0.00     0.183 C 
HETATM   35  O   UNL     1     -21.638 -12.998  -6.830  1.00  0.00    -0.348 OA
HETATM   36  C   UNL     1     -21.044 -14.335  -6.973  1.00  0.00     0.187 C 
HETATM   37  C   UNL     1     -20.791 -15.187  -5.684  1.00  0.00     0.180 C 
HETATM   38  O   UNL     1     -19.690 -14.758  -4.820  1.00  0.00    -0.348 OA
HETATM   39  C   UNL     1     -18.660 -13.792  -5.258  1.00  0.00     0.292 C 
HETATM   40  O   UNL     1     -18.662 -12.207  -4.695  1.00  0.00    -0.348 OA
HETATM   41  C   UNL     1     -18.520 -13.856  -6.904  1.00  0.00     0.204 C 
HETATM   42  C   UNL     1     -19.720 -14.361  -7.706  1.00  0.00     0.183 C 
ENDROOT
BRANCH   1  43
HETATM   43  C   UNL     1     -15.636  -9.350  -3.791  1.00  0.00     0.198 C 
BRANCH  43  44
HETATM   44  O   UNL     1     -16.212  -8.835  -2.598  1.00  0.00    -0.398 OA
HETATM   45  H   UNL     1     -16.921  -8.205  -2.867  1.00  0.00     0.209 HD
ENDBRANCH  43  44
ENDBRANCH   1  43
BRANCH   3  46
HETATM   46  O   UNL     1     -16.943 -13.031  -2.658  1.00  0.00    -0.390 OA
HETATM   47  H   UNL     1     -16.523 -13.087  -1.771  1.00  0.00     0.210 HD
ENDBRANCH   3  46
BRANCH   4  48
HETATM   48  O   UNL     1     -16.576 -12.938  -5.446  1.00  0.00    -0.388 OA
HETATM   49  H   UNL     1     -17.299 -12.265  -5.529  1.00  0.00     0.210 HD
ENDBRANCH   4  48
BRANCH  41  50
HETATM   50  O   UNL     1     -17.470 -14.654  -7.510  1.00  0.00    -0.388 OA
HETATM   51  H   UNL     1     -16.803 -14.891  -6.835  1.00  0.00     0.210 HD
ENDBRANCH  41  50
BRANCH  37  52
HETATM   52  C   UNL     1     -20.659 -16.705  -6.025  1.00  0.00     0.198 C 
BRANCH  52  53
HETATM   53  O   UNL     1     -21.760 -17.164  -6.812  1.00  0.00    -0.398 OA
HETATM   54  H   UNL     1     -22.394 -16.427  -6.850  1.00  0.00     0.209 HD
ENDBRANCH  52  53
ENDBRANCH  37  52
BRANCH  42  55
HETATM   55  O   UNL     1     -19.738 -13.700  -8.977  1.00  0.00    -0.390 OA
HETATM   56  H   UNL     1     -18.840 -13.833  -9.347  1.00  0.00     0.210 HD
ENDBRANCH  42  55
BRANCH   9  57
HETATM   57  C   UNL     1     -15.770 -16.735  -5.593  1.00  0.00     0.198 C 
BRANCH  57  58
HETATM   58  O   UNL     1     -17.073 -17.169  -5.161  1.00  0.00    -0.398 OA
HETATM   59  H   UNL     1     -17.709 -16.497  -5.489  1.00  0.00     0.209 HD
ENDBRANCH  57  58
ENDBRANCH   9  57
BRANCH  13  60
HETATM   60  O   UNL     1     -12.383 -13.651  -6.506  1.00  0.00    -0.390 OA
HETATM   61  H   UNL     1     -12.095 -13.040  -5.797  1.00  0.00     0.210 HD
ENDBRANCH  13  60
BRANCH  12  62
HETATM   62  O   UNL     1     -11.929 -15.296  -3.942  1.00  0.00    -0.388 OA
HETATM   63  H   UNL     1     -11.352 -15.359  -4.722  1.00  0.00     0.210 HD
ENDBRANCH  12  62
BRANCH  33  64
HETATM   64  O   UNL     1     -21.201  -9.999  -6.740  1.00  0.00    -0.388 OA
HETATM   65  H   UNL     1     -20.459 -10.296  -7.305  1.00  0.00     0.210 HD
ENDBRANCH  33  64
BRANCH  30  66
HETATM   66  C   UNL     1     -23.654 -13.140  -4.951  1.00  0.00     0.198 C 
BRANCH  66  67
HETATM   67  O   UNL     1     -23.878 -14.532  -5.077  1.00  0.00    -0.398 OA
HETATM   68  H   UNL     1     -23.882 -14.735  -6.029  1.00  0.00     0.209 HD
ENDBRANCH  66  67
ENDBRANCH  30  66
BRANCH  34  69
HETATM   69  O   UNL     1     -21.904  -9.127  -3.850  1.00  0.00    -0.390 OA
HETATM   70  H   UNL     1     -21.484  -9.283  -2.988  1.00  0.00     0.210 HD
ENDBRANCH  34  69
BRANCH  16  71
HETATM   71  C   UNL     1     -17.720 -17.183  -0.780  1.00  0.00     0.198 C 
BRANCH  71  72
HETATM   72  O   UNL     1     -19.121 -16.989  -0.906  1.00  0.00    -0.398 OA
HETATM   73  H   UNL     1     -19.256 -16.150  -1.380  1.00  0.00     0.209 HD
ENDBRANCH  71  72
ENDBRANCH  16  71
BRANCH  20  74
HETATM   74  O   UNL     1     -13.453 -15.770  -0.415  1.00  0.00    -0.390 OA
HETATM   75  H   UNL     1     -13.124 -15.836   0.505  1.00  0.00     0.210 HD
ENDBRANCH  20  74
BRANCH  19  76
HETATM   76  O   UNL     1     -15.196 -14.096   1.317  1.00  0.00    -0.388 OA
HETATM   77  H   UNL     1     -15.419 -13.150   1.432  1.00  0.00     0.210 HD
ENDBRANCH  19  76
BRANCH  26  78
HETATM   78  O   UNL     1     -19.963  -9.910  -0.565  1.00  0.00    -0.388 OA
HETATM   79  H   UNL     1     -20.521  -9.922   0.238  1.00  0.00     0.210 HD
ENDBRANCH  26  78
BRANCH  23  80
HETATM   80  C   UNL     1     -21.653 -14.273  -0.565  1.00  0.00     0.198 C 
BRANCH  80  81
HETATM   81  O   UNL     1     -21.924 -15.576  -0.064  1.00  0.00    -0.398 OA
HETATM   82  H   UNL     1     -22.093 -16.156  -0.827  1.00  0.00     0.209 HD
ENDBRANCH  80  81
ENDBRANCH  23  80
BRANCH  27  83
HETATM   83  O   UNL     1     -18.582 -11.587   1.476  1.00  0.00    -0.390 OA
HETATM   84  H   UNL     1     -18.148 -10.803   1.102  1.00  0.00     0.210 HD
ENDBRANCH  27  83
TORSDOF 24
ENDMDL
MODEL 6
REMARK VINA RESULT:      -2.7      1.781      6.211
REMARK  24 active torsions:
REMARK  status: ('A' for Active; 'I' for Inactive)
REMARK    1  A    between atoms: C_1  and  C_2 
REMARK    2  A    between atoms: C_1  and  O_66 
REMARK    3  A    between atoms: C_4  and  O_65 
REMARK    4  A    between atoms: C_5  and  O_64 
REMARK    5  A    between atoms: C_10  and  C_62 
REMARK    6  A    between atoms: C_13  and  O_16 
REMARK    7  A    between atoms: C_14  and  O_15 
REMARK    8  A    between atoms: C_19  and  C_60 
REMARK    9  A    between atoms: C_22  and  O_25 
REMARK   10  A    between atoms: C_23  and  O_24 
REMARK   11  A    between atoms: C_28  and  C_58 
REMARK   12  A    between atoms: C_31  and  O_34 
REMARK   13  A    between atoms: C_32  and  O_33 
REMARK   14  A    between atoms: C_37  and  C_56 
REMARK   15  A    between atoms: C_40  and  O_43 
REMARK   16  A    between atoms: C_41  and  O_42 
REMARK   17  A    between atoms: C_46  and  C_54 
REMARK   18  A    between atoms: C_50  and  O_53 
REMARK   19  A    between atoms: C_51  and  O_52 
REMARK   20  A    between atoms: C_54  and  O_55 
REMARK   21  A    between atoms: C_56  and  O_57 
REMARK   22  A    between atoms: C_58  and  O_59 
REMARK   23  A    between atoms: C_60  and  O_61 
REMARK   24  A    between atoms: C_62  and  O_63 
ROOT
HETATM    1  C   UNL     1     -20.534 -15.697  -4.753  1.00  0.00     0.180 C 
HETATM    2  C   UNL     1     -19.568 -14.530  -4.162  1.00  0.00     0.187 C 
HETATM    3  C   UNL     1     -19.137 -15.222  -2.946  1.00  0.00     0.183 C 
HETATM    4  C   UNL     1     -20.394 -15.463  -2.189  1.00  0.00     0.204 C 
HETATM    5  C   UNL     1     -21.591 -16.214  -2.549  1.00  0.00     0.292 C 
HETATM    6  O   UNL     1     -21.795 -15.842  -3.972  1.00  0.00    -0.348 OA
HETATM    7  O   UNL     1     -22.629 -15.622  -1.611  1.00  0.00    -0.348 OA
HETATM    8  C   UNL     1     -22.269 -14.916  -0.226  1.00  0.00     0.187 C 
HETATM    9  C   UNL     1     -21.123 -13.829   0.137  1.00  0.00     0.180 C 
HETATM   10  O   UNL     1     -19.783 -14.274  -0.002  1.00  0.00    -0.348 OA
HETATM   11  C   UNL     1     -19.397 -15.350   0.787  1.00  0.00     0.292 C 
HETATM   12  C   UNL     1     -20.574 -16.435   0.989  1.00  0.00     0.204 C 
HETATM   13  C   UNL     1     -22.072 -16.011   0.796  1.00  0.00     0.183 C 
HETATM   14  O   UNL     1     -18.706 -14.776   1.882  1.00  0.00    -0.348 OA
HETATM   15  C   UNL     1     -17.392 -14.130   1.590  1.00  0.00     0.187 C 
HETATM   16  C   UNL     1     -17.196 -12.928   0.601  1.00  0.00     0.180 C 
HETATM   17  O   UNL     1     -16.977 -13.253  -0.766  1.00  0.00    -0.348 OA
HETATM   18  C   UNL     1     -15.976 -14.192  -1.142  1.00  0.00     0.292 C 
HETATM   19  C   UNL     1     -15.928 -15.402  -0.146  1.00  0.00     0.204 C 
HETATM   20  C   UNL     1     -16.271 -15.150   1.345  1.00  0.00     0.183 C 
HETATM   21  O   UNL     1     -14.774 -13.543  -1.554  1.00  0.00    -0.348 OA
HETATM   22  C   UNL     1     -14.792 -12.712  -2.791  1.00  0.00     0.187 C 
HETATM   23  C   UNL     1     -15.819 -11.545  -2.889  1.00  0.00     0.180 C 
HETATM   24  O   UNL     1     -17.040 -11.842  -3.586  1.00  0.00    -0.348 OA
HETATM   25  C   UNL     1     -16.983 -12.317  -4.929  1.00  0.00     0.292 C 
HETATM   26  C   UNL     1     -16.010 -13.537  -4.986  1.00  0.00     0.204 C 
HETATM   27  C   UNL     1     -14.683 -13.389  -4.191  1.00  0.00     0.183 C 
HETATM   28  O   UNL     1     -16.777 -11.352  -5.989  1.00  0.00    -0.348 OA
HETATM   29  C   UNL     1     -17.873 -10.454  -6.446  1.00  0.00     0.187 C 
HETATM   30  C   UNL     1     -18.446  -9.614  -5.316  1.00  0.00     0.180 C 
HETATM   31  O   UNL     1     -19.285 -10.505  -4.613  1.00  0.00    -0.348 OA
HETATM   32  C   UNL     1     -20.542 -10.767  -5.184  1.00  0.00     0.292 C 
HETATM   33  C   UNL     1     -20.336 -11.501  -6.503  1.00  0.00     0.204 C 
HETATM   34  C   UNL     1     -19.088 -11.021  -7.292  1.00  0.00     0.183 C 
HETATM   35  O   UNL     1     -21.383  -9.667  -4.909  1.00  0.00    -0.348 OA
HETATM   36  C   UNL     1     -21.566  -9.450  -3.467  1.00  0.00     0.187 C 
HETATM   37  C   UNL     1     -20.308  -9.486  -2.536  1.00  0.00     0.180 C 
HETATM   38  O   UNL     1     -19.711 -10.800  -2.292  1.00  0.00    -0.348 OA
HETATM   39  C   UNL     1     -20.403 -12.066  -2.617  1.00  0.00     0.292 C 
HETATM   40  O   UNL     1     -19.943 -12.989  -3.946  1.00  0.00    -0.348 OA
HETATM   41  C   UNL     1     -22.037 -11.815  -2.582  1.00  0.00     0.204 C 
HETATM   42  C   UNL     1     -22.549 -10.392  -2.808  1.00  0.00     0.183 C 
ENDROOT
BRANCH   1  43
HETATM   43  C   UNL     1     -19.836 -17.160  -4.796  1.00  0.00     0.198 C 
BRANCH  43  44
HETATM   44  O   UNL     1     -18.577 -17.183  -5.456  1.00  0.00    -0.398 OA
HETATM   45  H   UNL     1     -17.894 -16.945  -4.786  1.00  0.00     0.209 HD
ENDBRANCH  43  44
ENDBRANCH   1  43
BRANCH   3  46
HETATM   46  O   UNL     1     -18.252 -14.416  -2.246  1.00  0.00    -0.390 OA
HETATM   47  H   UNL     1     -18.529 -14.292  -1.312  1.00  0.00     0.210 HD
ENDBRANCH   3  46
BRANCH   4  48
HETATM   48  O   UNL     1     -21.057 -14.204  -2.294  1.00  0.00    -0.388 OA
HETATM   49  H   UNL     1     -20.840 -13.822  -3.182  1.00  0.00     0.210 HD
ENDBRANCH   4  48
BRANCH  41  50
HETATM   50  O   UNL     1     -22.796 -12.161  -1.395  1.00  0.00    -0.388 OA
HETATM   51  H   UNL     1     -23.653 -11.689  -1.399  1.00  0.00     0.210 HD
ENDBRANCH  41  50
BRANCH  37  52
HETATM   52  C   UNL     1     -20.581  -8.751  -1.186  1.00  0.00     0.198 C 
BRANCH  52  53
HETATM   53  O   UNL     1     -20.677  -7.337  -1.368  1.00  0.00    -0.398 OA
HETATM   54  H   UNL     1     -21.579  -7.164  -1.687  1.00  0.00     0.209 HD
ENDBRANCH  52  53
ENDBRANCH  37  52
BRANCH  42  55
HETATM   55  O   UNL     1     -23.826 -10.458  -3.455  1.00  0.00    -0.390 OA
HETATM   56  H   UNL     1     -24.008 -11.415  -3.563  1.00  0.00     0.210 HD
ENDBRANCH  42  55
BRANCH   9  57
HETATM   57  C   UNL     1     -21.146 -12.905   1.366  1.00  0.00     0.198 C 
BRANCH  57  58
HETATM   58  O   UNL     1     -21.903 -11.712   1.091  1.00  0.00    -0.398 OA
HETATM   59  H   UNL     1     -22.070 -11.710   0.124  1.00  0.00     0.209 HD
ENDBRANCH  57  58
ENDBRANCH   9  57
BRANCH  13  60
HETATM   60  O   UNL     1     -22.901 -17.126   0.405  1.00  0.00    -0.390 OA
HETATM   61  H   UNL     1     -22.359 -17.935   0.512  1.00  0.00     0.210 HD
ENDBRANCH  13  60
BRANCH  12  62
HETATM   62  O   UNL     1     -20.391 -17.183   2.190  1.00  0.00    -0.388 OA
HETATM   63  H   UNL     1     -19.852 -16.646   2.796  1.00  0.00     0.210 HD
ENDBRANCH  12  62
BRANCH  33  64
HETATM   64  O   UNL     1     -21.556 -11.583  -7.252  1.00  0.00    -0.388 OA
HETATM   65  H   UNL     1     -22.183 -10.946  -6.853  1.00  0.00     0.210 HD
ENDBRANCH  33  64
BRANCH  30  66
HETATM   66  C   UNL     1     -19.131  -8.292  -5.715  1.00  0.00     0.198 C 
BRANCH  66  67
HETATM   67  O   UNL     1     -18.487  -7.692  -6.823  1.00  0.00    -0.398 OA
HETATM   68  H   UNL     1     -19.160  -7.175  -7.299  1.00  0.00     0.209 HD
ENDBRANCH  66  67
ENDBRANCH  30  66
BRANCH  34  69
HETATM   69  O   UNL     1     -18.639 -12.029  -8.199  1.00  0.00    -0.390 OA
HETATM   70  H   UNL     1     -17.856 -11.692  -8.665  1.00  0.00     0.210 HD
ENDBRANCH  34  69
BRANCH  16  71
HETATM   71  C   UNL     1     -16.020 -12.024   1.019  1.00  0.00     0.198 C 
BRANCH  71  72
HETATM   72  O   UNL     1     -15.587 -11.210  -0.060  1.00  0.00    -0.398 OA
HETATM   73  H   UNL     1     -16.213 -10.468  -0.133  1.00  0.00     0.209 HD
ENDBRANCH  71  72
ENDBRANCH  16  71
BRANCH  20  74
HETATM   74  O   UNL     1     -16.607 -16.383   2.012  1.00  0.00    -0.390 OA
HETATM   75  H   UNL     1     -16.604 -17.096   1.341  1.00  0.00     0.210 HD
ENDBRANCH  20  74
BRANCH  19  76
HETATM   76  O   UNL     1     -14.658 -16.137  -0.219  1.00  0.00    -0.388 OA
HETATM   77  H   UNL     1     -14.547 -16.442  -1.142  1.00  0.00     0.210 HD
ENDBRANCH  19  76
BRANCH  26  78
HETATM   78  O   UNL     1     -15.775 -13.915  -6.352  1.00  0.00    -0.388 OA
HETATM   79  H   UNL     1     -16.205 -13.239  -6.914  1.00  0.00     0.210 HD
ENDBRANCH  26  78
BRANCH  23  80
HETATM   80  C   UNL     1     -15.181 -10.272  -3.476  1.00  0.00     0.198 C 
BRANCH  80  81
HETATM   81  O   UNL     1     -15.792  -9.094  -2.966  1.00  0.00    -0.398 OA
HETATM   82  H   UNL     1     -16.552  -8.884  -3.537  1.00  0.00     0.209 HD
ENDBRANCH  80  81
ENDBRANCH  23  80
BRANCH  27  83
HETATM   83  O   UNL     1     -13.962 -14.625  -4.094  1.00  0.00    -0.390 OA
HETATM   84  H   UNL     1     -14.282 -15.110  -3.315  1.00  0.00     0.210 HD
ENDBRANCH  27  83
TORSDOF 24
ENDMDL
MODEL 7
REMARK VINA RESULT:      -2.6      1.789      7.911
REMARK  24 active torsions:
REMARK  status: ('A' for Active; 'I' for Inactive)
REMARK    1  A    between atoms: C_1  and  C_2 
REMARK    2  A    between atoms: C_1  and  O_66 
REMARK    3  A    between atoms: C_4  and  O_65 
REMARK    4  A    between atoms: C_5  and  O_64 
REMARK    5  A    between atoms: C_10  and  C_62 
REMARK    6  A    between atoms: C_13  and  O_16 
REMARK    7  A    between atoms: C_14  and  O_15 
REMARK    8  A    between atoms: C_19  and  C_60 
REMARK    9  A    between atoms: C_22  and  O_25 
REMARK   10  A    between atoms: C_23  and  O_24 
REMARK   11  A    between atoms: C_28  and  C_58 
REMARK   12  A    between atoms: C_31  and  O_34 
REMARK   13  A    between atoms: C_32  and  O_33 
REMARK   14  A    between atoms: C_37  and  C_56 
REMARK   15  A    between atoms: C_40  and  O_43 
REMARK   16  A    between atoms: C_41  and  O_42 
REMARK   17  A    between atoms: C_46  and  C_54 
REMARK   18  A    between atoms: C_50  and  O_53 
REMARK   19  A    between atoms: C_51  and  O_52 
REMARK   20  A    between atoms: C_54  and  O_55 
REMARK   21  A    between atoms: C_56  and  O_57 
REMARK   22  A    between atoms: C_58  and  O_59 
REMARK   23  A    between atoms: C_60  and  O_61 
REMARK   24  A    between atoms: C_62  and  O_63 
ROOT
HETATM    1  C   UNL     1     -17.880  -9.590  -3.859  1.00  0.00     0.180 C 
HETATM    2  C   UNL     1     -18.059 -11.044  -3.155  1.00  0.00     0.187 C 
HETATM    3  C   UNL     1     -16.670 -11.495  -3.269  1.00  0.00     0.183 C 
HETATM    4  C   UNL     1     -16.404 -11.516  -4.731  1.00  0.00     0.204 C 
HETATM    5  C   UNL     1     -16.451 -10.446  -5.721  1.00  0.00     0.292 C 
HETATM    6  O   UNL     1     -17.669  -9.693  -5.332  1.00  0.00    -0.348 OA
HETATM    7  O   UNL     1     -16.605 -11.223  -7.018  1.00  0.00    -0.348 OA
HETATM    8  C   UNL     1     -16.139 -12.738  -7.202  1.00  0.00     0.187 C 
HETATM    9  C   UNL     1     -16.347 -14.029  -6.246  1.00  0.00     0.180 C 
HETATM   10  O   UNL     1     -15.709 -13.970  -4.981  1.00  0.00    -0.348 OA
HETATM   11  C   UNL     1     -14.324 -13.856  -4.984  1.00  0.00     0.292 C 
HETATM   12  C   UNL     1     -13.774 -12.938  -6.192  1.00  0.00     0.204 C 
HETATM   13  C   UNL     1     -14.653 -12.719  -7.472  1.00  0.00     0.183 C 
HETATM   14  O   UNL     1     -13.844 -15.168  -4.757  1.00  0.00    -0.348 OA
HETATM   15  C   UNL     1     -14.093 -15.756  -3.407  1.00  0.00     0.187 C 
HETATM   16  C   UNL     1     -15.517 -15.972  -2.785  1.00  0.00     0.180 C 
HETATM   17  O   UNL     1     -16.071 -14.882  -2.058  1.00  0.00    -0.348 OA
HETATM   18  C   UNL     1     -15.327 -14.234  -1.032  1.00  0.00     0.292 C 
HETATM   19  C   UNL     1     -13.819 -14.080  -1.434  1.00  0.00     0.204 C 
HETATM   20  C   UNL     1     -13.173 -15.171  -2.325  1.00  0.00     0.183 C 
HETATM   21  O   UNL     1     -15.688 -14.715   0.262  1.00  0.00    -0.348 OA
HETATM   22  C   UNL     1     -17.065 -14.452   0.770  1.00  0.00     0.187 C 
HETATM   23  C   UNL     1     -18.276 -14.932  -0.083  1.00  0.00     0.180 C 
HETATM   24  O   UNL     1     -18.868 -13.943  -0.943  1.00  0.00    -0.348 OA
HETATM   25  C   UNL     1     -19.348 -12.724  -0.382  1.00  0.00     0.292 C 
HETATM   26  C   UNL     1     -18.211 -12.089   0.480  1.00  0.00     0.204 C 
HETATM   27  C   UNL     1     -17.419 -13.067   1.392  1.00  0.00     0.183 C 
HETATM   28  O   UNL     1     -20.642 -12.730   0.267  1.00  0.00    -0.348 OA
HETATM   29  C   UNL     1     -21.906 -12.764  -0.519  1.00  0.00     0.187 C 
HETATM   30  C   UNL     1     -21.978 -13.961  -1.453  1.00  0.00     0.180 C 
HETATM   31  O   UNL     1     -21.151 -13.602  -2.540  1.00  0.00    -0.348 OA
HETATM   32  C   UNL     1     -21.700 -12.714  -3.481  1.00  0.00     0.292 C 
HETATM   33  C   UNL     1     -21.934 -11.370  -2.803  1.00  0.00     0.204 C 
HETATM   34  C   UNL     1     -22.394 -11.490  -1.326  1.00  0.00     0.183 C 
HETATM   35  O   UNL     1     -22.575 -13.446  -4.312  1.00  0.00    -0.348 OA
HETATM   36  C   UNL     1     -21.885 -14.522  -5.039  1.00  0.00     0.187 C 
HETATM   37  C   UNL     1     -20.896 -15.446  -4.253  1.00  0.00     0.180 C 
HETATM   38  O   UNL     1     -19.617 -14.853  -3.858  1.00  0.00    -0.348 OA
HETATM   39  C   UNL     1     -19.119 -13.580  -4.422  1.00  0.00     0.292 C 
HETATM   40  O   UNL     1     -19.146 -12.162  -3.516  1.00  0.00    -0.348 OA
HETATM   41  C   UNL     1     -19.772 -13.358  -5.924  1.00  0.00     0.204 C 
HETATM   42  C   UNL     1     -21.092 -14.061  -6.243  1.00  0.00     0.183 C 
ENDROOT
BRANCH   1  43
HETATM   43  C   UNL     1     -16.643  -8.726  -3.266  1.00  0.00     0.198 C 
BRANCH  43  44
HETATM   44  O   UNL     1     -15.985  -9.337  -2.163  1.00  0.00    -0.398 OA
HETATM   45  H   UNL     1     -15.440 -10.075  -2.524  1.00  0.00     0.209 HD
ENDBRANCH  43  44
ENDBRANCH   1  43
BRANCH   3  46
HETATM   46  O   UNL     1     -16.545 -12.752  -2.696  1.00  0.00    -0.390 OA
HETATM   47  H   UNL     1     -16.385 -12.699  -1.729  1.00  0.00     0.210 HD
ENDBRANCH   3  46
BRANCH   4  48
HETATM   48  O   UNL     1     -17.576 -12.148  -5.244  1.00  0.00    -0.388 OA
HETATM   49  H   UNL     1     -17.308 -13.029  -5.610  1.00  0.00     0.210 HD
ENDBRANCH   4  48
BRANCH  41  50
HETATM   50  O   UNL     1     -19.011 -13.724  -7.104  1.00  0.00    -0.388 OA
HETATM   51  H   UNL     1     -18.481 -12.960  -7.407  1.00  0.00     0.210 HD
ENDBRANCH  41  50
BRANCH  37  52
HETATM   52  C   UNL     1     -20.665 -16.796  -5.003  1.00  0.00     0.198 C 
BRANCH  52  53
HETATM   53  O   UNL     1     -19.748 -16.644  -6.088  1.00  0.00    -0.398 OA
HETATM   54  H   UNL     1     -19.714 -15.691  -6.284  1.00  0.00     0.209 HD
ENDBRANCH  52  53
ENDBRANCH  37  52
BRANCH  42  55
HETATM   55  O   UNL     1     -21.836 -13.253  -7.163  1.00  0.00    -0.390 OA
HETATM   56  H   UNL     1     -22.483 -13.864  -7.574  1.00  0.00     0.210 HD
ENDBRANCH  42  55
BRANCH   9  57
HETATM   57  C   UNL     1     -16.251 -15.492  -6.710  1.00  0.00     0.198 C 
BRANCH  57  58
HETATM   58  O   UNL     1     -16.972 -16.358  -5.814  1.00  0.00    -0.398 OA
HETATM   59  H   UNL     1     -16.896 -17.263  -6.186  1.00  0.00     0.209 HD
ENDBRANCH  57  58
ENDBRANCH   9  57
BRANCH  13  60
HETATM   60  O   UNL     1     -14.346 -11.470  -8.128  1.00  0.00    -0.390 OA
HETATM   61  H   UNL     1     -13.555 -11.102  -7.684  1.00  0.00     0.210 HD
ENDBRANCH  13  60
BRANCH  12  62
HETATM   62  O   UNL     1     -12.430 -13.276  -6.531  1.00  0.00    -0.388 OA
HETATM   63  H   UNL     1     -12.092 -12.591  -7.133  1.00  0.00     0.210 HD
ENDBRANCH  12  62
BRANCH  33  64
HETATM   64  O   UNL     1     -22.712 -10.495  -3.632  1.00  0.00    -0.388 OA
HETATM   65  H   UNL     1     -22.400  -9.583  -3.461  1.00  0.00     0.210 HD
ENDBRANCH  33  64
BRANCH  30  66
HETATM   66  C   UNL     1     -23.386 -14.433  -1.867  1.00  0.00     0.198 C 
BRANCH  66  67
HETATM   67  O   UNL     1     -23.536 -15.828  -1.681  1.00  0.00    -0.398 OA
HETATM   68  H   UNL     1     -23.896 -15.959  -0.787  1.00  0.00     0.209 HD
ENDBRANCH  66  67
ENDBRANCH  30  66
BRANCH  34  69
HETATM   69  O   UNL     1     -22.099 -10.295  -0.600  1.00  0.00    -0.390 OA
HETATM   70  H   UNL     1     -22.748  -9.617  -0.855  1.00  0.00     0.210 HD
ENDBRANCH  34  69
BRANCH  16  71
HETATM   71  C   UNL     1     -15.550 -17.182  -1.830  1.00  0.00     0.198 C 
BRANCH  71  72
HETATM   72  O   UNL     1     -16.728 -17.180  -1.037  1.00  0.00    -0.398 OA
HETATM   73  H   UNL     1     -16.478 -16.875  -0.147  1.00  0.00     0.209 HD
ENDBRANCH  71  72
ENDBRANCH  16  71
BRANCH  20  74
HETATM   74  O   UNL     1     -11.970 -14.680  -2.952  1.00  0.00    -0.390 OA
HETATM   75  H   UNL     1     -12.157 -14.563  -3.905  1.00  0.00     0.210 HD
ENDBRANCH  20  74
BRANCH  19  76
HETATM   76  O   UNL     1     -12.952 -13.847  -0.272  1.00  0.00    -0.388 OA
HETATM   77  H   UNL     1     -13.511 -13.490   0.447  1.00  0.00     0.210 HD
ENDBRANCH  19  76
BRANCH  26  78
HETATM   78  O   UNL     1     -18.721 -10.967   1.218  1.00  0.00    -0.388 OA
HETATM   79  H   UNL     1     -19.273 -10.446   0.600  1.00  0.00     0.210 HD
ENDBRANCH  26  78
BRANCH  23  80
HETATM   80  C   UNL     1     -19.366 -15.581   0.789  1.00  0.00     0.198 C 
BRANCH  80  81
HETATM   81  O   UNL     1     -19.160 -16.980   0.934  1.00  0.00    -0.398 OA
HETATM   82  H   UNL     1     -19.316 -17.393   0.066  1.00  0.00     0.209 HD
ENDBRANCH  80  81
ENDBRANCH  23  80
BRANCH  27  83
HETATM   83  O   UNL     1     -16.250 -12.461   1.961  1.00  0.00    -0.390 OA
HETATM   84  H   UNL     1     -16.455 -12.190   2.871  1.00  0.00     0.210 HD
ENDBRANCH  27  83
TORSDOF 24
ENDMDL
MODEL 8
REMARK VINA RESULT:      -2.6      1.761      4.149
REMARK  24 active torsions:
REMARK  status: ('A' for Active; 'I' for Inactive)
REMARK    1  A    between atoms: C_1  and  C_2 
REMARK    2  A    between atoms: C_1  and  O_66 
REMARK    3  A    between atoms: C_4  and  O_65 
REMARK    4  A    between atoms: C_5  and  O_64 
REMARK    5  A    between atoms: C_10  and  C_62 
REMARK    6  A    between atoms: C_13  and  O_16 
REMARK    7  A    between atoms: C_14  and  O_15 
REMARK    8  A    between atoms: C_19  and  C_60 
REMARK    9  A    between atoms: C_22  and  O_25 
REMARK   10  A    between atoms: C_23  and  O_24 
REMARK   11  A    between atoms: C_28  and  C_58 
REMARK   12  A    between atoms: C_31  and  O_34 
REMARK   13  A    between atoms: C_32  and  O_33 
REMARK   14  A    between atoms: C_37  and  C_56 
REMARK   15  A    between atoms: C_40  and  O_43 
REMARK   16  A    between atoms: C_41  and  O_42 
REMARK   17  A    between atoms: C_46  and  C_54 
REMARK   18  A    between atoms: C_50  and  O_53 
REMARK   19  A    between atoms: C_51  and  O_52 
REMARK   20  A    between atoms: C_54  and  O_55 
REMARK   21  A    between atoms: C_56  and  O_57 
REMARK   22  A    between atoms: C_58  and  O_59 
REMARK   23  A    between atoms: C_60  and  O_61 
REMARK   24  A    between atoms: C_62  and  O_63 
ROOT
HETATM    1  C   UNL     1     -20.778 -10.828  -5.913  1.00  0.00     0.180 C 
HETATM    2  C   UNL     1     -20.194 -11.962  -4.904  1.00  0.00     0.187 C 
HETATM    3  C   UNL     1     -21.280 -11.937  -3.922  1.00  0.00     0.183 C 
HETATM    4  C   UNL     1     -21.278 -10.546  -3.399  1.00  0.00     0.204 C 
HETATM    5  C   UNL     1     -21.469  -9.273  -4.084  1.00  0.00     0.292 C 
HETATM    6  O   UNL     1     -20.694  -9.456  -5.337  1.00  0.00    -0.348 OA
HETATM    7  O   UNL     1     -20.831  -8.294  -3.113  1.00  0.00    -0.348 OA
HETATM    8  C   UNL     1     -20.670  -8.576  -1.550  1.00  0.00     0.187 C 
HETATM    9  C   UNL     1     -20.158  -9.897  -0.765  1.00  0.00     0.180 C 
HETATM   10  O   UNL     1     -20.970 -11.052  -0.905  1.00  0.00    -0.348 OA
HETATM   11  C   UNL     1     -22.279 -10.955  -0.450  1.00  0.00     0.292 C 
HETATM   12  C   UNL     1     -22.925  -9.498  -0.704  1.00  0.00     0.204 C 
HETATM   13  C   UNL     1     -21.993  -8.252  -0.899  1.00  0.00     0.183 C 
HETATM   14  O   UNL     1     -22.272 -11.564   0.828  1.00  0.00    -0.348 OA
HETATM   15  C   UNL     1     -22.047 -13.039   0.875  1.00  0.00     0.187 C 
HETATM   16  C   UNL     1     -20.765 -13.756   0.325  1.00  0.00     0.180 C 
HETATM   17  O   UNL     1     -20.777 -14.125  -1.049  1.00  0.00    -0.348 OA
HETATM   18  C   UNL     1     -21.864 -14.863  -1.597  1.00  0.00     0.292 C 
HETATM   19  C   UNL     1     -23.235 -14.371  -1.019  1.00  0.00     0.204 C 
HETATM   20  C   UNL     1     -23.280 -13.842   0.437  1.00  0.00     0.183 C 
HETATM   21  O   UNL     1     -21.567 -16.257  -1.674  1.00  0.00    -0.348 OA
HETATM   22  C   UNL     1     -20.486 -16.714  -2.594  1.00  0.00     0.187 C 
HETATM   23  C   UNL     1     -19.061 -16.106  -2.427  1.00  0.00     0.180 C 
HETATM   24  O   UNL     1     -18.744 -15.005  -3.294  1.00  0.00    -0.348 OA
HETATM   25  C   UNL     1     -18.845 -15.173  -4.707  1.00  0.00     0.292 C 
HETATM   26  C   UNL     1     -20.260 -15.744  -5.041  1.00  0.00     0.204 C 
HETATM   27  C   UNL     1     -20.772 -16.882  -4.117  1.00  0.00     0.183 C 
HETATM   28  O   UNL     1     -17.764 -15.845  -5.396  1.00  0.00    -0.348 OA
HETATM   29  C   UNL     1     -16.467 -15.162  -5.658  1.00  0.00     0.187 C 
HETATM   30  C   UNL     1     -15.808 -14.656  -4.386  1.00  0.00     0.180 C 
HETATM   31  O   UNL     1     -16.521 -13.478  -4.072  1.00  0.00    -0.348 OA
HETATM   32  C   UNL     1     -16.192 -12.329  -4.812  1.00  0.00     0.292 C 
HETATM   33  C   UNL     1     -16.584 -12.559  -6.267  1.00  0.00     0.204 C 
HETATM   34  C   UNL     1     -16.358 -14.017  -6.749  1.00  0.00     0.183 C 
HETATM   35  O   UNL     1     -14.987 -11.808  -4.296  1.00  0.00    -0.348 OA
HETATM   36  C   UNL     1     -15.104 -11.428  -2.881  1.00  0.00     0.187 C 
HETATM   37  C   UNL     1     -15.796 -12.422  -1.890  1.00  0.00     0.180 C 
HETATM   38  O   UNL     1     -17.250 -12.557  -2.005  1.00  0.00    -0.348 OA
HETATM   39  C   UNL     1     -18.083 -11.602  -2.766  1.00  0.00     0.292 C 
HETATM   40  O   UNL     1     -18.728 -12.015  -4.263  1.00  0.00    -0.348 OA
HETATM   41  C   UNL     1     -17.322 -10.134  -2.811  1.00  0.00     0.204 C 
HETATM   42  C   UNL     1     -15.804 -10.108  -2.638  1.00  0.00     0.183 C 
ENDROOT
BRANCH   1  43
HETATM   43  C   UNL     1     -22.325 -11.068  -6.335  1.00  0.00     0.198 C 
BRANCH  43  44
HETATM   44  O   UNL     1     -22.605 -12.385  -6.792  1.00  0.00    -0.398 OA
HETATM   45  H   UNL     1     -23.496 -12.362  -7.213  1.00  0.00     0.209 HD
ENDBRANCH  43  44
ENDBRANCH   1  43
BRANCH   3  46
HETATM   46  O   UNL     1     -21.025 -12.870  -2.929  1.00  0.00    -0.390 OA
HETATM   47  H   UNL     1     -20.441 -13.594  -3.247  1.00  0.00     0.210 HD
ENDBRANCH   3  46
BRANCH   4  48
HETATM   48  O   UNL     1     -19.889 -10.307  -3.176  1.00  0.00    -0.388 OA
HETATM   49  H   UNL     1     -19.740 -10.287  -2.196  1.00  0.00     0.210 HD
ENDBRANCH   4  48
BRANCH  41  50
HETATM   50  O   UNL     1     -17.693  -9.098  -1.865  1.00  0.00    -0.388 OA
HETATM   51  H   UNL     1     -16.928  -8.882  -1.294  1.00  0.00     0.210 HD
ENDBRANCH  41  50
BRANCH  37  52
HETATM   52  C   UNL     1     -15.389 -12.126  -0.412  1.00  0.00     0.198 C 
BRANCH  52  53
HETATM   53  O   UNL     1     -16.305 -12.715   0.513  1.00  0.00    -0.398 OA
HETATM   54  H   UNL     1     -16.489 -12.034   1.184  1.00  0.00     0.209 HD
ENDBRANCH  52  53
ENDBRANCH  37  52
BRANCH  42  55
HETATM   55  O   UNL     1     -15.271  -9.012  -3.393  1.00  0.00    -0.390 OA
HETATM   56  H   UNL     1     -15.625  -8.208  -2.958  1.00  0.00     0.210 HD
ENDBRANCH  42  55
BRANCH   9  57
HETATM   57  C   UNL     1     -19.632  -9.913   0.680  1.00  0.00     0.198 C 
BRANCH  57  58
HETATM   58  O   UNL     1     -20.517  -9.184   1.551  1.00  0.00    -0.398 OA
HETATM   59  H   UNL     1     -20.710  -9.779   2.307  1.00  0.00     0.209 HD
ENDBRANCH  57  58
ENDBRANCH   9  57
BRANCH  13  60
HETATM   60  O   UNL     1     -22.628  -7.224  -1.689  1.00  0.00    -0.390 OA
HETATM   61  H   UNL     1     -22.188  -7.225  -2.564  1.00  0.00     0.210 HD
ENDBRANCH  13  60
BRANCH  12  62
HETATM   62  O   UNL     1     -23.975  -9.227   0.223  1.00  0.00    -0.388 OA
HETATM   63  H   UNL     1     -24.195  -8.282   0.158  1.00  0.00     0.210 HD
ENDBRANCH  12  62
BRANCH  33  64
HETATM   64  O   UNL     1     -16.059 -11.531  -7.118  1.00  0.00    -0.388 OA
HETATM   65  H   UNL     1     -16.824 -11.082  -7.534  1.00  0.00     0.210 HD
ENDBRANCH  33  64
BRANCH  30  66
HETATM   66  C   UNL     1     -14.278 -14.471  -4.424  1.00  0.00     0.198 C 
BRANCH  66  67
HETATM   67  O   UNL     1     -13.680 -14.876  -3.206  1.00  0.00    -0.398 OA
HETATM   68  H   UNL     1     -13.703 -15.848  -3.187  1.00  0.00     0.209 HD
ENDBRANCH  66  67
ENDBRANCH  30  66
BRANCH  34  69
HETATM   69  O   UNL     1     -17.186 -14.317  -7.874  1.00  0.00    -0.390 OA
HETATM   70  H   UNL     1     -16.788 -13.910  -8.661  1.00  0.00     0.210 HD
ENDBRANCH  34  69
BRANCH  16  71
HETATM   71  C   UNL     1     -20.444 -15.044   1.109  1.00  0.00     0.198 C 
BRANCH  71  72
HETATM   72  O   UNL     1     -19.058 -15.348   1.055  1.00  0.00    -0.398 OA
HETATM   73  H   UNL     1     -18.840 -15.541   0.127  1.00  0.00     0.209 HD
ENDBRANCH  71  72
ENDBRANCH  16  71
BRANCH  20  74
HETATM   74  O   UNL     1     -24.460 -13.043   0.659  1.00  0.00    -0.390 OA
HETATM   75  H   UNL     1     -25.197 -13.652   0.869  1.00  0.00     0.210 HD
ENDBRANCH  20  74
BRANCH  19  76
HETATM   76  O   UNL     1     -24.304 -15.363  -1.193  1.00  0.00    -0.388 OA
HETATM   77  H   UNL     1     -24.649 -15.270  -2.104  1.00  0.00     0.210 HD
ENDBRANCH  19  76
BRANCH  26  78
HETATM   78  O   UNL     1     -20.327 -16.112  -6.429  1.00  0.00    -0.388 OA
HETATM   79  H   UNL     1     -19.702 -16.853  -6.557  1.00  0.00     0.210 HD
ENDBRANCH  26  78
BRANCH  23  80
HETATM   80  C   UNL     1     -17.966 -17.183  -2.533  1.00  0.00     0.198 C 
BRANCH  80  81
HETATM   81  O   UNL     1     -16.808 -16.832  -1.787  1.00  0.00    -0.398 OA
HETATM   82  H   UNL     1     -16.983 -15.977  -1.355  1.00  0.00     0.209 HD
ENDBRANCH  80  81
ENDBRANCH  23  80
BRANCH  27  83
HETATM   83  O   UNL     1     -22.158 -17.183  -4.334  1.00  0.00    -0.390 OA
HETATM   84  H   UNL     1     -22.497 -17.657  -3.557  1.00  0.00     0.210 HD
ENDBRANCH  27  83
TORSDOF 24
ENDMDL
MODEL 9
REMARK VINA RESULT:      -1.9      1.702      6.428
REMARK  24 active torsions:
REMARK  status: ('A' for Active; 'I' for Inactive)
REMARK    1  A    between atoms: C_1  and  C_2 
REMARK    2  A    between atoms: C_1  and  O_66 
REMARK    3  A    between atoms: C_4  and  O_65 
REMARK    4  A    between atoms: C_5  and  O_64 
REMARK    5  A    between atoms: C_10  and  C_62 
REMARK    6  A    between atoms: C_13  and  O_16 
REMARK    7  A    between atoms: C_14  and  O_15 
REMARK    8  A    between atoms: C_19  and  C_60 
REMARK    9  A    between atoms: C_22  and  O_25 
REMARK   10  A    between atoms: C_23  and  O_24 
REMARK   11  A    between atoms: C_28  and  C_58 
REMARK   12  A    between atoms: C_31  and  O_34 
REMARK   13  A    between atoms: C_32  and  O_33 
REMARK   14  A    between atoms: C_37  and  C_56 
REMARK   15  A    between atoms: C_40  and  O_43 
REMARK   16  A    between atoms: C_41  and  O_42 
REMARK   17  A    between atoms: C_46  and  C_54 
REMARK   18  A    between atoms: C_50  and  O_53 
REMARK   19  A    between atoms: C_51  and  O_52 
REMARK   20  A    between atoms: C_54  and  O_55 
REMARK   21  A    between atoms: C_56  and  O_57 
REMARK   22  A    between atoms: C_58  and  O_59 
REMARK   23  A    between atoms: C_60  and  O_61 
REMARK   24  A    between atoms: C_62  and  O_63 
ROOT
HETATM    1  C   UNL     1     -18.714 -16.645  -1.922  1.00  0.00     0.180 C 
HETATM    2  C   UNL     1     -18.346 -15.152  -2.452  1.00  0.00     0.187 C 
HETATM    3  C   UNL     1     -19.418 -14.425  -1.769  1.00  0.00     0.183 C 
HETATM    4  C   UNL     1     -20.671 -15.011  -2.314  1.00  0.00     0.204 C 
HETATM    5  C   UNL     1     -21.172 -16.380  -2.281  1.00  0.00     0.292 C 
HETATM    6  O   UNL     1     -19.953 -17.183  -2.553  1.00  0.00    -0.348 OA
HETATM    7  O   UNL     1     -22.168 -16.379  -3.430  1.00  0.00    -0.348 OA
HETATM    8  C   UNL     1     -22.885 -15.063  -3.977  1.00  0.00     0.187 C 
HETATM    9  C   UNL     1     -22.281 -13.599  -4.320  1.00  0.00     0.180 C 
HETATM   10  O   UNL     1     -21.757 -12.874  -3.219  1.00  0.00    -0.348 OA
HETATM   11  C   UNL     1     -22.642 -12.569  -2.192  1.00  0.00     0.292 C 
HETATM   12  C   UNL     1     -23.722 -13.740  -1.927  1.00  0.00     0.204 C 
HETATM   13  C   UNL     1     -24.049 -14.774  -3.060  1.00  0.00     0.183 C 
HETATM   14  O   UNL     1     -23.028 -11.227  -2.422  1.00  0.00    -0.348 OA
HETATM   15  C   UNL     1     -21.981 -10.180  -2.236  1.00  0.00     0.187 C 
HETATM   16  C   UNL     1     -20.634 -10.122  -3.038  1.00  0.00     0.180 C 
HETATM   17  O   UNL     1     -19.538 -10.856  -2.504  1.00  0.00    -0.348 OA
HETATM   18  C   UNL     1     -19.152 -10.705  -1.143  1.00  0.00     0.292 C 
HETATM   19  C   UNL     1     -20.403 -10.583  -0.206  1.00  0.00     0.204 C 
HETATM   20  C   UNL     1     -21.679  -9.898  -0.756  1.00  0.00     0.183 C 
HETATM   21  O   UNL     1     -18.052  -9.805  -1.006  1.00  0.00    -0.348 OA
HETATM   22  C   UNL     1     -16.732 -10.188  -1.584  1.00  0.00     0.187 C 
HETATM   23  C   UNL     1     -16.656 -10.535  -3.100  1.00  0.00     0.180 C 
HETATM   24  O   UNL     1     -16.722 -11.933  -3.427  1.00  0.00    -0.348 OA
HETATM   25  C   UNL     1     -15.773 -12.831  -2.856  1.00  0.00     0.292 C 
HETATM   26  C   UNL     1     -15.765 -12.631  -1.307  1.00  0.00     0.204 C 
HETATM   27  C   UNL     1     -15.790 -11.159  -0.810  1.00  0.00     0.183 C 
HETATM   28  O   UNL     1     -14.452 -12.899  -3.446  1.00  0.00    -0.348 OA
HETATM   29  C   UNL     1     -14.212 -13.603  -4.735  1.00  0.00     0.187 C 
HETATM   30  C   UNL     1     -15.070 -13.058  -5.864  1.00  0.00     0.180 C 
HETATM   31  O   UNL     1     -16.344 -13.624  -5.636  1.00  0.00    -0.348 OA
HETATM   32  C   UNL     1     -16.515 -14.964  -6.025  1.00  0.00     0.292 C 
HETATM   33  C   UNL     1     -15.618 -15.841  -5.159  1.00  0.00     0.204 C 
HETATM   34  C   UNL     1     -14.253 -15.186  -4.816  1.00  0.00     0.183 C 
HETATM   35  O   UNL     1     -16.689 -14.992  -7.425  1.00  0.00    -0.348 OA
HETATM   36  C   UNL     1     -17.870 -14.231  -7.856  1.00  0.00     0.187 C 
HETATM   37  C   UNL     1     -18.107 -12.806  -7.254  1.00  0.00     0.180 C 
HETATM   38  O   UNL     1     -18.542 -12.747  -5.858  1.00  0.00    -0.348 OA
HETATM   39  C   UNL     1     -19.049 -13.930  -5.129  1.00  0.00     0.292 C 
HETATM   40  O   UNL     1     -18.107 -14.701  -3.969  1.00  0.00    -0.348 OA
HETATM   41  C   UNL     1     -19.687 -15.003  -6.212  1.00  0.00     0.204 C 
HETATM   42  C   UNL     1     -19.189 -14.947  -7.656  1.00  0.00     0.183 C 
ENDROOT
BRANCH   1  43
HETATM   43  C   UNL     1     -18.927 -16.732  -0.317  1.00  0.00     0.198 C 
BRANCH  43  44
HETATM   44  O   UNL     1     -17.722 -16.660   0.433  1.00  0.00    -0.398 OA
HETATM   45  H   UNL     1     -17.173 -17.437   0.175  1.00  0.00     0.209 HD
ENDBRANCH  43  44
ENDBRANCH   1  43
BRANCH   3  46
HETATM   46  O   UNL     1     -19.309 -13.072  -2.049  1.00  0.00    -0.390 OA
HETATM   47  H   UNL     1     -18.375 -12.801  -2.187  1.00  0.00     0.210 HD
ENDBRANCH   3  46
BRANCH   4  48
HETATM   48  O   UNL     1     -20.398 -15.062  -3.714  1.00  0.00    -0.388 OA
HETATM   49  H   UNL     1     -20.934 -15.801  -4.099  1.00  0.00     0.210 HD
ENDBRANCH   4  48
BRANCH  41  50
HETATM   50  O   UNL     1     -21.118 -15.026  -6.449  1.00  0.00    -0.388 OA
HETATM   51  H   UNL     1     -21.493 -14.134  -6.300  1.00  0.00     0.210 HD
ENDBRANCH  41  50
BRANCH  37  52
HETATM   52  C   UNL     1     -19.056 -11.959  -8.160  1.00  0.00     0.198 C 
BRANCH  52  53
HETATM   53  O   UNL     1     -20.237 -11.565  -7.459  1.00  0.00    -0.398 OA
HETATM   54  H   UNL     1     -20.932 -12.194  -7.721  1.00  0.00     0.209 HD
ENDBRANCH  52  53
ENDBRANCH  37  52
BRANCH  42  55
HETATM   55  O   UNL     1     -19.232 -16.267  -8.212  1.00  0.00    -0.390 OA
HETATM   56  H   UNL     1     -18.293 -16.538  -8.297  1.00  0.00     0.210 HD
ENDBRANCH  42  55
BRANCH   9  57
HETATM   57  C   UNL     1     -22.954 -12.563  -5.238  1.00  0.00     0.198 C 
BRANCH  57  58
HETATM   58  O   UNL     1     -23.637 -13.216  -6.324  1.00  0.00    -0.398 OA
HETATM   59  H   UNL     1     -23.248 -14.115  -6.392  1.00  0.00     0.209 HD
ENDBRANCH  57  58
ENDBRANCH   9  57
BRANCH  13  60
HETATM   60  O   UNL     1     -24.504 -16.034  -2.523  1.00  0.00    -0.390 OA
HETATM   61  H   UNL     1     -24.114 -16.120  -1.629  1.00  0.00     0.210 HD
ENDBRANCH  13  60
BRANCH  12  62
HETATM   62  O   UNL     1     -24.910 -13.224  -1.328  1.00  0.00    -0.388 OA
HETATM   63  H   UNL     1     -25.019 -13.655  -0.463  1.00  0.00     0.210 HD
ENDBRANCH  12  62
BRANCH  33  64
HETATM   64  O   UNL     1     -15.560 -17.183  -5.660  1.00  0.00    -0.388 OA
HETATM   65  H   UNL     1     -16.447 -17.577  -5.532  1.00  0.00     0.210 HD
ENDBRANCH  33  64
BRANCH  30  66
HETATM   66  C   UNL     1     -14.542 -13.264  -7.298  1.00  0.00     0.198 C 
BRANCH  66  67
HETATM   67  O   UNL     1     -14.199 -12.031  -7.902  1.00  0.00    -0.398 OA
HETATM   68  H   UNL     1     -13.246 -12.065  -8.097  1.00  0.00     0.209 HD
ENDBRANCH  66  67
ENDBRANCH  30  66
BRANCH  34  69
HETATM   69  O   UNL     1     -13.694 -15.762  -3.634  1.00  0.00    -0.390 OA
HETATM   70  H   UNL     1     -13.727 -16.729  -3.722  1.00  0.00     0.210 HD
ENDBRANCH  34  69
BRANCH  16  71
HETATM   71  C   UNL     1     -20.131  -8.676  -3.216  1.00  0.00     0.198 C 
BRANCH  71  72
HETATM   72  O   UNL     1     -21.184  -7.809  -3.612  1.00  0.00    -0.398 OA
HETATM   73  H   UNL     1     -21.997  -8.123  -3.178  1.00  0.00     0.209 HD
ENDBRANCH  71  72
ENDBRANCH  16  71
BRANCH  20  74
HETATM   74  O   UNL     1     -22.835 -10.252   0.031  1.00  0.00    -0.390 OA
HETATM   75  H   UNL     1     -22.634 -11.090   0.494  1.00  0.00     0.210 HD
ENDBRANCH  20  74
BRANCH  19  76
HETATM   76  O   UNL     1     -20.072  -9.986   1.095  1.00  0.00    -0.388 OA
HETATM   77  H   UNL     1     -19.554 -10.646   1.600  1.00  0.00     0.210 HD
ENDBRANCH  19  76
BRANCH  26  78
HETATM   78  O   UNL     1     -14.684 -13.374  -0.720  1.00  0.00    -0.388 OA
HETATM   79  H   UNL     1     -15.087 -14.077  -0.172  1.00  0.00     0.210 HD
ENDBRANCH  26  78
BRANCH  23  80
HETATM   80  C   UNL     1     -15.423  -9.902  -3.769  1.00  0.00     0.198 C 
BRANCH  80  81
HETATM   81  O   UNL     1     -15.596  -9.768  -5.173  1.00  0.00    -0.398 OA
HETATM   82  H   UNL     1     -14.772  -9.399  -5.539  1.00  0.00     0.209 HD
ENDBRANCH  80  81
ENDBRANCH  23  80
BRANCH  27  83
HETATM   83  O   UNL     1     -16.024 -11.062   0.603  1.00  0.00    -0.390 OA
HETATM   84  H   UNL     1     -15.183 -10.852   1.041  1.00  0.00     0.210 HD
ENDBRANCH  27  83
TORSDOF 24
ENDMDL
