MODEL 1
REMARK VINA RESULT:      -1.3      0.000      0.000
REMARK  7 active torsions:
REMARK  status: ('A' for Active; 'I' for Inactive)
REMARK    1  A    between atoms: C_1  and  C_2 
REMARK    2  A    between atoms: C_1  and  C_5 
REMARK    3  A    between atoms: C_5  and  C_6 
REMARK    4  A    between atoms: C_5  and  C_10 
REMARK    5  A    between atoms: C_5  and  O_13 
REMARK    6  A    between atoms: C_6  and  C_7 
REMARK    7  A    between atoms: C_10  and  O_12 
ROOT
HETATM    1  K   UNL     3     -32.324  -8.576   4.529  1.00  0.00     0.000 K 
ENDROOT
TORSDOF 7
ENDMDL
MODEL 2
REMARK VINA RESULT:      -1.3     23.494     23.494
REMARK  7 active torsions:
REMARK  status: ('A' for Active; 'I' for Inactive)
REMARK    1  A    between atoms: C_1  and  C_2 
REMARK    2  A    between atoms: C_1  and  C_5 
REMARK    3  A    between atoms: C_5  and  C_6 
REMARK    4  A    between atoms: C_5  and  C_10 
REMARK    5  A    between atoms: C_5  and  O_13 
REMARK    6  A    between atoms: C_6  and  C_7 
REMARK    7  A    between atoms: C_10  and  O_12 
ROOT
HETATM    1  K   UNL     3     -11.257   1.620   2.468  1.00  0.00     0.000 K 
ENDROOT
TORSDOF 7
ENDMDL
MODEL 3
REMARK VINA RESULT:      -1.2     19.033     19.033
REMARK  7 active torsions:
REMARK  status: ('A' for Active; 'I' for Inactive)
REMARK    1  A    between atoms: C_1  and  C_2 
REMARK    2  A    between atoms: C_1  and  C_5 
REMARK    3  A    between atoms: C_5  and  C_6 
REMARK    4  A    between atoms: C_5  and  C_10 
REMARK    5  A    between atoms: C_5  and  O_13 
REMARK    6  A    between atoms: C_6  and  C_7 
REMARK    7  A    between atoms: C_10  and  O_12 
ROOT
HETATM    1  K   UNL     3     -27.015 -13.665 -13.026  1.00  0.00     0.000 K 
ENDROOT
TORSDOF 7
ENDMDL
MODEL 4
REMARK VINA RESULT:      -1.2     22.209     22.209
REMARK  7 active torsions:
REMARK  status: ('A' for Active; 'I' for Inactive)
REMARK    1  A    between atoms: C_1  and  C_2 
REMARK    2  A    between atoms: C_1  and  C_5 
REMARK    3  A    between atoms: C_5  and  C_6 
REMARK    4  A    between atoms: C_5  and  C_10 
REMARK    5  A    between atoms: C_5  and  O_13 
REMARK    6  A    between atoms: C_6  and  C_7 
REMARK    7  A    between atoms: C_10  and  O_12 
ROOT
HETATM    1  K   UNL     3     -25.113   0.407 -14.459  1.00  0.00     0.000 K 
ENDROOT
TORSDOF 7
ENDMDL
MODEL 5
REMARK VINA RESULT:      -1.2     14.864     14.864
REMARK  7 active torsions:
REMARK  status: ('A' for Active; 'I' for Inactive)
REMARK    1  A    between atoms: C_1  and  C_2 
REMARK    2  A    between atoms: C_1  and  C_5 
REMARK    3  A    between atoms: C_5  and  C_6 
REMARK    4  A    between atoms: C_5  and  C_10 
REMARK    5  A    between atoms: C_5  and  O_13 
REMARK    6  A    between atoms: C_6  and  C_7 
REMARK    7  A    between atoms: C_10  and  O_12 
ROOT
HETATM    1  K   UNL     3     -27.303  -5.627  -9.147  1.00  0.00     0.000 K 
ENDROOT
TORSDOF 7
ENDMDL
MODEL 6
REMARK VINA RESULT:      -1.1     12.328     12.328
REMARK  7 active torsions:
REMARK  status: ('A' for Active; 'I' for Inactive)
REMARK    1  A    between atoms: C_1  and  C_2 
REMARK    2  A    between atoms: C_1  and  C_5 
REMARK    3  A    between atoms: C_5  and  C_6 
REMARK    4  A    between atoms: C_5  and  C_10 
REMARK    5  A    between atoms: C_5  and  O_13 
REMARK    6  A    between atoms: C_6  and  C_7 
REMARK    7  A    between atoms: C_10  and  O_12 
ROOT
HETATM    1  K   UNL     3     -25.223  -5.220  -4.974  1.00  0.00     0.000 K 
ENDROOT
TORSDOF 7
ENDMDL
MODEL 7
REMARK VINA RESULT:      -1.0      9.902      9.902
REMARK  7 active torsions:
REMARK  status: ('A' for Active; 'I' for Inactive)
REMARK    1  A    between atoms: C_1  and  C_2 
REMARK    2  A    between atoms: C_1  and  C_5 
REMARK    3  A    between atoms: C_5  and  C_6 
REMARK    4  A    between atoms: C_5  and  C_10 
REMARK    5  A    between atoms: C_5  and  O_13 
REMARK    6  A    between atoms: C_6  and  C_7 
REMARK    7  A    between atoms: C_10  and  O_12 
ROOT
HETATM    1  K   UNL     3     -32.732  -6.045  -5.036  1.00  0.00     0.000 K 
ENDROOT
TORSDOF 7
ENDMDL
MODEL 8
REMARK VINA RESULT:      -1.0     25.531     25.531
REMARK  7 active torsions:
REMARK  status: ('A' for Active; 'I' for Inactive)
REMARK    1  A    between atoms: C_1  and  C_2 
REMARK    2  A    between atoms: C_1  and  C_5 
REMARK    3  A    between atoms: C_5  and  C_6 
REMARK    4  A    between atoms: C_5  and  C_10 
REMARK    5  A    between atoms: C_5  and  O_13 
REMARK    6  A    between atoms: C_6  and  C_7 
REMARK    7  A    between atoms: C_10  and  O_12 
ROOT
HETATM    1  K   UNL     3     -23.186   0.205 -17.636  1.00  0.00     0.000 K 
ENDROOT
TORSDOF 7
ENDMDL
MODEL 9
REMARK VINA RESULT:      -1.0     15.718     15.718
REMARK  7 active torsions:
REMARK  status: ('A' for Active; 'I' for Inactive)
REMARK    1  A    between atoms: C_1  and  C_2 
REMARK    2  A    between atoms: C_1  and  C_5 
REMARK    3  A    between atoms: C_5  and  C_6 
REMARK    4  A    between atoms: C_5  and  C_10 
REMARK    5  A    between atoms: C_5  and  O_13 
REMARK    6  A    between atoms: C_6  and  C_7 
REMARK    7  A    between atoms: C_10  and  O_12 
ROOT
HETATM    1  K   UNL     3     -26.954  -3.577  -9.372  1.00  0.00     0.000 K 
ENDROOT
TORSDOF 7
ENDMDL
