MODEL 1
REMARK VINA RESULT:      -6.4      0.000      0.000
REMARK  6 active torsions:
REMARK  status: ('A' for Active; 'I' for Inactive)
REMARK    1  A    between atoms: C_1  and  C_2 
REMARK    2  A    between atoms: C_1  and  O_12 
REMARK    3  A    between atoms: C_2  and  C_3 
REMARK    4  A    between atoms: C_2  and  O_11 
REMARK    5  A    between atoms: C_4  and  O_10 
REMARK    6  A    between atoms: C_5  and  O_9 
ROOT
HETATM    1  C   UNL     1     -23.166  -2.416 -12.370  1.00  0.00     0.222 A 
HETATM    2  C   UNL     1     -22.133  -3.112 -11.567  1.00  0.00     0.114 A 
HETATM    3  C   UNL     1     -22.681  -3.860 -10.616  1.00  0.00     0.173 A 
HETATM    4  C   UNL     1     -24.139  -3.666 -10.717  1.00  0.00     0.320 A 
HETATM    5  O   UNL     1     -24.991  -4.198 -10.032  1.00  0.00    -0.257 OA
HETATM    6  O   UNL     1     -24.399  -2.803 -11.753  1.00  0.00    -0.301 OA
ENDROOT
BRANCH   1   7
HETATM    7  C   UNL     1     -23.144  -2.806 -13.854  1.00  0.00     0.177 C 
BRANCH   7   8
HETATM    8  C   UNL     1     -23.568  -1.681 -14.810  1.00  0.00     0.198 C 
BRANCH   8   9
HETATM    9  O   UNL     1     -24.793  -1.119 -14.332  1.00  0.00    -0.398 OA
HETATM   10  H   UNL     1     -24.776  -1.167 -13.358  1.00  0.00     0.209 HD
ENDBRANCH   8   9
ENDBRANCH   7   8
BRANCH   7  11
HETATM   11  O   UNL     1     -24.009  -3.947 -14.046  1.00  0.00    -0.390 OA
HETATM   12  H   UNL     1     -23.483  -4.726 -13.762  1.00  0.00     0.210 HD
ENDBRANCH   7  11
ENDBRANCH   1   7
BRANCH   2  13
HETATM   13  O   UNL     1     -20.791  -3.024 -11.833  1.00  0.00    -0.359 OA
HETATM   14  H   UNL     1     -20.508  -3.892 -12.198  1.00  0.00     0.217 HD
ENDBRANCH   2  13
BRANCH   3  15
HETATM   15  O   UNL     1     -22.032  -4.689  -9.751  1.00  0.00    -0.353 OA
HETATM   16  H   UNL     1     -22.664  -5.401  -9.537  1.00  0.00     0.218 HD
ENDBRANCH   3  15
TORSDOF 6
ENDMDL
MODEL 2
REMARK VINA RESULT:      -6.1      1.695      3.119
REMARK  6 active torsions:
REMARK  status: ('A' for Active; 'I' for Inactive)
REMARK    1  A    between atoms: C_1  and  C_2 
REMARK    2  A    between atoms: C_1  and  O_12 
REMARK    3  A    between atoms: C_2  and  C_3 
REMARK    4  A    between atoms: C_2  and  O_11 
REMARK    5  A    between atoms: C_4  and  O_10 
REMARK    6  A    between atoms: C_5  and  O_9 
ROOT
HETATM    1  C   UNL     1     -23.385  -4.710 -11.246  1.00  0.00     0.222 A 
HETATM    2  C   UNL     1     -23.897  -4.541  -9.865  1.00  0.00     0.114 A 
HETATM    3  C   UNL     1     -22.919  -4.241  -9.019  1.00  0.00     0.173 A 
HETATM    4  C   UNL     1     -21.672  -4.232  -9.805  1.00  0.00     0.320 A 
HETATM    5  O   UNL     1     -20.556  -3.978  -9.393  1.00  0.00    -0.257 OA
HETATM    6  O   UNL     1     -21.972  -4.521 -11.114  1.00  0.00    -0.301 OA
ENDROOT
BRANCH   1   7
HETATM    7  C   UNL     1     -23.986  -3.710 -12.243  1.00  0.00     0.177 C 
BRANCH   7   8
HETATM    8  C   UNL     1     -22.986  -2.677 -12.784  1.00  0.00     0.198 C 
BRANCH   8   9
HETATM    9  O   UNL     1     -22.184  -3.309 -13.786  1.00  0.00    -0.398 OA
HETATM   10  H   UNL     1     -21.432  -2.718 -13.974  1.00  0.00     0.209 HD
ENDBRANCH   8   9
ENDBRANCH   7   8
BRANCH   7  11
HETATM   11  O   UNL     1     -25.084  -3.023 -11.603  1.00  0.00    -0.390 OA
HETATM   12  H   UNL     1     -25.482  -3.677 -10.989  1.00  0.00     0.210 HD
ENDBRANCH   7  11
ENDBRANCH   1   7
BRANCH   2  13
HETATM   13  O   UNL     1     -25.227  -4.629  -9.543  1.00  0.00    -0.359 OA
HETATM   14  H   UNL     1     -25.736  -4.248 -10.294  1.00  0.00     0.217 HD
ENDBRANCH   2  13
BRANCH   3  15
HETATM   15  O   UNL     1     -23.045  -3.944  -7.695  1.00  0.00    -0.353 OA
HETATM   16  H   UNL     1     -23.746  -4.532  -7.355  1.00  0.00     0.218 HD
ENDBRANCH   3  15
TORSDOF 6
ENDMDL
MODEL 3
REMARK VINA RESULT:      -6.1      1.489      3.894
REMARK  6 active torsions:
REMARK  status: ('A' for Active; 'I' for Inactive)
REMARK    1  A    between atoms: C_1  and  C_2 
REMARK    2  A    between atoms: C_1  and  O_12 
REMARK    3  A    between atoms: C_2  and  C_3 
REMARK    4  A    between atoms: C_2  and  O_11 
REMARK    5  A    between atoms: C_4  and  O_10 
REMARK    6  A    between atoms: C_5  and  O_9 
ROOT
HETATM    1  C   UNL     1     -22.361  -4.471 -11.480  1.00  0.00     0.222 A 
HETATM    2  C   UNL     1     -22.833  -3.620 -12.598  1.00  0.00     0.114 A 
HETATM    3  C   UNL     1     -23.986  -3.029 -12.303  1.00  0.00     0.173 A 
HETATM    4  C   UNL     1     -24.365  -3.497 -10.958  1.00  0.00     0.320 A 
HETATM    5  O   UNL     1     -25.350  -3.166 -10.325  1.00  0.00    -0.257 OA
HETATM    6  O   UNL     1     -23.396  -4.354 -10.497  1.00  0.00    -0.301 OA
ENDROOT
BRANCH   1   7
HETATM    7  C   UNL     1     -21.006  -4.028 -10.911  1.00  0.00     0.177 C 
BRANCH   7   8
HETATM    8  C   UNL     1     -20.985  -3.859  -9.385  1.00  0.00     0.198 C 
BRANCH   8   9
HETATM    9  O   UNL     1     -21.391  -5.094  -8.788  1.00  0.00    -0.398 OA
HETATM   10  H   UNL     1     -20.587  -5.624  -8.636  1.00  0.00     0.209 HD
ENDBRANCH   8   9
ENDBRANCH   7   8
BRANCH   7  11
HETATM   11  O   UNL     1     -20.627  -2.783 -11.536  1.00  0.00    -0.390 OA
HETATM   12  H   UNL     1     -20.893  -2.080 -10.905  1.00  0.00     0.210 HD
ENDBRANCH   7  11
ENDBRANCH   1   7
BRANCH   2  13
HETATM   13  O   UNL     1     -22.120  -3.437 -13.754  1.00  0.00    -0.359 OA
HETATM   14  H   UNL     1     -21.319  -4.005 -13.696  1.00  0.00     0.217 HD
ENDBRANCH   2  13
BRANCH   3  15
HETATM   15  O   UNL     1     -24.659  -2.123 -13.067  1.00  0.00    -0.353 OA
HETATM   16  H   UNL     1     -24.254  -2.168 -13.954  1.00  0.00     0.218 HD
ENDBRANCH   3  15
TORSDOF 6
ENDMDL
MODEL 4
REMARK VINA RESULT:      -5.8      1.863      4.309
REMARK  6 active torsions:
REMARK  status: ('A' for Active; 'I' for Inactive)
REMARK    1  A    between atoms: C_1  and  C_2 
REMARK    2  A    between atoms: C_1  and  O_12 
REMARK    3  A    between atoms: C_2  and  C_3 
REMARK    4  A    between atoms: C_2  and  O_11 
REMARK    5  A    between atoms: C_4  and  O_10 
REMARK    6  A    between atoms: C_5  and  O_9 
ROOT
HETATM    1  C   UNL     1     -23.529  -4.380 -10.436  1.00  0.00     0.222 A 
HETATM    2  C   UNL     1     -22.404  -4.196 -11.384  1.00  0.00     0.114 A 
HETATM    3  C   UNL     1     -22.812  -3.633 -12.516  1.00  0.00     0.173 A 
HETATM    4  C   UNL     1     -24.269  -3.444 -12.390  1.00  0.00     0.320 A 
HETATM    5  O   UNL     1     -25.008  -2.937 -13.211  1.00  0.00    -0.257 OA
HETATM    6  O   UNL     1     -24.669  -3.900 -11.158  1.00  0.00    -0.301 OA
ENDROOT
BRANCH   1   7
HETATM    7  C   UNL     1     -23.343  -3.611  -9.120  1.00  0.00     0.177 C 
BRANCH   7   8
HETATM    8  C   UNL     1     -22.881  -4.479  -7.940  1.00  0.00     0.198 C 
BRANCH   8   9
HETATM    9  O   UNL     1     -23.841  -4.356  -6.887  1.00  0.00    -0.398 OA
HETATM   10  H   UNL     1     -24.675  -4.046  -7.285  1.00  0.00     0.209 HD
ENDBRANCH   8   9
ENDBRANCH   7   8
BRANCH   7  11
HETATM   11  O   UNL     1     -24.591  -2.968  -8.781  1.00  0.00    -0.390 OA
HETATM   12  H   UNL     1     -25.232  -3.696  -8.635  1.00  0.00     0.210 HD
ENDBRANCH   7  11
ENDBRANCH   1   7
BRANCH   2  13
HETATM   13  O   UNL     1     -21.107  -4.520 -11.081  1.00  0.00    -0.359 OA
HETATM   14  H   UNL     1     -20.571  -4.372 -11.892  1.00  0.00     0.217 HD
ENDBRANCH   2  13
BRANCH   3  15
HETATM   15  O   UNL     1     -22.033  -3.253 -13.567  1.00  0.00    -0.353 OA
HETATM   16  H   UNL     1     -22.434  -2.433 -13.915  1.00  0.00     0.218 HD
ENDBRANCH   3  15
TORSDOF 6
ENDMDL
MODEL 5
REMARK VINA RESULT:      -5.4      1.921      4.689
REMARK  6 active torsions:
REMARK  status: ('A' for Active; 'I' for Inactive)
REMARK    1  A    between atoms: C_1  and  C_2 
REMARK    2  A    between atoms: C_1  and  O_12 
REMARK    3  A    between atoms: C_2  and  C_3 
REMARK    4  A    between atoms: C_2  and  O_11 
REMARK    5  A    between atoms: C_4  and  O_10 
REMARK    6  A    between atoms: C_5  and  O_9 
ROOT
HETATM    1  C   UNL     1     -22.212  -4.447  -9.899  1.00  0.00     0.222 A 
HETATM    2  C   UNL     1     -22.038  -3.616 -11.114  1.00  0.00     0.114 A 
HETATM    3  C   UNL     1     -23.180  -3.045 -11.478  1.00  0.00     0.173 A 
HETATM    4  C   UNL     1     -24.204  -3.508 -10.525  1.00  0.00     0.320 A 
HETATM    5  O   UNL     1     -25.378  -3.191 -10.509  1.00  0.00    -0.257 OA
HETATM    6  O   UNL     1     -23.611  -4.341  -9.609  1.00  0.00    -0.301 OA
ENDROOT
BRANCH   1   7
HETATM    7  C   UNL     1     -21.363  -3.972  -8.713  1.00  0.00     0.177 C 
BRANCH   7   8
HETATM    8  C   UNL     1     -20.404  -5.035  -8.156  1.00  0.00     0.198 C 
BRANCH   8   9
HETATM    9  O   UNL     1     -19.184  -4.389  -7.779  1.00  0.00    -0.398 OA
HETATM   10  H   UNL     1     -19.075  -3.611  -8.356  1.00  0.00     0.209 HD
ENDBRANCH   8   9
ENDBRANCH   7   8
BRANCH   7  11
HETATM   11  O   UNL     1     -22.246  -3.527  -7.661  1.00  0.00    -0.390 OA
HETATM   12  H   UNL     1     -21.949  -2.620  -7.433  1.00  0.00     0.210 HD
ENDBRANCH   7  11
ENDBRANCH   1   7
BRANCH   2  13
HETATM   13  O   UNL     1     -20.826  -3.429 -11.727  1.00  0.00    -0.359 OA
HETATM   14  H   UNL     1     -20.568  -4.288 -12.133  1.00  0.00     0.217 HD
ENDBRANCH   2  13
BRANCH   3  15
HETATM   15  O   UNL     1     -23.363  -2.160 -12.498  1.00  0.00    -0.353 OA
HETATM   16  H   UNL     1     -22.678  -1.474 -12.383  1.00  0.00     0.218 HD
ENDBRANCH   3  15
TORSDOF 6
ENDMDL
MODEL 6
REMARK VINA RESULT:      -5.3      7.675      9.342
REMARK  6 active torsions:
REMARK  status: ('A' for Active; 'I' for Inactive)
REMARK    1  A    between atoms: C_1  and  C_2 
REMARK    2  A    between atoms: C_1  and  O_12 
REMARK    3  A    between atoms: C_2  and  C_3 
REMARK    4  A    between atoms: C_2  and  O_11 
REMARK    5  A    between atoms: C_4  and  O_10 
REMARK    6  A    between atoms: C_5  and  O_9 
ROOT
HETATM    1  C   UNL     1     -28.824  -6.253 -17.029  1.00  0.00     0.222 A 
HETATM    2  C   UNL     1     -30.250  -6.035 -16.688  1.00  0.00     0.114 A 
HETATM    3  C   UNL     1     -31.047  -6.813 -17.413  1.00  0.00     0.173 A 
HETATM    4  C   UNL     1     -30.173  -7.577 -18.321  1.00  0.00     0.320 A 
HETATM    5  O   UNL     1     -30.523  -8.415 -19.130  1.00  0.00    -0.257 OA
HETATM    6  O   UNL     1     -28.868  -7.223 -18.082  1.00  0.00    -0.301 OA
ENDROOT
BRANCH   1   7
HETATM    7  C   UNL     1     -27.988  -6.758 -15.845  1.00  0.00     0.177 C 
BRANCH   7   8
HETATM    8  C   UNL     1     -26.474  -6.558 -16.009  1.00  0.00     0.198 C 
BRANCH   8   9
HETATM    9  O   UNL     1     -26.250  -5.729 -17.153  1.00  0.00    -0.398 OA
HETATM   10  H   UNL     1     -25.352  -5.919 -17.481  1.00  0.00     0.209 HD
ENDBRANCH   8   9
ENDBRANCH   7   8
BRANCH   7  11
HETATM   11  O   UNL     1     -28.267  -8.161 -15.648  1.00  0.00    -0.390 OA
HETATM   12  H   UNL     1     -27.488  -8.638 -16.007  1.00  0.00     0.210 HD
ENDBRANCH   7  11
ENDBRANCH   1   7
BRANCH   2  13
HETATM   13  O   UNL     1     -30.662  -5.177 -15.701  1.00  0.00    -0.359 OA
HETATM   14  H   UNL     1     -30.590  -5.659 -14.846  1.00  0.00     0.217 HD
ENDBRANCH   2  13
BRANCH   3  15
HETATM   15  O   UNL     1     -32.400  -6.925 -17.303  1.00  0.00    -0.353 OA
HETATM   16  H   UNL     1     -32.623  -6.616 -16.405  1.00  0.00     0.218 HD
ENDBRANCH   3  15
TORSDOF 6
ENDMDL
MODEL 7
REMARK VINA RESULT:      -5.2      2.451      3.397
REMARK  6 active torsions:
REMARK  status: ('A' for Active; 'I' for Inactive)
REMARK    1  A    between atoms: C_1  and  C_2 
REMARK    2  A    between atoms: C_1  and  O_12 
REMARK    3  A    between atoms: C_2  and  C_3 
REMARK    4  A    between atoms: C_2  and  O_11 
REMARK    5  A    between atoms: C_4  and  O_10 
REMARK    6  A    between atoms: C_5  and  O_9 
ROOT
HETATM    1  C   UNL     1     -22.609  -3.210 -10.672  1.00  0.00     0.222 A 
HETATM    2  C   UNL     1     -21.436  -3.795 -11.364  1.00  0.00     0.114 A 
HETATM    3  C   UNL     1     -20.587  -4.343 -10.502  1.00  0.00     0.173 A 
HETATM    4  C   UNL     1     -21.147  -4.111  -9.158  1.00  0.00     0.320 A 
HETATM    5  O   UNL     1     -20.672  -4.481  -8.101  1.00  0.00    -0.257 OA
HETATM    6  O   UNL     1     -22.334  -3.434  -9.284  1.00  0.00    -0.301 OA
ENDROOT
BRANCH   1   7
HETATM    7  C   UNL     1     -23.939  -3.855 -11.083  1.00  0.00     0.177 C 
BRANCH   7   8
HETATM    8  C   UNL     1     -24.829  -4.278  -9.905  1.00  0.00     0.198 C 
BRANCH   8   9
HETATM    9  O   UNL     1     -25.835  -3.279  -9.717  1.00  0.00    -0.398 OA
HETATM   10  H   UNL     1     -25.491  -2.633  -9.074  1.00  0.00     0.209 HD
ENDBRANCH   8   9
ENDBRANCH   7   8
BRANCH   7  11
HETATM   11  O   UNL     1     -23.659  -5.006 -11.909  1.00  0.00    -0.390 OA
HETATM   12  H   UNL     1     -23.397  -5.719 -11.287  1.00  0.00     0.210 HD
ENDBRANCH   7  11
ENDBRANCH   1   7
BRANCH   2  13
HETATM   13  O   UNL     1     -21.301  -3.808 -12.728  1.00  0.00    -0.359 OA
HETATM   14  H   UNL     1     -21.984  -4.420 -13.084  1.00  0.00     0.217 HD
ENDBRANCH   2  13
BRANCH   3  15
HETATM   15  O   UNL     1     -19.450  -5.032 -10.799  1.00  0.00    -0.353 OA
HETATM   16  H   UNL     1     -19.263  -5.589 -10.020  1.00  0.00     0.218 HD
ENDBRANCH   3  15
TORSDOF 6
ENDMDL
MODEL 8
REMARK VINA RESULT:      -5.2      5.971      7.841
REMARK  6 active torsions:
REMARK  status: ('A' for Active; 'I' for Inactive)
REMARK    1  A    between atoms: C_1  and  C_2 
REMARK    2  A    between atoms: C_1  and  O_12 
REMARK    3  A    between atoms: C_2  and  C_3 
REMARK    4  A    between atoms: C_2  and  O_11 
REMARK    5  A    between atoms: C_4  and  O_10 
REMARK    6  A    between atoms: C_5  and  O_9 
ROOT
HETATM    1  C   UNL     1     -26.578  -5.981 -16.185  1.00  0.00     0.222 A 
HETATM    2  C   UNL     1     -27.551  -7.075 -15.952  1.00  0.00     0.114 A 
HETATM    3  C   UNL     1     -28.308  -7.287 -17.022  1.00  0.00     0.173 A 
HETATM    4  C   UNL     1     -27.894  -6.297 -18.032  1.00  0.00     0.320 A 
HETATM    5  O   UNL     1     -28.336  -6.181 -19.158  1.00  0.00    -0.257 OA
HETATM    6  O   UNL     1     -26.878  -5.533 -17.512  1.00  0.00    -0.301 OA
ENDROOT
BRANCH   1   7
HETATM    7  C   UNL     1     -25.117  -6.435 -16.072  1.00  0.00     0.177 C 
BRANCH   7   8
HETATM    8  C   UNL     1     -24.674  -7.420 -17.165  1.00  0.00     0.198 C 
BRANCH   8   9
HETATM    9  O   UNL     1     -23.974  -8.500 -16.542  1.00  0.00    -0.398 OA
HETATM   10  H   UNL     1     -23.021  -8.307 -16.605  1.00  0.00     0.209 HD
ENDBRANCH   8   9
ENDBRANCH   7   8
BRANCH   7  11
HETATM   11  O   UNL     1     -24.919  -7.039 -14.776  1.00  0.00    -0.390 OA
HETATM   12  H   UNL     1     -25.591  -6.630 -14.189  1.00  0.00     0.210 HD
ENDBRANCH   7  11
ENDBRANCH   1   7
BRANCH   2  13
HETATM   13  O   UNL     1     -27.599  -7.799 -14.789  1.00  0.00    -0.359 OA
HETATM   14  H   UNL     1     -27.890  -8.709 -15.023  1.00  0.00     0.217 HD
ENDBRANCH   2  13
BRANCH   3  15
HETATM   15  O   UNL     1     -29.246  -8.263 -17.179  1.00  0.00    -0.353 OA
HETATM   16  H   UNL     1     -30.042  -7.948 -16.709  1.00  0.00     0.218 HD
ENDBRANCH   3  15
TORSDOF 6
ENDMDL
MODEL 9
REMARK VINA RESULT:      -5.1      2.375      3.851
REMARK  6 active torsions:
REMARK  status: ('A' for Active; 'I' for Inactive)
REMARK    1  A    between atoms: C_1  and  C_2 
REMARK    2  A    between atoms: C_1  and  O_12 
REMARK    3  A    between atoms: C_2  and  C_3 
REMARK    4  A    between atoms: C_2  and  O_11 
REMARK    5  A    between atoms: C_4  and  O_10 
REMARK    6  A    between atoms: C_5  and  O_9 
ROOT
HETATM    1  C   UNL     1     -22.843  -3.942  -9.144  1.00  0.00     0.222 A 
HETATM    2  C   UNL     1     -21.503  -4.573  -9.197  1.00  0.00     0.114 A 
HETATM    3  C   UNL     1     -21.192  -5.150  -8.042  1.00  0.00     0.173 A 
HETATM    4  C   UNL     1     -22.321  -4.894  -7.129  1.00  0.00     0.320 A 
HETATM    5  O   UNL     1     -22.426  -5.279  -5.980  1.00  0.00    -0.257 OA
HETATM    6  O   UNL     1     -23.277  -4.172  -7.799  1.00  0.00    -0.301 OA
ENDROOT
BRANCH   1   7
HETATM    7  C   UNL     1     -23.833  -4.536 -10.155  1.00  0.00     0.177 C 
BRANCH   7   8
HETATM    8  C   UNL     1     -23.928  -3.762 -11.478  1.00  0.00     0.198 C 
BRANCH   8   9
HETATM    9  O   UNL     1     -22.978  -4.315 -12.393  1.00  0.00    -0.398 OA
HETATM   10  H   UNL     1     -22.149  -3.812 -12.294  1.00  0.00     0.209 HD
ENDBRANCH   8   9
ENDBRANCH   7   8
BRANCH   7  11
HETATM   11  O   UNL     1     -25.139  -4.597  -9.541  1.00  0.00    -0.390 OA
HETATM   12  H   UNL     1     -25.494  -3.683  -9.586  1.00  0.00     0.210 HD
ENDBRANCH   7  11
ENDBRANCH   1   7
BRANCH   2  13
HETATM   13  O   UNL     1     -20.729  -4.595 -10.329  1.00  0.00    -0.359 OA
HETATM   14  H   UNL     1     -20.355  -5.501 -10.410  1.00  0.00     0.217 HD
ENDBRANCH   2  13
BRANCH   3  15
HETATM   15  O   UNL     1     -20.077  -5.883  -7.768  1.00  0.00    -0.353 OA
HETATM   16  H   UNL     1     -20.308  -6.445  -7.003  1.00  0.00     0.218 HD
ENDBRANCH   3  15
TORSDOF 6
ENDMDL
