MODEL 1
REMARK VINA RESULT:      -1.3      0.000      0.000
REMARK  6 active torsions:
REMARK  status: ('A' for Active; 'I' for Inactive)
REMARK    1  A    between atoms: C_7  and  N_15 
REMARK    2  A    between atoms: C_10  and  S_11 
REMARK    3  A    between atoms: N_17  and  C_19 
REMARK    4  A    between atoms: C_23  and  S_34 
REMARK    5  A    between atoms: C_27  and  S_30 
REMARK    6  A    between atoms: C_28  and  O_29 
ROOT
HETATM    1 NA   UNL     2     -32.324  -8.576   4.529  1.00  0.00     0.000 Na
ENDROOT
TORSDOF 6
ENDMDL
MODEL 2
REMARK VINA RESULT:      -1.3     23.495     23.495
REMARK  6 active torsions:
REMARK  status: ('A' for Active; 'I' for Inactive)
REMARK    1  A    between atoms: C_7  and  N_15 
REMARK    2  A    between atoms: C_10  and  S_11 
REMARK    3  A    between atoms: N_17  and  C_19 
REMARK    4  A    between atoms: C_23  and  S_34 
REMARK    5  A    between atoms: C_27  and  S_30 
REMARK    6  A    between atoms: C_28  and  O_29 
ROOT
HETATM    1 NA   UNL     2     -11.257   1.621   2.468  1.00  0.00     0.000 Na
ENDROOT
TORSDOF 6
ENDMDL
MODEL 3
REMARK VINA RESULT:      -1.2     19.033     19.033
REMARK  6 active torsions:
REMARK  status: ('A' for Active; 'I' for Inactive)
REMARK    1  A    between atoms: C_7  and  N_15 
REMARK    2  A    between atoms: C_10  and  S_11 
REMARK    3  A    between atoms: N_17  and  C_19 
REMARK    4  A    between atoms: C_23  and  S_34 
REMARK    5  A    between atoms: C_27  and  S_30 
REMARK    6  A    between atoms: C_28  and  O_29 
ROOT
HETATM    1 NA   UNL     2     -27.015 -13.665 -13.026  1.00  0.00     0.000 Na
ENDROOT
TORSDOF 6
ENDMDL
MODEL 4
REMARK VINA RESULT:      -1.2     22.214     22.214
REMARK  6 active torsions:
REMARK  status: ('A' for Active; 'I' for Inactive)
REMARK    1  A    between atoms: C_7  and  N_15 
REMARK    2  A    between atoms: C_10  and  S_11 
REMARK    3  A    between atoms: N_17  and  C_19 
REMARK    4  A    between atoms: C_23  and  S_34 
REMARK    5  A    between atoms: C_27  and  S_30 
REMARK    6  A    between atoms: C_28  and  O_29 
ROOT
HETATM    1 NA   UNL     2     -25.109   0.413 -14.461  1.00  0.00     0.000 Na
ENDROOT
TORSDOF 6
ENDMDL
MODEL 5
REMARK VINA RESULT:      -1.2     14.861     14.861
REMARK  6 active torsions:
REMARK  status: ('A' for Active; 'I' for Inactive)
REMARK    1  A    between atoms: C_7  and  N_15 
REMARK    2  A    between atoms: C_10  and  S_11 
REMARK    3  A    between atoms: N_17  and  C_19 
REMARK    4  A    between atoms: C_23  and  S_34 
REMARK    5  A    between atoms: C_27  and  S_30 
REMARK    6  A    between atoms: C_28  and  O_29 
ROOT
HETATM    1 NA   UNL     2     -27.305  -5.630  -9.145  1.00  0.00     0.000 Na
ENDROOT
TORSDOF 6
ENDMDL
MODEL 6
REMARK VINA RESULT:      -1.1     12.328     12.328
REMARK  6 active torsions:
REMARK  status: ('A' for Active; 'I' for Inactive)
REMARK    1  A    between atoms: C_7  and  N_15 
REMARK    2  A    between atoms: C_10  and  S_11 
REMARK    3  A    between atoms: N_17  and  C_19 
REMARK    4  A    between atoms: C_23  and  S_34 
REMARK    5  A    between atoms: C_27  and  S_30 
REMARK    6  A    between atoms: C_28  and  O_29 
ROOT
HETATM    1 NA   UNL     2     -25.223  -5.220  -4.974  1.00  0.00     0.000 Na
ENDROOT
TORSDOF 6
ENDMDL
MODEL 7
REMARK VINA RESULT:      -1.1     26.895     26.895
REMARK  6 active torsions:
REMARK  status: ('A' for Active; 'I' for Inactive)
REMARK    1  A    between atoms: C_7  and  N_15 
REMARK    2  A    between atoms: C_10  and  S_11 
REMARK    3  A    between atoms: N_17  and  C_19 
REMARK    4  A    between atoms: C_23  and  S_34 
REMARK    5  A    between atoms: C_27  and  S_30 
REMARK    6  A    between atoms: C_28  and  O_29 
ROOT
HETATM    1 NA   UNL     2     -35.597  -5.029 -21.929  1.00  0.00     0.000 Na
ENDROOT
TORSDOF 6
ENDMDL
MODEL 8
REMARK VINA RESULT:      -1.1     27.173     27.173
REMARK  6 active torsions:
REMARK  status: ('A' for Active; 'I' for Inactive)
REMARK    1  A    between atoms: C_7  and  N_15 
REMARK    2  A    between atoms: C_10  and  S_11 
REMARK    3  A    between atoms: N_17  and  C_19 
REMARK    4  A    between atoms: C_23  and  S_34 
REMARK    5  A    between atoms: C_27  and  S_30 
REMARK    6  A    between atoms: C_28  and  O_29 
ROOT
HETATM    1 NA   UNL     2     -11.561   1.298  -9.956  1.00  0.00     0.000 Na
ENDROOT
TORSDOF 6
ENDMDL
MODEL 9
REMARK VINA RESULT:      -1.0      9.902      9.902
REMARK  6 active torsions:
REMARK  status: ('A' for Active; 'I' for Inactive)
REMARK    1  A    between atoms: C_7  and  N_15 
REMARK    2  A    between atoms: C_10  and  S_11 
REMARK    3  A    between atoms: N_17  and  C_19 
REMARK    4  A    between atoms: C_23  and  S_34 
REMARK    5  A    between atoms: C_27  and  S_30 
REMARK    6  A    between atoms: C_28  and  O_29 
ROOT
HETATM    1 NA   UNL     2     -32.732  -6.045  -5.036  1.00  0.00     0.000 Na
ENDROOT
TORSDOF 6
ENDMDL
