MODEL 1
REMARK VINA RESULT:      -7.2      0.000      0.000
REMARK  6 active torsions:
REMARK  status: ('A' for Active; 'I' for Inactive)
REMARK    1  A    between atoms: O_2  and  C_3 
REMARK    2  A    between atoms: C_4  and  S_18 
REMARK    3  A    between atoms: C_6  and  C_10 
REMARK    4  A    between atoms: C_7  and  O_9 
REMARK    5  A    between atoms: C_10  and  C_12 
REMARK    6  A    between atoms: S_18  and  O_21 
ROOT
HETATM    1  C   UNL     1     -20.552  -7.260  -4.498  1.00  0.00     0.094 A 
HETATM    2  C   UNL     1     -20.097  -8.445  -3.907  1.00  0.00     0.106 A 
HETATM    3  C   UNL     1     -20.492  -8.768  -2.587  1.00  0.00     0.046 A 
HETATM    4  C   UNL     1     -21.358  -7.944  -1.862  1.00  0.00     0.050 A 
HETATM    5  C   UNL     1     -21.780  -6.749  -2.433  1.00  0.00     0.082 A 
HETATM    6  C   UNL     1     -21.388  -6.423  -3.729  1.00  0.00     0.075 A 
ENDROOT
BRANCH   4   7
HETATM    7  C   UNL     1     -21.810  -8.310  -0.497  1.00  0.00     0.195 C 
HETATM    8  O   UNL     1     -21.933  -7.411   0.334  1.00  0.00    -0.287 OA
BRANCH   7   9
HETATM    9  C   UNL     1     -22.160  -9.704  -0.131  1.00  0.00     0.015 A 
HETATM   10  C   UNL     1     -21.220 -10.572   0.440  1.00  0.00     0.015 A 
HETATM   11  C   UNL     1     -21.580 -11.882   0.757  1.00  0.00     0.001 A 
HETATM   12  C   UNL     1     -22.873 -12.333   0.486  1.00  0.00     0.000 A 
HETATM   13  C   UNL     1     -23.804 -11.480  -0.106  1.00  0.00     0.001 A 
HETATM   14  C   UNL     1     -23.449 -10.166  -0.417  1.00  0.00     0.015 A 
ENDBRANCH   7   9
ENDBRANCH   4   7
BRANCH   5  15
HETATM   15  O   UNL     1     -22.584  -5.855  -1.783  1.00  0.00    -0.360 OA
HETATM   16  H   UNL     1     -22.340  -4.951  -2.087  1.00  0.00     0.217 HD
ENDBRANCH   5  15
BRANCH   2  17
HETATM   17  S   UNL     1     -19.021  -9.621  -4.682  1.00  0.00     0.132 S 
HETATM   18  O   UNL     1     -17.754  -9.609  -3.985  1.00  0.00    -0.597 OA
HETATM   19  O   UNL     1     -19.773 -10.827  -4.926  1.00  0.00    -0.597 OA
BRANCH  17  20
HETATM   20  O   UNL     1     -18.655  -8.994  -6.125  1.00  0.00    -0.292 OA
HETATM   21  H   UNL     1     -17.724  -9.239  -6.321  1.00  0.00     0.232 HD
ENDBRANCH  17  20
ENDBRANCH   2  17
BRANCH   1  22
HETATM   22  O   UNL     1     -20.346  -6.686  -5.714  1.00  0.00    -0.354 OA
HETATM   23  C   UNL     1     -20.481  -5.303  -5.971  1.00  0.00     0.210 C 
ENDBRANCH   1  22
TORSDOF 6
ENDMDL
MODEL 2
REMARK VINA RESULT:      -7.0      1.994      6.351
REMARK  6 active torsions:
REMARK  status: ('A' for Active; 'I' for Inactive)
REMARK    1  A    between atoms: O_2  and  C_3 
REMARK    2  A    between atoms: C_4  and  S_18 
REMARK    3  A    between atoms: C_6  and  C_10 
REMARK    4  A    between atoms: C_7  and  O_9 
REMARK    5  A    between atoms: C_10  and  C_12 
REMARK    6  A    between atoms: S_18  and  O_21 
ROOT
HETATM    1  C   UNL     1     -20.155  -9.018  -2.844  1.00  0.00     0.094 A 
HETATM    2  C   UNL     1     -20.129  -9.178  -4.234  1.00  0.00     0.106 A 
HETATM    3  C   UNL     1     -20.797  -8.244  -5.061  1.00  0.00     0.046 A 
HETATM    4  C   UNL     1     -21.462  -7.138  -4.524  1.00  0.00     0.050 A 
HETATM    5  C   UNL     1     -21.521  -6.999  -3.142  1.00  0.00     0.082 A 
HETATM    6  C   UNL     1     -20.871  -7.919  -2.324  1.00  0.00     0.075 A 
ENDROOT
BRANCH   4   7
HETATM    7  C   UNL     1     -22.119  -6.133  -5.397  1.00  0.00     0.195 C 
HETATM    8  O   UNL     1     -23.318  -5.917  -5.230  1.00  0.00    -0.287 OA
BRANCH   7   9
HETATM    9  C   UNL     1     -21.365  -5.361  -6.414  1.00  0.00     0.015 A 
HETATM   10  C   UNL     1     -21.995  -4.826  -7.545  1.00  0.00     0.015 A 
HETATM   11  C   UNL     1     -21.253  -4.117  -8.490  1.00  0.00     0.001 A 
HETATM   12  C   UNL     1     -19.876  -3.959  -8.316  1.00  0.00     0.000 A 
HETATM   13  C   UNL     1     -19.241  -4.512  -7.204  1.00  0.00     0.001 A 
HETATM   14  C   UNL     1     -19.983  -5.215  -6.253  1.00  0.00     0.015 A 
ENDBRANCH   7   9
ENDBRANCH   4   7
BRANCH   5  15
HETATM   15  O   UNL     1     -22.190  -5.980  -2.524  1.00  0.00    -0.360 OA
HETATM   16  H   UNL     1     -22.315  -6.228  -1.580  1.00  0.00     0.217 HD
ENDBRANCH   5  15
BRANCH   2  17
HETATM   17  S   UNL     1     -19.315 -10.499  -5.091  1.00  0.00     0.132 S 
HETATM   18  O   UNL     1     -20.144 -10.898  -6.208  1.00  0.00    -0.597 OA
HETATM   19  O   UNL     1     -17.922 -10.155  -5.230  1.00  0.00    -0.597 OA
BRANCH  17  20
HETATM   20  O   UNL     1     -19.389 -11.774  -4.101  1.00  0.00    -0.292 OA
HETATM   21  H   UNL     1     -19.084 -11.474  -3.217  1.00  0.00     0.232 HD
ENDBRANCH  17  20
ENDBRANCH   2  17
BRANCH   1  22
HETATM   22  O   UNL     1     -19.629  -9.734  -1.813  1.00  0.00    -0.354 OA
HETATM   23  C   UNL     1     -20.397 -10.512  -0.916  1.00  0.00     0.210 C 
ENDBRANCH   1  22
TORSDOF 6
ENDMDL
MODEL 3
REMARK VINA RESULT:      -7.0      4.511      6.917
REMARK  6 active torsions:
REMARK  status: ('A' for Active; 'I' for Inactive)
REMARK    1  A    between atoms: O_2  and  C_3 
REMARK    2  A    between atoms: C_4  and  S_18 
REMARK    3  A    between atoms: C_6  and  C_10 
REMARK    4  A    between atoms: C_7  and  O_9 
REMARK    5  A    between atoms: C_10  and  C_12 
REMARK    6  A    between atoms: S_18  and  O_21 
ROOT
HETATM    1  C   UNL     1     -23.044  -4.303  -9.713  1.00  0.00     0.094 A 
HETATM    2  C   UNL     1     -21.645  -4.280  -9.669  1.00  0.00     0.106 A 
HETATM    3  C   UNL     1     -20.978  -4.472  -8.436  1.00  0.00     0.046 A 
HETATM    4  C   UNL     1     -21.683  -4.719  -7.255  1.00  0.00     0.050 A 
HETATM    5  C   UNL     1     -23.072  -4.703  -7.290  1.00  0.00     0.082 A 
HETATM    6  C   UNL     1     -23.735  -4.508  -8.498  1.00  0.00     0.075 A 
ENDROOT
BRANCH   4   7
HETATM    7  C   UNL     1     -20.978  -4.969  -5.973  1.00  0.00     0.195 C 
HETATM    8  O   UNL     1     -20.237  -4.088  -5.539  1.00  0.00    -0.287 OA
BRANCH   7   9
HETATM    9  C   UNL     1     -21.182  -6.213  -5.192  1.00  0.00     0.015 A 
HETATM   10  C   UNL     1     -21.399  -6.184  -3.809  1.00  0.00     0.015 A 
HETATM   11  C   UNL     1     -21.572  -7.375  -3.103  1.00  0.00     0.001 A 
HETATM   12  C   UNL     1     -21.506  -8.597  -3.775  1.00  0.00     0.000 A 
HETATM   13  C   UNL     1     -21.265  -8.631  -5.148  1.00  0.00     0.001 A 
HETATM   14  C   UNL     1     -21.100  -7.441  -5.858  1.00  0.00     0.015 A 
ENDBRANCH   7   9
ENDBRANCH   4   7
BRANCH   5  15
HETATM   15  O   UNL     1     -23.847  -4.882  -6.178  1.00  0.00    -0.360 OA
HETATM   16  H   UNL     1     -23.248  -5.003  -5.407  1.00  0.00     0.217 HD
ENDBRANCH   5  15
BRANCH   2  17
HETATM   17  S   UNL     1     -20.588  -4.011 -11.066  1.00  0.00     0.132 S 
HETATM   18  O   UNL     1     -20.415  -2.586 -11.241  1.00  0.00    -0.597 OA
HETATM   19  O   UNL     1     -19.483  -4.933 -10.979  1.00  0.00    -0.597 OA
BRANCH  17  20
HETATM   20  O   UNL     1     -21.456  -4.439 -12.360  1.00  0.00    -0.292 OA
HETATM   21  H   UNL     1     -21.040  -5.245 -12.737  1.00  0.00     0.232 HD
ENDBRANCH  17  20
ENDBRANCH   2  17
BRANCH   1  22
HETATM   22  O   UNL     1     -23.949  -4.146 -10.717  1.00  0.00    -0.354 OA
HETATM   23  C   UNL     1     -24.143  -2.939 -11.427  1.00  0.00     0.210 C 
ENDBRANCH   1  22
TORSDOF 6
ENDMDL
MODEL 4
REMARK VINA RESULT:      -6.4      2.244      6.812
REMARK  6 active torsions:
REMARK  status: ('A' for Active; 'I' for Inactive)
REMARK    1  A    between atoms: O_2  and  C_3 
REMARK    2  A    between atoms: C_4  and  S_18 
REMARK    3  A    between atoms: C_6  and  C_10 
REMARK    4  A    between atoms: C_7  and  O_9 
REMARK    5  A    between atoms: C_10  and  C_12 
REMARK    6  A    between atoms: S_18  and  O_21 
ROOT
HETATM    1  C   UNL     1     -22.294 -10.056  -2.613  1.00  0.00     0.094 A 
HETATM    2  C   UNL     1     -21.798  -8.791  -2.276  1.00  0.00     0.106 A 
HETATM    3  C   UNL     1     -21.023  -8.068  -3.213  1.00  0.00     0.046 A 
HETATM    4  C   UNL     1     -20.763  -8.573  -4.490  1.00  0.00     0.050 A 
HETATM    5  C   UNL     1     -21.221  -9.845  -4.812  1.00  0.00     0.082 A 
HETATM    6  C   UNL     1     -21.978 -10.564  -3.892  1.00  0.00     0.075 A 
ENDROOT
BRANCH   4   7
HETATM    7  C   UNL     1     -19.992  -7.791  -5.487  1.00  0.00     0.195 C 
HETATM    8  O   UNL     1     -18.921  -8.251  -5.882  1.00  0.00    -0.287 OA
BRANCH   7   9
HETATM    9  C   UNL     1     -20.497  -6.514  -6.048  1.00  0.00     0.015 A 
HETATM   10  C   UNL     1     -21.844  -6.146  -5.938  1.00  0.00     0.015 A 
HETATM   11  C   UNL     1     -22.289  -4.945  -6.490  1.00  0.00     0.001 A 
HETATM   12  C   UNL     1     -21.392  -4.120  -7.173  1.00  0.00     0.000 A 
HETATM   13  C   UNL     1     -20.056  -4.495  -7.307  1.00  0.00     0.001 A 
HETATM   14  C   UNL     1     -19.607  -5.693  -6.748  1.00  0.00     0.015 A 
ENDBRANCH   7   9
ENDBRANCH   4   7
BRANCH   5  15
HETATM   15  O   UNL     1     -20.972 -10.444  -6.016  1.00  0.00    -0.360 OA
HETATM   16  H   UNL     1     -20.228 -11.075  -5.892  1.00  0.00     0.217 HD
ENDBRANCH   5  15
BRANCH   2  17
HETATM   17  S   UNL     1     -22.050  -7.981  -0.720  1.00  0.00     0.132 S 
HETATM   18  O   UNL     1     -20.882  -8.199   0.104  1.00  0.00    -0.597 OA
HETATM   19  O   UNL     1     -22.598  -6.672  -0.976  1.00  0.00    -0.597 OA
BRANCH  17  20
HETATM   20  O   UNL     1     -23.198  -8.832   0.035  1.00  0.00    -0.292 OA
HETATM   21  H   UNL     1     -23.831  -9.139  -0.650  1.00  0.00     0.232 HD
ENDBRANCH  17  20
ENDBRANCH   2  17
BRANCH   1  22
HETATM   22  O   UNL     1     -23.042 -10.973  -1.942  1.00  0.00    -0.354 OA
HETATM   23  C   UNL     1     -22.901 -12.372  -2.091  1.00  0.00     0.210 C 
ENDBRANCH   1  22
TORSDOF 6
ENDMDL
MODEL 5
REMARK VINA RESULT:      -6.4      2.747      6.386
REMARK  6 active torsions:
REMARK  status: ('A' for Active; 'I' for Inactive)
REMARK    1  A    between atoms: O_2  and  C_3 
REMARK    2  A    between atoms: C_4  and  S_18 
REMARK    3  A    between atoms: C_6  and  C_10 
REMARK    4  A    between atoms: C_7  and  O_9 
REMARK    5  A    between atoms: C_10  and  C_12 
REMARK    6  A    between atoms: S_18  and  O_21 
ROOT
HETATM    1  C   UNL     1     -22.828 -10.379  -1.557  1.00  0.00     0.094 A 
HETATM    2  C   UNL     1     -22.171  -9.146  -1.477  1.00  0.00     0.106 A 
HETATM    3  C   UNL     1     -21.261  -8.769  -2.492  1.00  0.00     0.046 A 
HETATM    4  C   UNL     1     -21.022  -9.587  -3.600  1.00  0.00     0.050 A 
HETATM    5  C   UNL     1     -21.645 -10.828  -3.662  1.00  0.00     0.082 A 
HETATM    6  C   UNL     1     -22.536 -11.208  -2.662  1.00  0.00     0.075 A 
ENDROOT
BRANCH   4   7
HETATM    7  C   UNL     1     -20.105  -9.165  -4.688  1.00  0.00     0.195 C 
HETATM    8  O   UNL     1     -20.582  -8.555  -5.643  1.00  0.00    -0.287 OA
BRANCH   7   9
HETATM    9  C   UNL     1     -18.644  -9.413  -4.626  1.00  0.00     0.015 A 
HETATM   10  C   UNL     1     -17.899  -9.700  -5.778  1.00  0.00     0.015 A 
HETATM   11  C   UNL     1     -16.529  -9.943  -5.682  1.00  0.00     0.001 A 
HETATM   12  C   UNL     1     -15.905  -9.922  -4.433  1.00  0.00     0.000 A 
HETATM   13  C   UNL     1     -16.648  -9.662  -3.281  1.00  0.00     0.001 A 
HETATM   14  C   UNL     1     -18.017  -9.410  -3.376  1.00  0.00     0.015 A 
ENDBRANCH   7   9
ENDBRANCH   4   7
BRANCH   5  15
HETATM   15  O   UNL     1     -21.434 -11.718  -4.678  1.00  0.00    -0.360 OA
HETATM   16  H   UNL     1     -22.028 -12.489  -4.534  1.00  0.00     0.217 HD
ENDBRANCH   5  15
BRANCH   2  17
HETATM   17  S   UNL     1     -22.370  -7.970  -0.165  1.00  0.00     0.132 S 
HETATM   18  O   UNL     1     -21.365  -8.234   0.841  1.00  0.00    -0.597 OA
HETATM   19  O   UNL     1     -22.570  -6.669  -0.754  1.00  0.00    -0.597 OA
BRANCH  17  20
HETATM   20  O   UNL     1     -23.749  -8.370   0.575  1.00  0.00    -0.292 OA
HETATM   21  H   UNL     1     -24.326  -7.575   0.565  1.00  0.00     0.232 HD
ENDBRANCH  17  20
ENDBRANCH   2  17
BRANCH   1  22
HETATM   22  O   UNL     1     -23.728 -11.010  -0.755  1.00  0.00    -0.354 OA
HETATM   23  C   UNL     1     -23.382 -11.969   0.224  1.00  0.00     0.210 C 
ENDBRANCH   1  22
TORSDOF 6
ENDMDL
MODEL 6
REMARK VINA RESULT:      -6.2      2.393      3.826
REMARK  6 active torsions:
REMARK  status: ('A' for Active; 'I' for Inactive)
REMARK    1  A    between atoms: O_2  and  C_3 
REMARK    2  A    between atoms: C_4  and  S_18 
REMARK    3  A    between atoms: C_6  and  C_10 
REMARK    4  A    between atoms: C_7  and  O_9 
REMARK    5  A    between atoms: C_10  and  C_12 
REMARK    6  A    between atoms: S_18  and  O_21 
ROOT
HETATM    1  C   UNL     1     -17.849 -10.301  -4.632  1.00  0.00     0.094 A 
HETATM    2  C   UNL     1     -17.954 -10.247  -3.238  1.00  0.00     0.106 A 
HETATM    3  C   UNL     1     -18.927  -9.412  -2.639  1.00  0.00     0.046 A 
HETATM    4  C   UNL     1     -19.816  -8.657  -3.409  1.00  0.00     0.050 A 
HETATM    5  C   UNL     1     -19.688  -8.681  -4.793  1.00  0.00     0.082 A 
HETATM    6  C   UNL     1     -18.727  -9.494  -5.388  1.00  0.00     0.075 A 
ENDROOT
BRANCH   4   7
HETATM    7  C   UNL     1     -20.867  -7.822  -2.778  1.00  0.00     0.195 C 
HETATM    8  O   UNL     1     -21.015  -6.671  -3.186  1.00  0.00    -0.287 OA
BRANCH   7   9
HETATM    9  C   UNL     1     -21.763  -8.350  -1.721  1.00  0.00     0.015 A 
HETATM   10  C   UNL     1     -22.153  -7.564  -0.629  1.00  0.00     0.015 A 
HETATM   11  C   UNL     1     -22.985  -8.097   0.356  1.00  0.00     0.001 A 
HETATM   12  C   UNL     1     -23.411  -9.423   0.262  1.00  0.00     0.000 A 
HETATM   13  C   UNL     1     -23.005 -10.217  -0.811  1.00  0.00     0.001 A 
HETATM   14  C   UNL     1     -22.179  -9.683  -1.801  1.00  0.00     0.015 A 
ENDBRANCH   7   9
ENDBRANCH   4   7
BRANCH   5  15
HETATM   15  O   UNL     1     -20.476  -7.937  -5.627  1.00  0.00    -0.360 OA
HETATM   16  H   UNL     1     -21.341  -8.396  -5.715  1.00  0.00     0.217 HD
ENDBRANCH   5  15
BRANCH   2  17
HETATM   17  S   UNL     1     -16.935 -11.152  -2.105  1.00  0.00     0.132 S 
HETATM   18  O   UNL     1     -15.659 -10.480  -1.999  1.00  0.00    -0.597 OA
HETATM   19  O   UNL     1     -17.737 -11.501  -0.958  1.00  0.00    -0.597 OA
BRANCH  17  20
HETATM   20  O   UNL     1     -16.564 -12.533  -2.858  1.00  0.00    -0.292 OA
HETATM   21  H   UNL     1     -16.026 -12.299  -3.646  1.00  0.00     0.232 HD
ENDBRANCH  17  20
ENDBRANCH   2  17
BRANCH   1  22
HETATM   22  O   UNL     1     -17.031 -10.982  -5.480  1.00  0.00    -0.354 OA
HETATM   23  C   UNL     1     -15.712 -10.585  -5.799  1.00  0.00     0.210 C 
ENDBRANCH   1  22
TORSDOF 6
ENDMDL
MODEL 7
REMARK VINA RESULT:      -6.1      3.053      5.514
REMARK  6 active torsions:
REMARK  status: ('A' for Active; 'I' for Inactive)
REMARK    1  A    between atoms: O_2  and  C_3 
REMARK    2  A    between atoms: C_4  and  S_18 
REMARK    3  A    between atoms: C_6  and  C_10 
REMARK    4  A    between atoms: C_7  and  O_9 
REMARK    5  A    between atoms: C_10  and  C_12 
REMARK    6  A    between atoms: S_18  and  O_21 
ROOT
HETATM    1  C   UNL     1     -17.462 -11.953  -0.821  1.00  0.00     0.094 A 
HETATM    2  C   UNL     1     -17.599 -11.154  -1.962  1.00  0.00     0.106 A 
HETATM    3  C   UNL     1     -18.874 -10.653  -2.319  1.00  0.00     0.046 A 
HETATM    4  C   UNL     1     -20.004 -10.911  -1.538  1.00  0.00     0.050 A 
HETATM    5  C   UNL     1     -19.876 -11.736  -0.427  1.00  0.00     0.082 A 
HETATM    6  C   UNL     1     -18.626 -12.237  -0.075  1.00  0.00     0.075 A 
ENDROOT
BRANCH   4   7
HETATM    7  C   UNL     1     -21.330 -10.343  -1.888  1.00  0.00     0.195 C 
HETATM    8  O   UNL     1     -22.243 -11.124  -2.152  1.00  0.00    -0.287 OA
BRANCH   7   9
HETATM    9  C   UNL     1     -21.589  -8.883  -1.878  1.00  0.00     0.015 A 
HETATM   10  C   UNL     1     -22.099  -8.235  -0.745  1.00  0.00     0.015 A 
HETATM   11  C   UNL     1     -22.345  -6.863  -0.775  1.00  0.00     0.001 A 
HETATM   12  C   UNL     1     -22.102  -6.139  -1.944  1.00  0.00     0.000 A 
HETATM   13  C   UNL     1     -21.618  -6.784  -3.082  1.00  0.00     0.001 A 
HETATM   14  C   UNL     1     -21.364  -8.156  -3.052  1.00  0.00     0.015 A 
ENDBRANCH   7   9
ENDBRANCH   4   7
BRANCH   5  15
HETATM   15  O   UNL     1     -20.932 -12.086   0.367  1.00  0.00    -0.360 OA
HETATM   16  H   UNL     1     -20.692 -12.913   0.843  1.00  0.00     0.217 HD
ENDBRANCH   5  15
BRANCH   2  17
HETATM   17  S   UNL     1     -16.278 -10.701  -3.053  1.00  0.00     0.132 S 
HETATM   18  O   UNL     1     -16.670 -11.026  -4.406  1.00  0.00    -0.597 OA
HETATM   19  O   UNL     1     -15.800  -9.396  -2.665  1.00  0.00    -0.597 OA
BRANCH  17  20
HETATM   20  O   UNL     1     -15.084 -11.748  -2.752  1.00  0.00    -0.292 OA
HETATM   21  H   UNL     1     -15.170 -12.481  -3.400  1.00  0.00     0.232 HD
ENDBRANCH  17  20
ENDBRANCH   2  17
BRANCH   1  22
HETATM   22  O   UNL     1     -16.399 -12.572  -0.240  1.00  0.00    -0.354 OA
HETATM   23  C   UNL     1     -15.588 -11.985   0.758  1.00  0.00     0.210 C 
ENDBRANCH   1  22
TORSDOF 6
ENDMDL
MODEL 8
REMARK VINA RESULT:      -5.8      2.781      4.394
REMARK  6 active torsions:
REMARK  status: ('A' for Active; 'I' for Inactive)
REMARK    1  A    between atoms: O_2  and  C_3 
REMARK    2  A    between atoms: C_4  and  S_18 
REMARK    3  A    between atoms: C_6  and  C_10 
REMARK    4  A    between atoms: C_7  and  O_9 
REMARK    5  A    between atoms: C_10  and  C_12 
REMARK    6  A    between atoms: S_18  and  O_21 
ROOT
HETATM    1  C   UNL     1     -17.488 -10.610  -3.482  1.00  0.00     0.094 A 
HETATM    2  C   UNL     1     -18.813 -10.184  -3.630  1.00  0.00     0.106 A 
HETATM    3  C   UNL     1     -19.746 -10.420  -2.592  1.00  0.00     0.046 A 
HETATM    4  C   UNL     1     -19.370 -11.045  -1.400  1.00  0.00     0.050 A 
HETATM    5  C   UNL     1     -18.064 -11.503  -1.268  1.00  0.00     0.082 A 
HETATM    6  C   UNL     1     -17.144 -11.280  -2.288  1.00  0.00     0.075 A 
ENDROOT
BRANCH   4   7
HETATM    7  C   UNL     1     -20.339 -11.246  -0.295  1.00  0.00     0.195 C 
HETATM    8  O   UNL     1     -20.255 -12.279   0.368  1.00  0.00    -0.287 OA
BRANCH   7   9
HETATM    9  C   UNL     1     -21.357 -10.226   0.056  1.00  0.00     0.015 A 
HETATM   10  C   UNL     1     -22.712 -10.406  -0.250  1.00  0.00     0.015 A 
HETATM   11  C   UNL     1     -23.641  -9.418   0.080  1.00  0.00     0.001 A 
HETATM   12  C   UNL     1     -23.213  -8.241   0.697  1.00  0.00     0.000 A 
HETATM   13  C   UNL     1     -21.861  -8.047   0.980  1.00  0.00     0.001 A 
HETATM   14  C   UNL     1     -20.932  -9.037   0.658  1.00  0.00     0.015 A 
ENDBRANCH   7   9
ENDBRANCH   4   7
BRANCH   5  15
HETATM   15  O   UNL     1     -17.618 -12.171  -0.162  1.00  0.00    -0.360 OA
HETATM   16  H   UNL     1     -17.048 -11.556   0.354  1.00  0.00     0.217 HD
ENDBRANCH   5  15
BRANCH   2  17
HETATM   17  S   UNL     1     -19.462  -9.353  -5.054  1.00  0.00     0.132 S 
HETATM   18  O   UNL     1     -20.402 -10.235  -5.709  1.00  0.00    -0.597 OA
HETATM   19  O   UNL     1     -19.785  -7.999  -4.678  1.00  0.00    -0.597 OA
BRANCH  17  20
HETATM   20  O   UNL     1     -18.238  -9.270  -6.107  1.00  0.00    -0.292 OA
HETATM   21  H   UNL     1     -18.594  -8.882  -6.936  1.00  0.00     0.232 HD
ENDBRANCH  17  20
ENDBRANCH   2  17
BRANCH   1  22
HETATM   22  O   UNL     1     -16.390 -10.539  -4.283  1.00  0.00    -0.354 OA
HETATM   23  C   UNL     1     -15.300 -11.436  -4.216  1.00  0.00     0.210 C 
ENDBRANCH   1  22
TORSDOF 6
ENDMDL
MODEL 9
REMARK VINA RESULT:      -5.7      3.085      5.888
REMARK  6 active torsions:
REMARK  status: ('A' for Active; 'I' for Inactive)
REMARK    1  A    between atoms: O_2  and  C_3 
REMARK    2  A    between atoms: C_4  and  S_18 
REMARK    3  A    between atoms: C_6  and  C_10 
REMARK    4  A    between atoms: C_7  and  O_9 
REMARK    5  A    between atoms: C_10  and  C_12 
REMARK    6  A    between atoms: S_18  and  O_21 
ROOT
HETATM    1  C   UNL     1     -21.083  -7.440  -2.902  1.00  0.00     0.094 A 
HETATM    2  C   UNL     1     -20.791  -7.554  -4.266  1.00  0.00     0.106 A 
HETATM    3  C   UNL     1     -20.128  -8.707  -4.748  1.00  0.00     0.046 A 
HETATM    4  C   UNL     1     -19.781  -9.760  -3.896  1.00  0.00     0.050 A 
HETATM    5  C   UNL     1     -20.036  -9.631  -2.536  1.00  0.00     0.082 A 
HETATM    6  C   UNL     1     -20.682  -8.495  -2.055  1.00  0.00     0.075 A 
ENDROOT
BRANCH   4   7
HETATM    7  C   UNL     1     -19.130 -10.989  -4.413  1.00  0.00     0.195 C 
HETATM    8  O   UNL     1     -19.770 -12.039  -4.383  1.00  0.00    -0.287 OA
BRANCH   7   9
HETATM    9  C   UNL     1     -17.769 -10.971  -5.001  1.00  0.00     0.015 A 
HETATM   10  C   UNL     1     -17.385 -11.887  -5.990  1.00  0.00     0.015 A 
HETATM   11  C   UNL     1     -16.091 -11.852  -6.511  1.00  0.00     0.001 A 
HETATM   12  C   UNL     1     -15.173 -10.916  -6.030  1.00  0.00     0.000 A 
HETATM   13  C   UNL     1     -15.545 -10.020  -5.028  1.00  0.00     0.001 A 
HETATM   14  C   UNL     1     -16.841 -10.047  -4.511  1.00  0.00     0.015 A 
ENDBRANCH   7   9
ENDBRANCH   4   7
BRANCH   5  15
HETATM   15  O   UNL     1     -19.687 -10.583  -1.619  1.00  0.00    -0.360 OA
HETATM   16  H   UNL     1     -19.312 -10.124  -0.833  1.00  0.00     0.217 HD
ENDBRANCH   5  15
BRANCH   2  17
HETATM   17  S   UNL     1     -21.179  -6.337  -5.495  1.00  0.00     0.132 S 
HETATM   18  O   UNL     1     -20.451  -5.126  -5.185  1.00  0.00    -0.597 OA
HETATM   19  O   UNL     1     -21.134  -6.972  -6.788  1.00  0.00    -0.597 OA
BRANCH  17  20
HETATM   20  O   UNL     1     -22.718  -5.921  -5.228  1.00  0.00    -0.292 OA
HETATM   21  H   UNL     1     -22.783  -5.630  -4.293  1.00  0.00     0.232 HD
ENDBRANCH  17  20
ENDBRANCH   2  17
BRANCH   1  22
HETATM   22  O   UNL     1     -21.687  -6.476  -2.155  1.00  0.00    -0.354 OA
HETATM   23  C   UNL     1     -22.370  -6.725  -0.942  1.00  0.00     0.210 C 
ENDBRANCH   1  22
TORSDOF 6
ENDMDL
