MODEL 1
REMARK VINA RESULT:      -6.7      0.000      0.000
REMARK  1 active torsions:
REMARK  status: ('A' for Active; 'I' for Inactive)
REMARK    1  A    between atoms: C_1  and  N_8 
REMARK       I    between atoms: N_8  and  C_9 
REMARK       I    between atoms: C_9  and  N_11 
ROOT
HETATM    1  C   UNL     1     -23.707  -3.089 -12.910  1.00  0.00     0.284 A 
HETATM    2  C   UNL     1     -22.688  -2.930 -11.766  1.00  0.00     0.268 A 
HETATM    3  O   UNL     1     -21.507  -2.631 -11.889  1.00  0.00    -0.269 OA
HETATM    4  N   UNL     1     -23.339  -3.111 -10.584  1.00  0.00    -0.276 N 
HETATM    5  C   UNL     1     -24.669  -3.249 -10.798  1.00  0.00     0.324 A 
HETATM    6  O   UNL     1     -25.524  -3.334  -9.936  1.00  0.00    -0.247 OA
HETATM    7  N   UNL     1     -24.899  -3.257 -12.147  1.00  0.00    -0.313 N 
HETATM    8  H   UNL     1     -22.928  -3.008  -9.673  1.00  0.00     0.173 HD
HETATM    9  H   UNL     1     -25.821  -3.340 -12.556  1.00  0.00     0.166 HD
ENDROOT
BRANCH   1  10
HETATM   10  N   UNL     1     -23.740  -1.924 -13.742  1.00  0.00    -0.314 N 
HETATM   11  C   UNL     1     -23.104  -1.954 -14.944  1.00  0.00     0.315 C 
HETATM   12  O   UNL     1     -22.586  -2.938 -15.445  1.00  0.00    -0.248 OA
HETATM   13  N   UNL     1     -23.122  -0.751 -15.568  1.00  0.00    -0.352 N 
HETATM   14  H   UNL     1     -23.941  -0.177 -15.433  1.00  0.00     0.160 HD
HETATM   15  H   UNL     1     -22.789  -0.792 -16.524  1.00  0.00     0.160 HD
HETATM   16  H   UNL     1     -23.672  -1.039 -13.257  1.00  0.00     0.166 HD
ENDBRANCH   1  10
TORSDOF 1
ENDMDL
MODEL 2
REMARK VINA RESULT:      -6.5      1.563      4.341
REMARK  1 active torsions:
REMARK  status: ('A' for Active; 'I' for Inactive)
REMARK    1  A    between atoms: C_1  and  N_8 
REMARK       I    between atoms: N_8  and  C_9 
REMARK       I    between atoms: C_9  and  N_11 
ROOT
HETATM    1  C   UNL     1     -23.463  -2.760 -11.838  1.00  0.00     0.284 A 
HETATM    2  C   UNL     1     -22.279  -3.585 -12.377  1.00  0.00     0.268 A 
HETATM    3  O   UNL     1     -21.605  -4.381 -11.737  1.00  0.00    -0.269 OA
HETATM    4  N   UNL     1     -22.151  -3.331 -13.709  1.00  0.00    -0.276 N 
HETATM    5  C   UNL     1     -23.166  -2.542 -14.135  1.00  0.00     0.324 A 
HETATM    6  O   UNL     1     -23.379  -2.216 -15.289  1.00  0.00    -0.247 OA
HETATM    7  N   UNL     1     -23.929  -2.185 -13.056  1.00  0.00    -0.313 N 
HETATM    8  H   UNL     1     -21.494  -3.776 -14.324  1.00  0.00     0.173 HD
HETATM    9  H   UNL     1     -24.754  -1.604 -13.124  1.00  0.00     0.166 HD
ENDROOT
BRANCH   1  10
HETATM   10  N   UNL     1     -24.440  -3.601 -11.212  1.00  0.00    -0.314 N 
HETATM   11  C   UNL     1     -24.322  -3.871  -9.885  1.00  0.00     0.315 C 
HETATM   12  O   UNL     1     -23.505  -3.368  -9.130  1.00  0.00    -0.248 OA
HETATM   13  N   UNL     1     -25.245  -4.766  -9.456  1.00  0.00    -0.352 N 
HETATM   14  H   UNL     1     -26.152  -4.735  -9.896  1.00  0.00     0.160 HD
HETATM   15  H   UNL     1     -25.269  -4.864  -8.448  1.00  0.00     0.160 HD
HETATM   16  H   UNL     1     -24.767  -4.379 -11.768  1.00  0.00     0.166 HD
ENDBRANCH   1  10
TORSDOF 1
ENDMDL
MODEL 3
REMARK VINA RESULT:      -6.5      7.733      9.313
REMARK  1 active torsions:
REMARK  status: ('A' for Active; 'I' for Inactive)
REMARK    1  A    between atoms: C_1  and  N_8 
REMARK       I    between atoms: N_8  and  C_9 
REMARK       I    between atoms: C_9  and  N_11 
ROOT
HETATM    1  C   UNL     1     -24.727  -7.028 -19.623  1.00  0.00     0.284 A 
HETATM    2  C   UNL     1     -24.007  -7.904 -20.667  1.00  0.00     0.268 A 
HETATM    3  O   UNL     1     -22.803  -8.116 -20.724  1.00  0.00    -0.269 OA
HETATM    4  N   UNL     1     -24.947  -8.462 -21.479  1.00  0.00    -0.276 N 
HETATM    5  C   UNL     1     -26.190  -8.162 -21.031  1.00  0.00     0.324 A 
HETATM    6  O   UNL     1     -27.234  -8.589 -21.489  1.00  0.00    -0.247 OA
HETATM    7  N   UNL     1     -26.081  -7.314 -19.963  1.00  0.00    -0.313 N 
HETATM    8  H   UNL     1     -24.763  -9.122 -22.213  1.00  0.00     0.173 HD
HETATM    9  H   UNL     1     -26.876  -6.956 -19.450  1.00  0.00     0.166 HD
ENDROOT
BRANCH   1  10
HETATM   10  N   UNL     1     -24.392  -7.430 -18.289  1.00  0.00    -0.314 N 
HETATM   11  C   UNL     1     -25.021  -6.832 -17.243  1.00  0.00     0.315 C 
HETATM   12  O   UNL     1     -25.947  -6.042 -17.333  1.00  0.00    -0.248 OA
HETATM   13  N   UNL     1     -24.525  -7.228 -16.046  1.00  0.00    -0.352 N 
HETATM   14  H   UNL     1     -24.204  -8.183 -15.976  1.00  0.00     0.160 HD
HETATM   15  H   UNL     1     -25.078  -6.912 -15.259  1.00  0.00     0.160 HD
HETATM   16  H   UNL     1     -23.414  -7.632 -18.127  1.00  0.00     0.166 HD
ENDBRANCH   1  10
TORSDOF 1
ENDMDL
MODEL 4
REMARK VINA RESULT:      -6.2      2.346      3.362
REMARK  1 active torsions:
REMARK  status: ('A' for Active; 'I' for Inactive)
REMARK    1  A    between atoms: C_1  and  N_8 
REMARK       I    between atoms: N_8  and  C_9 
REMARK       I    between atoms: C_9  and  N_11 
ROOT
HETATM    1  C   UNL     1     -23.382  -3.287 -10.675  1.00  0.00     0.284 A 
HETATM    2  C   UNL     1     -24.576  -3.399  -9.707  1.00  0.00     0.268 A 
HETATM    3  O   UNL     1     -25.756  -3.256  -9.999  1.00  0.00    -0.269 OA
HETATM    4  N   UNL     1     -24.101  -3.753  -8.481  1.00  0.00    -0.276 N 
HETATM    5  C   UNL     1     -22.772  -4.003  -8.547  1.00  0.00     0.324 A 
HETATM    6  O   UNL     1     -22.080  -4.426  -7.639  1.00  0.00    -0.247 OA
HETATM    7  N   UNL     1     -22.333  -3.719  -9.813  1.00  0.00    -0.313 N 
HETATM    8  H   UNL     1     -24.666  -3.949  -7.675  1.00  0.00     0.173 HD
HETATM    9  H   UNL     1     -21.374  -3.836 -10.110  1.00  0.00     0.166 HD
ENDROOT
BRANCH   1  10
HETATM   10  N   UNL     1     -23.554  -4.141 -11.812  1.00  0.00    -0.314 N 
HETATM   11  C   UNL     1     -24.097  -3.626 -12.948  1.00  0.00     0.315 C 
HETATM   12  O   UNL     1     -24.360  -2.449 -13.135  1.00  0.00    -0.248 OA
HETATM   13  N   UNL     1     -24.303  -4.572 -13.896  1.00  0.00    -0.352 N 
HETATM   14  H   UNL     1     -23.637  -5.328 -13.942  1.00  0.00     0.160 HD
HETATM   15  H   UNL     1     -24.563  -4.185 -14.796  1.00  0.00     0.160 HD
HETATM   16  H   UNL     1     -23.840  -5.089 -11.607  1.00  0.00     0.166 HD
ENDBRANCH   1  10
TORSDOF 1
ENDMDL
MODEL 5
REMARK VINA RESULT:      -6.1      1.909      4.361
REMARK  1 active torsions:
REMARK  status: ('A' for Active; 'I' for Inactive)
REMARK    1  A    between atoms: C_1  and  N_8 
REMARK       I    between atoms: N_8  and  C_9 
REMARK       I    between atoms: C_9  and  N_11 
ROOT
HETATM    1  C   UNL     1     -22.873  -4.035 -11.581  1.00  0.00     0.284 A 
HETATM    2  C   UNL     1     -24.204  -3.264 -11.677  1.00  0.00     0.268 A 
HETATM    3  O   UNL     1     -25.044  -3.165 -10.793  1.00  0.00    -0.269 OA
HETATM    4  N   UNL     1     -24.256  -2.651 -12.891  1.00  0.00    -0.276 N 
HETATM    5  C   UNL     1     -23.087  -2.821 -13.553  1.00  0.00     0.324 A 
HETATM    6  O   UNL     1     -22.794  -2.317 -14.622  1.00  0.00    -0.247 OA
HETATM    7  N   UNL     1     -22.277  -3.639 -12.813  1.00  0.00    -0.313 N 
HETATM    8  H   UNL     1     -24.988  -2.036 -13.199  1.00  0.00     0.173 HD
HETATM    9  H   UNL     1     -21.344  -3.906 -13.097  1.00  0.00     0.166 HD
ENDROOT
BRANCH   1  10
HETATM   10  N   UNL     1     -22.114  -3.620 -10.438  1.00  0.00    -0.314 N 
HETATM   11  C   UNL     1     -20.859  -4.113 -10.266  1.00  0.00     0.315 C 
HETATM   12  O   UNL     1     -20.257  -4.809 -11.068  1.00  0.00    -0.248 OA
HETATM   13  N   UNL     1     -20.308  -3.725  -9.090  1.00  0.00    -0.352 N 
HETATM   14  H   UNL     1     -20.550  -2.806  -8.752  1.00  0.00     0.160 HD
HETATM   15  H   UNL     1     -19.324  -3.956  -9.015  1.00  0.00     0.160 HD
HETATM   16  H   UNL     1     -22.640  -3.512  -9.581  1.00  0.00     0.166 HD
ENDBRANCH   1  10
TORSDOF 1
ENDMDL
MODEL 6
REMARK VINA RESULT:      -6.1      8.775      9.676
REMARK  1 active torsions:
REMARK  status: ('A' for Active; 'I' for Inactive)
REMARK    1  A    between atoms: C_1  and  N_8 
REMARK       I    between atoms: N_8  and  C_9 
REMARK       I    between atoms: C_9  and  N_11 
ROOT
HETATM    1  C   UNL     1     -30.376  -5.860 -17.557  1.00  0.00     0.284 A 
HETATM    2  C   UNL     1     -29.302  -6.569 -16.711  1.00  0.00     0.268 A 
HETATM    3  O   UNL     1     -28.867  -6.188 -15.632  1.00  0.00    -0.269 OA
HETATM    4  N   UNL     1     -28.965  -7.732 -17.333  1.00  0.00    -0.276 N 
HETATM    5  C   UNL     1     -29.761  -7.935 -18.410  1.00  0.00     0.324 A 
HETATM    6  O   UNL     1     -29.766  -8.927 -19.116  1.00  0.00    -0.247 OA
HETATM    7  N   UNL     1     -30.576  -6.846 -18.566  1.00  0.00    -0.313 N 
HETATM    8  H   UNL     1     -28.327  -8.419 -16.973  1.00  0.00     0.173 HD
HETATM    9  H   UNL     1     -31.268  -6.767 -19.300  1.00  0.00     0.166 HD
ENDROOT
BRANCH   1  10
HETATM   10  N   UNL     1     -31.558  -5.605 -16.788  1.00  0.00    -0.314 N 
HETATM   11  C   UNL     1     -32.042  -4.336 -16.724  1.00  0.00     0.315 C 
HETATM   12  O   UNL     1     -31.620  -3.386 -17.362  1.00  0.00    -0.248 OA
HETATM   13  N   UNL     1     -33.091  -4.225 -15.873  1.00  0.00    -0.352 N 
HETATM   14  H   UNL     1     -33.713  -5.017 -15.808  1.00  0.00     0.160 HD
HETATM   15  H   UNL     1     -33.557  -3.327 -15.928  1.00  0.00     0.160 HD
HETATM   16  H   UNL     1     -31.637  -6.125 -15.924  1.00  0.00     0.166 HD
ENDBRANCH   1  10
TORSDOF 1
ENDMDL
MODEL 7
REMARK VINA RESULT:      -6.0      3.063      5.382
REMARK  1 active torsions:
REMARK  status: ('A' for Active; 'I' for Inactive)
REMARK    1  A    between atoms: C_1  and  N_8 
REMARK       I    between atoms: N_8  and  C_9 
REMARK       I    between atoms: C_9  and  N_11 
ROOT
HETATM    1  C   UNL     1     -22.417  -3.740  -9.314  1.00  0.00     0.284 A 
HETATM    2  C   UNL     1     -22.649  -3.831 -10.835  1.00  0.00     0.268 A 
HETATM    3  O   UNL     1     -21.826  -4.184 -11.669  1.00  0.00    -0.269 OA
HETATM    4  N   UNL     1     -23.949  -3.517 -11.090  1.00  0.00    -0.276 N 
HETATM    5  C   UNL     1     -24.627  -3.350  -9.929  1.00  0.00     0.324 A 
HETATM    6  O   UNL     1     -25.824  -3.153  -9.825  1.00  0.00    -0.247 OA
HETATM    7  N   UNL     1     -23.747  -3.458  -8.886  1.00  0.00    -0.313 N 
HETATM    8  H   UNL     1     -24.388  -3.550 -11.992  1.00  0.00     0.173 HD
HETATM    9  H   UNL     1     -24.020  -3.379  -7.915  1.00  0.00     0.166 HD
ENDROOT
BRANCH   1  10
HETATM   10  N   UNL     1     -21.915  -4.976  -8.791  1.00  0.00    -0.314 N 
HETATM   11  C   UNL     1     -21.326  -4.982  -7.566  1.00  0.00     0.315 C 
HETATM   12  O   UNL     1     -21.278  -4.033  -6.800  1.00  0.00    -0.248 OA
HETATM   13  N   UNL     1     -20.800  -6.190  -7.251  1.00  0.00    -0.352 N 
HETATM   14  H   UNL     1     -21.289  -7.005  -7.591  1.00  0.00     0.160 HD
HETATM   15  H   UNL     1     -20.494  -6.254  -6.287  1.00  0.00     0.160 HD
HETATM   16  H   UNL     1     -21.480  -5.590  -9.465  1.00  0.00     0.166 HD
ENDBRANCH   1  10
TORSDOF 1
ENDMDL
MODEL 8
REMARK VINA RESULT:      -5.9      7.089      8.101
REMARK  1 active torsions:
REMARK  status: ('A' for Active; 'I' for Inactive)
REMARK    1  A    between atoms: C_1  and  N_8 
REMARK       I    between atoms: N_8  and  C_9 
REMARK       I    between atoms: C_9  and  N_11 
ROOT
HETATM    1  C   UNL     1     -28.522  -6.999 -16.645  1.00  0.00     0.284 A 
HETATM    2  C   UNL     1     -27.554  -6.329 -17.639  1.00  0.00     0.268 A 
HETATM    3  O   UNL     1     -27.869  -5.732 -18.660  1.00  0.00    -0.269 OA
HETATM    4  N   UNL     1     -26.288  -6.451 -17.153  1.00  0.00    -0.276 N 
HETATM    5  C   UNL     1     -26.312  -7.007 -15.918  1.00  0.00     0.324 A 
HETATM    6  O   UNL     1     -25.350  -7.163 -15.189  1.00  0.00    -0.247 OA
HETATM    7  N   UNL     1     -27.602  -7.349 -15.614  1.00  0.00    -0.313 N 
HETATM    8  H   UNL     1     -25.465  -6.056 -17.572  1.00  0.00     0.173 HD
HETATM    9  H   UNL     1     -27.876  -7.774 -14.738  1.00  0.00     0.166 HD
ENDROOT
BRANCH   1  10
HETATM   10  N   UNL     1     -29.530  -6.082 -16.203  1.00  0.00    -0.314 N 
HETATM   11  C   UNL     1     -30.740  -6.084 -16.821  1.00  0.00     0.315 C 
HETATM   12  O   UNL     1     -31.100  -6.885 -17.668  1.00  0.00    -0.248 OA
HETATM   13  N   UNL     1     -31.549  -5.092 -16.377  1.00  0.00    -0.352 N 
HETATM   14  H   UNL     1     -31.470  -4.837 -15.403  1.00  0.00     0.160 HD
HETATM   15  H   UNL     1     -32.501  -5.171 -16.714  1.00  0.00     0.160 HD
HETATM   16  H   UNL     1     -29.198  -5.164 -15.938  1.00  0.00     0.166 HD
ENDBRANCH   1  10
TORSDOF 1
ENDMDL
MODEL 9
REMARK VINA RESULT:      -5.8      2.079      2.390
REMARK  1 active torsions:
REMARK  status: ('A' for Active; 'I' for Inactive)
REMARK    1  A    between atoms: C_1  and  N_8 
REMARK       I    between atoms: N_8  and  C_9 
REMARK       I    between atoms: C_9  and  N_11 
ROOT
HETATM    1  C   UNL     1     -22.723  -4.162 -11.590  1.00  0.00     0.284 A 
HETATM    2  C   UNL     1     -21.395  -4.187 -10.810  1.00  0.00     0.268 A 
HETATM    3  O   UNL     1     -20.274  -4.081 -11.291  1.00  0.00    -0.269 OA
HETATM    4  N   UNL     1     -21.680  -4.278  -9.482  1.00  0.00    -0.276 N 
HETATM    5  C   UNL     1     -23.017  -4.197  -9.282  1.00  0.00     0.324 A 
HETATM    6  O   UNL     1     -23.575  -4.156  -8.201  1.00  0.00    -0.247 OA
HETATM    7  N   UNL     1     -23.641  -4.146 -10.500  1.00  0.00    -0.313 N 
HETATM    8  H   UNL     1     -21.003  -4.258  -8.740  1.00  0.00     0.173 HD
HETATM    9  H   UNL     1     -24.644  -4.073 -10.610  1.00  0.00     0.166 HD
ENDROOT
BRANCH   1  10
HETATM   10  N   UNL     1     -22.819  -2.993 -12.413  1.00  0.00    -0.314 N 
HETATM   11  C   UNL     1     -24.017  -2.678 -12.974  1.00  0.00     0.315 C 
HETATM   12  O   UNL     1     -25.073  -3.248 -12.751  1.00  0.00    -0.248 OA
HETATM   13  N   UNL     1     -23.932  -1.619 -13.814  1.00  0.00    -0.352 N 
HETATM   14  H   UNL     1     -23.271  -0.895 -13.574  1.00  0.00     0.160 HD
HETATM   15  H   UNL     1     -24.836  -1.278 -14.120  1.00  0.00     0.160 HD
HETATM   16  H   UNL     1     -22.021  -2.811 -13.006  1.00  0.00     0.166 HD
ENDBRANCH   1  10
TORSDOF 1
ENDMDL
