MODEL 1
REMARK VINA RESULT:      -6.9      0.000      0.000
REMARK  29 active torsions:
REMARK  status: ('A' for Active; 'I' for Inactive)
REMARK    1  A    between atoms: C_2  and  C_3 
REMARK    2  A    between atoms: C_3  and  C_4 
REMARK    3  A    between atoms: C_4  and  C_5 
REMARK    4  A    between atoms: C_5  and  C_6 
REMARK    5  A    between atoms: C_6  and  C_7 
REMARK    6  A    between atoms: C_7  and  C_8 
REMARK    7  A    between atoms: C_8  and  C_9 
REMARK    8  A    between atoms: C_9  and  C_10 
REMARK    9  A    between atoms: C_10  and  C_11 
REMARK   10  A    between atoms: C_11  and  C_12 
REMARK   11  A    between atoms: C_12  and  C_13 
REMARK   12  A    between atoms: C_13  and  C_14 
REMARK   13  A    between atoms: C_14  and  C_15 
REMARK   14  A    between atoms: C_15  and  C_16 
REMARK       I    between atoms: C_16  and  N_18 
REMARK   15  A    between atoms: N_18  and  C_19 
REMARK   16  A    between atoms: C_19  and  C_20 
REMARK       I    between atoms: C_20  and  N_23 
REMARK   17  A    between atoms: N_23  and  CA_24 
REMARK   18  A    between atoms: CA_24  and  CB_25 
REMARK   19  A    between atoms: CA_24  and  C_30 
REMARK   20  A    between atoms: CB_25  and  CG_26 
REMARK   21  A    between atoms: CG_26  and  CD_27 
REMARK       I    between atoms: CD_27  and  NE2_29 
REMARK       I    between atoms: C_30  and  N_35 
REMARK   22  A    between atoms: CA_39  and  C_40 
REMARK       I    between atoms: C_40  and  N_42 
REMARK   23  A    between atoms: N_42  and  CA_43 
REMARK   24  A    between atoms: CA_43  and  CB_44 
REMARK   25  A    between atoms: CA_43  and  C_52 
REMARK   26  A    between atoms: CB_44  and  CG_45 
REMARK   27  A    between atoms: CG_45  and  CD_46 
REMARK   28  A    between atoms: CD_46  and  NE_47 
REMARK       I    between atoms: NE_47  and  CZ_49 
REMARK       I    between atoms: CZ_49  and  NH1_50 
REMARK   29  A    between atoms: C_52  and  OXT_54 
ROOT
ATOM      1  CA  GLN A   1     -21.546 -12.288  -1.878  1.00  0.00     0.177 C 
ENDROOT
BRANCH   1   2
ATOM      2  N   GLN A   1     -21.471 -10.906  -1.313  1.00  0.00    -0.346 N 
HETATM    3  C   UNK A   0     -21.194 -10.647   0.061  1.00  0.00     0.236 C 
HETATM    4  O   UNK A   0     -21.013 -11.525   0.912  1.00  0.00    -0.272 OA
ATOM      5  H   GLN A   1     -21.506 -10.130  -1.978  1.00  0.00     0.163 HD
BRANCH   3   6
HETATM    6  C   UNK A   0     -21.097  -9.140   0.450  1.00  0.00     0.225 C 
BRANCH   6   7
HETATM    7  N   UNK A   0     -21.132  -8.236  -0.698  1.00  0.00    -0.352 N 
HETATM    8  C   UNK A   0     -22.175  -7.347  -0.898  1.00  0.00     0.217 C 
HETATM    9  O   UNK A   0     -23.136  -7.250  -0.138  1.00  0.00    -0.274 OA
HETATM   10  H   UNK A   0     -20.307  -8.221  -1.296  1.00  0.00     0.162 HD
BRANCH   8  11
HETATM   11  C   UNK A   0     -22.032  -6.501  -2.153  1.00  0.00     0.103 C 
BRANCH  11  12
HETATM   12  C   UNK A   0     -21.056  -7.125  -3.146  1.00  0.00     0.009 C 
BRANCH  12  13
HETATM   13  C   UNK A   0     -21.743  -7.616  -4.420  1.00  0.00     0.000 C 
BRANCH  13  14
HETATM   14  C   UNK A   0     -22.222  -6.422  -5.240  1.00  0.00     0.000 C 
BRANCH  14  15
HETATM   15  C   UNK A   0     -21.110  -5.400  -5.416  1.00  0.00     0.000 C 
BRANCH  15  16
HETATM   16  C   UNK A   0     -21.369  -4.541  -6.647  1.00  0.00     0.000 C 
BRANCH  16  17
HETATM   17  C   UNK A   0     -21.103  -5.341  -7.911  1.00  0.00     0.000 C 
BRANCH  17  18
HETATM   18  C   UNK A   0     -19.884  -4.792  -8.634  1.00  0.00     0.000 C 
BRANCH  18  19
HETATM   19  C   UNK A   0     -20.304  -3.740  -9.648  1.00  0.00     0.000 C 
BRANCH  19  20
HETATM   20  C   UNK A   0     -20.291  -4.329 -11.050  1.00  0.00     0.000 C 
BRANCH  20  21
HETATM   21  C   UNK A   0     -21.693  -4.317 -11.638  1.00  0.00     0.000 C 
BRANCH  21  22
HETATM   22  C   UNK A   0     -22.160  -2.886 -11.866  1.00  0.00     0.000 C 
BRANCH  22  23
HETATM   23  C   UNK A   0     -23.679  -2.809 -11.808  1.00  0.00    -0.000 C 
BRANCH  23  24
HETATM   24  C   UNK A   0     -24.239  -3.868 -10.866  1.00  0.00    -0.005 C 
HETATM   25  C   UNK A   0     -24.503  -3.279  -9.493  1.00  0.00     0.005 C 
ENDBRANCH  23  24
ENDBRANCH  22  23
ENDBRANCH  21  22
ENDBRANCH  20  21
ENDBRANCH  19  20
ENDBRANCH  18  19
ENDBRANCH  17  18
ENDBRANCH  16  17
ENDBRANCH  15  16
ENDBRANCH  14  15
ENDBRANCH  13  14
ENDBRANCH  12  13
ENDBRANCH  11  12
ENDBRANCH   8  11
ENDBRANCH   6   7
ENDBRANCH   3   6
ENDBRANCH   1   2
BRANCH   1  26
ATOM     26  CB  GLN A   1     -23.020 -12.592  -2.181  1.00  0.00     0.044 C 
BRANCH  26  27
ATOM     27  CG  GLN A   1     -23.897 -13.019  -1.006  1.00  0.00     0.105 C 
BRANCH  27  28
ATOM     28  CD  GLN A   1     -23.198 -14.083  -0.177  1.00  0.00     0.215 C 
ATOM     29  OE1 GLN A   1     -22.840 -15.170  -0.607  1.00  0.00    -0.274 OA
ATOM     30  NE2 GLN A   1     -22.989 -13.732   1.116  1.00  0.00    -0.370 N 
ATOM     31 1HE2 GLN A   1     -23.359 -12.901   1.547  1.00  0.00     0.159 HD
ATOM     32 2HE2 GLN A   1     -22.593 -14.446   1.738  1.00  0.00     0.159 HD
ENDBRANCH  27  28
ENDBRANCH  26  27
ENDBRANCH   1  26
BRANCH   1  33
ATOM     33  C   GLN A   1     -20.471 -12.563  -3.002  1.00  0.00     0.243 C 
ATOM     34  O   GLN A   1     -19.516 -13.294  -2.709  1.00  0.00    -0.271 OA
ATOM     35  N   PRO A   2     -20.554 -12.066  -4.303  1.00  0.00    -0.337 N 
ATOM     36  CD  PRO A   2     -21.556 -11.206  -4.928  1.00  0.00     0.127 C 
ATOM     37  CA  PRO A   2     -19.714 -12.596  -5.412  1.00  0.00     0.179 C 
ATOM     38  CG  PRO A   2     -21.943 -11.974  -6.181  1.00  0.00     0.022 C 
ATOM     39  CB  PRO A   2     -20.602 -12.475  -6.689  1.00  0.00     0.037 C 
BRANCH  37  40
ATOM     40  C   PRO A   2     -18.487 -11.734  -5.685  1.00  0.00     0.241 C 
ATOM     41  O   PRO A   2     -18.493 -10.869  -6.558  1.00  0.00    -0.271 OA
ATOM     42  N   ARG A   3     -17.365 -12.040  -4.976  1.00  0.00    -0.345 N 
ATOM     43  H   ARG A   3     -17.306 -12.927  -4.487  1.00  0.00     0.163 HD
BRANCH  42  44
ATOM     44  CA  ARG A   3     -16.117 -11.346  -5.200  1.00  0.00     0.182 C 
BRANCH  44  45
ATOM     45  CB  ARG A   3     -15.554 -10.746  -3.912  1.00  0.00     0.038 C 
BRANCH  45  46
ATOM     46  CG  ARG A   3     -15.619 -11.752  -2.780  1.00  0.00     0.023 C 
BRANCH  46  47
ATOM     47  CD  ARG A   3     -16.191 -11.153  -1.522  1.00  0.00     0.138 C 
BRANCH  47  48
ATOM     48  NE  ARG A   3     -17.409 -11.884  -1.276  1.00  0.00    -0.227 N 
ATOM     49  CZ  ARG A   3     -17.566 -12.298  -0.040  1.00  0.00     0.665 C 
ATOM     50  NH1 ARG A   3     -16.718 -12.077   0.994  1.00  0.00    -0.235 N 
ATOM     51  NH2 ARG A   3     -18.592 -13.101   0.276  1.00  0.00    -0.235 N 
ATOM     52 HH11 ARG A   3     -15.953 -11.418   0.889  1.00  0.00     0.174 HD
ATOM     53 HH12 ARG A   3     -17.016 -12.218   1.947  1.00  0.00     0.174 HD
ATOM     54 HH21 ARG A   3     -19.345 -13.185  -0.415  1.00  0.00     0.174 HD
ATOM     55 HH22 ARG A   3     -18.891 -13.148   1.230  1.00  0.00     0.174 HD
ATOM     56  HE  ARG A   3     -18.098 -12.065  -2.007  1.00  0.00     0.177 HD
ENDBRANCH  47  48
ENDBRANCH  46  47
ENDBRANCH  45  46
ENDBRANCH  44  45
BRANCH  44  57
ATOM     57  C   ARG A   3     -15.145 -12.396  -5.696  1.00  0.00     0.163 C 
ATOM     58  O   ARG A   3     -15.513 -13.506  -6.094  1.00  0.00    -0.648 OA
BRANCH  57  59
ATOM     59  OXT ARG A   3     -13.865 -12.003  -5.807  1.00  0.00    -0.775 OA
ATOM     60  HXT ARG A   3     -13.560 -11.369  -5.124  1.00  0.00     0.167 HD
ENDBRANCH  57  59
ENDBRANCH  44  57
ENDBRANCH  42  44
ENDBRANCH  37  40
ENDBRANCH   1  33
TORSDOF 29
ENDMDL
MODEL 2
REMARK VINA RESULT:      -6.7      1.972      3.790
REMARK  29 active torsions:
REMARK  status: ('A' for Active; 'I' for Inactive)
REMARK    1  A    between atoms: C_2  and  C_3 
REMARK    2  A    between atoms: C_3  and  C_4 
REMARK    3  A    between atoms: C_4  and  C_5 
REMARK    4  A    between atoms: C_5  and  C_6 
REMARK    5  A    between atoms: C_6  and  C_7 
REMARK    6  A    between atoms: C_7  and  C_8 
REMARK    7  A    between atoms: C_8  and  C_9 
REMARK    8  A    between atoms: C_9  and  C_10 
REMARK    9  A    between atoms: C_10  and  C_11 
REMARK   10  A    between atoms: C_11  and  C_12 
REMARK   11  A    between atoms: C_12  and  C_13 
REMARK   12  A    between atoms: C_13  and  C_14 
REMARK   13  A    between atoms: C_14  and  C_15 
REMARK   14  A    between atoms: C_15  and  C_16 
REMARK       I    between atoms: C_16  and  N_18 
REMARK   15  A    between atoms: N_18  and  C_19 
REMARK   16  A    between atoms: C_19  and  C_20 
REMARK       I    between atoms: C_20  and  N_23 
REMARK   17  A    between atoms: N_23  and  CA_24 
REMARK   18  A    between atoms: CA_24  and  CB_25 
REMARK   19  A    between atoms: CA_24  and  C_30 
REMARK   20  A    between atoms: CB_25  and  CG_26 
REMARK   21  A    between atoms: CG_26  and  CD_27 
REMARK       I    between atoms: CD_27  and  NE2_29 
REMARK       I    between atoms: C_30  and  N_35 
REMARK   22  A    between atoms: CA_39  and  C_40 
REMARK       I    between atoms: C_40  and  N_42 
REMARK   23  A    between atoms: N_42  and  CA_43 
REMARK   24  A    between atoms: CA_43  and  CB_44 
REMARK   25  A    between atoms: CA_43  and  C_52 
REMARK   26  A    between atoms: CB_44  and  CG_45 
REMARK   27  A    between atoms: CG_45  and  CD_46 
REMARK   28  A    between atoms: CD_46  and  NE_47 
REMARK       I    between atoms: NE_47  and  CZ_49 
REMARK       I    between atoms: CZ_49  and  NH1_50 
REMARK   29  A    between atoms: C_52  and  OXT_54 
ROOT
ATOM      1  CA  GLN A   1     -20.573 -11.478  -4.592  1.00  0.00     0.177 C 
ENDROOT
BRANCH   1   2
ATOM      2  N   GLN A   1     -21.066 -11.557  -3.184  1.00  0.00    -0.346 N 
HETATM    3  C   UNK A   0     -22.446 -11.463  -2.842  1.00  0.00     0.236 C 
HETATM    4  O   UNK A   0     -23.356 -11.288  -3.661  1.00  0.00    -0.272 OA
ATOM      5  H   GLN A   1     -20.383 -11.807  -2.465  1.00  0.00     0.163 HD
BRANCH   3   6
HETATM    6  C   UNK A   0     -22.772 -11.628  -1.326  1.00  0.00     0.225 C 
BRANCH   6   7
HETATM    7  N   UNK A   0     -22.752 -10.370  -0.583  1.00  0.00    -0.352 N 
HETATM    8  C   UNK A   0     -21.577  -9.835  -0.080  1.00  0.00     0.217 C 
HETATM    9  O   UNK A   0     -20.479 -10.368  -0.217  1.00  0.00    -0.274 OA
HETATM   10  H   UNK A   0     -23.629  -9.853  -0.533  1.00  0.00     0.162 HD
BRANCH   8  11
HETATM   11  C   UNK A   0     -21.768  -8.527   0.670  1.00  0.00     0.103 C 
BRANCH  11  12
HETATM   12  C   UNK A   0     -22.310  -7.429  -0.240  1.00  0.00     0.009 C 
BRANCH  12  13
HETATM   13  C   UNK A   0     -21.677  -7.448  -1.631  1.00  0.00     0.000 C 
BRANCH  13  14
HETATM   14  C   UNK A   0     -21.929  -6.116  -2.331  1.00  0.00     0.000 C 
BRANCH  14  15
HETATM   15  C   UNK A   0     -21.230  -6.067  -3.680  1.00  0.00     0.000 C 
BRANCH  15  16
HETATM   16  C   UNK A   0     -22.116  -6.673  -4.760  1.00  0.00     0.000 C 
BRANCH  16  17
HETATM   17  C   UNK A   0     -21.466  -6.513  -6.124  1.00  0.00     0.000 C 
BRANCH  17  18
HETATM   18  C   UNK A   0     -20.108  -5.846  -5.985  1.00  0.00     0.000 C 
BRANCH  18  19
HETATM   19  C   UNK A   0     -20.059  -4.575  -6.818  1.00  0.00     0.000 C 
BRANCH  19  20
HETATM   20  C   UNK A   0     -21.214  -4.552  -7.806  1.00  0.00     0.000 C 
BRANCH  20  21
HETATM   21  C   UNK A   0     -20.696  -4.307  -9.215  1.00  0.00     0.000 C 
BRANCH  21  22
HETATM   22  C   UNK A   0     -21.853  -4.266 -10.204  1.00  0.00     0.000 C 
BRANCH  22  23
HETATM   23  C   UNK A   0     -23.175  -4.488  -9.482  1.00  0.00    -0.000 C 
BRANCH  23  24
HETATM   24  C   UNK A   0     -24.201  -3.441  -9.899  1.00  0.00    -0.005 C 
HETATM   25  C   UNK A   0     -24.195  -3.252 -11.404  1.00  0.00     0.005 C 
ENDBRANCH  23  24
ENDBRANCH  22  23
ENDBRANCH  21  22
ENDBRANCH  20  21
ENDBRANCH  19  20
ENDBRANCH  18  19
ENDBRANCH  17  18
ENDBRANCH  16  17
ENDBRANCH  15  16
ENDBRANCH  14  15
ENDBRANCH  13  14
ENDBRANCH  12  13
ENDBRANCH  11  12
ENDBRANCH   8  11
ENDBRANCH   6   7
ENDBRANCH   3   6
ENDBRANCH   1   2
BRANCH   1  26
ATOM     26  CB  GLN A   1     -20.375  -9.996  -4.938  1.00  0.00     0.044 C 
BRANCH  26  27
ATOM     27  CG  GLN A   1     -19.191  -9.283  -4.285  1.00  0.00     0.105 C 
BRANCH  27  28
ATOM     28  CD  GLN A   1     -17.911  -9.564  -5.051  1.00  0.00     0.215 C 
ATOM     29  OE1 GLN A   1     -16.917 -10.090  -4.570  1.00  0.00    -0.274 OA
ATOM     30  NE2 GLN A   1     -17.945  -9.181  -6.352  1.00  0.00    -0.370 N 
ATOM     31 1HE2 GLN A   1     -18.690  -8.648  -6.768  1.00  0.00     0.159 HD
ATOM     32 2HE2 GLN A   1     -17.077  -9.275  -6.892  1.00  0.00     0.159 HD
ENDBRANCH  27  28
ENDBRANCH  26  27
ENDBRANCH   1  26
BRANCH   1  33
ATOM     33  C   GLN A   1     -19.399 -12.489  -4.901  1.00  0.00     0.243 C 
ATOM     34  O   GLN A   1     -18.885 -13.075  -3.939  1.00  0.00    -0.271 OA
ATOM     35  N   PRO A   2     -18.939 -12.787  -6.185  1.00  0.00    -0.337 N 
ATOM     36  CD  PRO A   2     -19.357 -12.271  -7.485  1.00  0.00     0.127 C 
ATOM     37  CA  PRO A   2     -18.070 -13.962  -6.465  1.00  0.00     0.179 C 
ATOM     38  CG  PRO A   2     -19.629 -13.531  -8.289  1.00  0.00     0.022 C 
ATOM     39  CB  PRO A   2     -18.468 -14.430  -7.900  1.00  0.00     0.037 C 
BRANCH  37  40
ATOM     40  C   PRO A   2     -16.593 -13.596  -6.552  1.00  0.00     0.241 C 
ATOM     41  O   PRO A   2     -16.198 -12.691  -7.283  1.00  0.00    -0.271 OA
ATOM     42  N   ARG A   3     -15.734 -14.386  -5.849  1.00  0.00    -0.345 N 
ATOM     43  H   ARG A   3     -16.049 -15.284  -5.497  1.00  0.00     0.163 HD
BRANCH  42  44
ATOM     44  CA  ARG A   3     -14.303 -14.188  -5.911  1.00  0.00     0.182 C 
BRANCH  44  45
ATOM     45  CB  ARG A   3     -13.722 -13.768  -4.561  1.00  0.00     0.038 C 
BRANCH  45  46
ATOM     46  CG  ARG A   3     -14.691 -14.085  -3.439  1.00  0.00     0.023 C 
BRANCH  46  47
ATOM     47  CD  ARG A   3     -14.787 -12.962  -2.440  1.00  0.00     0.138 C 
BRANCH  47  48
ATOM     48  NE  ARG A   3     -16.082 -12.368  -2.664  1.00  0.00    -0.227 N 
ATOM     49  CZ  ARG A   3     -16.604 -11.768  -1.619  1.00  0.00     0.665 C 
ATOM     50  NH1 ARG A   3     -16.031 -11.643  -0.396  1.00  0.00    -0.235 N 
ATOM     51  NH2 ARG A   3     -17.858 -11.298  -1.669  1.00  0.00    -0.235 N 
ATOM     52 HH11 ARG A   3     -15.055 -11.891  -0.268  1.00  0.00     0.174 HD
ATOM     53 HH12 ARG A   3     -16.381 -10.975   0.273  1.00  0.00     0.174 HD
ATOM     54 HH21 ARG A   3     -18.289 -11.227  -2.596  1.00  0.00     0.174 HD
ATOM     55 HH22 ARG A   3     -18.131 -10.584  -1.024  1.00  0.00     0.174 HD
ATOM     56  HE  ARG A   3     -16.556 -12.410  -3.566  1.00  0.00     0.177 HD
ENDBRANCH  47  48
ENDBRANCH  46  47
ENDBRANCH  45  46
ENDBRANCH  44  45
BRANCH  44  57
ATOM     57  C   ARG A   3     -13.716 -15.535  -6.279  1.00  0.00     0.163 C 
ATOM     58  O   ARG A   3     -12.553 -15.668  -6.670  1.00  0.00    -0.648 OA
BRANCH  57  59
ATOM     59  OXT ARG A   3     -14.493 -16.601  -6.024  1.00  0.00    -0.775 OA
ATOM     60  HXT ARG A   3     -14.077 -17.473  -6.193  1.00  0.00     0.167 HD
ENDBRANCH  57  59
ENDBRANCH  44  57
ENDBRANCH  42  44
ENDBRANCH  37  40
ENDBRANCH   1  33
TORSDOF 29
ENDMDL
MODEL 3
REMARK VINA RESULT:      -6.5      1.632      3.731
REMARK  29 active torsions:
REMARK  status: ('A' for Active; 'I' for Inactive)
REMARK    1  A    between atoms: C_2  and  C_3 
REMARK    2  A    between atoms: C_3  and  C_4 
REMARK    3  A    between atoms: C_4  and  C_5 
REMARK    4  A    between atoms: C_5  and  C_6 
REMARK    5  A    between atoms: C_6  and  C_7 
REMARK    6  A    between atoms: C_7  and  C_8 
REMARK    7  A    between atoms: C_8  and  C_9 
REMARK    8  A    between atoms: C_9  and  C_10 
REMARK    9  A    between atoms: C_10  and  C_11 
REMARK   10  A    between atoms: C_11  and  C_12 
REMARK   11  A    between atoms: C_12  and  C_13 
REMARK   12  A    between atoms: C_13  and  C_14 
REMARK   13  A    between atoms: C_14  and  C_15 
REMARK   14  A    between atoms: C_15  and  C_16 
REMARK       I    between atoms: C_16  and  N_18 
REMARK   15  A    between atoms: N_18  and  C_19 
REMARK   16  A    between atoms: C_19  and  C_20 
REMARK       I    between atoms: C_20  and  N_23 
REMARK   17  A    between atoms: N_23  and  CA_24 
REMARK   18  A    between atoms: CA_24  and  CB_25 
REMARK   19  A    between atoms: CA_24  and  C_30 
REMARK   20  A    between atoms: CB_25  and  CG_26 
REMARK   21  A    between atoms: CG_26  and  CD_27 
REMARK       I    between atoms: CD_27  and  NE2_29 
REMARK       I    between atoms: C_30  and  N_35 
REMARK   22  A    between atoms: CA_39  and  C_40 
REMARK       I    between atoms: C_40  and  N_42 
REMARK   23  A    between atoms: N_42  and  CA_43 
REMARK   24  A    between atoms: CA_43  and  CB_44 
REMARK   25  A    between atoms: CA_43  and  C_52 
REMARK   26  A    between atoms: CB_44  and  CG_45 
REMARK   27  A    between atoms: CG_45  and  CD_46 
REMARK   28  A    between atoms: CD_46  and  NE_47 
REMARK       I    between atoms: NE_47  and  CZ_49 
REMARK       I    between atoms: CZ_49  and  NH1_50 
REMARK   29  A    between atoms: C_52  and  OXT_54 
ROOT
ATOM      1  CA  GLN A   1     -20.392 -11.718  -1.846  1.00  0.00     0.177 C 
ENDROOT
BRANCH   1   2
ATOM      2  N   GLN A   1     -20.796 -10.452  -1.162  1.00  0.00    -0.346 N 
HETATM    3  C   UNK A   0     -20.815 -10.312   0.256  1.00  0.00     0.236 C 
HETATM    4  O   UNK A   0     -20.527 -11.216   1.049  1.00  0.00    -0.272 OA
ATOM      5  H   GLN A   1     -20.945  -9.631  -1.753  1.00  0.00     0.163 HD
BRANCH   3   6
HETATM    6  C   UNK A   0     -21.206  -8.897   0.783  1.00  0.00     0.225 C 
BRANCH   6   7
HETATM    7  N   UNK A   0     -21.258  -7.877  -0.263  1.00  0.00    -0.352 N 
HETATM    8  C   UNK A   0     -22.436  -7.227  -0.593  1.00  0.00     0.217 C 
HETATM    9  O   UNK A   0     -23.510  -7.453  -0.042  1.00  0.00    -0.274 OA
HETATM   10  H   UNK A   0     -20.369  -7.597  -0.674  1.00  0.00     0.162 HD
BRANCH   8  11
HETATM   11  C   UNK A   0     -22.284  -6.209  -1.711  1.00  0.00     0.103 C 
BRANCH  11  12
HETATM   12  C   UNK A   0     -21.118  -6.552  -2.633  1.00  0.00     0.009 C 
BRANCH  12  13
HETATM   13  C   UNK A   0     -21.518  -7.497  -3.766  1.00  0.00     0.000 C 
BRANCH  13  14
HETATM   14  C   UNK A   0     -21.802  -6.693  -5.031  1.00  0.00     0.000 C 
BRANCH  14  15
HETATM   15  C   UNK A   0     -20.530  -6.477  -5.837  1.00  0.00     0.000 C 
BRANCH  15  16
HETATM   16  C   UNK A   0     -20.197  -4.994  -5.914  1.00  0.00     0.000 C 
BRANCH  16  17
HETATM   17  C   UNK A   0     -19.294  -4.719  -7.106  1.00  0.00     0.000 C 
BRANCH  17  18
HETATM   18  C   UNK A   0     -20.065  -3.986  -8.192  1.00  0.00     0.000 C 
BRANCH  18  19
HETATM   19  C   UNK A   0     -21.445  -3.598  -7.686  1.00  0.00     0.000 C 
BRANCH  19  20
HETATM   20  C   UNK A   0     -22.496  -4.533  -8.264  1.00  0.00     0.000 C 
BRANCH  20  21
HETATM   21  C   UNK A   0     -23.446  -3.762  -9.166  1.00  0.00     0.000 C 
BRANCH  21  22
HETATM   22  C   UNK A   0     -24.095  -4.700 -10.175  1.00  0.00     0.000 C 
BRANCH  22  23
HETATM   23  C   UNK A   0     -23.427  -4.557 -11.536  1.00  0.00    -0.000 C 
BRANCH  23  24
HETATM   24  C   UNK A   0     -22.892  -3.144 -11.731  1.00  0.00    -0.005 C 
HETATM   25  C   UNK A   0     -23.372  -2.564 -13.048  1.00  0.00     0.005 C 
ENDBRANCH  23  24
ENDBRANCH  22  23
ENDBRANCH  21  22
ENDBRANCH  20  21
ENDBRANCH  19  20
ENDBRANCH  18  19
ENDBRANCH  17  18
ENDBRANCH  16  17
ENDBRANCH  15  16
ENDBRANCH  14  15
ENDBRANCH  13  14
ENDBRANCH  12  13
ENDBRANCH  11  12
ENDBRANCH   8  11
ENDBRANCH   6   7
ENDBRANCH   3   6
ENDBRANCH   1   2
BRANCH   1  26
ATOM     26  CB  GLN A   1     -21.509 -12.097  -2.829  1.00  0.00     0.044 C 
BRANCH  26  27
ATOM     27  CG  GLN A   1     -22.620 -13.003  -2.301  1.00  0.00     0.105 C 
BRANCH  27  28
ATOM     28  CD  GLN A   1     -23.442 -12.282  -1.248  1.00  0.00     0.215 C 
ATOM     29  OE1 GLN A   1     -23.939 -11.175  -1.397  1.00  0.00    -0.274 OA
ATOM     30  NE2 GLN A   1     -23.596 -12.975  -0.092  1.00  0.00    -0.370 N 
ATOM     31 1HE2 GLN A   1     -23.120 -13.836   0.122  1.00  0.00     0.159 HD
ATOM     32 2HE2 GLN A   1     -24.075 -12.499   0.680  1.00  0.00     0.159 HD
ENDBRANCH  27  28
ENDBRANCH  26  27
ENDBRANCH   1  26
BRANCH   1  33
ATOM     33  C   GLN A   1     -18.901 -11.699  -2.367  1.00  0.00     0.243 C 
ATOM     34  O   GLN A   1     -18.676 -11.098  -3.426  1.00  0.00    -0.271 OA
ATOM     35  N   PRO A   2     -17.828 -12.280  -1.691  1.00  0.00    -0.337 N 
ATOM     36  CD  PRO A   2     -17.790 -13.028  -0.437  1.00  0.00     0.127 C 
ATOM     37  CA  PRO A   2     -16.412 -11.973  -2.033  1.00  0.00     0.179 C 
ATOM     38  CG  PRO A   2     -16.713 -12.314   0.363  1.00  0.00     0.022 C 
ATOM     39  CB  PRO A   2     -15.638 -12.062  -0.681  1.00  0.00     0.037 C 
BRANCH  37  40
ATOM     40  C   PRO A   2     -15.781 -13.029  -2.933  1.00  0.00     0.241 C 
ATOM     41  O   PRO A   2     -15.138 -13.968  -2.469  1.00  0.00    -0.271 OA
ATOM     42  N   ARG A   3     -15.892 -12.820  -4.275  1.00  0.00    -0.345 N 
ATOM     43  H   ARG A   3     -16.166 -11.907  -4.621  1.00  0.00     0.163 HD
BRANCH  42  44
ATOM     44  CA  ARG A   3     -15.270 -13.709  -5.231  1.00  0.00     0.182 C 
BRANCH  44  45
ATOM     45  CB  ARG A   3     -16.094 -13.843  -6.512  1.00  0.00     0.038 C 
BRANCH  45  46
ATOM     46  CG  ARG A   3     -16.896 -12.582  -6.766  1.00  0.00     0.023 C 
BRANCH  46  47
ATOM     47  CD  ARG A   3     -18.106 -12.845  -7.624  1.00  0.00     0.138 C 
BRANCH  47  48
ATOM     48  NE  ARG A   3     -18.982 -11.723  -7.393  1.00  0.00    -0.227 N 
ATOM     49  CZ  ARG A   3     -20.018 -11.979  -6.628  1.00  0.00     0.665 C 
ATOM     50  NH1 ARG A   3     -20.305 -13.165  -6.036  1.00  0.00    -0.235 N 
ATOM     51  NH2 ARG A   3     -20.972 -11.054  -6.453  1.00  0.00    -0.235 N 
ATOM     52 HH11 ARG A   3     -19.615 -13.910  -6.035  1.00  0.00     0.174 HD
ATOM     53 HH12 ARG A   3     -20.975 -13.219  -5.284  1.00  0.00     0.174 HD
ATOM     54 HH21 ARG A   3     -20.748 -10.097  -6.746  1.00  0.00     0.174 HD
ATOM     55 HH22 ARG A   3     -21.564 -11.118  -5.649  1.00  0.00     0.174 HD
ATOM     56  HE  ARG A   3     -18.811 -10.801  -7.793  1.00  0.00     0.177 HD
ENDBRANCH  47  48
ENDBRANCH  46  47
ENDBRANCH  45  46
ENDBRANCH  44  45
BRANCH  44  57
ATOM     57  C   ARG A   3     -13.945 -13.067  -5.588  1.00  0.00     0.163 C 
ATOM     58  O   ARG A   3     -13.631 -11.935  -5.205  1.00  0.00    -0.648 OA
BRANCH  57  59
ATOM     59  OXT ARG A   3     -13.068 -13.854  -6.233  1.00  0.00    -0.775 OA
ATOM     60  HXT ARG A   3     -12.134 -13.765  -5.947  1.00  0.00     0.167 HD
ENDBRANCH  57  59
ENDBRANCH  44  57
ENDBRANCH  42  44
ENDBRANCH  37  40
ENDBRANCH   1  33
TORSDOF 29
ENDMDL
MODEL 4
REMARK VINA RESULT:      -6.5      3.236      5.196
REMARK  29 active torsions:
REMARK  status: ('A' for Active; 'I' for Inactive)
REMARK    1  A    between atoms: C_2  and  C_3 
REMARK    2  A    between atoms: C_3  and  C_4 
REMARK    3  A    between atoms: C_4  and  C_5 
REMARK    4  A    between atoms: C_5  and  C_6 
REMARK    5  A    between atoms: C_6  and  C_7 
REMARK    6  A    between atoms: C_7  and  C_8 
REMARK    7  A    between atoms: C_8  and  C_9 
REMARK    8  A    between atoms: C_9  and  C_10 
REMARK    9  A    between atoms: C_10  and  C_11 
REMARK   10  A    between atoms: C_11  and  C_12 
REMARK   11  A    between atoms: C_12  and  C_13 
REMARK   12  A    between atoms: C_13  and  C_14 
REMARK   13  A    between atoms: C_14  and  C_15 
REMARK   14  A    between atoms: C_15  and  C_16 
REMARK       I    between atoms: C_16  and  N_18 
REMARK   15  A    between atoms: N_18  and  C_19 
REMARK   16  A    between atoms: C_19  and  C_20 
REMARK       I    between atoms: C_20  and  N_23 
REMARK   17  A    between atoms: N_23  and  CA_24 
REMARK   18  A    between atoms: CA_24  and  CB_25 
REMARK   19  A    between atoms: CA_24  and  C_30 
REMARK   20  A    between atoms: CB_25  and  CG_26 
REMARK   21  A    between atoms: CG_26  and  CD_27 
REMARK       I    between atoms: CD_27  and  NE2_29 
REMARK       I    between atoms: C_30  and  N_35 
REMARK   22  A    between atoms: CA_39  and  C_40 
REMARK       I    between atoms: C_40  and  N_42 
REMARK   23  A    between atoms: N_42  and  CA_43 
REMARK   24  A    between atoms: CA_43  and  CB_44 
REMARK   25  A    between atoms: CA_43  and  C_52 
REMARK   26  A    between atoms: CB_44  and  CG_45 
REMARK   27  A    between atoms: CG_45  and  CD_46 
REMARK   28  A    between atoms: CD_46  and  NE_47 
REMARK       I    between atoms: NE_47  and  CZ_49 
REMARK       I    between atoms: CZ_49  and  NH1_50 
REMARK   29  A    between atoms: C_52  and  OXT_54 
ROOT
ATOM      1  CA  GLN A   1     -20.059 -11.731  -3.142  1.00  0.00     0.177 C 
ENDROOT
BRANCH   1   2
ATOM      2  N   GLN A   1     -20.278 -10.809  -1.986  1.00  0.00    -0.346 N 
HETATM    3  C   UNK A   0     -20.768 -11.254  -0.724  1.00  0.00     0.236 C 
HETATM    4  O   UNK A   0     -21.077 -12.424  -0.471  1.00  0.00    -0.272 OA
ATOM      5  H   GLN A   1     -19.945  -9.848  -2.089  1.00  0.00     0.163 HD
BRANCH   3   6
HETATM    6  C   UNK A   0     -20.873 -10.155   0.377  1.00  0.00     0.225 C 
BRANCH   6   7
HETATM    7  N   UNK A   0     -21.104  -8.814  -0.156  1.00  0.00    -0.352 N 
HETATM    8  C   UNK A   0     -22.380  -8.305  -0.332  1.00  0.00     0.217 C 
HETATM    9  O   UNK A   0     -23.401  -8.932  -0.059  1.00  0.00    -0.274 OA
HETATM   10  H   UNK A   0     -20.281  -8.231  -0.303  1.00  0.00     0.162 HD
BRANCH   8  11
HETATM   11  C   UNK A   0     -22.409  -6.898  -0.906  1.00  0.00     0.103 C 
BRANCH  11  12
HETATM   12  C   UNK A   0     -21.345  -6.706  -1.983  1.00  0.00     0.009 C 
BRANCH  12  13
HETATM   13  C   UNK A   0     -21.607  -7.551  -3.229  1.00  0.00     0.000 C 
BRANCH  13  14
HETATM   14  C   UNK A   0     -22.029  -6.648  -4.384  1.00  0.00     0.000 C 
BRANCH  14  15
HETATM   15  C   UNK A   0     -21.395  -7.100  -5.690  1.00  0.00     0.000 C 
BRANCH  15  16
HETATM   16  C   UNK A   0     -20.094  -6.347  -5.936  1.00  0.00     0.000 C 
BRANCH  16  17
HETATM   17  C   UNK A   0     -20.269  -4.874  -5.607  1.00  0.00     0.000 C 
BRANCH  17  18
HETATM   18  C   UNK A   0     -20.702  -4.106  -6.846  1.00  0.00     0.000 C 
BRANCH  18  19
HETATM   19  C   UNK A   0     -19.717  -4.340  -7.980  1.00  0.00     0.000 C 
BRANCH  19  20
HETATM   20  C   UNK A   0     -20.408  -4.150  -9.321  1.00  0.00     0.000 C 
BRANCH  20  21
HETATM   21  C   UNK A   0     -21.917  -4.114  -9.135  1.00  0.00     0.000 C 
BRANCH  21  22
HETATM   22  C   UNK A   0     -22.618  -4.535 -10.419  1.00  0.00     0.000 C 
BRANCH  22  23
HETATM   23  C   UNK A   0     -21.930  -3.913 -11.627  1.00  0.00    -0.000 C 
BRANCH  23  24
HETATM   24  C   UNK A   0     -22.706  -2.700 -12.126  1.00  0.00    -0.005 C 
HETATM   25  C   UNK A   0     -24.171  -3.042 -12.323  1.00  0.00     0.005 C 
ENDBRANCH  23  24
ENDBRANCH  22  23
ENDBRANCH  21  22
ENDBRANCH  20  21
ENDBRANCH  19  20
ENDBRANCH  18  19
ENDBRANCH  17  18
ENDBRANCH  16  17
ENDBRANCH  15  16
ENDBRANCH  14  15
ENDBRANCH  13  14
ENDBRANCH  12  13
ENDBRANCH  11  12
ENDBRANCH   8  11
ENDBRANCH   6   7
ENDBRANCH   3   6
ENDBRANCH   1   2
BRANCH   1  26
ATOM     26  CB  GLN A   1     -20.219 -10.915  -4.431  1.00  0.00     0.044 C 
BRANCH  26  27
ATOM     27  CG  GLN A   1     -19.117  -9.907  -4.756  1.00  0.00     0.105 C 
BRANCH  27  28
ATOM     28  CD  GLN A   1     -18.298 -10.376  -5.945  1.00  0.00     0.215 C 
ATOM     29  OE1 GLN A   1     -18.746 -11.023  -6.882  1.00  0.00    -0.274 OA
ATOM     30  NE2 GLN A   1     -16.991 -10.015  -5.899  1.00  0.00    -0.370 N 
ATOM     31 1HE2 GLN A   1     -16.550  -9.581  -5.105  1.00  0.00     0.159 HD
ATOM     32 2HE2 GLN A   1     -16.378 -10.375  -6.639  1.00  0.00     0.159 HD
ENDBRANCH  27  28
ENDBRANCH  26  27
ENDBRANCH   1  26
BRANCH   1  33
ATOM     33  C   GLN A   1     -18.780 -12.644  -2.979  1.00  0.00     0.243 C 
ATOM     34  O   GLN A   1     -18.848 -13.802  -3.409  1.00  0.00    -0.271 OA
ATOM     35  N   PRO A   2     -17.576 -12.212  -2.419  1.00  0.00    -0.337 N 
ATOM     36  CD  PRO A   2     -17.204 -10.919  -1.851  1.00  0.00     0.127 C 
ATOM     37  CA  PRO A   2     -16.309 -12.978  -2.570  1.00  0.00     0.179 C 
ATOM     38  CG  PRO A   2     -15.921 -10.571  -2.588  1.00  0.00     0.022 C 
ATOM     39  CB  PRO A   2     -15.183 -11.898  -2.612  1.00  0.00     0.037 C 
BRANCH  37  40
ATOM     40  C   PRO A   2     -15.995 -13.846  -1.357  1.00  0.00     0.241 C 
ATOM     41  O   PRO A   2     -16.581 -14.908  -1.160  1.00  0.00    -0.271 OA
ATOM     42  N   ARG A   3     -15.104 -13.333  -0.463  1.00  0.00    -0.345 N 
ATOM     43  H   ARG A   3     -14.864 -12.348  -0.501  1.00  0.00     0.163 HD
BRANCH  42  44
ATOM     44  CA  ARG A   3     -14.783 -14.026   0.764  1.00  0.00     0.182 C 
BRANCH  44  45
ATOM     45  CB  ARG A   3     -13.276 -14.084   1.014  1.00  0.00     0.038 C 
BRANCH  45  46
ATOM     46  CG  ARG A   3     -12.874 -15.446   1.545  1.00  0.00     0.023 C 
BRANCH  46  47
ATOM     47  CD  ARG A   3     -11.570 -15.397   2.298  1.00  0.00     0.138 C 
BRANCH  47  48
ATOM     48  NE  ARG A   3     -10.554 -15.259   1.284  1.00  0.00    -0.227 N 
ATOM     49  CZ  ARG A   3      -9.578 -14.435   1.588  1.00  0.00     0.665 C 
ATOM     50  NH1 ARG A   3      -9.438 -13.749   2.749  1.00  0.00    -0.235 N 
ATOM     51  NH2 ARG A   3      -8.649 -14.124   0.673  1.00  0.00    -0.235 N 
ATOM     52 HH11 ARG A   3     -10.037 -13.967   3.540  1.00  0.00     0.174 HD
ATOM     53 HH12 ARG A   3      -8.556 -13.331   3.000  1.00  0.00     0.174 HD
ATOM     54 HH21 ARG A   3      -8.610 -14.713  -0.165  1.00  0.00     0.174 HD
ATOM     55 HH22 ARG A   3      -7.764 -13.777   0.983  1.00  0.00     0.174 HD
ATOM     56  HE  ARG A   3     -10.591 -15.763   0.398  1.00  0.00     0.177 HD
ENDBRANCH  47  48
ENDBRANCH  46  47
ENDBRANCH  45  46
ENDBRANCH  44  45
BRANCH  44  57
ATOM     57  C   ARG A   3     -15.414 -13.210   1.874  1.00  0.00     0.163 C 
ATOM     58  O   ARG A   3     -15.492 -13.620   3.037  1.00  0.00    -0.648 OA
BRANCH  57  59
ATOM     59  OXT ARG A   3     -15.762 -11.953   1.552  1.00  0.00    -0.775 OA
ATOM     60  HXT ARG A   3     -16.691 -11.711   1.753  1.00  0.00     0.167 HD
ENDBRANCH  57  59
ENDBRANCH  44  57
ENDBRANCH  42  44
ENDBRANCH  37  40
ENDBRANCH   1  33
TORSDOF 29
ENDMDL
MODEL 5
REMARK VINA RESULT:      -6.4      1.983      4.302
REMARK  29 active torsions:
REMARK  status: ('A' for Active; 'I' for Inactive)
REMARK    1  A    between atoms: C_2  and  C_3 
REMARK    2  A    between atoms: C_3  and  C_4 
REMARK    3  A    between atoms: C_4  and  C_5 
REMARK    4  A    between atoms: C_5  and  C_6 
REMARK    5  A    between atoms: C_6  and  C_7 
REMARK    6  A    between atoms: C_7  and  C_8 
REMARK    7  A    between atoms: C_8  and  C_9 
REMARK    8  A    between atoms: C_9  and  C_10 
REMARK    9  A    between atoms: C_10  and  C_11 
REMARK   10  A    between atoms: C_11  and  C_12 
REMARK   11  A    between atoms: C_12  and  C_13 
REMARK   12  A    between atoms: C_13  and  C_14 
REMARK   13  A    between atoms: C_14  and  C_15 
REMARK   14  A    between atoms: C_15  and  C_16 
REMARK       I    between atoms: C_16  and  N_18 
REMARK   15  A    between atoms: N_18  and  C_19 
REMARK   16  A    between atoms: C_19  and  C_20 
REMARK       I    between atoms: C_20  and  N_23 
REMARK   17  A    between atoms: N_23  and  CA_24 
REMARK   18  A    between atoms: CA_24  and  CB_25 
REMARK   19  A    between atoms: CA_24  and  C_30 
REMARK   20  A    between atoms: CB_25  and  CG_26 
REMARK   21  A    between atoms: CG_26  and  CD_27 
REMARK       I    between atoms: CD_27  and  NE2_29 
REMARK       I    between atoms: C_30  and  N_35 
REMARK   22  A    between atoms: CA_39  and  C_40 
REMARK       I    between atoms: C_40  and  N_42 
REMARK   23  A    between atoms: N_42  and  CA_43 
REMARK   24  A    between atoms: CA_43  and  CB_44 
REMARK   25  A    between atoms: CA_43  and  C_52 
REMARK   26  A    between atoms: CB_44  and  CG_45 
REMARK   27  A    between atoms: CG_45  and  CD_46 
REMARK   28  A    between atoms: CD_46  and  NE_47 
REMARK       I    between atoms: NE_47  and  CZ_49 
REMARK       I    between atoms: CZ_49  and  NH1_50 
REMARK   29  A    between atoms: C_52  and  OXT_54 
ROOT
ATOM      1  CA  GLN A   1     -19.496 -11.793  -1.876  1.00  0.00     0.177 C 
ENDROOT
BRANCH   1   2
ATOM      2  N   GLN A   1     -20.043 -10.484  -1.406  1.00  0.00    -0.346 N 
HETATM    3  C   UNK A   0     -20.686 -10.323  -0.144  1.00  0.00     0.236 C 
HETATM    4  O   UNK A   0     -20.872 -11.240   0.664  1.00  0.00    -0.272 OA
ATOM      5  H   GLN A   1     -19.832  -9.661  -1.975  1.00  0.00     0.163 HD
BRANCH   3   6
HETATM    6  C   UNK A   0     -21.136  -8.870   0.195  1.00  0.00     0.225 C 
BRANCH   6   7
HETATM    7  N   UNK A   0     -20.941  -7.925  -0.903  1.00  0.00    -0.352 N 
HETATM    8  C   UNK A   0     -21.921  -7.017  -1.269  1.00  0.00     0.217 C 
HETATM    9  O   UNK A   0     -23.012  -6.935  -0.709  1.00  0.00    -0.274 OA
HETATM   10  H   UNK A   0     -20.016  -7.899  -1.326  1.00  0.00     0.162 HD
BRANCH   8  11
HETATM   11  C   UNK A   0     -21.530  -6.128  -2.439  1.00  0.00     0.103 C 
BRANCH  11  12
HETATM   12  C   UNK A   0     -22.289  -6.501  -3.709  1.00  0.00     0.009 C 
BRANCH  12  13
HETATM   13  C   UNK A   0     -21.512  -7.473  -4.598  1.00  0.00     0.000 C 
BRANCH  13  14
HETATM   14  C   UNK A   0     -21.324  -6.865  -5.984  1.00  0.00     0.000 C 
BRANCH  14  15
HETATM   15  C   UNK A   0     -19.987  -6.147  -6.089  1.00  0.00     0.000 C 
BRANCH  15  16
HETATM   16  C   UNK A   0     -20.192  -4.709  -6.546  1.00  0.00     0.000 C 
BRANCH  16  17
HETATM   17  C   UNK A   0     -20.808  -4.682  -7.936  1.00  0.00     0.000 C 
BRANCH  17  18
HETATM   18  C   UNK A   0     -21.915  -3.643  -8.000  1.00  0.00     0.000 C 
BRANCH  18  19
HETATM   19  C   UNK A   0     -23.275  -4.319  -7.932  1.00  0.00     0.000 C 
BRANCH  19  20
HETATM   20  C   UNK A   0     -23.765  -4.653  -9.332  1.00  0.00     0.000 C 
BRANCH  20  21
HETATM   21  C   UNK A   0     -24.289  -3.401 -10.018  1.00  0.00     0.000 C 
BRANCH  21  22
HETATM   22  C   UNK A   0     -23.271  -2.882 -11.024  1.00  0.00     0.000 C 
BRANCH  22  23
HETATM   23  C   UNK A   0     -22.796  -4.012 -11.928  1.00  0.00    -0.000 C 
BRANCH  23  24
HETATM   24  C   UNK A   0     -21.331  -4.337 -11.664  1.00  0.00    -0.005 C 
HETATM   25  C   UNK A   0     -20.553  -3.079 -11.328  1.00  0.00     0.005 C 
ENDBRANCH  23  24
ENDBRANCH  22  23
ENDBRANCH  21  22
ENDBRANCH  20  21
ENDBRANCH  19  20
ENDBRANCH  18  19
ENDBRANCH  17  18
ENDBRANCH  16  17
ENDBRANCH  15  16
ENDBRANCH  14  15
ENDBRANCH  13  14
ENDBRANCH  12  13
ENDBRANCH  11  12
ENDBRANCH   8  11
ENDBRANCH   6   7
ENDBRANCH   3   6
ENDBRANCH   1   2
BRANCH   1  26
ATOM     26  CB  GLN A   1     -20.313 -12.231  -3.100  1.00  0.00     0.044 C 
BRANCH  26  27
ATOM     27  CG  GLN A   1     -20.683 -11.146  -4.111  1.00  0.00     0.105 C 
BRANCH  27  28
ATOM     28  CD  GLN A   1     -20.832 -11.740  -5.500  1.00  0.00     0.215 C 
ATOM     29  OE1 GLN A   1     -20.618 -12.911  -5.779  1.00  0.00    -0.274 OA
ATOM     30  NE2 GLN A   1     -21.233 -10.852  -6.444  1.00  0.00    -0.370 N 
ATOM     31 1HE2 GLN A   1     -21.316  -9.860  -6.293  1.00  0.00     0.159 HD
ATOM     32 2HE2 GLN A   1     -21.271 -11.184  -7.415  1.00  0.00     0.159 HD
ENDBRANCH  27  28
ENDBRANCH  26  27
ENDBRANCH   1  26
BRANCH   1  33
ATOM     33  C   GLN A   1     -17.920 -11.813  -1.973  1.00  0.00     0.243 C 
ATOM     34  O   GLN A   1     -17.394 -11.114  -2.849  1.00  0.00    -0.271 OA
ATOM     35  N   PRO A   2     -17.091 -12.535  -1.112  1.00  0.00    -0.337 N 
ATOM     36  CD  PRO A   2     -17.422 -13.418   0.003  1.00  0.00     0.127 C 
ATOM     37  CA  PRO A   2     -15.627 -12.285  -1.022  1.00  0.00     0.179 C 
ATOM     38  CG  PRO A   2     -16.582 -12.869   1.144  1.00  0.00     0.022 C 
ATOM     39  CB  PRO A   2     -15.255 -12.574   0.466  1.00  0.00     0.037 C 
BRANCH  37  40
ATOM     40  C   PRO A   2     -14.808 -13.272  -1.845  1.00  0.00     0.241 C 
ATOM     41  O   PRO A   2     -14.000 -14.032  -1.317  1.00  0.00    -0.271 OA
ATOM     42  N   ARG A   3     -14.956 -13.197  -3.198  1.00  0.00    -0.345 N 
ATOM     43  H   ARG A   3     -15.398 -12.383  -3.611  1.00  0.00     0.163 HD
BRANCH  42  44
ATOM     44  CA  ARG A   3     -14.178 -14.027  -4.089  1.00  0.00     0.182 C 
BRANCH  44  45
ATOM     45  CB  ARG A   3     -15.023 -15.123  -4.738  1.00  0.00     0.038 C 
BRANCH  45  46
ATOM     46  CG  ARG A   3     -16.478 -14.986  -4.335  1.00  0.00     0.023 C 
BRANCH  46  47
ATOM     47  CD  ARG A   3     -17.352 -14.589  -5.497  1.00  0.00     0.138 C 
BRANCH  47  48
ATOM     48  NE  ARG A   3     -17.663 -13.198  -5.276  1.00  0.00    -0.227 N 
ATOM     49  CZ  ARG A   3     -17.163 -12.372  -6.165  1.00  0.00     0.665 C 
ATOM     50  NH1 ARG A   3     -16.426 -12.711  -7.252  1.00  0.00    -0.235 N 
ATOM     51  NH2 ARG A   3     -17.272 -11.047  -5.990  1.00  0.00    -0.235 N 
ATOM     52 HH11 ARG A   3     -16.349 -13.686  -7.526  1.00  0.00     0.174 HD
ATOM     53 HH12 ARG A   3     -16.283 -12.056  -8.005  1.00  0.00     0.174 HD
ATOM     54 HH21 ARG A   3     -17.937 -10.727  -5.278  1.00  0.00     0.174 HD
ATOM     55 HH22 ARG A   3     -17.190 -10.448  -6.787  1.00  0.00     0.174 HD
ATOM     56  HE  ARG A   3     -18.229 -12.880  -4.489  1.00  0.00     0.177 HD
ENDBRANCH  47  48
ENDBRANCH  46  47
ENDBRANCH  45  46
ENDBRANCH  44  45
BRANCH  44  57
ATOM     57  C   ARG A   3     -13.682 -13.104  -5.183  1.00  0.00     0.163 C 
ATOM     58  O   ARG A   3     -12.998 -13.505  -6.130  1.00  0.00    -0.648 OA
BRANCH  57  59
ATOM     59  OXT ARG A   3     -14.144 -11.844  -5.140  1.00  0.00    -0.775 OA
ATOM     60  HXT ARG A   3     -13.489 -11.149  -5.362  1.00  0.00     0.167 HD
ENDBRANCH  57  59
ENDBRANCH  44  57
ENDBRANCH  42  44
ENDBRANCH  37  40
ENDBRANCH   1  33
TORSDOF 29
ENDMDL
MODEL 6
REMARK VINA RESULT:      -6.4      1.979      3.181
REMARK  29 active torsions:
REMARK  status: ('A' for Active; 'I' for Inactive)
REMARK    1  A    between atoms: C_2  and  C_3 
REMARK    2  A    between atoms: C_3  and  C_4 
REMARK    3  A    between atoms: C_4  and  C_5 
REMARK    4  A    between atoms: C_5  and  C_6 
REMARK    5  A    between atoms: C_6  and  C_7 
REMARK    6  A    between atoms: C_7  and  C_8 
REMARK    7  A    between atoms: C_8  and  C_9 
REMARK    8  A    between atoms: C_9  and  C_10 
REMARK    9  A    between atoms: C_10  and  C_11 
REMARK   10  A    between atoms: C_11  and  C_12 
REMARK   11  A    between atoms: C_12  and  C_13 
REMARK   12  A    between atoms: C_13  and  C_14 
REMARK   13  A    between atoms: C_14  and  C_15 
REMARK   14  A    between atoms: C_15  and  C_16 
REMARK       I    between atoms: C_16  and  N_18 
REMARK   15  A    between atoms: N_18  and  C_19 
REMARK   16  A    between atoms: C_19  and  C_20 
REMARK       I    between atoms: C_20  and  N_23 
REMARK   17  A    between atoms: N_23  and  CA_24 
REMARK   18  A    between atoms: CA_24  and  CB_25 
REMARK   19  A    between atoms: CA_24  and  C_30 
REMARK   20  A    between atoms: CB_25  and  CG_26 
REMARK   21  A    between atoms: CG_26  and  CD_27 
REMARK       I    between atoms: CD_27  and  NE2_29 
REMARK       I    between atoms: C_30  and  N_35 
REMARK   22  A    between atoms: CA_39  and  C_40 
REMARK       I    between atoms: C_40  and  N_42 
REMARK   23  A    between atoms: N_42  and  CA_43 
REMARK   24  A    between atoms: CA_43  and  CB_44 
REMARK   25  A    between atoms: CA_43  and  C_52 
REMARK   26  A    between atoms: CB_44  and  CG_45 
REMARK   27  A    between atoms: CG_45  and  CD_46 
REMARK   28  A    between atoms: CD_46  and  NE_47 
REMARK       I    between atoms: NE_47  and  CZ_49 
REMARK       I    between atoms: CZ_49  and  NH1_50 
REMARK   29  A    between atoms: C_52  and  OXT_54 
ROOT
ATOM      1  CA  GLN A   1     -20.501 -12.860  -1.809  1.00  0.00     0.177 C 
ENDROOT
BRANCH   1   2
ATOM      2  N   GLN A   1     -21.006 -11.807  -0.876  1.00  0.00    -0.346 N 
HETATM    3  C   UNK A   0     -20.195 -11.223   0.141  1.00  0.00     0.236 C 
HETATM    4  O   UNK A   0     -19.022 -11.541   0.363  1.00  0.00    -0.272 OA
ATOM      5  H   GLN A   1     -21.932 -11.420  -1.068  1.00  0.00     0.163 HD
BRANCH   3   6
HETATM    6  C   UNK A   0     -20.879 -10.098   0.977  1.00  0.00     0.225 C 
BRANCH   6   7
HETATM    7  N   UNK A   0     -21.086  -8.859   0.230  1.00  0.00    -0.352 N 
HETATM    8  C   UNK A   0     -22.354  -8.375  -0.048  1.00  0.00     0.217 C 
HETATM    9  O   UNK A   0     -23.386  -8.940   0.305  1.00  0.00    -0.274 OA
HETATM   10  H   UNK A   0     -20.255  -8.315   0.005  1.00  0.00     0.162 HD
BRANCH   8  11
HETATM   11  C   UNK A   0     -22.358  -7.079  -0.842  1.00  0.00     0.103 C 
BRANCH  11  12
HETATM   12  C   UNK A   0     -21.336  -7.108  -1.975  1.00  0.00     0.009 C 
BRANCH  12  13
HETATM   13  C   UNK A   0     -21.794  -6.323  -3.204  1.00  0.00     0.000 C 
BRANCH  13  14
HETATM   14  C   UNK A   0     -21.887  -7.257  -4.406  1.00  0.00     0.000 C 
BRANCH  14  15
HETATM   15  C   UNK A   0     -21.482  -6.541  -5.686  1.00  0.00     0.000 C 
BRANCH  15  16
HETATM   16  C   UNK A   0     -20.755  -5.243  -5.361  1.00  0.00     0.000 C 
BRANCH  16  17
HETATM   17  C   UNK A   0     -19.735  -4.928  -6.442  1.00  0.00     0.000 C 
BRANCH  17  18
HETATM   18  C   UNK A   0     -20.421  -4.800  -7.793  1.00  0.00     0.000 C 
BRANCH  18  19
HETATM   19  C   UNK A   0     -21.308  -3.566  -7.817  1.00  0.00     0.000 C 
BRANCH  19  20
HETATM   20  C   UNK A   0     -22.295  -3.652  -8.971  1.00  0.00     0.000 C 
BRANCH  20  21
HETATM   21  C   UNK A   0     -21.944  -4.821  -9.877  1.00  0.00     0.000 C 
BRANCH  21  22
HETATM   22  C   UNK A   0     -21.571  -4.322 -11.266  1.00  0.00     0.000 C 
BRANCH  22  23
HETATM   23  C   UNK A   0     -21.988  -2.867 -11.435  1.00  0.00    -0.000 C 
BRANCH  23  24
HETATM   24  C   UNK A   0     -22.949  -2.712 -12.608  1.00  0.00    -0.005 C 
HETATM   25  C   UNK A   0     -24.359  -3.098 -12.202  1.00  0.00     0.005 C 
ENDBRANCH  23  24
ENDBRANCH  22  23
ENDBRANCH  21  22
ENDBRANCH  20  21
ENDBRANCH  19  20
ENDBRANCH  18  19
ENDBRANCH  17  18
ENDBRANCH  16  17
ENDBRANCH  15  16
ENDBRANCH  14  15
ENDBRANCH  13  14
ENDBRANCH  12  13
ENDBRANCH  11  12
ENDBRANCH   8  11
ENDBRANCH   6   7
ENDBRANCH   3   6
ENDBRANCH   1   2
BRANCH   1  26
ATOM     26  CB  GLN A   1     -21.270 -14.156  -1.514  1.00  0.00     0.044 C 
BRANCH  26  27
ATOM     27  CG  GLN A   1     -22.331 -14.098  -0.417  1.00  0.00     0.105 C 
BRANCH  27  28
ATOM     28  CD  GLN A   1     -23.675 -13.690  -0.994  1.00  0.00     0.215 C 
ATOM     29  OE1 GLN A   1     -23.930 -12.578  -1.433  1.00  0.00    -0.274 OA
ATOM     30  NE2 GLN A   1     -24.605 -14.677  -0.992  1.00  0.00    -0.370 N 
ATOM     31 1HE2 GLN A   1     -24.484 -15.571  -0.546  1.00  0.00     0.159 HD
ATOM     32 2HE2 GLN A   1     -25.553 -14.430  -1.298  1.00  0.00     0.159 HD
ENDBRANCH  27  28
ENDBRANCH  26  27
ENDBRANCH   1  26
BRANCH   1  33
ATOM     33  C   GLN A   1     -20.395 -12.368  -3.306  1.00  0.00     0.243 C 
ATOM     34  O   GLN A   1     -21.208 -12.831  -4.117  1.00  0.00    -0.271 OA
ATOM     35  N   PRO A   2     -19.472 -11.423  -3.756  1.00  0.00    -0.337 N 
ATOM     36  CD  PRO A   2     -18.421 -10.708  -3.039  1.00  0.00     0.127 C 
ATOM     37  CA  PRO A   2     -19.603 -10.750  -5.078  1.00  0.00     0.179 C 
ATOM     38  CG  PRO A   2     -18.691  -9.252  -3.383  1.00  0.00     0.022 C 
ATOM     39  CB  PRO A   2     -19.018  -9.319  -4.865  1.00  0.00     0.037 C 
BRANCH  37  40
ATOM     40  C   PRO A   2     -18.734 -11.389  -6.154  1.00  0.00     0.241 C 
ATOM     41  O   PRO A   2     -18.074 -10.707  -6.934  1.00  0.00    -0.271 OA
ATOM     42  N   ARG A   3     -18.806 -12.746  -6.259  1.00  0.00    -0.345 N 
ATOM     43  H   ARG A   3     -19.564 -13.246  -5.807  1.00  0.00     0.163 HD
BRANCH  42  44
ATOM     44  CA  ARG A   3     -18.089 -13.462  -7.290  1.00  0.00     0.182 C 
BRANCH  44  45
ATOM     45  CB  ARG A   3     -17.295 -14.640  -6.725  1.00  0.00     0.038 C 
BRANCH  45  46
ATOM     46  CG  ARG A   3     -16.949 -14.403  -5.268  1.00  0.00     0.023 C 
BRANCH  46  47
ATOM     47  CD  ARG A   3     -15.539 -13.899  -5.098  1.00  0.00     0.138 C 
BRANCH  47  48
ATOM     48  NE  ARG A   3     -15.678 -12.560  -4.581  1.00  0.00    -0.227 N 
ATOM     49  CZ  ARG A   3     -15.388 -11.605  -5.434  1.00  0.00     0.665 C 
ATOM     50  NH1 ARG A   3     -15.008 -11.770  -6.726  1.00  0.00    -0.235 N 
ATOM     51  NH2 ARG A   3     -15.350 -10.328  -5.029  1.00  0.00    -0.235 N 
ATOM     52 HH11 ARG A   3     -15.079 -12.686  -7.160  1.00  0.00     0.174 HD
ATOM     53 HH12 ARG A   3     -15.034 -11.000  -7.375  1.00  0.00     0.174 HD
ATOM     54 HH21 ARG A   3     -15.766 -10.120  -4.116  1.00  0.00     0.174 HD
ATOM     55 HH22 ARG A   3     -15.451  -9.603  -5.711  1.00  0.00     0.174 HD
ATOM     56  HE  ARG A   3     -15.979 -12.369  -3.625  1.00  0.00     0.177 HD
ENDBRANCH  47  48
ENDBRANCH  46  47
ENDBRANCH  45  46
ENDBRANCH  44  45
BRANCH  44  57
ATOM     57  C   ARG A   3     -19.148 -14.011  -8.223  1.00  0.00     0.163 C 
ATOM     58  O   ARG A   3     -20.210 -13.420  -8.442  1.00  0.00    -0.648 OA
BRANCH  57  59
ATOM     59  OXT ARG A   3     -18.809 -15.115  -8.909  1.00  0.00    -0.775 OA
ATOM     60  HXT ARG A   3     -19.500 -15.463  -9.512  1.00  0.00     0.167 HD
ENDBRANCH  57  59
ENDBRANCH  44  57
ENDBRANCH  42  44
ENDBRANCH  37  40
ENDBRANCH   1  33
TORSDOF 29
ENDMDL
MODEL 7
REMARK VINA RESULT:      -6.3      2.128      3.984
REMARK  29 active torsions:
REMARK  status: ('A' for Active; 'I' for Inactive)
REMARK    1  A    between atoms: C_2  and  C_3 
REMARK    2  A    between atoms: C_3  and  C_4 
REMARK    3  A    between atoms: C_4  and  C_5 
REMARK    4  A    between atoms: C_5  and  C_6 
REMARK    5  A    between atoms: C_6  and  C_7 
REMARK    6  A    between atoms: C_7  and  C_8 
REMARK    7  A    between atoms: C_8  and  C_9 
REMARK    8  A    between atoms: C_9  and  C_10 
REMARK    9  A    between atoms: C_10  and  C_11 
REMARK   10  A    between atoms: C_11  and  C_12 
REMARK   11  A    between atoms: C_12  and  C_13 
REMARK   12  A    between atoms: C_13  and  C_14 
REMARK   13  A    between atoms: C_14  and  C_15 
REMARK   14  A    between atoms: C_15  and  C_16 
REMARK       I    between atoms: C_16  and  N_18 
REMARK   15  A    between atoms: N_18  and  C_19 
REMARK   16  A    between atoms: C_19  and  C_20 
REMARK       I    between atoms: C_20  and  N_23 
REMARK   17  A    between atoms: N_23  and  CA_24 
REMARK   18  A    between atoms: CA_24  and  CB_25 
REMARK   19  A    between atoms: CA_24  and  C_30 
REMARK   20  A    between atoms: CB_25  and  CG_26 
REMARK   21  A    between atoms: CG_26  and  CD_27 
REMARK       I    between atoms: CD_27  and  NE2_29 
REMARK       I    between atoms: C_30  and  N_35 
REMARK   22  A    between atoms: CA_39  and  C_40 
REMARK       I    between atoms: C_40  and  N_42 
REMARK   23  A    between atoms: N_42  and  CA_43 
REMARK   24  A    between atoms: CA_43  and  CB_44 
REMARK   25  A    between atoms: CA_43  and  C_52 
REMARK   26  A    between atoms: CB_44  and  CG_45 
REMARK   27  A    between atoms: CG_45  and  CD_46 
REMARK   28  A    between atoms: CD_46  and  NE_47 
REMARK       I    between atoms: NE_47  and  CZ_49 
REMARK       I    between atoms: CZ_49  and  NH1_50 
REMARK   29  A    between atoms: C_52  and  OXT_54 
ROOT
ATOM      1  CA  GLN A   1     -17.930 -11.769  -1.533  1.00  0.00     0.177 C 
ENDROOT
BRANCH   1   2
ATOM      2  N   GLN A   1     -18.810 -11.137  -0.504  1.00  0.00    -0.346 N 
HETATM    3  C   UNK A   0     -20.054 -11.703  -0.099  1.00  0.00     0.236 C 
HETATM    4  O   UNK A   0     -20.532 -12.742  -0.568  1.00  0.00    -0.272 OA
ATOM      5  H   GLN A   1     -18.431 -10.334   0.003  1.00  0.00     0.163 HD
BRANCH   3   6
HETATM    6  C   UNK A   0     -20.802 -10.931   1.031  1.00  0.00     0.225 C 
BRANCH   6   7
HETATM    7  N   UNK A   0     -21.247  -9.597   0.633  1.00  0.00    -0.352 N 
HETATM    8  C   UNK A   0     -22.513  -9.372   0.116  1.00  0.00     0.217 C 
HETATM    9  O   UNK A   0     -23.346 -10.260  -0.045  1.00  0.00    -0.274 OA
HETATM   10  H   UNK A   0     -20.619  -8.823   0.840  1.00  0.00     0.162 HD
BRANCH   8  11
HETATM   11  C   UNK A   0     -22.780  -7.919  -0.246  1.00  0.00     0.103 C 
BRANCH  11  12
HETATM   12  C   UNK A   0     -21.679  -7.347  -1.133  1.00  0.00     0.009 C 
BRANCH  12  13
HETATM   13  C   UNK A   0     -22.184  -6.248  -2.067  1.00  0.00     0.000 C 
BRANCH  13  14
HETATM   14  C   UNK A   0     -21.290  -6.170  -3.301  1.00  0.00     0.000 C 
BRANCH  14  15
HETATM   15  C   UNK A   0     -22.068  -6.516  -4.561  1.00  0.00     0.000 C 
BRANCH  15  16
HETATM   16  C   UNK A   0     -21.171  -6.405  -5.786  1.00  0.00     0.000 C 
BRANCH  16  17
HETATM   17  C   UNK A   0     -20.312  -5.154  -5.697  1.00  0.00     0.000 C 
BRANCH  17  18
HETATM   18  C   UNK A   0     -20.817  -4.099  -6.668  1.00  0.00     0.000 C 
BRANCH  18  19
HETATM   19  C   UNK A   0     -20.051  -4.182  -7.978  1.00  0.00     0.000 C 
BRANCH  19  20
HETATM   20  C   UNK A   0     -20.990  -4.571  -9.110  1.00  0.00     0.000 C 
BRANCH  20  21
HETATM   21  C   UNK A   0     -22.381  -4.013  -8.856  1.00  0.00     0.000 C 
BRANCH  21  22
HETATM   22  C   UNK A   0     -23.175  -3.959 -10.153  1.00  0.00     0.000 C 
BRANCH  22  23
HETATM   23  C   UNK A   0     -22.274  -4.278 -11.339  1.00  0.00    -0.000 C 
BRANCH  23  24
HETATM   24  C   UNK A   0     -22.303  -3.148 -12.361  1.00  0.00    -0.005 C 
HETATM   25  C   UNK A   0     -23.728  -2.700 -12.626  1.00  0.00     0.005 C 
ENDBRANCH  23  24
ENDBRANCH  22  23
ENDBRANCH  21  22
ENDBRANCH  20  21
ENDBRANCH  19  20
ENDBRANCH  18  19
ENDBRANCH  17  18
ENDBRANCH  16  17
ENDBRANCH  15  16
ENDBRANCH  14  15
ENDBRANCH  13  14
ENDBRANCH  12  13
ENDBRANCH  11  12
ENDBRANCH   8  11
ENDBRANCH   6   7
ENDBRANCH   3   6
ENDBRANCH   1   2
BRANCH   1  26
ATOM     26  CB  GLN A   1     -17.000 -12.756  -0.814  1.00  0.00     0.044 C 
BRANCH  26  27
ATOM     27  CG  GLN A   1     -16.279 -12.248   0.433  1.00  0.00     0.105 C 
BRANCH  27  28
ATOM     28  CD  GLN A   1     -15.300 -13.289   0.945  1.00  0.00     0.215 C 
ATOM     29  OE1 GLN A   1     -14.133 -13.061   1.232  1.00  0.00    -0.274 OA
ATOM     30  NE2 GLN A   1     -15.826 -14.533   1.071  1.00  0.00    -0.370 N 
ATOM     31 1HE2 GLN A   1     -16.742 -14.798   0.748  1.00  0.00     0.159 HD
ATOM     32 2HE2 GLN A   1     -15.185 -15.289   1.337  1.00  0.00     0.159 HD
ENDBRANCH  27  28
ENDBRANCH  26  27
ENDBRANCH   1  26
BRANCH   1  33
ATOM     33  C   GLN A   1     -18.718 -12.265  -2.809  1.00  0.00     0.243 C 
ATOM     34  O   GLN A   1     -18.599 -13.457  -3.124  1.00  0.00    -0.271 OA
ATOM     35  N   PRO A   2     -19.562 -11.457  -3.571  1.00  0.00    -0.337 N 
ATOM     36  CD  PRO A   2     -19.902 -10.044  -3.432  1.00  0.00     0.127 C 
ATOM     37  CA  PRO A   2     -20.527 -12.020  -4.556  1.00  0.00     0.179 C 
ATOM     38  CG  PRO A   2     -21.422 -10.048  -3.435  1.00  0.00     0.022 C 
ATOM     39  CB  PRO A   2     -21.748 -11.049  -4.530  1.00  0.00     0.037 C 
BRANCH  37  40
ATOM     40  C   PRO A   2     -20.002 -11.977  -5.986  1.00  0.00     0.241 C 
ATOM     41  O   PRO A   2     -20.440 -11.173  -6.806  1.00  0.00    -0.271 OA
ATOM     42  N   ARG A   3     -19.095 -12.935  -6.324  1.00  0.00    -0.345 N 
ATOM     43  H   ARG A   3     -18.974 -13.746  -5.728  1.00  0.00     0.163 HD
BRANCH  42  44
ATOM     44  CA  ARG A   3     -18.581 -13.046  -7.671  1.00  0.00     0.182 C 
BRANCH  44  45
ATOM     45  CB  ARG A   3     -17.053 -13.000  -7.708  1.00  0.00     0.038 C 
BRANCH  45  46
ATOM     46  CG  ARG A   3     -16.478 -13.166  -6.315  1.00  0.00     0.023 C 
BRANCH  46  47
ATOM     47  CD  ARG A   3     -15.336 -12.218  -6.058  1.00  0.00     0.138 C 
BRANCH  47  48
ATOM     48  NE  ARG A   3     -15.625 -11.619  -4.779  1.00  0.00    -0.227 N 
ATOM     49  CZ  ARG A   3     -16.036 -10.372  -4.831  1.00  0.00     0.665 C 
ATOM     50  NH1 ARG A   3     -16.230  -9.638  -5.954  1.00  0.00    -0.235 N 
ATOM     51  NH2 ARG A   3     -16.205  -9.671  -3.702  1.00  0.00    -0.235 N 
ATOM     52 HH11 ARG A   3     -16.209 -10.090  -6.864  1.00  0.00     0.174 HD
ATOM     53 HH12 ARG A   3     -16.765  -8.784  -5.928  1.00  0.00     0.174 HD
ATOM     54 HH21 ARG A   3     -16.220 -10.202  -2.825  1.00  0.00     0.174 HD
ATOM     55 HH22 ARG A   3     -16.804  -8.870  -3.718  1.00  0.00     0.174 HD
ATOM     56  HE  ARG A   3     -15.519 -12.124  -3.899  1.00  0.00     0.177 HD
ENDBRANCH  47  48
ENDBRANCH  46  47
ENDBRANCH  45  46
ENDBRANCH  44  45
BRANCH  44  57
ATOM     57  C   ARG A   3     -19.024 -14.407  -8.169  1.00  0.00     0.163 C 
ATOM     58  O   ARG A   3     -18.476 -14.976  -9.119  1.00  0.00    -0.648 OA
BRANCH  57  59
ATOM     59  OXT ARG A   3     -19.961 -15.024  -7.431  1.00  0.00    -0.775 OA
ATOM     60  HXT ARG A   3     -20.295 -15.869  -7.799  1.00  0.00     0.167 HD
ENDBRANCH  57  59
ENDBRANCH  44  57
ENDBRANCH  42  44
ENDBRANCH  37  40
ENDBRANCH   1  33
TORSDOF 29
ENDMDL
MODEL 8
REMARK VINA RESULT:      -6.2      2.370      5.538
REMARK  29 active torsions:
REMARK  status: ('A' for Active; 'I' for Inactive)
REMARK    1  A    between atoms: C_2  and  C_3 
REMARK    2  A    between atoms: C_3  and  C_4 
REMARK    3  A    between atoms: C_4  and  C_5 
REMARK    4  A    between atoms: C_5  and  C_6 
REMARK    5  A    between atoms: C_6  and  C_7 
REMARK    6  A    between atoms: C_7  and  C_8 
REMARK    7  A    between atoms: C_8  and  C_9 
REMARK    8  A    between atoms: C_9  and  C_10 
REMARK    9  A    between atoms: C_10  and  C_11 
REMARK   10  A    between atoms: C_11  and  C_12 
REMARK   11  A    between atoms: C_12  and  C_13 
REMARK   12  A    between atoms: C_13  and  C_14 
REMARK   13  A    between atoms: C_14  and  C_15 
REMARK   14  A    between atoms: C_15  and  C_16 
REMARK       I    between atoms: C_16  and  N_18 
REMARK   15  A    between atoms: N_18  and  C_19 
REMARK   16  A    between atoms: C_19  and  C_20 
REMARK       I    between atoms: C_20  and  N_23 
REMARK   17  A    between atoms: N_23  and  CA_24 
REMARK   18  A    between atoms: CA_24  and  CB_25 
REMARK   19  A    between atoms: CA_24  and  C_30 
REMARK   20  A    between atoms: CB_25  and  CG_26 
REMARK   21  A    between atoms: CG_26  and  CD_27 
REMARK       I    between atoms: CD_27  and  NE2_29 
REMARK       I    between atoms: C_30  and  N_35 
REMARK   22  A    between atoms: CA_39  and  C_40 
REMARK       I    between atoms: C_40  and  N_42 
REMARK   23  A    between atoms: N_42  and  CA_43 
REMARK   24  A    between atoms: CA_43  and  CB_44 
REMARK   25  A    between atoms: CA_43  and  C_52 
REMARK   26  A    between atoms: CB_44  and  CG_45 
REMARK   27  A    between atoms: CG_45  and  CD_46 
REMARK   28  A    between atoms: CD_46  and  NE_47 
REMARK       I    between atoms: NE_47  and  CZ_49 
REMARK       I    between atoms: CZ_49  and  NH1_50 
REMARK   29  A    between atoms: C_52  and  OXT_54 
ROOT
ATOM      1  CA  GLN A   1     -19.152 -12.371  -5.526  1.00  0.00     0.177 C 
ENDROOT
BRANCH   1   2
ATOM      2  N   GLN A   1     -20.425 -11.687  -5.147  1.00  0.00    -0.346 N 
HETATM    3  C   UNK A   0     -21.417 -12.300  -4.327  1.00  0.00     0.236 C 
HETATM    4  O   UNK A   0     -21.334 -13.447  -3.874  1.00  0.00    -0.272 OA
ATOM      5  H   GLN A   1     -20.515 -10.700  -5.397  1.00  0.00     0.163 HD
BRANCH   3   6
HETATM    6  C   UNK A   0     -22.650 -11.408  -3.990  1.00  0.00     0.225 C 
BRANCH   6   7
HETATM    7  N   UNK A   0     -22.459 -10.566  -2.811  1.00  0.00    -0.352 N 
HETATM    8  C   UNK A   0     -23.037 -10.875  -1.590  1.00  0.00     0.217 C 
HETATM    9  O   UNK A   0     -23.742 -11.865  -1.406  1.00  0.00    -0.274 OA
HETATM   10  H   UNK A   0     -21.804  -9.792  -2.901  1.00  0.00     0.162 HD
BRANCH   8  11
HETATM   11  C   UNK A   0     -22.727  -9.872  -0.490  1.00  0.00     0.103 C 
BRANCH  11  12
HETATM   12  C   UNK A   0     -21.244  -9.515  -0.454  1.00  0.00     0.009 C 
BRANCH  12  13
HETATM   13  C   UNK A   0     -20.991  -8.019  -0.640  1.00  0.00     0.000 C 
BRANCH  13  14
HETATM   14  C   UNK A   0     -22.322  -7.280  -0.730  1.00  0.00     0.000 C 
BRANCH  14  15
HETATM   15  C   UNK A   0     -22.334  -6.318  -1.908  1.00  0.00     0.000 C 
BRANCH  15  16
HETATM   16  C   UNK A   0     -21.252  -6.695  -2.912  1.00  0.00     0.000 C 
BRANCH  16  17
HETATM   17  C   UNK A   0     -21.880  -7.266  -4.172  1.00  0.00     0.000 C 
BRANCH  17  18
HETATM   18  C   UNK A   0     -21.822  -6.247  -5.298  1.00  0.00     0.000 C 
BRANCH  18  19
HETATM   19  C   UNK A   0     -20.599  -5.358  -5.139  1.00  0.00     0.000 C 
BRANCH  19  20
HETATM   20  C   UNK A   0     -20.518  -4.368  -6.290  1.00  0.00     0.000 C 
BRANCH  20  21
HETATM   21  C   UNK A   0     -19.415  -4.774  -7.255  1.00  0.00     0.000 C 
BRANCH  21  22
HETATM   22  C   UNK A   0     -19.836  -4.489  -8.690  1.00  0.00     0.000 C 
BRANCH  22  23
HETATM   23  C   UNK A   0     -21.353  -4.520  -8.812  1.00  0.00    -0.000 C 
BRANCH  23  24
HETATM   24  C   UNK A   0     -21.784  -4.312 -10.259  1.00  0.00    -0.005 C 
HETATM   25  C   UNK A   0     -20.602  -3.904 -11.119  1.00  0.00     0.005 C 
ENDBRANCH  23  24
ENDBRANCH  22  23
ENDBRANCH  21  22
ENDBRANCH  20  21
ENDBRANCH  19  20
ENDBRANCH  18  19
ENDBRANCH  17  18
ENDBRANCH  16  17
ENDBRANCH  15  16
ENDBRANCH  14  15
ENDBRANCH  13  14
ENDBRANCH  12  13
ENDBRANCH  11  12
ENDBRANCH   8  11
ENDBRANCH   6   7
ENDBRANCH   3   6
ENDBRANCH   1   2
BRANCH   1  26
ATOM     26  CB  GLN A   1     -18.558 -11.625  -6.730  1.00  0.00     0.044 C 
BRANCH  26  27
ATOM     27  CG  GLN A   1     -18.712 -12.285  -8.099  1.00  0.00     0.105 C 
BRANCH  27  28
ATOM     28  CD  GLN A   1     -17.892 -13.560  -8.172  1.00  0.00     0.215 C 
ATOM     29  OE1 GLN A   1     -16.868 -13.763  -7.535  1.00  0.00    -0.274 OA
ATOM     30  NE2 GLN A   1     -18.391 -14.495  -9.019  1.00  0.00    -0.370 N 
ATOM     31 1HE2 GLN A   1     -19.164 -14.339  -9.646  1.00  0.00     0.159 HD
ATOM     32 2HE2 GLN A   1     -17.832 -15.343  -9.166  1.00  0.00     0.159 HD
ENDBRANCH  27  28
ENDBRANCH  26  27
ENDBRANCH   1  26
BRANCH   1  33
ATOM     33  C   GLN A   1     -18.216 -12.679  -4.291  1.00  0.00     0.243 C 
ATOM     34  O   GLN A   1     -17.821 -13.844  -4.153  1.00  0.00    -0.271 OA
ATOM     35  N   PRO A   2     -17.782 -11.715  -3.379  1.00  0.00    -0.337 N 
ATOM     36  CD  PRO A   2     -18.069 -10.286  -3.301  1.00  0.00     0.127 C 
ATOM     37  CA  PRO A   2     -16.661 -11.965  -2.432  1.00  0.00     0.179 C 
ATOM     38  CG  PRO A   2     -16.688  -9.657  -3.217  1.00  0.00     0.022 C 
ATOM     39  CB  PRO A   2     -15.961 -10.582  -2.255  1.00  0.00     0.037 C 
BRANCH  37  40
ATOM     40  C   PRO A   2     -17.142 -12.359  -1.040  1.00  0.00     0.241 C 
ATOM     41  O   PRO A   2     -18.052 -11.751  -0.480  1.00  0.00    -0.271 OA
ATOM     42  N   ARG A   3     -16.448 -13.355  -0.422  1.00  0.00    -0.345 N 
ATOM     43  H   ARG A   3     -15.540 -13.632  -0.779  1.00  0.00     0.163 HD
BRANCH  42  44
ATOM     44  CA  ARG A   3     -16.758 -13.766   0.929  1.00  0.00     0.182 C 
BRANCH  44  45
ATOM     45  CB  ARG A   3     -17.089 -15.256   1.015  1.00  0.00     0.038 C 
BRANCH  45  46
ATOM     46  CG  ARG A   3     -18.388 -15.558   0.294  1.00  0.00     0.023 C 
BRANCH  46  47
ATOM     47  CD  ARG A   3     -19.563 -14.862   0.930  1.00  0.00     0.138 C 
BRANCH  47  48
ATOM     48  NE  ARG A   3     -20.712 -15.290   0.171  1.00  0.00    -0.227 N 
ATOM     49  CZ  ARG A   3     -21.216 -14.380  -0.631  1.00  0.00     0.665 C 
ATOM     50  NH1 ARG A   3     -20.743 -13.123  -0.816  1.00  0.00    -0.235 N 
ATOM     51  NH2 ARG A   3     -22.362 -14.619  -1.285  1.00  0.00    -0.235 N 
ATOM     52 HH11 ARG A   3     -19.839 -12.861  -0.434  1.00  0.00     0.174 HD
ATOM     53 HH12 ARG A   3     -21.033 -12.573  -1.609  1.00  0.00     0.174 HD
ATOM     54 HH21 ARG A   3     -22.688 -15.590  -1.307  1.00  0.00     0.174 HD
ATOM     55 HH22 ARG A   3     -22.565 -14.089  -2.108  1.00  0.00     0.174 HD
ATOM     56  HE  ARG A   3     -21.103 -16.229   0.250  1.00  0.00     0.177 HD
ENDBRANCH  47  48
ENDBRANCH  46  47
ENDBRANCH  45  46
ENDBRANCH  44  45
BRANCH  44  57
ATOM     57  C   ARG A   3     -15.500 -13.515   1.735  1.00  0.00     0.163 C 
ATOM     58  O   ARG A   3     -14.486 -13.012   1.242  1.00  0.00    -0.648 OA
BRANCH  57  59
ATOM     59  OXT ARG A   3     -15.596 -13.745   3.055  1.00  0.00    -0.775 OA
ATOM     60  HXT ARG A   3     -14.939 -13.274   3.611  1.00  0.00     0.167 HD
ENDBRANCH  57  59
ENDBRANCH  44  57
ENDBRANCH  42  44
ENDBRANCH  37  40
ENDBRANCH   1  33
TORSDOF 29
ENDMDL
MODEL 9
REMARK VINA RESULT:      -6.1      2.123      4.381
REMARK  29 active torsions:
REMARK  status: ('A' for Active; 'I' for Inactive)
REMARK    1  A    between atoms: C_2  and  C_3 
REMARK    2  A    between atoms: C_3  and  C_4 
REMARK    3  A    between atoms: C_4  and  C_5 
REMARK    4  A    between atoms: C_5  and  C_6 
REMARK    5  A    between atoms: C_6  and  C_7 
REMARK    6  A    between atoms: C_7  and  C_8 
REMARK    7  A    between atoms: C_8  and  C_9 
REMARK    8  A    between atoms: C_9  and  C_10 
REMARK    9  A    between atoms: C_10  and  C_11 
REMARK   10  A    between atoms: C_11  and  C_12 
REMARK   11  A    between atoms: C_12  and  C_13 
REMARK   12  A    between atoms: C_13  and  C_14 
REMARK   13  A    between atoms: C_14  and  C_15 
REMARK   14  A    between atoms: C_15  and  C_16 
REMARK       I    between atoms: C_16  and  N_18 
REMARK   15  A    between atoms: N_18  and  C_19 
REMARK   16  A    between atoms: C_19  and  C_20 
REMARK       I    between atoms: C_20  and  N_23 
REMARK   17  A    between atoms: N_23  and  CA_24 
REMARK   18  A    between atoms: CA_24  and  CB_25 
REMARK   19  A    between atoms: CA_24  and  C_30 
REMARK   20  A    between atoms: CB_25  and  CG_26 
REMARK   21  A    between atoms: CG_26  and  CD_27 
REMARK       I    between atoms: CD_27  and  NE2_29 
REMARK       I    between atoms: C_30  and  N_35 
REMARK   22  A    between atoms: CA_39  and  C_40 
REMARK       I    between atoms: C_40  and  N_42 
REMARK   23  A    between atoms: N_42  and  CA_43 
REMARK   24  A    between atoms: CA_43  and  CB_44 
REMARK   25  A    between atoms: CA_43  and  C_52 
REMARK   26  A    between atoms: CB_44  and  CG_45 
REMARK   27  A    between atoms: CG_45  and  CD_46 
REMARK   28  A    between atoms: CD_46  and  NE_47 
REMARK       I    between atoms: NE_47  and  CZ_49 
REMARK       I    between atoms: CZ_49  and  NH1_50 
REMARK   29  A    between atoms: C_52  and  OXT_54 
ROOT
ATOM      1  CA  GLN A   1     -18.406 -12.472  -1.199  1.00  0.00     0.177 C 
ENDROOT
BRANCH   1   2
ATOM      2  N   GLN A   1     -19.575 -12.375  -0.272  1.00  0.00    -0.346 N 
HETATM    3  C   UNK A   0     -20.441 -13.474  -0.002  1.00  0.00     0.236 C 
HETATM    4  O   UNK A   0     -20.327 -14.592  -0.516  1.00  0.00    -0.272 OA
ATOM      5  H   GLN A   1     -19.668 -11.513   0.269  1.00  0.00     0.163 HD
BRANCH   3   6
HETATM    6  C   UNK A   0     -21.569 -13.196   1.038  1.00  0.00     0.225 C 
BRANCH   6   7
HETATM    7  N   UNK A   0     -22.304 -11.958   0.787  1.00  0.00    -0.352 N 
HETATM    8  C   UNK A   0     -23.266 -11.866  -0.206  1.00  0.00     0.217 C 
HETATM    9  O   UNK A   0     -23.572 -12.803  -0.940  1.00  0.00    -0.274 OA
HETATM   10  H   UNK A   0     -22.145 -11.191   1.438  1.00  0.00     0.162 HD
BRANCH   8  11
HETATM   11  C   UNK A   0     -23.909 -10.493  -0.315  1.00  0.00     0.103 C 
BRANCH  11  12
HETATM   12  C   UNK A   0     -23.038  -9.411   0.316  1.00  0.00     0.009 C 
BRANCH  12  13
HETATM   13  C   UNK A   0     -22.196  -8.657  -0.713  1.00  0.00     0.000 C 
BRANCH  13  14
HETATM   14  C   UNK A   0     -22.352  -7.154  -0.506  1.00  0.00     0.000 C 
BRANCH  14  15
HETATM   15  C   UNK A   0     -22.287  -6.410  -1.831  1.00  0.00     0.000 C 
BRANCH  15  16
HETATM   16  C   UNK A   0     -21.210  -7.010  -2.724  1.00  0.00     0.000 C 
BRANCH  16  17
HETATM   17  C   UNK A   0     -21.724  -7.146  -4.148  1.00  0.00     0.000 C 
BRANCH  17  18
HETATM   18  C   UNK A   0     -21.148  -6.044  -5.022  1.00  0.00     0.000 C 
BRANCH  18  19
HETATM   19  C   UNK A   0     -20.110  -6.616  -5.974  1.00  0.00     0.000 C 
BRANCH  19  20
HETATM   20  C   UNK A   0     -19.938  -5.699  -7.175  1.00  0.00     0.000 C 
BRANCH  20  21
HETATM   21  C   UNK A   0     -20.358  -4.282  -6.819  1.00  0.00     0.000 C 
BRANCH  21  22
HETATM   22  C   UNK A   0     -21.372  -3.762  -7.829  1.00  0.00     0.000 C 
BRANCH  22  23
HETATM   23  C   UNK A   0     -21.031  -4.260  -9.226  1.00  0.00    -0.000 C 
BRANCH  23  24
HETATM   24  C   UNK A   0     -22.282  -4.344 -10.092  1.00  0.00    -0.005 C 
HETATM   25  C   UNK A   0     -22.201  -3.369 -11.251  1.00  0.00     0.005 C 
ENDBRANCH  23  24
ENDBRANCH  22  23
ENDBRANCH  21  22
ENDBRANCH  20  21
ENDBRANCH  19  20
ENDBRANCH  18  19
ENDBRANCH  17  18
ENDBRANCH  16  17
ENDBRANCH  15  16
ENDBRANCH  14  15
ENDBRANCH  13  14
ENDBRANCH  12  13
ENDBRANCH  11  12
ENDBRANCH   8  11
ENDBRANCH   6   7
ENDBRANCH   3   6
ENDBRANCH   1   2
BRANCH   1  26
ATOM     26  CB  GLN A   1     -17.342 -13.347  -0.522  1.00  0.00     0.044 C 
BRANCH  26  27
ATOM     27  CG  GLN A   1     -15.901 -12.840  -0.558  1.00  0.00     0.105 C 
BRANCH  27  28
ATOM     28  CD  GLN A   1     -15.338 -12.731   0.847  1.00  0.00     0.215 C 
ATOM     29  OE1 GLN A   1     -14.190 -13.017   1.157  1.00  0.00    -0.274 OA
ATOM     30  NE2 GLN A   1     -16.224 -12.277   1.768  1.00  0.00    -0.370 N 
ATOM     31 1HE2 GLN A   1     -17.204 -12.133   1.591  1.00  0.00     0.159 HD
ATOM     32 2HE2 GLN A   1     -15.917 -12.262   2.747  1.00  0.00     0.159 HD
ENDBRANCH  27  28
ENDBRANCH  26  27
ENDBRANCH   1  26
BRANCH   1  33
ATOM     33  C   GLN A   1     -18.816 -12.799  -2.689  1.00  0.00     0.243 C 
ATOM     34  O   GLN A   1     -18.453 -13.887  -3.154  1.00  0.00    -0.271 OA
ATOM     35  N   PRO A   2     -19.590 -11.957  -3.490  1.00  0.00    -0.337 N 
ATOM     36  CD  PRO A   2     -20.162 -10.643  -3.210  1.00  0.00     0.127 C 
ATOM     37  CA  PRO A   2     -20.223 -12.424  -4.754  1.00  0.00     0.179 C 
ATOM     38  CG  PRO A   2     -21.627 -10.815  -3.576  1.00  0.00     0.022 C 
ATOM     39  CB  PRO A   2     -21.554 -11.617  -4.865  1.00  0.00     0.037 C 
BRANCH  37  40
ATOM     40  C   PRO A   2     -19.415 -12.049  -5.991  1.00  0.00     0.241 C 
ATOM     41  O   PRO A   2     -19.939 -11.498  -6.957  1.00  0.00    -0.271 OA
ATOM     42  N   ARG A   3     -18.111 -12.442  -6.001  1.00  0.00    -0.345 N 
ATOM     43  H   ARG A   3     -17.789 -13.136  -5.334  1.00  0.00     0.163 HD
BRANCH  42  44
ATOM     44  CA  ARG A   3     -17.262 -12.214  -7.149  1.00  0.00     0.182 C 
BRANCH  44  45
ATOM     45  CB  ARG A   3     -15.792 -12.070  -6.757  1.00  0.00     0.038 C 
BRANCH  45  46
ATOM     46  CG  ARG A   3     -15.656 -11.835  -5.265  1.00  0.00     0.023 C 
BRANCH  46  47
ATOM     47  CD  ARG A   3     -14.757 -12.852  -4.612  1.00  0.00     0.138 C 
BRANCH  47  48
ATOM     48  NE  ARG A   3     -15.646 -13.867  -4.102  1.00  0.00    -0.227 N 
ATOM     49  CZ  ARG A   3     -15.553 -15.034  -4.697  1.00  0.00     0.665 C 
ATOM     50  NH1 ARG A   3     -14.699 -15.358  -5.699  1.00  0.00    -0.235 N 
ATOM     51  NH2 ARG A   3     -16.420 -16.013  -4.400  1.00  0.00    -0.235 N 
ATOM     52 HH11 ARG A   3     -13.947 -14.722  -5.949  1.00  0.00     0.174 HD
ATOM     53 HH12 ARG A   3     -14.523 -16.322  -5.938  1.00  0.00     0.174 HD
ATOM     54 HH21 ARG A   3     -16.988 -15.887  -3.556  1.00  0.00     0.174 HD
ATOM     55 HH22 ARG A   3     -16.162 -16.959  -4.595  1.00  0.00     0.174 HD
ATOM     56  HE  ARG A   3     -16.297 -13.692  -3.336  1.00  0.00     0.177 HD
ENDBRANCH  47  48
ENDBRANCH  46  47
ENDBRANCH  45  46
ENDBRANCH  44  45
BRANCH  44  57
ATOM     57  C   ARG A   3     -17.401 -13.449  -8.016  1.00  0.00     0.163 C 
ATOM     58  O   ARG A   3     -17.633 -13.387  -9.227  1.00  0.00    -0.648 OA
BRANCH  57  59
ATOM     59  OXT ARG A   3     -17.120 -14.618  -7.417  1.00  0.00    -0.775 OA
ATOM     60  HXT ARG A   3     -16.320 -14.617  -6.850  1.00  0.00     0.167 HD
ENDBRANCH  57  59
ENDBRANCH  44  57
ENDBRANCH  42  44
ENDBRANCH  37  40
ENDBRANCH   1  33
TORSDOF 29
ENDMDL
