MODEL 1
REMARK VINA RESULT:      -8.0      0.000      0.000
REMARK  9 active torsions:
REMARK  status: ('A' for Active; 'I' for Inactive)
REMARK    1  A    between atoms: C_7  and  C_10 
REMARK    2  A    between atoms: C_10  and  C_11 
REMARK       I    between atoms: C_11  and  N_14 
REMARK    3  A    between atoms: N_14  and  CA_15 
REMARK    4  A    between atoms: CA_15  and  CB_16 
REMARK    5  A    between atoms: CA_15  and  C_21 
REMARK    6  A    between atoms: CB_16  and  CG_17 
REMARK    7  A    between atoms: CG_17  and  CD_18 
REMARK    8  A    between atoms: CD_18  and  OE2_20 
REMARK    9  A    between atoms: C_21  and  OXT_23 
ROOT
HETATM    1  C   UNK A   0     -20.133  -5.358  -6.582  1.00  0.00     0.222 C 
HETATM    2  O   UNK A   0     -19.827  -4.580  -5.684  1.00  0.00    -0.273 OA
ATOM      3  N   GLU A   1     -20.440  -6.675  -6.339  1.00  0.00    -0.346 N 
ATOM      4  H   GLU A   1     -20.611  -7.311  -7.114  1.00  0.00     0.163 HD
ENDROOT
BRANCH   1   5
HETATM    5  C   UNK A   0     -20.273  -4.914  -8.029  1.00  0.00     0.143 C 
BRANCH   5   6
HETATM    6  C   UNK A   0     -21.658  -4.511  -8.425  1.00  0.00    -0.022 A 
HETATM    7  C   UNK A   0     -22.127  -4.095  -9.721  1.00  0.00    -0.001 A 
HETATM    8  C   UNK A   0     -23.472  -3.744  -9.584  1.00  0.00     0.042 A 
HETATM    9  C   UNK A   0     -21.533  -3.963 -10.991  1.00  0.00     0.014 A 
HETATM   10  C   UNK A   0     -24.253  -3.283 -10.652  1.00  0.00     0.030 A 
HETATM   11  N   UNK A   0     -23.810  -3.928  -8.265  1.00  0.00    -0.365 N 
HETATM   12  C   UNK A   0     -23.642  -3.175 -11.902  1.00  0.00     0.002 A 
HETATM   13  C   UNK A   0     -22.301  -3.507 -12.072  1.00  0.00     0.001 A 
HETATM   14  C   UNK A   0     -22.732  -4.389  -7.560  1.00  0.00     0.097 A 
HETATM   15  H   UNK A   0     -24.721  -3.729  -7.877  1.00  0.00     0.165 HD
ENDBRANCH   5   6
ENDBRANCH   1   5
BRANCH   3  16
ATOM     16  CA  GLU A   1     -20.426  -7.228  -4.985  1.00  0.00     0.182 C 
BRANCH  16  17
ATOM     17  CB  GLU A   1     -21.759  -6.934  -4.270  1.00  0.00     0.046 C 
BRANCH  17  18
ATOM     18  CG  GLU A   1     -21.614  -6.255  -2.909  1.00  0.00     0.112 C 
BRANCH  18  19
ATOM     19  CD  GLU A   1     -21.901  -7.224  -1.793  1.00  0.00     0.139 C 
ATOM     20  OE1 GLU A   1     -21.435  -8.355  -1.773  1.00  0.00    -0.650 OA
BRANCH  19  21
ATOM     21  OE2 GLU A   1     -22.636  -6.706  -0.789  1.00  0.00    -0.776 OA
ATOM     22  HE2 GLU A   1     -22.129  -6.195  -0.129  1.00  0.00     0.167 HD
ENDBRANCH  19  21
ENDBRANCH  18  19
ENDBRANCH  17  18
ENDBRANCH  16  17
BRANCH  16  23
ATOM     23  C   GLU A   1     -20.190  -8.735  -5.092  1.00  0.00     0.163 C 
ATOM     24  O   GLU A   1     -19.215  -9.224  -5.651  1.00  0.00    -0.648 OA
BRANCH  23  25
ATOM     25  OXT GLU A   1     -21.149  -9.491  -4.513  1.00  0.00    -0.775 OA
ATOM     26  HXT GLU A   1     -20.872 -10.407  -4.288  1.00  0.00     0.167 HD
ENDBRANCH  23  25
ENDBRANCH  16  23
ENDBRANCH   3  16
TORSDOF 9
ENDMDL
MODEL 2
REMARK VINA RESULT:      -7.8      3.612      8.039
REMARK  9 active torsions:
REMARK  status: ('A' for Active; 'I' for Inactive)
REMARK    1  A    between atoms: C_7  and  C_10 
REMARK    2  A    between atoms: C_10  and  C_11 
REMARK       I    between atoms: C_11  and  N_14 
REMARK    3  A    between atoms: N_14  and  CA_15 
REMARK    4  A    between atoms: CA_15  and  CB_16 
REMARK    5  A    between atoms: CA_15  and  C_21 
REMARK    6  A    between atoms: CB_16  and  CG_17 
REMARK    7  A    between atoms: CG_17  and  CD_18 
REMARK    8  A    between atoms: CD_18  and  OE2_20 
REMARK    9  A    between atoms: C_21  and  OXT_23 
ROOT
HETATM    1  C   UNK A   0     -20.987  -4.648  -8.313  1.00  0.00     0.222 C 
HETATM    2  O   UNK A   0     -20.542  -3.520  -8.120  1.00  0.00    -0.273 OA
ATOM      3  N   GLU A   1     -22.012  -4.891  -9.196  1.00  0.00    -0.346 N 
ATOM      4  H   GLU A   1     -22.408  -5.824  -9.272  1.00  0.00     0.163 HD
ENDROOT
BRANCH   1   5
HETATM    5  C   UNK A   0     -20.391  -5.881  -7.652  1.00  0.00     0.143 C 
BRANCH   5   6
HETATM    6  C   UNK A   0     -20.967  -6.207  -6.311  1.00  0.00    -0.022 A 
HETATM    7  C   UNK A   0     -20.523  -7.205  -5.372  1.00  0.00    -0.001 A 
HETATM    8  C   UNK A   0     -21.418  -7.193  -4.299  1.00  0.00     0.042 A 
HETATM    9  C   UNK A   0     -19.462  -8.130  -5.341  1.00  0.00     0.014 A 
HETATM   10  C   UNK A   0     -21.296  -8.046  -3.195  1.00  0.00     0.030 A 
HETATM   11  N   UNK A   0     -22.369  -6.238  -4.571  1.00  0.00    -0.365 N 
HETATM   12  C   UNK A   0     -20.227  -8.943  -3.183  1.00  0.00     0.002 A 
HETATM   13  C   UNK A   0     -19.323  -8.989  -4.241  1.00  0.00     0.001 A 
HETATM   14  C   UNK A   0     -22.109  -5.639  -5.773  1.00  0.00     0.097 A 
HETATM   15  H   UNK A   0     -23.155  -6.032  -3.971  1.00  0.00     0.165 HD
ENDBRANCH   5   6
ENDBRANCH   1   5
BRANCH   3  16
ATOM     16  CA  GLU A   1     -22.633  -3.813  -9.966  1.00  0.00     0.182 C 
BRANCH  16  17
ATOM     17  CB  GLU A   1     -22.724  -4.199 -11.455  1.00  0.00     0.046 C 
BRANCH  17  18
ATOM     18  CG  GLU A   1     -22.454  -3.051 -12.426  1.00  0.00     0.112 C 
BRANCH  18  19
ATOM     19  CD  GLU A   1     -23.594  -2.890 -13.395  1.00  0.00     0.139 C 
ATOM     20  OE1 GLU A   1     -23.493  -3.181 -14.579  1.00  0.00    -0.650 OA
BRANCH  19  21
ATOM     21  OE2 GLU A   1     -24.747  -2.484 -12.826  1.00  0.00    -0.776 OA
ATOM     22  HE2 GLU A   1     -25.486  -3.120 -12.896  1.00  0.00     0.167 HD
ENDBRANCH  19  21
ENDBRANCH  18  19
ENDBRANCH  17  18
ENDBRANCH  16  17
BRANCH  16  23
ATOM     23  C   GLU A   1     -24.024  -3.559  -9.385  1.00  0.00     0.163 C 
ATOM     24  O   GLU A   1     -24.918  -2.997 -10.006  1.00  0.00    -0.648 OA
BRANCH  23  25
ATOM     25  OXT GLU A   1     -24.191  -4.011  -8.122  1.00  0.00    -0.775 OA
ATOM     26  HXT GLU A   1     -24.378  -4.973  -8.050  1.00  0.00     0.167 HD
ENDBRANCH  23  25
ENDBRANCH  16  23
ENDBRANCH   3  16
TORSDOF 9
ENDMDL
MODEL 3
REMARK VINA RESULT:      -7.6      1.403      3.206
REMARK  9 active torsions:
REMARK  status: ('A' for Active; 'I' for Inactive)
REMARK    1  A    between atoms: C_7  and  C_10 
REMARK    2  A    between atoms: C_10  and  C_11 
REMARK       I    between atoms: C_11  and  N_14 
REMARK    3  A    between atoms: N_14  and  CA_15 
REMARK    4  A    between atoms: CA_15  and  CB_16 
REMARK    5  A    between atoms: CA_15  and  C_21 
REMARK    6  A    between atoms: CB_16  and  CG_17 
REMARK    7  A    between atoms: CG_17  and  CD_18 
REMARK    8  A    between atoms: CD_18  and  OE2_20 
REMARK    9  A    between atoms: C_21  and  OXT_23 
ROOT
HETATM    1  C   UNK A   0     -21.080  -6.392  -5.603  1.00  0.00     0.222 C 
HETATM    2  O   UNK A   0     -21.282  -7.452  -6.190  1.00  0.00    -0.273 OA
ATOM      3  N   GLU A   1     -21.076  -6.302  -4.232  1.00  0.00    -0.346 N 
ATOM      4  H   GLU A   1     -20.984  -5.396  -3.780  1.00  0.00     0.163 HD
ENDROOT
BRANCH   1   5
HETATM    5  C   UNK A   0     -20.741  -5.107  -6.341  1.00  0.00     0.143 C 
BRANCH   5   6
HETATM    6  C   UNK A   0     -21.745  -4.698  -7.372  1.00  0.00    -0.022 A 
HETATM    7  C   UNK A   0     -21.517  -4.371  -8.755  1.00  0.00    -0.001 A 
HETATM    8  C   UNK A   0     -22.741  -3.973  -9.296  1.00  0.00     0.042 A 
HETATM    9  C   UNK A   0     -20.385  -4.355  -9.593  1.00  0.00     0.014 A 
HETATM   10  C   UNK A   0     -22.893  -3.575 -10.630  1.00  0.00     0.030 A 
HETATM   11  N   UNK A   0     -23.675  -4.045  -8.290  1.00  0.00    -0.365 N 
HETATM   12  C   UNK A   0     -21.757  -3.582 -11.442  1.00  0.00     0.002 A 
HETATM   13  C   UNK A   0     -20.519  -3.963 -10.932  1.00  0.00     0.001 A 
HETATM   14  C   UNK A   0     -23.091  -4.479  -7.131  1.00  0.00     0.097 A 
HETATM   15  H   UNK A   0     -24.647  -3.790  -8.396  1.00  0.00     0.165 HD
ENDBRANCH   5   6
ENDBRANCH   1   5
BRANCH   3  16
ATOM     16  CA  GLU A   1     -21.307  -7.473  -3.385  1.00  0.00     0.182 C 
BRANCH  16  17
ATOM     17  CB  GLU A   1     -19.977  -8.192  -3.086  1.00  0.00     0.046 C 
BRANCH  17  18
ATOM     18  CG  GLU A   1     -19.837  -9.565  -3.741  1.00  0.00     0.112 C 
BRANCH  18  19
ATOM     19  CD  GLU A   1     -18.631  -9.610  -4.640  1.00  0.00     0.139 C 
ATOM     20  OE1 GLU A   1     -17.595 -10.176  -4.318  1.00  0.00    -0.650 OA
BRANCH  19  21
ATOM     21  OE2 GLU A   1     -18.825  -9.050  -5.851  1.00  0.00    -0.776 OA
ATOM     22  HE2 GLU A   1     -18.935  -9.686  -6.585  1.00  0.00     0.167 HD
ENDBRANCH  19  21
ENDBRANCH  18  19
ENDBRANCH  17  18
ENDBRANCH  16  17
BRANCH  16  23
ATOM     23  C   GLU A   1     -21.969  -6.997  -2.092  1.00  0.00     0.163 C 
ATOM     24  O   GLU A   1     -22.096  -7.707  -1.102  1.00  0.00    -0.648 OA
BRANCH  23  25
ATOM     25  OXT GLU A   1     -22.401  -5.717  -2.127  1.00  0.00    -0.775 OA
ATOM     26  HXT GLU A   1     -23.117  -5.506  -1.487  1.00  0.00     0.167 HD
ENDBRANCH  23  25
ENDBRANCH  16  23
ENDBRANCH   3  16
TORSDOF 9
ENDMDL
MODEL 4
REMARK VINA RESULT:      -7.3      2.897      8.107
REMARK  9 active torsions:
REMARK  status: ('A' for Active; 'I' for Inactive)
REMARK    1  A    between atoms: C_7  and  C_10 
REMARK    2  A    between atoms: C_10  and  C_11 
REMARK       I    between atoms: C_11  and  N_14 
REMARK    3  A    between atoms: N_14  and  CA_15 
REMARK    4  A    between atoms: CA_15  and  CB_16 
REMARK    5  A    between atoms: CA_15  and  C_21 
REMARK    6  A    between atoms: CB_16  and  CG_17 
REMARK    7  A    between atoms: CG_17  and  CD_18 
REMARK    8  A    between atoms: CD_18  and  OE2_20 
REMARK    9  A    between atoms: C_21  and  OXT_23 
ROOT
HETATM    1  C   UNK A   0     -21.237  -6.015  -6.001  1.00  0.00     0.222 C 
HETATM    2  O   UNK A   0     -21.258  -7.129  -6.518  1.00  0.00    -0.273 OA
ATOM      3  N   GLU A   1     -21.400  -4.863  -6.732  1.00  0.00    -0.346 N 
ATOM      4  H   GLU A   1     -21.298  -3.956  -6.284  1.00  0.00     0.163 HD
ENDROOT
BRANCH   1   5
HETATM    5  C   UNK A   0     -21.106  -5.820  -4.499  1.00  0.00     0.143 C 
BRANCH   5   6
HETATM    6  C   UNK A   0     -20.978  -7.088  -3.715  1.00  0.00    -0.022 A 
HETATM    7  C   UNK A   0     -21.489  -7.376  -2.401  1.00  0.00    -0.001 A 
HETATM    8  C   UNK A   0     -21.052  -8.657  -2.056  1.00  0.00     0.042 A 
HETATM    9  C   UNK A   0     -22.262  -6.664  -1.463  1.00  0.00     0.014 A 
HETATM   10  C   UNK A   0     -21.360  -9.265  -0.832  1.00  0.00     0.030 A 
HETATM   11  N   UNK A   0     -20.302  -9.129  -3.106  1.00  0.00    -0.365 N 
HETATM   12  C   UNK A   0     -22.139  -8.542   0.073  1.00  0.00     0.002 A 
HETATM   13  C   UNK A   0     -22.583  -7.258  -0.234  1.00  0.00     0.001 A 
HETATM   14  C   UNK A   0     -20.251  -8.199  -4.108  1.00  0.00     0.097 A 
HETATM   15  H   UNK A   0     -19.841 -10.029  -3.118  1.00  0.00     0.165 HD
ENDBRANCH   5   6
ENDBRANCH   1   5
BRANCH   3  16
ATOM     16  CA  GLU A   1     -21.617  -4.897  -8.178  1.00  0.00     0.182 C 
BRANCH  16  17
ATOM     17  CB  GLU A   1     -22.761  -3.944  -8.574  1.00  0.00     0.046 C 
BRANCH  17  18
ATOM     18  CG  GLU A   1     -23.713  -4.499  -9.632  1.00  0.00     0.112 C 
BRANCH  18  19
ATOM     19  CD  GLU A   1     -23.872  -3.530 -10.771  1.00  0.00     0.139 C 
ATOM     20  OE1 GLU A   1     -24.968  -3.159 -11.168  1.00  0.00    -0.650 OA
BRANCH  19  21
ATOM     21  OE2 GLU A   1     -22.708  -3.046 -11.249  1.00  0.00    -0.776 OA
ATOM     22  HE2 GLU A   1     -22.658  -2.072 -11.304  1.00  0.00     0.167 HD
ENDBRANCH  19  21
ENDBRANCH  18  19
ENDBRANCH  17  18
ENDBRANCH  16  17
BRANCH  16  23
ATOM     23  C   GLU A   1     -20.311  -4.489  -8.861  1.00  0.00     0.163 C 
ATOM     24  O   GLU A   1     -19.320  -4.113  -8.246  1.00  0.00    -0.648 OA
BRANCH  23  25
ATOM     25  OXT GLU A   1     -20.336  -4.581 -10.209  1.00  0.00    -0.775 OA
ATOM     26  HXT GLU A   1     -21.022  -5.187 -10.569  1.00  0.00     0.167 HD
ENDBRANCH  23  25
ENDBRANCH  16  23
ENDBRANCH   3  16
TORSDOF 9
ENDMDL
MODEL 5
REMARK VINA RESULT:      -7.3      1.564      2.834
REMARK  9 active torsions:
REMARK  status: ('A' for Active; 'I' for Inactive)
REMARK    1  A    between atoms: C_7  and  C_10 
REMARK    2  A    between atoms: C_10  and  C_11 
REMARK       I    between atoms: C_11  and  N_14 
REMARK    3  A    between atoms: N_14  and  CA_15 
REMARK    4  A    between atoms: CA_15  and  CB_16 
REMARK    5  A    between atoms: CA_15  and  C_21 
REMARK    6  A    between atoms: CB_16  and  CG_17 
REMARK    7  A    between atoms: CG_17  and  CD_18 
REMARK    8  A    between atoms: CD_18  and  OE2_20 
REMARK    9  A    between atoms: C_21  and  OXT_23 
ROOT
HETATM    1  C   UNK A   0     -20.942  -6.810  -5.639  1.00  0.00     0.222 C 
HETATM    2  O   UNK A   0     -21.295  -7.888  -6.108  1.00  0.00    -0.273 OA
ATOM      3  N   GLU A   1     -20.952  -6.559  -4.287  1.00  0.00    -0.346 N 
ATOM      4  H   GLU A   1     -20.729  -5.630  -3.939  1.00  0.00     0.163 HD
ENDROOT
BRANCH   1   5
HETATM    5  C   UNK A   0     -20.393  -5.688  -6.505  1.00  0.00     0.143 C 
BRANCH   5   6
HETATM    6  C   UNK A   0     -21.406  -5.027  -7.385  1.00  0.00    -0.022 A 
HETATM    7  C   UNK A   0     -21.257  -4.609  -8.754  1.00  0.00    -0.001 A 
HETATM    8  C   UNK A   0     -22.443  -3.971  -9.125  1.00  0.00     0.042 A 
HETATM    9  C   UNK A   0     -20.222  -4.693  -9.706  1.00  0.00     0.014 A 
HETATM   10  C   UNK A   0     -22.650  -3.428 -10.400  1.00  0.00     0.030 A 
HETATM   11  N   UNK A   0     -23.276  -3.990  -8.033  1.00  0.00    -0.365 N 
HETATM   12  C   UNK A   0     -21.613  -3.536 -11.328  1.00  0.00     0.002 A 
HETATM   13  C   UNK A   0     -20.414  -4.157 -10.988  1.00  0.00     0.001 A 
HETATM   14  C   UNK A   0     -22.667  -4.621  -6.983  1.00  0.00     0.097 A 
HETATM   15  H   UNK A   0     -24.198  -3.575  -8.013  1.00  0.00     0.165 HD
ENDBRANCH   5   6
ENDBRANCH   1   5
BRANCH   3  16
ATOM     16  CA  GLU A   1     -21.380  -7.572  -3.322  1.00  0.00     0.182 C 
BRANCH  16  17
ATOM     17  CB  GLU A   1     -20.202  -8.492  -2.950  1.00  0.00     0.046 C 
BRANCH  17  18
ATOM     18  CG  GLU A   1     -20.426  -9.970  -3.265  1.00  0.00     0.112 C 
BRANCH  18  19
ATOM     19  CD  GLU A   1     -21.828 -10.387  -2.911  1.00  0.00     0.139 C 
ATOM     20  OE1 GLU A   1     -22.632 -10.761  -3.753  1.00  0.00    -0.650 OA
BRANCH  19  21
ATOM     21  OE2 GLU A   1     -22.083 -10.392  -1.587  1.00  0.00    -0.776 OA
ATOM     22  HE2 GLU A   1     -21.675 -11.129  -1.092  1.00  0.00     0.167 HD
ENDBRANCH  19  21
ENDBRANCH  18  19
ENDBRANCH  17  18
ENDBRANCH  16  17
BRANCH  16  23
ATOM     23  C   GLU A   1     -21.916  -6.849  -2.086  1.00  0.00     0.163 C 
ATOM     24  O   GLU A   1     -22.540  -5.797  -2.141  1.00  0.00    -0.648 OA
BRANCH  23  25
ATOM     25  OXT GLU A   1     -21.647  -7.473  -0.918  1.00  0.00    -0.775 OA
ATOM     26  HXT GLU A   1     -21.839  -6.942  -0.113  1.00  0.00     0.167 HD
ENDBRANCH  23  25
ENDBRANCH  16  23
ENDBRANCH   3  16
TORSDOF 9
ENDMDL
MODEL 6
REMARK VINA RESULT:      -7.2      2.902      8.204
REMARK  9 active torsions:
REMARK  status: ('A' for Active; 'I' for Inactive)
REMARK    1  A    between atoms: C_7  and  C_10 
REMARK    2  A    between atoms: C_10  and  C_11 
REMARK       I    between atoms: C_11  and  N_14 
REMARK    3  A    between atoms: N_14  and  CA_15 
REMARK    4  A    between atoms: CA_15  and  CB_16 
REMARK    5  A    between atoms: CA_15  and  C_21 
REMARK    6  A    between atoms: CB_16  and  CG_17 
REMARK    7  A    between atoms: CG_17  and  CD_18 
REMARK    8  A    between atoms: CD_18  and  OE2_20 
REMARK    9  A    between atoms: C_21  and  OXT_23 
ROOT
HETATM    1  C   UNK A   0     -20.840  -5.857  -5.200  1.00  0.00     0.222 C 
HETATM    2  O   UNK A   0     -20.122  -4.903  -4.914  1.00  0.00    -0.273 OA
ATOM      3  N   GLU A   1     -21.661  -5.853  -6.302  1.00  0.00    -0.346 N 
ATOM      4  H   GLU A   1     -22.301  -6.626  -6.464  1.00  0.00     0.163 HD
ENDROOT
BRANCH   1   5
HETATM    5  C   UNK A   0     -20.827  -7.151  -4.403  1.00  0.00     0.143 C 
BRANCH   5   6
HETATM    6  C   UNK A   0     -21.316  -7.021  -2.995  1.00  0.00    -0.022 A 
HETATM    7  C   UNK A   0     -21.196  -7.971  -1.920  1.00  0.00    -0.001 A 
HETATM    8  C   UNK A   0     -21.874  -7.442  -0.820  1.00  0.00     0.042 A 
HETATM    9  C   UNK A   0     -20.596  -9.238  -1.784  1.00  0.00     0.014 A 
HETATM   10  C   UNK A   0     -21.968  -8.106   0.410  1.00  0.00     0.030 A 
HETATM   11  N   UNK A   0     -22.391  -6.228  -1.204  1.00  0.00    -0.365 N 
HETATM   12  C   UNK A   0     -21.352  -9.354   0.521  1.00  0.00     0.002 A 
HETATM   13  C   UNK A   0     -20.677  -9.916  -0.559  1.00  0.00     0.001 A 
HETATM   14  C   UNK A   0     -22.063  -5.964  -2.505  1.00  0.00     0.097 A 
HETATM   15  H   UNK A   0     -22.951  -5.634  -0.608  1.00  0.00     0.165 HD
ENDBRANCH   5   6
ENDBRANCH   1   5
BRANCH   3  16
ATOM     16  CA  GLU A   1     -21.721  -4.707  -7.209  1.00  0.00     0.182 C 
BRANCH  16  17
ATOM     17  CB  GLU A   1     -20.945  -5.006  -8.507  1.00  0.00     0.046 C 
BRANCH  17  18
ATOM     18  CG  GLU A   1     -20.337  -3.777  -9.181  1.00  0.00     0.112 C 
BRANCH  18  19
ATOM     19  CD  GLU A   1     -20.714  -3.723 -10.636  1.00  0.00     0.139 C 
ATOM     20  OE1 GLU A   1     -20.010  -4.204 -11.513  1.00  0.00    -0.650 OA
BRANCH  19  21
ATOM     21  OE2 GLU A   1     -21.926  -3.179 -10.871  1.00  0.00    -0.776 OA
ATOM     22  HE2 GLU A   1     -22.593  -3.799 -11.226  1.00  0.00     0.167 HD
ENDBRANCH  19  21
ENDBRANCH  18  19
ENDBRANCH  17  18
ENDBRANCH  16  17
BRANCH  16  23
ATOM     23  C   GLU A   1     -23.192  -4.421  -7.512  1.00  0.00     0.163 C 
ATOM     24  O   GLU A   1     -23.600  -4.099  -8.622  1.00  0.00    -0.648 OA
BRANCH  23  25
ATOM     25  OXT GLU A   1     -24.015  -4.557  -6.449  1.00  0.00    -0.775 OA
ATOM     26  HXT GLU A   1     -23.715  -5.207  -5.774  1.00  0.00     0.167 HD
ENDBRANCH  23  25
ENDBRANCH  16  23
ENDBRANCH   3  16
TORSDOF 9
ENDMDL
MODEL 7
REMARK VINA RESULT:      -6.9      1.947      3.107
REMARK  9 active torsions:
REMARK  status: ('A' for Active; 'I' for Inactive)
REMARK    1  A    between atoms: C_7  and  C_10 
REMARK    2  A    between atoms: C_10  and  C_11 
REMARK       I    between atoms: C_11  and  N_14 
REMARK    3  A    between atoms: N_14  and  CA_15 
REMARK    4  A    between atoms: CA_15  and  CB_16 
REMARK    5  A    between atoms: CA_15  and  C_21 
REMARK    6  A    between atoms: CB_16  and  CG_17 
REMARK    7  A    between atoms: CG_17  and  CD_18 
REMARK    8  A    between atoms: CD_18  and  OE2_20 
REMARK    9  A    between atoms: C_21  and  OXT_23 
ROOT
HETATM    1  C   UNK A   0     -21.452  -6.545  -3.901  1.00  0.00     0.222 C 
HETATM    2  O   UNK A   0     -21.304  -5.718  -3.005  1.00  0.00    -0.273 OA
ATOM      3  N   GLU A   1     -20.990  -7.835  -3.792  1.00  0.00    -0.346 N 
ATOM      4  H   GLU A   1     -21.060  -8.470  -4.583  1.00  0.00     0.163 HD
ENDROOT
BRANCH   1   5
HETATM    5  C   UNK A   0     -22.226  -6.236  -5.172  1.00  0.00     0.143 C 
BRANCH   5   6
HETATM    6  C   UNK A   0     -21.375  -5.864  -6.344  1.00  0.00    -0.022 A 
HETATM    7  C   UNK A   0     -21.740  -5.081  -7.496  1.00  0.00    -0.001 A 
HETATM    8  C   UNK A   0     -20.641  -5.070  -8.357  1.00  0.00     0.042 A 
HETATM    9  C   UNK A   0     -22.906  -4.400  -7.899  1.00  0.00     0.014 A 
HETATM   10  C   UNK A   0     -20.643  -4.403  -9.589  1.00  0.00     0.030 A 
HETATM   11  N   UNK A   0     -19.650  -5.817  -7.765  1.00  0.00    -0.365 N 
HETATM   12  C   UNK A   0     -21.806  -3.725  -9.957  1.00  0.00     0.002 A 
HETATM   13  C   UNK A   0     -22.924  -3.724  -9.127  1.00  0.00     0.001 A 
HETATM   14  C   UNK A   0     -20.077  -6.297  -6.557  1.00  0.00     0.097 A 
HETATM   15  H   UNK A   0     -18.747  -5.996  -8.181  1.00  0.00     0.165 HD
ENDBRANCH   5   6
ENDBRANCH   1   5
BRANCH   3  16
ATOM     16  CA  GLU A   1     -20.296  -8.303  -2.592  1.00  0.00     0.182 C 
BRANCH  16  17
ATOM     17  CB  GLU A   1     -21.267  -9.064  -1.670  1.00  0.00     0.046 C 
BRANCH  17  18
ATOM     18  CG  GLU A   1     -21.350  -8.519  -0.245  1.00  0.00     0.112 C 
BRANCH  18  19
ATOM     19  CD  GLU A   1     -22.642  -7.780  -0.029  1.00  0.00     0.139 C 
ATOM     20  OE1 GLU A   1     -23.449  -8.109   0.830  1.00  0.00    -0.650 OA
BRANCH  19  21
ATOM     21  OE2 GLU A   1     -22.785  -6.683  -0.800  1.00  0.00    -0.776 OA
ATOM     22  HE2 GLU A   1     -23.560  -6.127  -0.586  1.00  0.00     0.167 HD
ENDBRANCH  19  21
ENDBRANCH  18  19
ENDBRANCH  17  18
ENDBRANCH  16  17
BRANCH  16  23
ATOM     23  C   GLU A   1     -19.146  -9.208  -3.035  1.00  0.00     0.163 C 
ATOM     24  O   GLU A   1     -18.635 -10.049  -2.306  1.00  0.00    -0.648 OA
BRANCH  23  25
ATOM     25  OXT GLU A   1     -18.739  -9.008  -4.308  1.00  0.00    -0.775 OA
ATOM     26  HXT GLU A   1     -19.362  -8.487  -4.864  1.00  0.00     0.167 HD
ENDBRANCH  23  25
ENDBRANCH  16  23
ENDBRANCH   3  16
TORSDOF 9
ENDMDL
MODEL 8
REMARK VINA RESULT:      -6.8      1.516      3.376
REMARK  9 active torsions:
REMARK  status: ('A' for Active; 'I' for Inactive)
REMARK    1  A    between atoms: C_7  and  C_10 
REMARK    2  A    between atoms: C_10  and  C_11 
REMARK       I    between atoms: C_11  and  N_14 
REMARK    3  A    between atoms: N_14  and  CA_15 
REMARK    4  A    between atoms: CA_15  and  CB_16 
REMARK    5  A    between atoms: CA_15  and  C_21 
REMARK    6  A    between atoms: CB_16  and  CG_17 
REMARK    7  A    between atoms: CG_17  and  CD_18 
REMARK    8  A    between atoms: CD_18  and  OE2_20 
REMARK    9  A    between atoms: C_21  and  OXT_23 
ROOT
HETATM    1  C   UNK A   0     -21.016  -5.888  -5.803  1.00  0.00     0.222 C 
HETATM    2  O   UNK A   0     -21.228  -6.877  -6.499  1.00  0.00    -0.273 OA
ATOM      3  N   GLU A   1     -21.031  -5.941  -4.429  1.00  0.00    -0.346 N 
ATOM      4  H   GLU A   1     -20.929  -5.089  -3.885  1.00  0.00     0.163 HD
ENDROOT
BRANCH   1   5
HETATM    5  C   UNK A   0     -20.643  -4.540  -6.398  1.00  0.00     0.143 C 
BRANCH   5   6
HETATM    6  C   UNK A   0     -20.759  -4.464  -7.888  1.00  0.00    -0.022 A 
HETATM    7  C   UNK A   0     -21.947  -4.271  -8.678  1.00  0.00    -0.001 A 
HETATM    8  C   UNK A   0     -21.570  -4.350 -10.021  1.00  0.00     0.042 A 
HETATM    9  C   UNK A   0     -23.307  -4.059  -8.382  1.00  0.00     0.014 A 
HETATM   10  C   UNK A   0     -22.479  -4.213 -11.078  1.00  0.00     0.030 A 
HETATM   11  N   UNK A   0     -20.217  -4.587 -10.052  1.00  0.00    -0.365 N 
HETATM   12  C   UNK A   0     -23.819  -3.990 -10.756  1.00  0.00     0.002 A 
HETATM   13  C   UNK A   0     -24.230  -3.916  -9.428  1.00  0.00     0.001 A 
HETATM   14  C   UNK A   0     -19.718  -4.657  -8.780  1.00  0.00     0.097 A 
HETATM   15  H   UNK A   0     -19.680  -4.712 -10.899  1.00  0.00     0.165 HD
ENDBRANCH   5   6
ENDBRANCH   1   5
BRANCH   3  16
ATOM     16  CA  GLU A   1     -21.295  -7.189  -3.713  1.00  0.00     0.182 C 
BRANCH  16  17
ATOM     17  CB  GLU A   1     -19.999  -8.009  -3.562  1.00  0.00     0.046 C 
BRANCH  17  18
ATOM     18  CG  GLU A   1     -20.148  -9.496  -3.881  1.00  0.00     0.112 C 
BRANCH  18  19
ATOM     19  CD  GLU A   1     -20.062  -9.737  -5.364  1.00  0.00     0.139 C 
ATOM     20  OE1 GLU A   1     -20.869 -10.436  -5.961  1.00  0.00    -0.650 OA
BRANCH  19  21
ATOM     21  OE2 GLU A   1     -19.079  -9.048  -5.978  1.00  0.00    -0.776 OA
ATOM     22  HE2 GLU A   1     -19.320  -8.143  -6.253  1.00  0.00     0.167 HD
ENDBRANCH  19  21
ENDBRANCH  18  19
ENDBRANCH  17  18
ENDBRANCH  16  17
BRANCH  16  23
ATOM     23  C   GLU A   1     -21.874  -6.833  -2.343  1.00  0.00     0.163 C 
ATOM     24  O   GLU A   1     -22.643  -5.896  -2.161  1.00  0.00    -0.648 OA
BRANCH  23  25
ATOM     25  OXT GLU A   1     -21.469  -7.644  -1.341  1.00  0.00    -0.775 OA
ATOM     26  HXT GLU A   1     -21.043  -7.183  -0.584  1.00  0.00     0.167 HD
ENDBRANCH  23  25
ENDBRANCH  16  23
ENDBRANCH   3  16
TORSDOF 9
ENDMDL
MODEL 9
REMARK VINA RESULT:      -6.7      1.896      2.874
REMARK  9 active torsions:
REMARK  status: ('A' for Active; 'I' for Inactive)
REMARK    1  A    between atoms: C_7  and  C_10 
REMARK    2  A    between atoms: C_10  and  C_11 
REMARK       I    between atoms: C_11  and  N_14 
REMARK    3  A    between atoms: N_14  and  CA_15 
REMARK    4  A    between atoms: CA_15  and  CB_16 
REMARK    5  A    between atoms: CA_15  and  C_21 
REMARK    6  A    between atoms: CB_16  and  CG_17 
REMARK    7  A    between atoms: CG_17  and  CD_18 
REMARK    8  A    between atoms: CD_18  and  OE2_20 
REMARK    9  A    between atoms: C_21  and  OXT_23 
ROOT
HETATM    1  C   UNK A   0     -20.297  -5.430  -7.573  1.00  0.00     0.222 C 
HETATM    2  O   UNK A   0     -19.665  -6.435  -7.886  1.00  0.00    -0.273 OA
ATOM      3  N   GLU A   1     -21.203  -5.426  -6.540  1.00  0.00    -0.346 N 
ATOM      4  H   GLU A   1     -21.766  -4.599  -6.359  1.00  0.00     0.163 HD
ENDROOT
BRANCH   1   5
HETATM    5  C   UNK A   0     -20.075  -4.088  -8.250  1.00  0.00     0.143 C 
BRANCH   5   6
HETATM    6  C   UNK A   0     -20.711  -3.957  -9.598  1.00  0.00    -0.022 A 
HETATM    7  C   UNK A   0     -22.101  -3.746  -9.909  1.00  0.00    -0.001 A 
HETATM    8  C   UNK A   0     -22.224  -3.772 -11.300  1.00  0.00     0.042 A 
HETATM    9  C   UNK A   0     -23.267  -3.558  -9.142  1.00  0.00     0.014 A 
HETATM   10  C   UNK A   0     -23.448  -3.605 -11.961  1.00  0.00     0.030 A 
HETATM   11  N   UNK A   0     -20.971  -3.995 -11.818  1.00  0.00    -0.365 N 
HETATM   12  C   UNK A   0     -24.586  -3.406 -11.177  1.00  0.00     0.002 A 
HETATM   13  C   UNK A   0     -24.500  -3.385  -9.787  1.00  0.00     0.001 A 
HETATM   14  C   UNK A   0     -20.055  -4.107 -10.808  1.00  0.00     0.097 A 
HETATM   15  H   UNK A   0     -20.770  -4.084 -12.804  1.00  0.00     0.165 HD
ENDBRANCH   5   6
ENDBRANCH   1   5
BRANCH   3  16
ATOM     16  CA  GLU A   1     -21.464  -6.625  -5.744  1.00  0.00     0.182 C 
BRANCH  16  17
ATOM     17  CB  GLU A   1     -20.173  -7.104  -5.053  1.00  0.00     0.046 C 
BRANCH  17  18
ATOM     18  CG  GLU A   1     -20.079  -8.617  -4.862  1.00  0.00     0.112 C 
BRANCH  18  19
ATOM     19  CD  GLU A   1     -19.700  -8.955  -3.445  1.00  0.00     0.139 C 
ATOM     20  OE1 GLU A   1     -18.817  -9.758  -3.178  1.00  0.00    -0.650 OA
BRANCH  19  21
ATOM     21  OE2 GLU A   1     -20.356  -8.236  -2.513  1.00  0.00    -0.776 OA
ATOM     22  HE2 GLU A   1     -20.494  -8.694  -1.661  1.00  0.00     0.167 HD
ENDBRANCH  19  21
ENDBRANCH  18  19
ENDBRANCH  17  18
ENDBRANCH  16  17
BRANCH  16  23
ATOM     23  C   GLU A   1     -22.536  -6.280  -4.710  1.00  0.00     0.163 C 
ATOM     24  O   GLU A   1     -22.324  -6.260  -3.503  1.00  0.00    -0.648 OA
BRANCH  23  25
ATOM     25  OXT GLU A   1     -23.747  -5.994  -5.238  1.00  0.00    -0.775 OA
ATOM     26  HXT GLU A   1     -24.500  -6.076  -4.611  1.00  0.00     0.167 HD
ENDBRANCH  23  25
ENDBRANCH  16  23
ENDBRANCH   3  16
TORSDOF 9
ENDMDL
