MODEL 1
REMARK VINA RESULT:      -1.1      0.000      0.000
REMARK  14 active torsions:
REMARK  status: ('A' for Active; 'I' for Inactive)
REMARK    1  A    between atoms: C_2  and  C_3 
REMARK    2  A    between atoms: C_3  and  C_4 
REMARK    3  A    between atoms: C_4  and  C_5 
REMARK    4  A    between atoms: C_5  and  C_6 
REMARK    5  A    between atoms: C_6  and  C_7 
REMARK    6  A    between atoms: C_7  and  C_8 
REMARK    7  A    between atoms: C_8  and  C_9 
REMARK    8  A    between atoms: C_9  and  C_10 
REMARK    9  A    between atoms: C_10  and  C_11 
REMARK   10  A    between atoms: C_11  and  C_12 
REMARK   11  A    between atoms: C_12  and  C_18 
REMARK   12  A    between atoms: N_16  and  C_18 
REMARK   13  A    between atoms: N_16  and  C_21 
REMARK   14  A    between atoms: C_21  and  C_22 
ROOT
HETATM    1  C   UNL     1     -33.080  -3.341 -11.396  1.00  0.00     0.000 C 
ENDROOT
TORSDOF 14
ENDMDL
MODEL 2
REMARK VINA RESULT:      -1.1      8.532      8.532
REMARK  14 active torsions:
REMARK  status: ('A' for Active; 'I' for Inactive)
REMARK    1  A    between atoms: C_2  and  C_3 
REMARK    2  A    between atoms: C_3  and  C_4 
REMARK    3  A    between atoms: C_4  and  C_5 
REMARK    4  A    between atoms: C_5  and  C_6 
REMARK    5  A    between atoms: C_6  and  C_7 
REMARK    6  A    between atoms: C_7  and  C_8 
REMARK    7  A    between atoms: C_8  and  C_9 
REMARK    8  A    between atoms: C_9  and  C_10 
REMARK    9  A    between atoms: C_10  and  C_11 
REMARK   10  A    between atoms: C_11  and  C_12 
REMARK   11  A    between atoms: C_12  and  C_18 
REMARK   12  A    between atoms: N_16  and  C_18 
REMARK   13  A    between atoms: N_16  and  C_21 
REMARK   14  A    between atoms: C_21  and  C_22 
ROOT
HETATM    1  C   UNL     1     -37.128   0.548  -4.971  1.00  0.00     0.000 C 
ENDROOT
TORSDOF 14
ENDMDL
MODEL 3
REMARK VINA RESULT:      -1.0      4.684      4.684
REMARK  14 active torsions:
REMARK  status: ('A' for Active; 'I' for Inactive)
REMARK    1  A    between atoms: C_2  and  C_3 
REMARK    2  A    between atoms: C_3  and  C_4 
REMARK    3  A    between atoms: C_4  and  C_5 
REMARK    4  A    between atoms: C_5  and  C_6 
REMARK    5  A    between atoms: C_6  and  C_7 
REMARK    6  A    between atoms: C_7  and  C_8 
REMARK    7  A    between atoms: C_8  and  C_9 
REMARK    8  A    between atoms: C_9  and  C_10 
REMARK    9  A    between atoms: C_10  and  C_11 
REMARK   10  A    between atoms: C_11  and  C_12 
REMARK   11  A    between atoms: C_12  and  C_18 
REMARK   12  A    between atoms: N_16  and  C_18 
REMARK   13  A    between atoms: N_16  and  C_21 
REMARK   14  A    between atoms: C_21  and  C_22 
ROOT
HETATM    1  C   UNL     1     -34.827  -7.418  -9.890  1.00  0.00     0.000 C 
ENDROOT
TORSDOF 14
ENDMDL
MODEL 4
REMARK VINA RESULT:      -1.0     14.747     14.747
REMARK  14 active torsions:
REMARK  status: ('A' for Active; 'I' for Inactive)
REMARK    1  A    between atoms: C_2  and  C_3 
REMARK    2  A    between atoms: C_3  and  C_4 
REMARK    3  A    between atoms: C_4  and  C_5 
REMARK    4  A    between atoms: C_5  and  C_6 
REMARK    5  A    between atoms: C_6  and  C_7 
REMARK    6  A    between atoms: C_7  and  C_8 
REMARK    7  A    between atoms: C_8  and  C_9 
REMARK    8  A    between atoms: C_9  and  C_10 
REMARK    9  A    between atoms: C_10  and  C_11 
REMARK   10  A    between atoms: C_11  and  C_12 
REMARK   11  A    between atoms: C_12  and  C_18 
REMARK   12  A    between atoms: N_16  and  C_18 
REMARK   13  A    between atoms: N_16  and  C_21 
REMARK   14  A    between atoms: C_21  and  C_22 
ROOT
HETATM    1  C   UNL     1     -22.177  -6.232  -1.896  1.00  0.00     0.000 C 
ENDROOT
TORSDOF 14
ENDMDL
MODEL 5
REMARK VINA RESULT:      -0.9     16.238     16.238
REMARK  14 active torsions:
REMARK  status: ('A' for Active; 'I' for Inactive)
REMARK    1  A    between atoms: C_2  and  C_3 
REMARK    2  A    between atoms: C_3  and  C_4 
REMARK    3  A    between atoms: C_4  and  C_5 
REMARK    4  A    between atoms: C_5  and  C_6 
REMARK    5  A    between atoms: C_6  and  C_7 
REMARK    6  A    between atoms: C_7  and  C_8 
REMARK    7  A    between atoms: C_8  and  C_9 
REMARK    8  A    between atoms: C_9  and  C_10 
REMARK    9  A    between atoms: C_10  and  C_11 
REMARK   10  A    between atoms: C_11  and  C_12 
REMARK   11  A    between atoms: C_12  and  C_18 
REMARK   12  A    between atoms: N_16  and  C_18 
REMARK   13  A    between atoms: N_16  and  C_21 
REMARK   14  A    between atoms: C_21  and  C_22 
ROOT
HETATM    1  C   UNL     1     -23.108  -8.100   0.502  1.00  0.00     0.000 C 
ENDROOT
TORSDOF 14
ENDMDL
MODEL 6
REMARK VINA RESULT:      -0.9     11.818     11.818
REMARK  14 active torsions:
REMARK  status: ('A' for Active; 'I' for Inactive)
REMARK    1  A    between atoms: C_2  and  C_3 
REMARK    2  A    between atoms: C_3  and  C_4 
REMARK    3  A    between atoms: C_4  and  C_5 
REMARK    4  A    between atoms: C_5  and  C_6 
REMARK    5  A    between atoms: C_6  and  C_7 
REMARK    6  A    between atoms: C_7  and  C_8 
REMARK    7  A    between atoms: C_8  and  C_9 
REMARK    8  A    between atoms: C_9  and  C_10 
REMARK    9  A    between atoms: C_10  and  C_11 
REMARK   10  A    between atoms: C_11  and  C_12 
REMARK   11  A    between atoms: C_12  and  C_18 
REMARK   12  A    between atoms: N_16  and  C_18 
REMARK   13  A    between atoms: N_16  and  C_21 
REMARK   14  A    between atoms: C_21  and  C_22 
ROOT
HETATM    1  C   UNL     1     -26.067   6.088 -10.142  1.00  0.00     0.000 C 
ENDROOT
TORSDOF 14
ENDMDL
MODEL 7
REMARK VINA RESULT:      -0.9      1.814      1.814
REMARK  14 active torsions:
REMARK  status: ('A' for Active; 'I' for Inactive)
REMARK    1  A    between atoms: C_2  and  C_3 
REMARK    2  A    between atoms: C_3  and  C_4 
REMARK    3  A    between atoms: C_4  and  C_5 
REMARK    4  A    between atoms: C_5  and  C_6 
REMARK    5  A    between atoms: C_6  and  C_7 
REMARK    6  A    between atoms: C_7  and  C_8 
REMARK    7  A    between atoms: C_8  and  C_9 
REMARK    8  A    between atoms: C_9  and  C_10 
REMARK    9  A    between atoms: C_10  and  C_11 
REMARK   10  A    between atoms: C_11  and  C_12 
REMARK   11  A    between atoms: C_12  and  C_18 
REMARK   12  A    between atoms: N_16  and  C_18 
REMARK   13  A    between atoms: N_16  and  C_21 
REMARK   14  A    between atoms: C_21  and  C_22 
ROOT
HETATM    1  C   UNL     1     -33.798  -4.894 -10.791  1.00  0.00     0.000 C 
ENDROOT
TORSDOF 14
ENDMDL
MODEL 8
REMARK VINA RESULT:      -0.9     29.216     29.216
REMARK  14 active torsions:
REMARK  status: ('A' for Active; 'I' for Inactive)
REMARK    1  A    between atoms: C_2  and  C_3 
REMARK    2  A    between atoms: C_3  and  C_4 
REMARK    3  A    between atoms: C_4  and  C_5 
REMARK    4  A    between atoms: C_5  and  C_6 
REMARK    5  A    between atoms: C_6  and  C_7 
REMARK    6  A    between atoms: C_7  and  C_8 
REMARK    7  A    between atoms: C_8  and  C_9 
REMARK    8  A    between atoms: C_9  and  C_10 
REMARK    9  A    between atoms: C_10  and  C_11 
REMARK   10  A    between atoms: C_11  and  C_12 
REMARK   11  A    between atoms: C_12  and  C_18 
REMARK   12  A    between atoms: N_16  and  C_18 
REMARK   13  A    between atoms: N_16  and  C_21 
REMARK   14  A    between atoms: C_21  and  C_22 
ROOT
HETATM    1  C   UNL     1     -13.080   9.103   5.886  1.00  0.00     0.000 C 
ENDROOT
TORSDOF 14
ENDMDL
MODEL 9
REMARK VINA RESULT:      -0.9      5.309      5.309
REMARK  14 active torsions:
REMARK  status: ('A' for Active; 'I' for Inactive)
REMARK    1  A    between atoms: C_2  and  C_3 
REMARK    2  A    between atoms: C_3  and  C_4 
REMARK    3  A    between atoms: C_4  and  C_5 
REMARK    4  A    between atoms: C_5  and  C_6 
REMARK    5  A    between atoms: C_6  and  C_7 
REMARK    6  A    between atoms: C_7  and  C_8 
REMARK    7  A    between atoms: C_8  and  C_9 
REMARK    8  A    between atoms: C_9  and  C_10 
REMARK    9  A    between atoms: C_10  and  C_11 
REMARK   10  A    between atoms: C_11  and  C_12 
REMARK   11  A    between atoms: C_12  and  C_18 
REMARK   12  A    between atoms: N_16  and  C_18 
REMARK   13  A    between atoms: N_16  and  C_21 
REMARK   14  A    between atoms: C_21  and  C_22 
ROOT
HETATM    1  C   UNL     1     -34.707   1.053 -13.892  1.00  0.00     0.000 C 
ENDROOT
TORSDOF 14
ENDMDL
