MODEL 1
REMARK VINA RESULT:      -5.8      0.000      0.000
REMARK  1 active torsions:
REMARK  status: ('A' for Active; 'I' for Inactive)
REMARK    1  A    between atoms: C_3  and  C_8 
REMARK       I    between atoms: C_8  and  N_10 
ROOT
HETATM    1  C   UNL     1     -22.227  -3.889 -11.192  1.00  0.00     0.018 A 
HETATM    2  C   UNL     1     -22.131  -3.282 -12.444  1.00  0.00     0.020 A 
HETATM    3  C   UNL     1     -23.288  -2.817 -13.075  1.00  0.00     0.047 A 
HETATM    4  C   UNL     1     -24.497  -2.993 -12.408  1.00  0.00     0.104 A 
HETATM    5  N   UNL     1     -24.618  -3.580 -11.189  1.00  0.00    -0.374 N 
ATOM      6  HN  UNL     1     -25.524  -3.688 -10.735  1.00  0.00     0.164 HD
HETATM    7  C   UNL     1     -23.478  -4.013 -10.610  1.00  0.00     0.087 A 
ENDROOT
BRANCH   3   8
HETATM    8  C   UNL     1     -23.310  -2.153 -14.401  1.00  0.00     0.250 C 
HETATM    9  O   UNL     1     -22.697  -2.615 -15.356  1.00  0.00    -0.268 OA
HETATM   10  N   UNL     1     -24.034  -1.003 -14.545  1.00  0.00    -0.366 N 
HETATM   11  H   UNL     1     -24.572  -0.553 -13.823  1.00  0.00     0.159 HD
HETATM   12  H   UNL     1     -24.033  -0.578 -15.465  1.00  0.00     0.159 HD
ENDBRANCH   3   8
TORSDOF 1
ENDMDL
MODEL 2
REMARK VINA RESULT:      -5.8      1.948      2.319
REMARK  1 active torsions:
REMARK  status: ('A' for Active; 'I' for Inactive)
REMARK    1  A    between atoms: C_3  and  C_8 
REMARK       I    between atoms: C_8  and  N_10 
ROOT
HETATM    1  C   UNL     1     -22.080  -4.311  -9.267  1.00  0.00     0.018 A 
HETATM    2  C   UNL     1     -22.152  -4.015 -10.628  1.00  0.00     0.020 A 
HETATM    3  C   UNL     1     -23.341  -3.512 -11.162  1.00  0.00     0.047 A 
HETATM    4  C   UNL     1     -24.411  -3.333 -10.290  1.00  0.00     0.104 A 
HETATM    5  N   UNL     1     -24.367  -3.613  -8.962  1.00  0.00    -0.374 N 
ATOM      6  HN  UNL     1     -25.175  -3.467  -8.357  1.00  0.00     0.164 HD
HETATM    7  C   UNL     1     -23.202  -4.095  -8.482  1.00  0.00     0.087 A 
ENDROOT
BRANCH   3   8
HETATM    8  C   UNL     1     -23.534  -3.157 -12.589  1.00  0.00     0.250 C 
HETATM    9  O   UNL     1     -24.625  -2.801 -13.016  1.00  0.00    -0.268 OA
HETATM   10  N   UNL     1     -22.461  -3.233 -13.433  1.00  0.00    -0.366 N 
HETATM   11  H   UNL     1     -21.528  -3.509 -13.174  1.00  0.00     0.159 HD
HETATM   12  H   UNL     1     -22.625  -2.978 -14.400  1.00  0.00     0.159 HD
ENDBRANCH   3   8
TORSDOF 1
ENDMDL
MODEL 3
REMARK VINA RESULT:      -5.8      2.570      3.873
REMARK  1 active torsions:
REMARK  status: ('A' for Active; 'I' for Inactive)
REMARK    1  A    between atoms: C_3  and  C_8 
REMARK       I    between atoms: C_8  and  N_10 
ROOT
HETATM    1  C   UNL     1     -21.750  -3.365 -12.090  1.00  0.00     0.018 A 
HETATM    2  C   UNL     1     -22.469  -3.468 -10.899  1.00  0.00     0.020 A 
HETATM    3  C   UNL     1     -23.857  -3.317 -10.917  1.00  0.00     0.047 A 
HETATM    4  C   UNL     1     -24.459  -3.063 -12.146  1.00  0.00     0.104 A 
HETATM    5  N   UNL     1     -23.783  -2.958 -13.320  1.00  0.00    -0.374 N 
ATOM      6  HN  UNL     1     -24.264  -2.772 -14.199  1.00  0.00     0.164 HD
HETATM    7  C   UNL     1     -22.444  -3.112 -13.263  1.00  0.00     0.087 A 
ENDROOT
BRANCH   3   8
HETATM    8  C   UNL     1     -24.725  -3.411  -9.719  1.00  0.00     0.250 C 
HETATM    9  O   UNL     1     -25.921  -3.149  -9.775  1.00  0.00    -0.268 OA
HETATM   10  N   UNL     1     -24.166  -3.800  -8.534  1.00  0.00    -0.366 N 
HETATM   11  H   UNL     1     -23.198  -4.040  -8.392  1.00  0.00     0.159 HD
HETATM   12  H   UNL     1     -24.787  -3.860  -7.736  1.00  0.00     0.159 HD
ENDBRANCH   3   8
TORSDOF 1
ENDMDL
MODEL 4
REMARK VINA RESULT:      -5.7      2.600      3.589
REMARK  1 active torsions:
REMARK  status: ('A' for Active; 'I' for Inactive)
REMARK    1  A    between atoms: C_3  and  C_8 
REMARK       I    between atoms: C_8  and  N_10 
ROOT
HETATM    1  C   UNL     1     -20.967  -4.278  -9.633  1.00  0.00     0.018 A 
HETATM    2  C   UNL     1     -22.344  -4.065  -9.564  1.00  0.00     0.020 A 
HETATM    3  C   UNL     1     -23.037  -3.663 -10.709  1.00  0.00     0.047 A 
HETATM    4  C   UNL     1     -22.300  -3.489 -11.877  1.00  0.00     0.104 A 
HETATM    5  N   UNL     1     -20.960  -3.689 -11.970  1.00  0.00    -0.374 N 
ATOM      6  HN  UNL     1     -20.459  -3.551 -12.847  1.00  0.00     0.164 HD
HETATM    7  C   UNL     1     -20.326  -4.080 -10.845  1.00  0.00     0.087 A 
ENDROOT
BRANCH   3   8
HETATM    8  C   UNL     1     -24.498  -3.412 -10.758  1.00  0.00     0.250 C 
HETATM    9  O   UNL     1     -25.048  -3.049 -11.791  1.00  0.00    -0.268 OA
HETATM   10  N   UNL     1     -25.233  -3.596  -9.620  1.00  0.00    -0.366 N 
HETATM   11  H   UNL     1     -24.871  -3.897  -8.730  1.00  0.00     0.159 HD
HETATM   12  H   UNL     1     -26.228  -3.422  -9.689  1.00  0.00     0.159 HD
ENDBRANCH   3   8
TORSDOF 1
ENDMDL
MODEL 5
REMARK VINA RESULT:      -5.6      2.880      4.362
REMARK  1 active torsions:
REMARK  status: ('A' for Active; 'I' for Inactive)
REMARK    1  A    between atoms: C_3  and  C_8 
REMARK       I    between atoms: C_8  and  N_10 
ROOT
HETATM    1  C   UNL     1     -24.169  -2.851 -12.579  1.00  0.00     0.018 A 
HETATM    2  C   UNL     1     -24.185  -3.243 -11.241  1.00  0.00     0.020 A 
HETATM    3  C   UNL     1     -23.032  -3.785 -10.667  1.00  0.00     0.047 A 
HETATM    4  C   UNL     1     -21.909  -3.910 -11.481  1.00  0.00     0.104 A 
HETATM    5  N   UNL     1     -21.867  -3.536 -12.786  1.00  0.00    -0.374 N 
ATOM      6  HN  UNL     1     -21.022  -3.645 -13.346  1.00  0.00     0.164 HD
HETATM    7  C   UNL     1     -22.999  -3.015 -13.304  1.00  0.00     0.087 A 
ENDROOT
BRANCH   3   8
HETATM    8  C   UNL     1     -22.929  -4.232  -9.257  1.00  0.00     0.250 C 
HETATM    9  O   UNL     1     -21.980  -4.902  -8.868  1.00  0.00    -0.268 OA
HETATM   10  N   UNL     1     -23.920  -3.880  -8.384  1.00  0.00    -0.366 N 
HETATM   11  H   UNL     1     -24.733  -3.330  -8.610  1.00  0.00     0.159 HD
HETATM   12  H   UNL     1     -23.817  -4.196  -7.428  1.00  0.00     0.159 HD
ENDBRANCH   3   8
TORSDOF 1
ENDMDL
MODEL 6
REMARK VINA RESULT:      -5.2     10.788     11.199
REMARK  1 active torsions:
REMARK  status: ('A' for Active; 'I' for Inactive)
REMARK    1  A    between atoms: C_3  and  C_8 
REMARK       I    between atoms: C_8  and  N_10 
ROOT
HETATM    1  C   UNL     1     -33.593  -3.818 -10.550  1.00  0.00     0.018 A 
HETATM    2  C   UNL     1     -34.126  -2.602 -10.978  1.00  0.00     0.020 A 
HETATM    3  C   UNL     1     -34.503  -2.448 -12.315  1.00  0.00     0.047 A 
HETATM    4  C   UNL     1     -34.319  -3.536 -13.163  1.00  0.00     0.104 A 
HETATM    5  N   UNL     1     -33.804  -4.730 -12.771  1.00  0.00    -0.374 N 
ATOM      6  HN  UNL     1     -33.687  -5.503 -13.425  1.00  0.00     0.164 HD
HETATM    7  C   UNL     1     -33.454  -4.842 -11.472  1.00  0.00     0.087 A 
ENDROOT
BRANCH   3   8
HETATM    8  C   UNL     1     -35.083  -1.207 -12.883  1.00  0.00     0.250 C 
HETATM    9  O   UNL     1     -35.738  -1.225 -13.918  1.00  0.00    -0.268 OA
HETATM   10  N   UNL     1     -34.874  -0.026 -12.227  1.00  0.00    -0.366 N 
HETATM   11  H   UNL     1     -34.355   0.086 -11.371  1.00  0.00     0.159 HD
HETATM   12  H   UNL     1     -35.288   0.802 -12.638  1.00  0.00     0.159 HD
ENDBRANCH   3   8
TORSDOF 1
ENDMDL
MODEL 7
REMARK VINA RESULT:      -5.2      2.756      3.456
REMARK  1 active torsions:
REMARK  status: ('A' for Active; 'I' for Inactive)
REMARK    1  A    between atoms: C_3  and  C_8 
REMARK       I    between atoms: C_8  and  N_10 
ROOT
HETATM    1  C   UNL     1     -21.888  -4.125  -8.473  1.00  0.00     0.018 A 
HETATM    2  C   UNL     1     -22.620  -3.656  -9.564  1.00  0.00     0.020 A 
HETATM    3  C   UNL     1     -22.054  -3.694 -10.841  1.00  0.00     0.047 A 
HETATM    4  C   UNL     1     -20.764  -4.205 -10.956  1.00  0.00     0.104 A 
HETATM    5  N   UNL     1     -20.031  -4.667  -9.910  1.00  0.00    -0.374 N 
ATOM      6  HN  UNL     1     -19.088  -5.034 -10.039  1.00  0.00     0.164 HD
HETATM    7  C   UNL     1     -20.611  -4.617  -8.693  1.00  0.00     0.087 A 
ENDROOT
BRANCH   3   8
HETATM    8  C   UNL     1     -22.736  -3.230 -12.073  1.00  0.00     0.250 C 
HETATM    9  O   UNL     1     -23.842  -2.705 -12.030  1.00  0.00    -0.268 OA
HETATM   10  N   UNL     1     -22.104  -3.396 -13.273  1.00  0.00    -0.366 N 
HETATM   11  H   UNL     1     -21.196  -3.810 -13.407  1.00  0.00     0.159 HD
HETATM   12  H   UNL     1     -22.594  -3.063 -14.095  1.00  0.00     0.159 HD
ENDBRANCH   3   8
TORSDOF 1
ENDMDL
MODEL 8
REMARK VINA RESULT:      -5.1      3.600      4.469
REMARK  1 active torsions:
REMARK  status: ('A' for Active; 'I' for Inactive)
REMARK    1  A    between atoms: C_3  and  C_8 
REMARK       I    between atoms: C_8  and  N_10 
ROOT
HETATM    1  C   UNL     1     -20.273  -4.169  -9.011  1.00  0.00     0.018 A 
HETATM    2  C   UNL     1     -21.338  -4.421  -9.876  1.00  0.00     0.020 A 
HETATM    3  C   UNL     1     -22.648  -4.351  -9.394  1.00  0.00     0.047 A 
HETATM    4  C   UNL     1     -22.821  -4.030  -8.051  1.00  0.00     0.104 A 
HETATM    5  N   UNL     1     -21.802  -3.779  -7.189  1.00  0.00    -0.374 N 
ATOM      6  HN  UNL     1     -21.973  -3.546  -6.211  1.00  0.00     0.164 HD
HETATM    7  C   UNL     1     -20.551  -3.854  -7.691  1.00  0.00     0.087 A 
ENDROOT
BRANCH   3   8
HETATM    8  C   UNL     1     -23.857  -4.593 -10.218  1.00  0.00     0.250 C 
HETATM    9  O   UNL     1     -23.777  -5.071 -11.343  1.00  0.00    -0.268 OA
HETATM   10  N   UNL     1     -25.079  -4.273  -9.697  1.00  0.00    -0.366 N 
HETATM   11  H   UNL     1     -25.244  -3.883  -8.783  1.00  0.00     0.159 HD
HETATM   12  H   UNL     1     -25.885  -4.457 -10.282  1.00  0.00     0.159 HD
ENDBRANCH   3   8
TORSDOF 1
ENDMDL
MODEL 9
REMARK VINA RESULT:      -4.9     10.048     10.965
REMARK  1 active torsions:
REMARK  status: ('A' for Active; 'I' for Inactive)
REMARK    1  A    between atoms: C_3  and  C_8 
REMARK       I    between atoms: C_8  and  N_10 
ROOT
HETATM    1  C   UNL     1     -34.723  -5.746 -10.443  1.00  0.00     0.018 A 
HETATM    2  C   UNL     1     -34.964  -4.399 -10.715  1.00  0.00     0.020 A 
HETATM    3  C   UNL     1     -34.029  -3.667 -11.454  1.00  0.00     0.047 A 
HETATM    4  C   UNL     1     -32.886  -4.335 -11.882  1.00  0.00     0.104 A 
HETATM    5  N   UNL     1     -32.628  -5.645 -11.631  1.00  0.00    -0.374 N 
ATOM      6  HN  UNL     1     -31.777  -6.096 -11.965  1.00  0.00     0.164 HD
HETATM    7  C   UNL     1     -33.554  -6.319 -10.918  1.00  0.00     0.087 A 
ENDROOT
BRANCH   3   8
HETATM    8  C   UNL     1     -34.178  -2.235 -11.808  1.00  0.00     0.250 C 
HETATM    9  O   UNL     1     -33.800  -1.349 -11.052  1.00  0.00    -0.268 OA
HETATM   10  N   UNL     1     -34.750  -1.913 -13.007  1.00  0.00    -0.366 N 
HETATM   11  H   UNL     1     -35.085  -2.570 -13.693  1.00  0.00     0.159 HD
HETATM   12  H   UNL     1     -34.831  -0.926 -13.221  1.00  0.00     0.159 HD
ENDBRANCH   3   8
TORSDOF 1
ENDMDL
