MODEL 1
REMARK VINA RESULT:      -6.0      0.000      0.000
REMARK  6 active torsions:
REMARK  status: ('A' for Active; 'I' for Inactive)
REMARK    1  A    between atoms: C_1  and  C_2 
REMARK    2  A    between atoms: C_1  and  O_12 
REMARK    3  A    between atoms: C_3  and  O_11 
REMARK    4  A    between atoms: C_4  and  O_10 
REMARK    5  A    between atoms: C_5  and  O_9 
REMARK    6  A    between atoms: C_6  and  O_8 
ROOT
HETATM    1  C   UNL     1     -24.058  -4.186 -10.852  1.00  0.00     0.179 C 
HETATM    2  C   UNL     1     -22.535  -4.337 -10.971  1.00  0.00     0.180 C 
HETATM    3  C   UNL     1     -21.894  -2.995 -11.356  1.00  0.00     0.183 C 
HETATM    4  C   UNL     1     -22.520  -2.457 -12.649  1.00  0.00     0.204 C 
HETATM    5  C   UNL     1     -24.055  -2.415 -12.508  1.00  0.00     0.288 C 
HETATM    6  O   UNL     1     -24.608  -3.659 -12.076  1.00  0.00    -0.349 OA
ENDROOT
BRANCH   1   7
HETATM    7  C   UNL     1     -24.509  -3.361  -9.640  1.00  0.00     0.198 C 
BRANCH   7   8
HETATM    8  O   UNL     1     -25.926  -3.213  -9.660  1.00  0.00    -0.398 OA
HETATM    9  H   UNL     1     -26.309  -4.083  -9.432  1.00  0.00     0.209 HD
ENDBRANCH   7   8
ENDBRANCH   1   7
BRANCH   2  10
HETATM   10  O   UNL     1     -22.232  -5.280 -12.027  1.00  0.00    -0.390 OA
HETATM   11  H   UNL     1     -22.127  -4.774 -12.856  1.00  0.00     0.210 HD
ENDBRANCH   2  10
BRANCH   3  12
HETATM   12  O   UNL     1     -20.483  -3.164 -11.518  1.00  0.00    -0.390 OA
HETATM   13  H   UNL     1     -20.237  -2.626 -12.298  1.00  0.00     0.210 HD
ENDBRANCH   3  12
BRANCH   5  14
HETATM   14  O   UNL     1     -24.635  -2.103 -13.765  1.00  0.00    -0.369 OA
HETATM   15  H   UNL     1     -25.203  -1.326 -13.591  1.00  0.00     0.212 HD
ENDBRANCH   5  14
BRANCH   4  16
HETATM   16  O   UNL     1     -22.175  -3.296 -13.779  1.00  0.00    -0.388 OA
HETATM   17  H   UNL     1     -22.050  -2.693 -14.543  1.00  0.00     0.210 HD
ENDBRANCH   4  16
TORSDOF 6
ENDMDL
MODEL 2
REMARK VINA RESULT:      -5.9      1.619      4.140
REMARK  6 active torsions:
REMARK  status: ('A' for Active; 'I' for Inactive)
REMARK    1  A    between atoms: C_1  and  C_2 
REMARK    2  A    between atoms: C_1  and  O_12 
REMARK    3  A    between atoms: C_3  and  O_11 
REMARK    4  A    between atoms: C_4  and  O_10 
REMARK    5  A    between atoms: C_5  and  O_9 
REMARK    6  A    between atoms: C_6  and  O_8 
ROOT
HETATM    1  C   UNL     1     -21.892  -4.585 -10.643  1.00  0.00     0.179 C 
HETATM    2  C   UNL     1     -23.061  -4.349 -11.609  1.00  0.00     0.180 C 
HETATM    3  C   UNL     1     -23.932  -3.183 -11.117  1.00  0.00     0.183 C 
HETATM    4  C   UNL     1     -24.414  -3.445  -9.685  1.00  0.00     0.204 C 
HETATM    5  C   UNL     1     -23.209  -3.769  -8.779  1.00  0.00     0.288 C 
HETATM    6  O   UNL     1     -22.380  -4.806  -9.305  1.00  0.00    -0.349 OA
ENDROOT
BRANCH   1   7
HETATM    7  C   UNL     1     -20.830  -3.478 -10.670  1.00  0.00     0.198 C 
BRANCH   7   8
HETATM    8  O   UNL     1     -19.971  -3.665 -11.792  1.00  0.00    -0.398 OA
HETATM    9  H   UNL     1     -20.318  -3.107 -12.517  1.00  0.00     0.209 HD
ENDBRANCH   7   8
ENDBRANCH   1   7
BRANCH   2  10
HETATM   10  O   UNL     1     -23.898  -5.531 -11.639  1.00  0.00    -0.390 OA
HETATM   11  H   UNL     1     -23.373  -6.257 -12.028  1.00  0.00     0.210 HD
ENDBRANCH   2  10
BRANCH   3  12
HETATM   12  O   UNL     1     -25.048  -3.012 -11.996  1.00  0.00    -0.390 OA
HETATM   13  H   UNL     1     -24.676  -2.683 -12.839  1.00  0.00     0.210 HD
ENDBRANCH   3  12
BRANCH   5  14
HETATM   14  O   UNL     1     -23.676  -4.197  -7.509  1.00  0.00    -0.369 OA
HETATM   15  H   UNL     1     -23.979  -5.116  -7.652  1.00  0.00     0.212 HD
ENDBRANCH   5  14
BRANCH   4  16
HETATM   16  O   UNL     1     -25.343  -4.557  -9.646  1.00  0.00    -0.388 OA
HETATM   17  H   UNL     1     -25.856  -4.518 -10.481  1.00  0.00     0.210 HD
ENDBRANCH   4  16
TORSDOF 6
ENDMDL
MODEL 3
REMARK VINA RESULT:      -5.4      1.298      3.639
REMARK  6 active torsions:
REMARK  status: ('A' for Active; 'I' for Inactive)
REMARK    1  A    between atoms: C_1  and  C_2 
REMARK    2  A    between atoms: C_1  and  O_12 
REMARK    3  A    between atoms: C_3  and  O_11 
REMARK    4  A    between atoms: C_4  and  O_10 
REMARK    5  A    between atoms: C_5  and  O_9 
REMARK    6  A    between atoms: C_6  and  O_8 
ROOT
HETATM    1  C   UNL     1     -23.280  -3.298 -13.468  1.00  0.00     0.179 C 
HETATM    2  C   UNL     1     -24.198  -4.001 -12.458  1.00  0.00     0.180 C 
HETATM    3  C   UNL     1     -24.073  -3.342 -11.075  1.00  0.00     0.183 C 
HETATM    4  C   UNL     1     -22.610  -3.341 -10.617  1.00  0.00     0.204 C 
HETATM    5  C   UNL     1     -21.721  -2.710 -11.708  1.00  0.00     0.288 C 
HETATM    6  O   UNL     1     -21.919  -3.296 -12.994  1.00  0.00    -0.349 OA
ENDROOT
BRANCH   1   7
HETATM    7  C   UNL     1     -23.738  -1.883 -13.845  1.00  0.00     0.198 C 
BRANCH   7   8
HETATM    8  O   UNL     1     -23.827  -1.770 -15.263  1.00  0.00    -0.398 OA
HETATM    9  H   UNL     1     -23.626  -0.840 -15.490  1.00  0.00     0.209 HD
ENDBRANCH   7   8
ENDBRANCH   1   7
BRANCH   2  10
HETATM   10  O   UNL     1     -23.783  -5.381 -12.319  1.00  0.00    -0.390 OA
HETATM   11  H   UNL     1     -23.780  -5.782 -13.210  1.00  0.00     0.210 HD
ENDBRANCH   2  10
BRANCH   3  12
HETATM   12  O   UNL     1     -24.891  -4.042 -10.133  1.00  0.00    -0.390 OA
HETATM   13  H   UNL     1     -24.505  -4.939 -10.060  1.00  0.00     0.210 HD
ENDBRANCH   3  12
BRANCH   5  14
HETATM   14  O   UNL     1     -20.355  -2.887 -11.362  1.00  0.00    -0.369 OA
HETATM   15  H   UNL     1     -19.953  -2.002 -11.480  1.00  0.00     0.212 HD
ENDBRANCH   5  14
BRANCH   4  16
HETATM   16  O   UNL     1     -22.147  -4.689 -10.356  1.00  0.00    -0.388 OA
HETATM   17  H   UNL     1     -22.532  -4.952  -9.492  1.00  0.00     0.210 HD
ENDBRANCH   4  16
TORSDOF 6
ENDMDL
MODEL 4
REMARK VINA RESULT:      -5.3      1.432      2.971
REMARK  6 active torsions:
REMARK  status: ('A' for Active; 'I' for Inactive)
REMARK    1  A    between atoms: C_1  and  C_2 
REMARK    2  A    between atoms: C_1  and  O_12 
REMARK    3  A    between atoms: C_3  and  O_11 
REMARK    4  A    between atoms: C_4  and  O_10 
REMARK    5  A    between atoms: C_5  and  O_9 
REMARK    6  A    between atoms: C_6  and  O_8 
ROOT
HETATM    1  C   UNL     1     -23.912  -2.934 -10.409  1.00  0.00     0.179 C 
HETATM    2  C   UNL     1     -24.235  -2.990 -11.908  1.00  0.00     0.180 C 
HETATM    3  C   UNL     1     -23.833  -4.354 -12.489  1.00  0.00     0.183 C 
HETATM    4  C   UNL     1     -22.351  -4.636 -12.211  1.00  0.00     0.204 C 
HETATM    5  C   UNL     1     -22.062  -4.473 -10.705  1.00  0.00     0.288 C 
HETATM    6  O   UNL     1     -22.518  -3.224 -10.183  1.00  0.00    -0.349 OA
ENDROOT
BRANCH   1   7
HETATM    7  C   UNL     1     -24.811  -3.826  -9.544  1.00  0.00     0.198 C 
BRANCH   7   8
HETATM    8  O   UNL     1     -26.162  -3.381  -9.639  1.00  0.00    -0.398 OA
HETATM    9  H   UNL     1     -26.733  -4.167  -9.523  1.00  0.00     0.209 HD
ENDBRANCH   7   8
ENDBRANCH   1   7
BRANCH   2  10
HETATM   10  O   UNL     1     -23.462  -1.980 -12.600  1.00  0.00    -0.390 OA
HETATM   11  H   UNL     1     -22.686  -1.769 -12.046  1.00  0.00     0.210 HD
ENDBRANCH   2  10
BRANCH   3  12
HETATM   12  O   UNL     1     -24.088  -4.372 -13.897  1.00  0.00    -0.390 OA
HETATM   13  H   UNL     1     -24.215  -5.314 -14.133  1.00  0.00     0.210 HD
ENDBRANCH   3  12
BRANCH   5  14
HETATM   14  O   UNL     1     -20.662  -4.544 -10.484  1.00  0.00    -0.369 OA
HETATM   15  H   UNL     1     -20.333  -3.643 -10.679  1.00  0.00     0.212 HD
ENDBRANCH   5  14
BRANCH   4  16
HETATM   16  O   UNL     1     -21.503  -3.726 -12.953  1.00  0.00    -0.388 OA
HETATM   17  H   UNL     1     -22.051  -3.369 -13.685  1.00  0.00     0.210 HD
ENDBRANCH   4  16
TORSDOF 6
ENDMDL
MODEL 5
REMARK VINA RESULT:      -5.3      1.422      2.843
REMARK  6 active torsions:
REMARK  status: ('A' for Active; 'I' for Inactive)
REMARK    1  A    between atoms: C_1  and  C_2 
REMARK    2  A    between atoms: C_1  and  O_12 
REMARK    3  A    between atoms: C_3  and  O_11 
REMARK    4  A    between atoms: C_4  and  O_10 
REMARK    5  A    between atoms: C_5  and  O_9 
REMARK    6  A    between atoms: C_6  and  O_8 
ROOT
HETATM    1  C   UNL     1     -22.638  -4.809  -9.764  1.00  0.00     0.179 C 
HETATM    2  C   UNL     1     -22.200  -4.489 -11.200  1.00  0.00     0.180 C 
HETATM    3  C   UNL     1     -22.593  -3.050 -11.569  1.00  0.00     0.183 C 
HETATM    4  C   UNL     1     -24.100  -2.842 -11.367  1.00  0.00     0.204 C 
HETATM    5  C   UNL     1     -24.500  -3.268  -9.941  1.00  0.00     0.288 C 
HETATM    6  O   UNL     1     -24.052  -4.582  -9.606  1.00  0.00    -0.349 OA
ENDROOT
BRANCH   1   7
HETATM    7  C   UNL     1     -21.833  -4.069  -8.688  1.00  0.00     0.198 C 
BRANCH   7   8
HETATM    8  O   UNL     1     -20.441  -4.173  -8.974  1.00  0.00    -0.398 OA
HETATM    9  H   UNL     1     -20.037  -4.695  -8.252  1.00  0.00     0.209 HD
ENDBRANCH   7   8
ENDBRANCH   1   7
BRANCH   2  10
HETATM   10  O   UNL     1     -22.889  -5.374 -12.116  1.00  0.00    -0.390 OA
HETATM   11  H   UNL     1     -23.393  -6.020 -11.583  1.00  0.00     0.210 HD
ENDBRANCH   2  10
BRANCH   3  12
HETATM   12  O   UNL     1     -22.230  -2.785 -12.927  1.00  0.00    -0.390 OA
HETATM   13  H   UNL     1     -22.994  -3.071 -13.468  1.00  0.00     0.210 HD
ENDBRANCH   3  12
BRANCH   5  14
HETATM   14  O   UNL     1     -25.915  -3.256  -9.825  1.00  0.00    -0.369 OA
HETATM   15  H   UNL     1     -26.221  -2.711 -10.578  1.00  0.00     0.212 HD
ENDBRANCH   5  14
BRANCH   4  16
HETATM   16  O   UNL     1     -24.863  -3.621 -12.322  1.00  0.00    -0.388 OA
HETATM   17  H   UNL     1     -25.702  -3.136 -12.468  1.00  0.00     0.210 HD
ENDBRANCH   4  16
TORSDOF 6
ENDMDL
MODEL 6
REMARK VINA RESULT:      -5.3      1.481      3.319
REMARK  6 active torsions:
REMARK  status: ('A' for Active; 'I' for Inactive)
REMARK    1  A    between atoms: C_1  and  C_2 
REMARK    2  A    between atoms: C_1  and  O_12 
REMARK    3  A    between atoms: C_3  and  O_11 
REMARK    4  A    between atoms: C_4  and  O_10 
REMARK    5  A    between atoms: C_5  and  O_9 
REMARK    6  A    between atoms: C_6  and  O_8 
ROOT
HETATM    1  C   UNL     1     -23.433  -2.929 -12.416  1.00  0.00     0.179 C 
HETATM    2  C   UNL     1     -21.970  -3.333 -12.187  1.00  0.00     0.180 C 
HETATM    3  C   UNL     1     -21.895  -4.581 -11.294  1.00  0.00     0.183 C 
HETATM    4  C   UNL     1     -22.636  -4.336  -9.974  1.00  0.00     0.204 C 
HETATM    5  C   UNL     1     -24.068  -3.843 -10.262  1.00  0.00     0.288 C 
HETATM    6  O   UNL     1     -24.103  -2.729 -11.156  1.00  0.00    -0.349 OA
ENDROOT
BRANCH   1   7
HETATM    7  C   UNL     1     -24.213  -3.900 -13.312  1.00  0.00     0.198 C 
BRANCH   7   8
HETATM    8  O   UNL     1     -23.779  -3.761 -14.662  1.00  0.00    -0.398 OA
HETATM    9  H   UNL     1     -24.225  -2.970 -15.028  1.00  0.00     0.209 HD
ENDBRANCH   7   8
ENDBRANCH   1   7
BRANCH   2  10
HETATM   10  O   UNL     1     -21.284  -2.263 -11.493  1.00  0.00    -0.390 OA
HETATM   11  H   UNL     1     -20.938  -2.626 -10.655  1.00  0.00     0.210 HD
ENDBRANCH   2  10
BRANCH   3  12
HETATM   12  O   UNL     1     -20.526  -4.912 -11.043  1.00  0.00    -0.390 OA
HETATM   13  H   UNL     1     -20.535  -5.809 -10.652  1.00  0.00     0.210 HD
ENDBRANCH   3  12
BRANCH   5  14
HETATM   14  O   UNL     1     -24.680  -3.436  -9.047  1.00  0.00    -0.369 OA
HETATM   15  H   UNL     1     -23.949  -3.066  -8.513  1.00  0.00     0.212 HD
ENDBRANCH   5  14
BRANCH   4  16
HETATM   16  O   UNL     1     -21.951  -3.344  -9.170  1.00  0.00    -0.388 OA
HETATM   17  H   UNL     1     -21.063  -3.713  -8.973  1.00  0.00     0.210 HD
ENDBRANCH   4  16
TORSDOF 6
ENDMDL
MODEL 7
REMARK VINA RESULT:      -5.2     16.704     18.457
REMARK  6 active torsions:
REMARK  status: ('A' for Active; 'I' for Inactive)
REMARK    1  A    between atoms: C_1  and  C_2 
REMARK    2  A    between atoms: C_1  and  O_12 
REMARK    3  A    between atoms: C_3  and  O_11 
REMARK    4  A    between atoms: C_4  and  O_10 
REMARK    5  A    between atoms: C_5  and  O_9 
REMARK    6  A    between atoms: C_6  and  O_8 
ROOT
HETATM    1  C   UNL     1     -11.784   8.928 -19.985  1.00  0.00     0.179 C 
HETATM    2  C   UNL     1     -10.385   8.336 -19.768  1.00  0.00     0.180 C 
HETATM    3  C   UNL     1     -10.238   7.018 -20.543  1.00  0.00     0.183 C 
HETATM    4  C   UNL     1     -11.345   6.036 -20.138  1.00  0.00     0.204 C 
HETATM    5  C   UNL     1     -12.722   6.713 -20.285  1.00  0.00     0.288 C 
HETATM    6  O   UNL     1     -12.798   7.972 -19.615  1.00  0.00    -0.349 OA
ENDROOT
BRANCH   1   7
HETATM    7  C   UNL     1     -12.020   9.467 -21.401  1.00  0.00     0.198 C 
BRANCH   7   8
HETATM    8  O   UNL     1     -11.113  10.534 -21.666  1.00  0.00    -0.398 OA
HETATM    9  H   UNL     1     -10.771  10.842 -20.802  1.00  0.00     0.209 HD
ENDBRANCH   7   8
ENDBRANCH   1   7
BRANCH   2  10
HETATM   10  O   UNL     1     -10.208   8.034 -18.363  1.00  0.00    -0.390 OA
HETATM   11  H   UNL     1      -9.943   7.097 -18.291  1.00  0.00     0.210 HD
ENDBRANCH   2  10
BRANCH   3  12
HETATM   12  O   UNL     1      -8.950   6.450 -20.287  1.00  0.00    -0.390 OA
HETATM   13  H   UNL     1      -8.558   6.989 -19.570  1.00  0.00     0.210 HD
ENDBRANCH   3  12
BRANCH   5  14
HETATM   14  O   UNL     1     -13.722   5.872 -19.729  1.00  0.00    -0.369 OA
HETATM   15  H   UNL     1     -13.581   5.923 -18.762  1.00  0.00     0.212 HD
ENDBRANCH   5  14
BRANCH   4  16
HETATM   16  O   UNL     1     -11.178   5.604 -18.765  1.00  0.00    -0.388 OA
HETATM   17  H   UNL     1     -10.635   4.787 -18.796  1.00  0.00     0.210 HD
ENDBRANCH   4  16
TORSDOF 6
ENDMDL
MODEL 8
REMARK VINA RESULT:      -5.2     15.605     17.310
REMARK  6 active torsions:
REMARK  status: ('A' for Active; 'I' for Inactive)
REMARK    1  A    between atoms: C_1  and  C_2 
REMARK    2  A    between atoms: C_1  and  O_12 
REMARK    3  A    between atoms: C_3  and  O_11 
REMARK    4  A    between atoms: C_4  and  O_10 
REMARK    5  A    between atoms: C_5  and  O_9 
REMARK    6  A    between atoms: C_6  and  O_8 
ROOT
HETATM    1  C   UNL     1     -12.460   4.684 -19.856  1.00  0.00     0.179 C 
HETATM    2  C   UNL     1     -12.754   5.976 -20.630  1.00  0.00     0.180 C 
HETATM    3  C   UNL     1     -11.447   6.600 -21.143  1.00  0.00     0.183 C 
HETATM    4  C   UNL     1     -10.478   6.837 -19.978  1.00  0.00     0.204 C 
HETATM    5  C   UNL     1     -10.292   5.531 -19.178  1.00  0.00     0.288 C 
HETATM    6  O   UNL     1     -11.531   4.940 -18.784  1.00  0.00    -0.349 OA
ENDROOT
BRANCH   1   7
HETATM    7  C   UNL     1     -11.983   3.524 -20.739  1.00  0.00     0.198 C 
BRANCH   7   8
HETATM    8  O   UNL     1     -13.104   2.761 -21.177  1.00  0.00    -0.398 OA
HETATM    9  H   UNL     1     -12.950   1.836 -20.897  1.00  0.00     0.209 HD
ENDBRANCH   7   8
ENDBRANCH   1   7
BRANCH   2  10
HETATM   10  O   UNL     1     -13.371   6.935 -19.738  1.00  0.00    -0.390 OA
HETATM   11  H   UNL     1     -12.656   7.426 -19.289  1.00  0.00     0.210 HD
ENDBRANCH   2  10
BRANCH   3  12
HETATM   12  O   UNL     1     -11.732   7.831 -21.813  1.00  0.00    -0.390 OA
HETATM   13  H   UNL     1     -11.124   8.493 -21.425  1.00  0.00     0.210 HD
ENDBRANCH   3  12
BRANCH   5  14
HETATM   14  O   UNL     1      -9.553   5.803 -17.998  1.00  0.00    -0.369 OA
HETATM   15  H   UNL     1      -8.993   6.572 -18.227  1.00  0.00     0.212 HD
ENDBRANCH   5  14
BRANCH   4  16
HETATM   16  O   UNL     1     -10.979   7.865 -19.088  1.00  0.00    -0.388 OA
HETATM   17  H   UNL     1     -10.717   7.598 -18.181  1.00  0.00     0.210 HD
ENDBRANCH   4  16
TORSDOF 6
ENDMDL
MODEL 9
REMARK VINA RESULT:      -5.0      7.733      8.920
REMARK  6 active torsions:
REMARK  status: ('A' for Active; 'I' for Inactive)
REMARK    1  A    between atoms: C_1  and  C_2 
REMARK    2  A    between atoms: C_1  and  O_12 
REMARK    3  A    between atoms: C_3  and  O_11 
REMARK    4  A    between atoms: C_4  and  O_10 
REMARK    5  A    between atoms: C_5  and  O_9 
REMARK    6  A    between atoms: C_6  and  O_8 
ROOT
HETATM    1  C   UNL     1     -29.117  -6.649 -18.276  1.00  0.00     0.179 C 
HETATM    2  C   UNL     1     -27.985  -7.025 -17.311  1.00  0.00     0.180 C 
HETATM    3  C   UNL     1     -28.561  -7.431 -15.945  1.00  0.00     0.183 C 
HETATM    4  C   UNL     1     -29.443  -6.308 -15.386  1.00  0.00     0.204 C 
HETATM    5  C   UNL     1     -30.501  -5.904 -16.431  1.00  0.00     0.288 C 
HETATM    6  O   UNL     1     -29.936  -5.608 -17.709  1.00  0.00    -0.349 OA
ENDROOT
BRANCH   1   7
HETATM    7  C   UNL     1     -29.969  -7.840 -18.731  1.00  0.00     0.198 C 
BRANCH   7   8
HETATM    8  O   UNL     1     -29.137  -8.813 -19.359  1.00  0.00    -0.398 OA
HETATM    9  H   UNL     1     -28.318  -8.356 -19.636  1.00  0.00     0.209 HD
ENDBRANCH   7   8
ENDBRANCH   1   7
BRANCH   2  10
HETATM   10  O   UNL     1     -27.137  -5.870 -17.097  1.00  0.00    -0.390 OA
HETATM   11  H   UNL     1     -26.284  -6.189 -16.745  1.00  0.00     0.210 HD
ENDBRANCH   2  10
BRANCH   3  12
HETATM   12  O   UNL     1     -27.493  -7.725 -15.040  1.00  0.00    -0.390 OA
HETATM   13  H   UNL     1     -27.307  -6.888 -14.566  1.00  0.00     0.210 HD
ENDBRANCH   3  12
BRANCH   5  14
HETATM   14  O   UNL     1     -31.185  -4.742 -15.986  1.00  0.00    -0.369 OA
HETATM   15  H   UNL     1     -32.018  -4.732 -16.499  1.00  0.00     0.212 HD
ENDBRANCH   5  14
BRANCH   4  16
HETATM   16  O   UNL     1     -28.648  -5.144 -15.048  1.00  0.00    -0.388 OA
HETATM   17  H   UNL     1     -28.022  -5.429 -14.349  1.00  0.00     0.210 HD
ENDBRANCH   4  16
TORSDOF 6
ENDMDL
