MODEL 1
REMARK VINA RESULT:      -6.8      0.000      0.000
REMARK  4 active torsions:
REMARK  status: ('A' for Active; 'I' for Inactive)
REMARK    1  A    between atoms: C_2  and  O_4 
REMARK    2  A    between atoms: O_4  and  C_5 
REMARK    3  A    between atoms: C_5  and  C_7 
REMARK    4  A    between atoms: C_10  and  O_13 
ROOT
HETATM    1  C   UNL     1     -34.876  -2.822 -11.242  1.00  0.00     0.039 A 
HETATM    2  C   UNL     1     -35.504  -4.002 -10.811  1.00  0.00     0.020 A 
HETATM    3  C   UNL     1     -34.809  -5.214 -10.809  1.00  0.00     0.037 A 
HETATM    4  C   UNL     1     -33.485  -5.240 -11.235  1.00  0.00     0.065 A 
HETATM    5  C   UNL     1     -32.839  -4.077 -11.638  1.00  0.00     0.037 A 
HETATM    6  C   UNL     1     -33.533  -2.864 -11.642  1.00  0.00     0.020 A 
ENDROOT
BRANCH   1   7
HETATM    7  C   UNL     1     -35.680  -1.571 -11.282  1.00  0.00     0.293 C 
HETATM    8  O   UNL     1     -35.786  -0.810 -10.332  1.00  0.00    -0.259 OA
BRANCH   7   9
HETATM    9  O   UNL     1     -36.273  -1.422 -12.493  1.00  0.00    -0.313 OA
BRANCH   9  10
HETATM   10  C   UNL     1     -36.402  -0.071 -12.975  1.00  0.00     0.124 C 
HETATM   11  C   UNL     1     -35.074   0.396 -13.564  1.00  0.00     0.040 C 
HETATM   12  C   UNL     1     -37.488  -0.069 -14.044  1.00  0.00     0.040 C 
ENDBRANCH   9  10
ENDBRANCH   7   9
ENDBRANCH   1   7
BRANCH   4  13
HETATM   13  O   UNL     1     -32.776  -6.405 -11.283  1.00  0.00    -0.361 OA
HETATM   14  H   UNL     1     -32.950  -6.909 -10.471  1.00  0.00     0.217 HD
ENDBRANCH   4  13
TORSDOF 4
ENDMDL
MODEL 2
REMARK VINA RESULT:      -6.5     12.071     14.325
REMARK  4 active torsions:
REMARK  status: ('A' for Active; 'I' for Inactive)
REMARK    1  A    between atoms: C_2  and  O_4 
REMARK    2  A    between atoms: O_4  and  C_5 
REMARK    3  A    between atoms: C_5  and  C_7 
REMARK    4  A    between atoms: C_10  and  O_13 
ROOT
HETATM    1  C   UNL     1     -22.256  -3.893  -9.444  1.00  0.00     0.039 A 
HETATM    2  C   UNL     1     -23.438  -3.495 -10.088  1.00  0.00     0.020 A 
HETATM    3  C   UNL     1     -23.456  -3.286 -11.470  1.00  0.00     0.037 A 
HETATM    4  C   UNL     1     -22.290  -3.480 -12.203  1.00  0.00     0.065 A 
HETATM    5  C   UNL     1     -21.118  -3.901 -11.585  1.00  0.00     0.037 A 
HETATM    6  C   UNL     1     -21.097  -4.109 -10.204  1.00  0.00     0.020 A 
ENDROOT
BRANCH   1   7
HETATM    7  C   UNL     1     -22.276  -4.041  -7.964  1.00  0.00     0.293 C 
HETATM    8  O   UNL     1     -23.252  -4.432  -7.342  1.00  0.00    -0.259 OA
BRANCH   7   9
HETATM    9  O   UNL     1     -21.086  -3.669  -7.429  1.00  0.00    -0.313 OA
BRANCH   9  10
HETATM   10  C   UNL     1     -20.239  -4.736  -6.963  1.00  0.00     0.124 C 
HETATM   11  C   UNL     1     -18.807  -4.504  -7.436  1.00  0.00     0.040 C 
HETATM   12  C   UNL     1     -20.302  -4.737  -5.440  1.00  0.00     0.040 C 
ENDBRANCH   9  10
ENDBRANCH   7   9
ENDBRANCH   1   7
BRANCH   4  13
HETATM   13  O   UNL     1     -22.250  -3.255 -13.548  1.00  0.00    -0.361 OA
HETATM   14  H   UNL     1     -22.787  -3.932 -13.993  1.00  0.00     0.217 HD
ENDBRANCH   4  13
TORSDOF 4
ENDMDL
MODEL 3
REMARK VINA RESULT:      -6.4     11.303     14.055
REMARK  4 active torsions:
REMARK  status: ('A' for Active; 'I' for Inactive)
REMARK    1  A    between atoms: C_2  and  O_4 
REMARK    2  A    between atoms: O_4  and  C_5 
REMARK    3  A    between atoms: C_5  and  C_7 
REMARK    4  A    between atoms: C_10  and  O_13 
ROOT
HETATM    1  C   UNL     1     -21.917  -3.777 -10.303  1.00  0.00     0.039 A 
HETATM    2  C   UNL     1     -21.605  -3.341 -11.600  1.00  0.00     0.020 A 
HETATM    3  C   UNL     1     -22.614  -2.915 -12.467  1.00  0.00     0.037 A 
HETATM    4  C   UNL     1     -23.935  -2.922 -12.030  1.00  0.00     0.065 A 
HETATM    5  C   UNL     1     -24.259  -3.323 -10.739  1.00  0.00     0.037 A 
HETATM    6  C   UNL     1     -23.251  -3.752  -9.872  1.00  0.00     0.020 A 
ENDROOT
BRANCH   1   7
HETATM    7  C   UNL     1     -20.811  -4.278  -9.444  1.00  0.00     0.293 C 
HETATM    8  O   UNL     1     -19.852  -4.898  -9.877  1.00  0.00    -0.259 OA
BRANCH   7   9
HETATM    9  O   UNL     1     -21.037  -3.967  -8.143  1.00  0.00    -0.313 OA
BRANCH   9  10
HETATM   10  C   UNL     1     -20.913  -5.048  -7.200  1.00  0.00     0.124 C 
HETATM   11  C   UNL     1     -19.811  -4.732  -6.193  1.00  0.00     0.040 C 
HETATM   12  C   UNL     1     -22.255  -5.193  -6.491  1.00  0.00     0.040 C 
ENDBRANCH   9  10
ENDBRANCH   7   9
ENDBRANCH   1   7
BRANCH   4  13
HETATM   13  O   UNL     1     -24.957  -2.547 -12.850  1.00  0.00    -0.361 OA
HETATM   14  H   UNL     1     -25.666  -2.160 -12.310  1.00  0.00     0.217 HD
ENDBRANCH   4  13
TORSDOF 4
ENDMDL
MODEL 4
REMARK VINA RESULT:      -6.2      2.058      3.087
REMARK  4 active torsions:
REMARK  status: ('A' for Active; 'I' for Inactive)
REMARK    1  A    between atoms: C_2  and  O_4 
REMARK    2  A    between atoms: O_4  and  C_5 
REMARK    3  A    between atoms: C_5  and  C_7 
REMARK    4  A    between atoms: C_10  and  O_13 
ROOT
HETATM    1  C   UNL     1     -35.425  -2.507 -10.816  1.00  0.00     0.039 A 
HETATM    2  C   UNL     1     -34.107  -2.088 -11.056  1.00  0.00     0.020 A 
HETATM    3  C   UNL     1     -33.104  -3.023 -11.323  1.00  0.00     0.037 A 
HETATM    4  C   UNL     1     -33.425  -4.377 -11.353  1.00  0.00     0.065 A 
HETATM    5  C   UNL     1     -34.731  -4.807 -11.146  1.00  0.00     0.037 A 
HETATM    6  C   UNL     1     -35.735  -3.873 -10.877  1.00  0.00     0.020 A 
ENDROOT
BRANCH   1   7
HETATM    7  C   UNL     1     -36.441  -1.475 -10.476  1.00  0.00     0.293 C 
HETATM    8  O   UNL     1     -37.536  -1.409 -11.012  1.00  0.00    -0.259 OA
BRANCH   7   9
HETATM    9  O   UNL     1     -35.968  -0.635  -9.521  1.00  0.00    -0.313 OA
BRANCH   9  10
HETATM   10  C   UNL     1     -36.958   0.017  -8.703  1.00  0.00     0.124 C 
HETATM   11  C   UNL     1     -36.360   0.359  -7.342  1.00  0.00     0.040 C 
HETATM   12  C   UNL     1     -37.387   1.287  -9.430  1.00  0.00     0.040 C 
ENDBRANCH   9  10
ENDBRANCH   7   9
ENDBRANCH   1   7
BRANCH   4  13
HETATM   13  O   UNL     1     -32.475  -5.329 -11.576  1.00  0.00    -0.361 OA
HETATM   14  H   UNL     1     -31.760  -5.215 -10.927  1.00  0.00     0.217 HD
ENDBRANCH   4  13
TORSDOF 4
ENDMDL
MODEL 5
REMARK VINA RESULT:      -6.0     12.038     14.173
REMARK  4 active torsions:
REMARK  status: ('A' for Active; 'I' for Inactive)
REMARK    1  A    between atoms: C_2  and  O_4 
REMARK    2  A    between atoms: O_4  and  C_5 
REMARK    3  A    between atoms: C_5  and  C_7 
REMARK    4  A    between atoms: C_10  and  O_13 
ROOT
HETATM    1  C   UNL     1     -20.798  -4.205  -9.005  1.00  0.00     0.039 A 
HETATM    2  C   UNL     1     -22.005  -4.326  -8.299  1.00  0.00     0.020 A 
HETATM    3  C   UNL     1     -22.003  -4.651  -6.940  1.00  0.00     0.037 A 
HETATM    4  C   UNL     1     -20.788  -4.850  -6.290  1.00  0.00     0.065 A 
HETATM    5  C   UNL     1     -19.583  -4.706  -6.967  1.00  0.00     0.037 A 
HETATM    6  C   UNL     1     -19.584  -4.383  -8.326  1.00  0.00     0.020 A 
ENDROOT
BRANCH   1   7
HETATM    7  C   UNL     1     -20.861  -3.919 -10.463  1.00  0.00     0.293 C 
HETATM    8  O   UNL     1     -20.041  -4.340 -11.266  1.00  0.00    -0.259 OA
BRANCH   7   9
HETATM    9  O   UNL     1     -21.924  -3.127 -10.750  1.00  0.00    -0.313 OA
BRANCH   9  10
HETATM   10  C   UNL     1     -22.900  -3.678 -11.655  1.00  0.00     0.124 C 
HETATM   11  C   UNL     1     -24.304  -3.428 -11.115  1.00  0.00     0.040 C 
HETATM   12  C   UNL     1     -22.716  -2.986 -13.001  1.00  0.00     0.040 C 
ENDBRANCH   9  10
ENDBRANCH   7   9
ENDBRANCH   1   7
BRANCH   4  13
HETATM   13  O   UNL     1     -20.736  -5.202  -4.974  1.00  0.00    -0.361 OA
HETATM   14  H   UNL     1     -20.793  -4.396  -4.433  1.00  0.00     0.217 HD
ENDBRANCH   4  13
TORSDOF 4
ENDMDL
MODEL 6
REMARK VINA RESULT:      -6.0     12.356     15.211
REMARK  4 active torsions:
REMARK  status: ('A' for Active; 'I' for Inactive)
REMARK    1  A    between atoms: C_2  and  O_4 
REMARK    2  A    between atoms: O_4  and  C_5 
REMARK    3  A    between atoms: C_5  and  C_7 
REMARK    4  A    between atoms: C_10  and  O_13 
ROOT
HETATM    1  C   UNL     1     -20.967  -4.564  -8.673  1.00  0.00     0.039 A 
HETATM    2  C   UNL     1     -20.459  -4.318  -9.959  1.00  0.00     0.020 A 
HETATM    3  C   UNL     1     -21.282  -3.790 -10.956  1.00  0.00     0.037 A 
HETATM    4  C   UNL     1     -22.613  -3.506 -10.662  1.00  0.00     0.065 A 
HETATM    5  C   UNL     1     -23.124  -3.716  -9.386  1.00  0.00     0.037 A 
HETATM    6  C   UNL     1     -22.302  -4.246  -8.388  1.00  0.00     0.020 A 
ENDROOT
BRANCH   1   7
HETATM    7  C   UNL     1     -20.064  -5.185  -7.667  1.00  0.00     0.293 C 
HETATM    8  O   UNL     1     -18.970  -4.726  -7.373  1.00  0.00    -0.259 OA
BRANCH   7   9
HETATM    9  O   UNL     1     -20.619  -6.312  -7.157  1.00  0.00    -0.313 OA
BRANCH   9  10
HETATM   10  C   UNL     1     -20.680  -6.397  -5.720  1.00  0.00     0.124 C 
HETATM   11  C   UNL     1     -22.133  -6.331  -5.260  1.00  0.00     0.040 C 
HETATM   12  C   UNL     1     -20.053  -7.725  -5.314  1.00  0.00     0.040 C 
ENDBRANCH   9  10
ENDBRANCH   7   9
ENDBRANCH   1   7
BRANCH   4  13
HETATM   13  O   UNL     1     -23.463  -3.021 -11.611  1.00  0.00    -0.361 OA
HETATM   14  H   UNL     1     -23.840  -2.183 -11.295  1.00  0.00     0.217 HD
ENDBRANCH   4  13
TORSDOF 4
ENDMDL
MODEL 7
REMARK VINA RESULT:      -5.9     10.895     12.913
REMARK  4 active torsions:
REMARK  status: ('A' for Active; 'I' for Inactive)
REMARK    1  A    between atoms: C_2  and  O_4 
REMARK    2  A    between atoms: O_4  and  C_5 
REMARK    3  A    between atoms: C_5  and  C_7 
REMARK    4  A    between atoms: C_10  and  O_13 
ROOT
HETATM    1  C   UNL     1     -22.823  -4.001  -8.876  1.00  0.00     0.039 A 
HETATM    2  C   UNL     1     -21.512  -3.992  -9.377  1.00  0.00     0.020 A 
HETATM    3  C   UNL     1     -20.437  -4.339  -8.555  1.00  0.00     0.037 A 
HETATM    4  C   UNL     1     -20.679  -4.698  -7.232  1.00  0.00     0.065 A 
HETATM    5  C   UNL     1     -21.974  -4.739  -6.728  1.00  0.00     0.037 A 
HETATM    6  C   UNL     1     -23.050  -4.392  -7.548  1.00  0.00     0.020 A 
ENDROOT
BRANCH   1   7
HETATM    7  C   UNL     1     -23.924  -3.564  -9.776  1.00  0.00     0.293 C 
HETATM    8  O   UNL     1     -24.905  -2.948  -9.387  1.00  0.00    -0.259 OA
BRANCH   7   9
HETATM    9  O   UNL     1     -23.685  -3.959 -11.051  1.00  0.00    -0.313 OA
BRANCH   9  10
HETATM   10  C   UNL     1     -23.546  -2.908 -12.027  1.00  0.00     0.124 C 
HETATM   11  C   UNL     1     -22.324  -3.172 -12.901  1.00  0.00     0.040 C 
HETATM   12  C   UNL     1     -24.814  -2.900 -12.873  1.00  0.00     0.040 C 
ENDBRANCH   9  10
ENDBRANCH   7   9
ENDBRANCH   1   7
BRANCH   4  13
HETATM   13  O   UNL     1     -19.660  -5.011  -6.382  1.00  0.00    -0.361 OA
HETATM   14  H   UNL     1     -20.028  -5.472  -5.610  1.00  0.00     0.217 HD
ENDBRANCH   4  13
TORSDOF 4
ENDMDL
MODEL 8
REMARK VINA RESULT:      -5.7     17.049     19.169
REMARK  4 active torsions:
REMARK  status: ('A' for Active; 'I' for Inactive)
REMARK    1  A    between atoms: C_2  and  O_4 
REMARK    2  A    between atoms: O_4  and  C_5 
REMARK    3  A    between atoms: C_5  and  C_7 
REMARK    4  A    between atoms: C_10  and  O_13 
ROOT
HETATM    1  C   UNL     1     -21.415  -9.203  -0.198  1.00  0.00     0.039 A 
HETATM    2  C   UNL     1     -20.799  -8.914  -1.425  1.00  0.00     0.020 A 
HETATM    3  C   UNL     1     -21.107  -7.738  -2.114  1.00  0.00     0.037 A 
HETATM    4  C   UNL     1     -22.031  -6.852  -1.568  1.00  0.00     0.065 A 
HETATM    5  C   UNL     1     -22.630  -7.109  -0.340  1.00  0.00     0.037 A 
HETATM    6  C   UNL     1     -22.323  -8.284   0.349  1.00  0.00     0.020 A 
ENDROOT
BRANCH   1   7
HETATM    7  C   UNL     1     -21.097 -10.497   0.463  1.00  0.00     0.293 C 
HETATM    8  O   UNL     1     -20.330 -10.598   1.409  1.00  0.00    -0.259 OA
BRANCH   7   9
HETATM    9  O   UNL     1     -21.756 -11.517  -0.141  1.00  0.00    -0.313 OA
BRANCH   9  10
HETATM   10  C   UNL     1     -23.133 -11.697   0.238  1.00  0.00     0.124 C 
HETATM   11  C   UNL     1     -24.015 -11.712  -1.007  1.00  0.00     0.040 C 
HETATM   12  C   UNL     1     -23.234 -13.027   0.977  1.00  0.00     0.040 C 
ENDBRANCH   9  10
ENDBRANCH   7   9
ENDBRANCH   1   7
BRANCH   4  13
HETATM   13  O   UNL     1     -22.390  -5.708  -2.218  1.00  0.00    -0.361 OA
HETATM   14  H   UNL     1     -22.198  -4.949  -1.643  1.00  0.00     0.217 HD
ENDBRANCH   4  13
TORSDOF 4
ENDMDL
MODEL 9
REMARK VINA RESULT:      -5.5      1.328      2.104
REMARK  4 active torsions:
REMARK  status: ('A' for Active; 'I' for Inactive)
REMARK    1  A    between atoms: C_2  and  O_4 
REMARK    2  A    between atoms: O_4  and  C_5 
REMARK    3  A    between atoms: C_5  and  C_7 
REMARK    4  A    between atoms: C_10  and  O_13 
ROOT
HETATM    1  C   UNL     1     -34.104  -3.577 -11.379  1.00  0.00     0.039 A 
HETATM    2  C   UNL     1     -32.963  -4.331 -11.697  1.00  0.00     0.020 A 
HETATM    3  C   UNL     1     -32.912  -5.696 -11.404  1.00  0.00     0.037 A 
HETATM    4  C   UNL     1     -34.006  -6.303 -10.795  1.00  0.00     0.065 A 
HETATM    5  C   UNL     1     -35.155  -5.577 -10.500  1.00  0.00     0.037 A 
HETATM    6  C   UNL     1     -35.207  -4.212 -10.791  1.00  0.00     0.020 A 
ENDROOT
BRANCH   1   7
HETATM    7  C   UNL     1     -34.082  -2.116 -11.657  1.00  0.00     0.293 C 
HETATM    8  O   UNL     1     -33.749  -1.279 -10.831  1.00  0.00    -0.259 OA
BRANCH   7   9
HETATM    9  O   UNL     1     -34.493  -1.863 -12.925  1.00  0.00    -0.313 OA
BRANCH   9  10
HETATM   10  C   UNL     1     -35.602  -0.955 -13.064  1.00  0.00     0.124 C 
HETATM   11  C   UNL     1     -36.308  -0.792 -11.722  1.00  0.00     0.040 C 
HETATM   12  C   UNL     1     -35.041   0.382 -13.536  1.00  0.00     0.040 C 
ENDBRANCH   9  10
ENDBRANCH   7   9
ENDBRANCH   1   7
BRANCH   4  13
HETATM   13  O   UNL     1     -33.990  -7.624 -10.458  1.00  0.00    -0.361 OA
HETATM   14  H   UNL     1     -33.070  -7.897 -10.307  1.00  0.00     0.217 HD
ENDBRANCH   4  13
TORSDOF 4
ENDMDL
