MODEL 1
REMARK VINA RESULT:      -7.4      0.000      0.000
REMARK  22 active torsions:
REMARK  status: ('A' for Active; 'I' for Inactive)
REMARK    1  A    between atoms: C_2  and  C_4 
REMARK    2  A    between atoms: C_4  and  C_5 
REMARK    3  A    between atoms: C_5  and  C_6 
REMARK    4  A    between atoms: C_6  and  C_7 
REMARK    5  A    between atoms: C_7  and  C_8 
REMARK    6  A    between atoms: C_8  and  C_9 
REMARK    7  A    between atoms: C_9  and  C_10 
REMARK    8  A    between atoms: C_10  and  C_11 
REMARK    9  A    between atoms: C_11  and  C_12 
REMARK   10  A    between atoms: C_12  and  C_13 
REMARK   11  A    between atoms: C_13  and  C_14 
REMARK   12  A    between atoms: C_14  and  C_15 
REMARK   13  A    between atoms: C_15  and  C_16 
REMARK   14  A    between atoms: C_16  and  C_17 
REMARK   15  A    between atoms: C_17  and  C_18 
REMARK   16  A    between atoms: C_18  and  O_20 
REMARK   17  A    between atoms: O_20  and  C_21 
REMARK   18  A    between atoms: C_21  and  C_22 
REMARK   19  A    between atoms: C_22  and  C_23 
REMARK   20  A    between atoms: C_22  and  O_31 
REMARK   21  A    between atoms: C_24  and  O_30 
REMARK   22  A    between atoms: C_25  and  O_29 
ROOT
HETATM    1  C   UNL     1     -21.602  -5.271  -6.201  1.00  0.00     0.111 C 
ENDROOT
BRANCH   1   2
HETATM    2  C   UNL     1     -20.886  -5.929  -5.025  1.00  0.00     0.010 C 
BRANCH   2   3
HETATM    3  C   UNL     1     -21.682  -7.067  -4.415  1.00  0.00     0.000 C 
BRANCH   3   4
HETATM    4  C   UNL     1     -21.250  -7.260  -2.966  1.00  0.00     0.000 C 
BRANCH   4   5
HETATM    5  C   UNL     1     -22.056  -6.358  -2.050  1.00  0.00     0.000 C 
BRANCH   5   6
HETATM    6  C   UNL     1     -22.392  -7.084  -0.759  1.00  0.00     0.000 C 
BRANCH   6   7
HETATM    7  C   UNL     1     -21.228  -7.969  -0.348  1.00  0.00     0.000 C 
BRANCH   7   8
HETATM    8  C   UNL     1     -21.743  -9.268   0.241  1.00  0.00     0.000 C 
BRANCH   8   9
HETATM    9  C   UNL     1     -23.261  -9.282   0.216  1.00  0.00     0.000 C 
BRANCH   9  10
HETATM   10  C   UNL     1     -23.753 -10.576  -0.406  1.00  0.00     0.000 C 
BRANCH  10  11
HETATM   11  C   UNL     1     -22.656 -11.195  -1.248  1.00  0.00     0.000 C 
BRANCH  11  12
HETATM   12  C   UNL     1     -23.035 -11.138  -2.720  1.00  0.00     0.000 C 
BRANCH  12  13
HETATM   13  C   UNL     1     -21.824 -10.719  -3.534  1.00  0.00     0.000 C 
BRANCH  13  14
HETATM   14  C   UNL     1     -20.562 -11.417  -3.044  1.00  0.00     0.004 C 
BRANCH  14  15
HETATM   15  C   UNL     1     -19.479 -10.418  -2.611  1.00  0.00    -0.023 C 
HETATM   16  C   UNL     1     -18.496 -11.104  -1.665  1.00  0.00     0.009 C 
HETATM   17  C   UNL     1     -18.728  -9.830  -3.808  1.00  0.00     0.009 C 
ENDBRANCH  14  15
ENDBRANCH  13  14
ENDBRANCH  12  13
ENDBRANCH  11  12
ENDBRANCH  10  11
ENDBRANCH   9  10
ENDBRANCH   8   9
ENDBRANCH   7   8
ENDBRANCH   6   7
ENDBRANCH   5   6
ENDBRANCH   4   5
ENDBRANCH   3   4
ENDBRANCH   2   3
ENDBRANCH   1   2
BRANCH   1  18
HETATM   18  C   UNL     1     -20.894  -5.590  -7.495  1.00  0.00     0.258 C 
HETATM   19  O   UNL     1     -19.926  -6.334  -7.584  1.00  0.00    -0.265 OA
BRANCH  18  20
HETATM   20  O   UNL     1     -21.415  -4.894  -8.545  1.00  0.00    -0.319 OA
BRANCH  20  21
HETATM   21  C   UNL     1     -22.380  -3.911  -8.148  1.00  0.00     0.213 C 
BRANCH  21  22
HETATM   22  C   UNL     1     -23.148  -3.322  -9.339  1.00  0.00     0.178 C 
BRANCH  22  23
HETATM   23  C   UNL     1     -23.027  -4.291 -10.536  1.00  0.00     0.222 C 
HETATM   24  C   UNL     1     -22.103  -3.884 -11.626  1.00  0.00     0.114 C 
HETATM   25  C   UNL     1     -22.779  -3.501 -12.701  1.00  0.00     0.173 C 
HETATM   26  C   UNL     1     -24.193  -3.611 -12.357  1.00  0.00     0.320 C 
HETATM   27  O   UNL     1     -25.114  -3.152 -12.991  1.00  0.00    -0.257 OA
HETATM   28  O   UNL     1     -24.303  -4.311 -11.196  1.00  0.00    -0.301 OA
BRANCH  24  29
HETATM   29  O   UNL     1     -20.740  -3.992 -11.550  1.00  0.00    -0.359 OA
HETATM   30  H   UNL     1     -20.459  -4.465 -12.353  1.00  0.00     0.217 HD
ENDBRANCH  24  29
BRANCH  25  31
HETATM   31  O   UNL     1     -22.298  -3.109 -13.906  1.00  0.00    -0.353 OA
HETATM   32  H   UNL     1     -21.397  -2.788 -13.717  1.00  0.00     0.218 HD
ENDBRANCH  25  31
ENDBRANCH  22  23
BRANCH  22  33
HETATM   33  O   UNL     1     -24.528  -3.146  -8.996  1.00  0.00    -0.390 OA
HETATM   34  H   UNL     1     -25.017  -3.536  -9.751  1.00  0.00     0.210 HD
ENDBRANCH  22  33
ENDBRANCH  21  22
ENDBRANCH  20  21
ENDBRANCH  18  20
ENDBRANCH   1  18
TORSDOF 22
ENDMDL
MODEL 2
REMARK VINA RESULT:      -7.4      1.014      1.650
REMARK  22 active torsions:
REMARK  status: ('A' for Active; 'I' for Inactive)
REMARK    1  A    between atoms: C_2  and  C_4 
REMARK    2  A    between atoms: C_4  and  C_5 
REMARK    3  A    between atoms: C_5  and  C_6 
REMARK    4  A    between atoms: C_6  and  C_7 
REMARK    5  A    between atoms: C_7  and  C_8 
REMARK    6  A    between atoms: C_8  and  C_9 
REMARK    7  A    between atoms: C_9  and  C_10 
REMARK    8  A    between atoms: C_10  and  C_11 
REMARK    9  A    between atoms: C_11  and  C_12 
REMARK   10  A    between atoms: C_12  and  C_13 
REMARK   11  A    between atoms: C_13  and  C_14 
REMARK   12  A    between atoms: C_14  and  C_15 
REMARK   13  A    between atoms: C_15  and  C_16 
REMARK   14  A    between atoms: C_16  and  C_17 
REMARK   15  A    between atoms: C_17  and  C_18 
REMARK   16  A    between atoms: C_18  and  O_20 
REMARK   17  A    between atoms: O_20  and  C_21 
REMARK   18  A    between atoms: C_21  and  C_22 
REMARK   19  A    between atoms: C_22  and  C_23 
REMARK   20  A    between atoms: C_22  and  O_31 
REMARK   21  A    between atoms: C_24  and  O_30 
REMARK   22  A    between atoms: C_25  and  O_29 
ROOT
HETATM    1  C   UNL     1     -20.847  -5.329  -6.243  1.00  0.00     0.111 C 
ENDROOT
BRANCH   1   2
HETATM    2  C   UNL     1     -21.457  -6.693  -5.931  1.00  0.00     0.010 C 
BRANCH   2   3
HETATM    3  C   UNL     1     -22.250  -6.700  -4.638  1.00  0.00     0.000 C 
BRANCH   3   4
HETATM    4  C   UNL     1     -21.311  -7.002  -3.476  1.00  0.00     0.000 C 
BRANCH   4   5
HETATM    5  C   UNL     1     -21.686  -6.169  -2.264  1.00  0.00     0.000 C 
BRANCH   5   6
HETATM    6  C   UNL     1     -22.364  -7.037  -1.218  1.00  0.00     0.000 C 
BRANCH   6   7
HETATM    7  C   UNL     1     -21.320  -7.829  -0.451  1.00  0.00     0.000 C 
BRANCH   7   8
HETATM    8  C   UNL     1     -21.996  -8.782   0.517  1.00  0.00     0.000 C 
BRANCH   8   9
HETATM    9  C   UNL     1     -23.296  -9.290  -0.080  1.00  0.00     0.000 C 
BRANCH   9  10
HETATM   10  C   UNL     1     -23.280 -10.806  -0.128  1.00  0.00     0.000 C 
BRANCH  10  11
HETATM   11  C   UNL     1     -23.614 -11.284  -1.526  1.00  0.00     0.000 C 
BRANCH  11  12
HETATM   12  C   UNL     1     -22.661 -10.657  -2.533  1.00  0.00     0.000 C 
BRANCH  12  13
HETATM   13  C   UNL     1     -21.987 -11.754  -3.336  1.00  0.00     0.000 C 
BRANCH  13  14
HETATM   14  C   UNL     1     -20.476 -11.726  -3.146  1.00  0.00     0.004 C 
BRANCH  14  15
HETATM   15  C   UNL     1     -20.038 -10.642  -2.150  1.00  0.00    -0.023 C 
HETATM   16  C   UNL     1     -19.526 -11.298  -0.870  1.00  0.00     0.009 C 
HETATM   17  C   UNL     1     -18.959  -9.727  -2.735  1.00  0.00     0.009 C 
ENDBRANCH  14  15
ENDBRANCH  13  14
ENDBRANCH  12  13
ENDBRANCH  11  12
ENDBRANCH  10  11
ENDBRANCH   9  10
ENDBRANCH   8   9
ENDBRANCH   7   8
ENDBRANCH   6   7
ENDBRANCH   5   6
ENDBRANCH   4   5
ENDBRANCH   3   4
ENDBRANCH   2   3
ENDBRANCH   1   2
BRANCH   1  18
HETATM   18  C   UNL     1     -21.727  -4.564  -7.201  1.00  0.00     0.258 C 
HETATM   19  O   UNL     1     -22.939  -4.444  -7.075  1.00  0.00    -0.265 OA
BRANCH  18  20
HETATM   20  O   UNL     1     -21.023  -4.081  -8.263  1.00  0.00    -0.319 OA
BRANCH  20  21
HETATM   21  C   UNL     1     -21.858  -3.677  -9.357  1.00  0.00     0.213 C 
BRANCH  21  22
HETATM   22  C   UNL     1     -21.278  -4.078 -10.721  1.00  0.00     0.178 C 
BRANCH  22  23
HETATM   23  C   UNL     1     -22.438  -4.506 -11.647  1.00  0.00     0.222 C 
HETATM   24  C   UNL     1     -22.839  -3.536 -12.698  1.00  0.00     0.114 C 
HETATM   25  C   UNL     1     -24.002  -2.971 -12.402  1.00  0.00     0.173 C 
HETATM   26  C   UNL     1     -24.413  -3.527 -11.117  1.00  0.00     0.320 C 
HETATM   27  O   UNL     1     -25.303  -3.109 -10.416  1.00  0.00    -0.257 OA
HETATM   28  O   UNL     1     -23.619  -4.595 -10.834  1.00  0.00    -0.301 OA
BRANCH  24  29
HETATM   29  O   UNL     1     -22.139  -3.337 -13.858  1.00  0.00    -0.359 OA
HETATM   30  H   UNL     1     -22.380  -4.070 -14.451  1.00  0.00     0.217 HD
ENDBRANCH  24  29
BRANCH  25  31
HETATM   31  O   UNL     1     -24.717  -2.079 -13.131  1.00  0.00    -0.353 OA
HETATM   32  H   UNL     1     -24.045  -1.534 -13.578  1.00  0.00     0.218 HD
ENDBRANCH  25  31
ENDBRANCH  22  23
BRANCH  22  33
HETATM   33  O   UNL     1     -20.579  -2.970 -11.302  1.00  0.00    -0.390 OA
HETATM   34  H   UNL     1     -20.504  -3.202 -12.252  1.00  0.00     0.210 HD
ENDBRANCH  22  33
ENDBRANCH  21  22
ENDBRANCH  20  21
ENDBRANCH  18  20
ENDBRANCH   1  18
TORSDOF 22
ENDMDL
MODEL 3
REMARK VINA RESULT:      -7.2      1.123      1.929
REMARK  22 active torsions:
REMARK  status: ('A' for Active; 'I' for Inactive)
REMARK    1  A    between atoms: C_2  and  C_4 
REMARK    2  A    between atoms: C_4  and  C_5 
REMARK    3  A    between atoms: C_5  and  C_6 
REMARK    4  A    between atoms: C_6  and  C_7 
REMARK    5  A    between atoms: C_7  and  C_8 
REMARK    6  A    between atoms: C_8  and  C_9 
REMARK    7  A    between atoms: C_9  and  C_10 
REMARK    8  A    between atoms: C_10  and  C_11 
REMARK    9  A    between atoms: C_11  and  C_12 
REMARK   10  A    between atoms: C_12  and  C_13 
REMARK   11  A    between atoms: C_13  and  C_14 
REMARK   12  A    between atoms: C_14  and  C_15 
REMARK   13  A    between atoms: C_15  and  C_16 
REMARK   14  A    between atoms: C_16  and  C_17 
REMARK   15  A    between atoms: C_17  and  C_18 
REMARK   16  A    between atoms: C_18  and  O_20 
REMARK   17  A    between atoms: O_20  and  C_21 
REMARK   18  A    between atoms: C_21  and  C_22 
REMARK   19  A    between atoms: C_22  and  C_23 
REMARK   20  A    between atoms: C_22  and  O_31 
REMARK   21  A    between atoms: C_24  and  O_30 
REMARK   22  A    between atoms: C_25  and  O_29 
ROOT
HETATM    1  C   UNL     1     -21.733  -5.866  -5.943  1.00  0.00     0.111 C 
ENDROOT
BRANCH   1   2
HETATM    2  C   UNL     1     -21.014  -6.538  -4.776  1.00  0.00     0.010 C 
BRANCH   2   3
HETATM    3  C   UNL     1     -21.953  -6.914  -3.646  1.00  0.00     0.000 C 
BRANCH   3   4
HETATM    4  C   UNL     1     -21.447  -6.296  -2.348  1.00  0.00     0.000 C 
BRANCH   4   5
HETATM    5  C   UNL     1     -22.431  -6.555  -1.221  1.00  0.00     0.000 C 
BRANCH   5   6
HETATM    6  C   UNL     1     -21.872  -7.593  -0.263  1.00  0.00     0.000 C 
BRANCH   6   7
HETATM    7  C   UNL     1     -23.006  -8.408   0.332  1.00  0.00     0.000 C 
BRANCH   7   8
HETATM    8  C   UNL     1     -23.110  -9.748  -0.371  1.00  0.00     0.000 C 
BRANCH   8   9
HETATM    9  C   UNL     1     -21.781 -10.098  -1.016  1.00  0.00     0.000 C 
BRANCH   9  10
HETATM   10  C   UNL     1     -22.003 -10.493  -2.464  1.00  0.00     0.000 C 
BRANCH  10  11
HETATM   11  C   UNL     1     -20.672 -10.609  -3.179  1.00  0.00     0.000 C 
BRANCH  11  12
HETATM   12  C   UNL     1     -19.580  -9.941  -2.358  1.00  0.00     0.000 C 
BRANCH  12  13
HETATM   13  C   UNL     1     -18.721  -9.083  -3.269  1.00  0.00     0.000 C 
BRANCH  13  14
HETATM   14  C   UNL     1     -17.248  -9.447  -3.140  1.00  0.00     0.004 C 
BRANCH  14  15
HETATM   15  C   UNL     1     -16.839 -10.562  -4.114  1.00  0.00    -0.023 C 
HETATM   16  C   UNL     1     -16.697  -9.987  -5.522  1.00  0.00     0.009 C 
HETATM   17  C   UNL     1     -15.533 -11.241  -3.694  1.00  0.00     0.009 C 
ENDBRANCH  14  15
ENDBRANCH  13  14
ENDBRANCH  12  13
ENDBRANCH  11  12
ENDBRANCH  10  11
ENDBRANCH   9  10
ENDBRANCH   8   9
ENDBRANCH   7   8
ENDBRANCH   6   7
ENDBRANCH   5   6
ENDBRANCH   4   5
ENDBRANCH   3   4
ENDBRANCH   2   3
ENDBRANCH   1   2
BRANCH   1  18
HETATM   18  C   UNL     1     -20.885  -5.926  -7.190  1.00  0.00     0.258 C 
HETATM   19  O   UNL     1     -19.800  -6.488  -7.257  1.00  0.00    -0.265 OA
BRANCH  18  20
HETATM   20  O   UNL     1     -21.438  -5.218  -8.215  1.00  0.00    -0.319 OA
BRANCH  20  21
HETATM   21  C   UNL     1     -22.559  -4.421  -7.811  1.00  0.00     0.213 C 
BRANCH  21  22
HETATM   22  C   UNL     1     -23.213  -3.682  -8.987  1.00  0.00     0.178 C 
BRANCH  22  23
HETATM   23  C   UNL     1     -23.136  -4.580 -10.242  1.00  0.00     0.222 C 
HETATM   24  C   UNL     1     -22.085  -4.241 -11.235  1.00  0.00     0.114 C 
HETATM   25  C   UNL     1     -22.617  -3.696 -12.321  1.00  0.00     0.173 C 
HETATM   26  C   UNL     1     -24.055  -3.625 -12.081  1.00  0.00     0.320 C 
HETATM   27  O   UNL     1     -24.853  -3.000 -12.738  1.00  0.00    -0.257 OA
HETATM   28  O   UNL     1     -24.349  -4.375 -10.984  1.00  0.00    -0.301 OA
BRANCH  24  29
HETATM   29  O   UNL     1     -20.760  -4.547 -11.077  1.00  0.00    -0.359 OA
HETATM   30  H   UNL     1     -20.264  -3.745 -11.319  1.00  0.00     0.217 HD
ENDBRANCH  24  29
BRANCH  25  31
HETATM   31  O   UNL     1     -21.996  -3.302 -13.459  1.00  0.00    -0.353 OA
HETATM   32  H   UNL     1     -22.268  -3.958 -14.126  1.00  0.00     0.218 HD
ENDBRANCH  25  31
ENDBRANCH  22  23
BRANCH  22  33
HETATM   33  O   UNL     1     -24.582  -3.390  -8.683  1.00  0.00    -0.390 OA
HETATM   34  H   UNL     1     -24.786  -3.960  -7.911  1.00  0.00     0.210 HD
ENDBRANCH  22  33
ENDBRANCH  21  22
ENDBRANCH  20  21
ENDBRANCH  18  20
ENDBRANCH   1  18
TORSDOF 22
ENDMDL
MODEL 4
REMARK VINA RESULT:      -7.1      1.650      2.797
REMARK  22 active torsions:
REMARK  status: ('A' for Active; 'I' for Inactive)
REMARK    1  A    between atoms: C_2  and  C_4 
REMARK    2  A    between atoms: C_4  and  C_5 
REMARK    3  A    between atoms: C_5  and  C_6 
REMARK    4  A    between atoms: C_6  and  C_7 
REMARK    5  A    between atoms: C_7  and  C_8 
REMARK    6  A    between atoms: C_8  and  C_9 
REMARK    7  A    between atoms: C_9  and  C_10 
REMARK    8  A    between atoms: C_10  and  C_11 
REMARK    9  A    between atoms: C_11  and  C_12 
REMARK   10  A    between atoms: C_12  and  C_13 
REMARK   11  A    between atoms: C_13  and  C_14 
REMARK   12  A    between atoms: C_14  and  C_15 
REMARK   13  A    between atoms: C_15  and  C_16 
REMARK   14  A    between atoms: C_16  and  C_17 
REMARK   15  A    between atoms: C_17  and  C_18 
REMARK   16  A    between atoms: C_18  and  O_20 
REMARK   17  A    between atoms: O_20  and  C_21 
REMARK   18  A    between atoms: C_21  and  C_22 
REMARK   19  A    between atoms: C_22  and  C_23 
REMARK   20  A    between atoms: C_22  and  O_31 
REMARK   21  A    between atoms: C_24  and  O_30 
REMARK   22  A    between atoms: C_25  and  O_29 
ROOT
HETATM    1  C   UNL     1     -19.891  -5.189  -7.163  1.00  0.00     0.111 C 
ENDROOT
BRANCH   1   2
HETATM    2  C   UNL     1     -20.528  -5.601  -5.839  1.00  0.00     0.010 C 
BRANCH   2   3
HETATM    3  C   UNL     1     -21.431  -6.812  -5.972  1.00  0.00     0.000 C 
BRANCH   3   4
HETATM    4  C   UNL     1     -21.915  -7.230  -4.589  1.00  0.00     0.000 C 
BRANCH   4   5
HETATM    5  C   UNL     1     -21.253  -6.381  -3.519  1.00  0.00     0.000 C 
BRANCH   5   6
HETATM    6  C   UNL     1     -21.205  -7.137  -2.202  1.00  0.00     0.000 C 
BRANCH   6   7
HETATM    7  C   UNL     1     -22.284  -6.617  -1.270  1.00  0.00     0.000 C 
BRANCH   7   8
HETATM    8  C   UNL     1     -22.620  -7.664  -0.225  1.00  0.00     0.000 C 
BRANCH   8   9
HETATM    9  C   UNL     1     -21.343  -8.224   0.376  1.00  0.00     0.000 C 
BRANCH   9  10
HETATM   10  C   UNL     1     -21.523  -9.699   0.679  1.00  0.00     0.000 C 
BRANCH  10  11
HETATM   11  C   UNL     1     -20.181 -10.402   0.650  1.00  0.00     0.000 C 
BRANCH  11  12
HETATM   12  C   UNL     1     -20.371 -11.875   0.321  1.00  0.00     0.000 C 
BRANCH  12  13
HETATM   13  C   UNL     1     -21.855 -12.179   0.222  1.00  0.00     0.000 C 
BRANCH  13  14
HETATM   14  C   UNL     1     -22.210 -12.749  -1.145  1.00  0.00     0.004 C 
BRANCH  14  15
HETATM   15  C   UNL     1     -23.286 -11.917  -1.858  1.00  0.00    -0.023 C 
HETATM   16  C   UNL     1     -24.283 -11.380  -0.833  1.00  0.00     0.009 C 
HETATM   17  C   UNL     1     -22.682 -10.758  -2.654  1.00  0.00     0.009 C 
ENDBRANCH  14  15
ENDBRANCH  13  14
ENDBRANCH  12  13
ENDBRANCH  11  12
ENDBRANCH  10  11
ENDBRANCH   9  10
ENDBRANCH   8   9
ENDBRANCH   7   8
ENDBRANCH   6   7
ENDBRANCH   5   6
ENDBRANCH   4   5
ENDBRANCH   3   4
ENDBRANCH   2   3
ENDBRANCH   1   2
BRANCH   1  18
HETATM   18  C   UNL     1     -20.603  -3.991  -7.742  1.00  0.00     0.258 C 
HETATM   19  O   UNL     1     -21.428  -3.322  -7.133  1.00  0.00    -0.265 OA
BRANCH  18  20
HETATM   20  O   UNL     1     -20.271  -3.783  -9.047  1.00  0.00    -0.319 OA
BRANCH  20  21
HETATM   21  C   UNL     1     -21.081  -4.534  -9.962  1.00  0.00     0.213 C 
BRANCH  21  22
HETATM   22  C   UNL     1     -21.035  -3.972 -11.389  1.00  0.00     0.178 C 
BRANCH  22  23
HETATM   23  C   UNL     1     -22.311  -4.414 -12.139  1.00  0.00     0.222 C 
HETATM   24  C   UNL     1     -22.888  -3.436 -13.096  1.00  0.00     0.114 C 
HETATM   25  C   UNL     1     -24.006  -2.906 -12.617  1.00  0.00     0.173 C 
HETATM   26  C   UNL     1     -24.204  -3.496 -11.297  1.00  0.00     0.320 C 
HETATM   27  O   UNL     1     -24.988  -3.113 -10.460  1.00  0.00    -0.257 OA
HETATM   28  O   UNL     1     -23.353  -4.548 -11.159  1.00  0.00    -0.301 OA
BRANCH  24  29
HETATM   29  O   UNL     1     -22.377  -3.198 -14.344  1.00  0.00    -0.359 OA
HETATM   30  H   UNL     1     -23.132  -2.948 -14.905  1.00  0.00     0.217 HD
ENDBRANCH  24  29
BRANCH  25  31
HETATM   31  O   UNL     1     -24.843  -2.020 -13.209  1.00  0.00    -0.353 OA
HETATM   32  H   UNL     1     -25.116  -2.457 -14.036  1.00  0.00     0.218 HD
ENDBRANCH  25  31
ENDBRANCH  22  23
BRANCH  22  33
HETATM   33  O   UNL     1     -20.965  -2.541 -11.353  1.00  0.00    -0.390 OA
HETATM   34  H   UNL     1     -21.900  -2.256 -11.264  1.00  0.00     0.210 HD
ENDBRANCH  22  33
ENDBRANCH  21  22
ENDBRANCH  20  21
ENDBRANCH  18  20
ENDBRANCH   1  18
TORSDOF 22
ENDMDL
MODEL 5
REMARK VINA RESULT:      -7.1      1.360      2.534
REMARK  22 active torsions:
REMARK  status: ('A' for Active; 'I' for Inactive)
REMARK    1  A    between atoms: C_2  and  C_4 
REMARK    2  A    between atoms: C_4  and  C_5 
REMARK    3  A    between atoms: C_5  and  C_6 
REMARK    4  A    between atoms: C_6  and  C_7 
REMARK    5  A    between atoms: C_7  and  C_8 
REMARK    6  A    between atoms: C_8  and  C_9 
REMARK    7  A    between atoms: C_9  and  C_10 
REMARK    8  A    between atoms: C_10  and  C_11 
REMARK    9  A    between atoms: C_11  and  C_12 
REMARK   10  A    between atoms: C_12  and  C_13 
REMARK   11  A    between atoms: C_13  and  C_14 
REMARK   12  A    between atoms: C_14  and  C_15 
REMARK   13  A    between atoms: C_15  and  C_16 
REMARK   14  A    between atoms: C_16  and  C_17 
REMARK   15  A    between atoms: C_17  and  C_18 
REMARK   16  A    between atoms: C_18  and  O_20 
REMARK   17  A    between atoms: O_20  and  C_21 
REMARK   18  A    between atoms: C_21  and  C_22 
REMARK   19  A    between atoms: C_22  and  C_23 
REMARK   20  A    between atoms: C_22  and  O_31 
REMARK   21  A    between atoms: C_24  and  O_30 
REMARK   22  A    between atoms: C_25  and  O_29 
ROOT
HETATM    1  C   UNL     1     -20.103  -6.682  -5.983  1.00  0.00     0.111 C 
ENDROOT
BRANCH   1   2
HETATM    2  C   UNL     1     -21.527  -7.183  -5.757  1.00  0.00     0.010 C 
BRANCH   2   3
HETATM    3  C   UNL     1     -22.258  -6.409  -4.677  1.00  0.00     0.000 C 
BRANCH   3   4
HETATM    4  C   UNL     1     -21.342  -6.251  -3.469  1.00  0.00     0.000 C 
BRANCH   4   5
HETATM    5  C   UNL     1     -22.156  -6.238  -2.188  1.00  0.00     0.000 C 
BRANCH   5   6
HETATM    6  C   UNL     1     -21.689  -7.343  -1.256  1.00  0.00     0.000 C 
BRANCH   6   7
HETATM    7  C   UNL     1     -22.610  -7.426  -0.052  1.00  0.00     0.000 C 
BRANCH   7   8
HETATM    8  C   UNL     1     -23.048  -8.861   0.172  1.00  0.00     0.000 C 
BRANCH   8   9
HETATM    9  C   UNL     1     -21.833  -9.767   0.250  1.00  0.00     0.000 C 
BRANCH   9  10
HETATM   10  C   UNL     1     -22.254 -11.209   0.043  1.00  0.00     0.000 C 
BRANCH  10  11
HETATM   11  C   UNL     1     -21.051 -12.053  -0.330  1.00  0.00     0.000 C 
BRANCH  11  12
HETATM   12  C   UNL     1     -19.802 -11.186  -0.377  1.00  0.00     0.000 C 
BRANCH  12  13
HETATM   13  C   UNL     1     -19.229 -11.208  -1.782  1.00  0.00     0.000 C 
BRANCH  13  14
HETATM   14  C   UNL     1     -19.199  -9.810  -2.387  1.00  0.00     0.004 C 
BRANCH  14  15
HETATM   15  C   UNL     1     -19.995  -9.729  -3.698  1.00  0.00    -0.023 C 
HETATM   16  C   UNL     1     -19.311 -10.579  -4.767  1.00  0.00     0.009 C 
HETATM   17  C   UNL     1     -21.445 -10.185  -3.518  1.00  0.00     0.009 C 
ENDBRANCH  14  15
ENDBRANCH  13  14
ENDBRANCH  12  13
ENDBRANCH  11  12
ENDBRANCH  10  11
ENDBRANCH   9  10
ENDBRANCH   8   9
ENDBRANCH   7   8
ENDBRANCH   6   7
ENDBRANCH   5   6
ENDBRANCH   4   5
ENDBRANCH   3   4
ENDBRANCH   2   3
ENDBRANCH   1   2
BRANCH   1  18
HETATM   18  C   UNL     1     -20.112  -5.425  -6.818  1.00  0.00     0.258 C 
HETATM   19  O   UNL     1     -19.508  -4.401  -6.525  1.00  0.00    -0.265 OA
BRANCH  18  20
HETATM   20  O   UNL     1     -20.930  -5.539  -7.902  1.00  0.00    -0.319 OA
BRANCH  20  21
HETATM   21  C   UNL     1     -20.411  -4.894  -9.072  1.00  0.00     0.213 C 
BRANCH  21  22
HETATM   22  C   UNL     1     -21.483  -4.668 -10.146  1.00  0.00     0.178 C 
BRANCH  22  23
HETATM   23  C   UNL     1     -22.359  -3.465  -9.729  1.00  0.00     0.222 C 
HETATM   24  C   UNL     1     -23.641  -3.785  -9.049  1.00  0.00     0.114 C 
HETATM   25  C   UNL     1     -24.671  -3.563  -9.854  1.00  0.00     0.173 C 
HETATM   26  C   UNL     1     -24.111  -3.110 -11.123  1.00  0.00     0.320 C 
HETATM   27  O   UNL     1     -24.709  -3.014 -12.168  1.00  0.00    -0.257 OA
HETATM   28  O   UNL     1     -22.794  -2.820 -10.936  1.00  0.00    -0.301 OA
BRANCH  24  29
HETATM   29  O   UNL     1     -23.733  -4.161  -7.736  1.00  0.00    -0.359 OA
HETATM   30  H   UNL     1     -23.161  -3.552  -7.237  1.00  0.00     0.217 HD
ENDBRANCH  24  29
BRANCH  25  31
HETATM   31  O   UNL     1     -25.994  -3.687  -9.586  1.00  0.00    -0.353 OA
HETATM   32  H   UNL     1     -26.290  -4.427 -10.147  1.00  0.00     0.218 HD
ENDBRANCH  25  31
ENDBRANCH  22  23
BRANCH  22  33
HETATM   33  O   UNL     1     -20.863  -4.400 -11.411  1.00  0.00    -0.390 OA
HETATM   34  H   UNL     1     -20.554  -3.472 -11.337  1.00  0.00     0.210 HD
ENDBRANCH  22  33
ENDBRANCH  21  22
ENDBRANCH  20  21
ENDBRANCH  18  20
ENDBRANCH   1  18
TORSDOF 22
ENDMDL
MODEL 6
REMARK VINA RESULT:      -7.0      1.111      1.987
REMARK  22 active torsions:
REMARK  status: ('A' for Active; 'I' for Inactive)
REMARK    1  A    between atoms: C_2  and  C_4 
REMARK    2  A    between atoms: C_4  and  C_5 
REMARK    3  A    between atoms: C_5  and  C_6 
REMARK    4  A    between atoms: C_6  and  C_7 
REMARK    5  A    between atoms: C_7  and  C_8 
REMARK    6  A    between atoms: C_8  and  C_9 
REMARK    7  A    between atoms: C_9  and  C_10 
REMARK    8  A    between atoms: C_10  and  C_11 
REMARK    9  A    between atoms: C_11  and  C_12 
REMARK   10  A    between atoms: C_12  and  C_13 
REMARK   11  A    between atoms: C_13  and  C_14 
REMARK   12  A    between atoms: C_14  and  C_15 
REMARK   13  A    between atoms: C_15  and  C_16 
REMARK   14  A    between atoms: C_16  and  C_17 
REMARK   15  A    between atoms: C_17  and  C_18 
REMARK   16  A    between atoms: C_18  and  O_20 
REMARK   17  A    between atoms: O_20  and  C_21 
REMARK   18  A    between atoms: C_21  and  C_22 
REMARK   19  A    between atoms: C_22  and  C_23 
REMARK   20  A    between atoms: C_22  and  O_31 
REMARK   21  A    between atoms: C_24  and  O_30 
REMARK   22  A    between atoms: C_25  and  O_29 
ROOT
HETATM    1  C   UNL     1     -21.075  -5.603  -5.509  1.00  0.00     0.111 C 
ENDROOT
BRANCH   1   2
HETATM    2  C   UNL     1     -20.958  -6.613  -4.371  1.00  0.00     0.010 C 
BRANCH   2   3
HETATM    3  C   UNL     1     -21.795  -6.237  -3.163  1.00  0.00     0.000 C 
BRANCH   3   4
HETATM    4  C   UNL     1     -21.579  -7.270  -2.064  1.00  0.00     0.000 C 
BRANCH   4   5
HETATM    5  C   UNL     1     -22.316  -6.859  -0.801  1.00  0.00     0.000 C 
BRANCH   5   6
HETATM    6  C   UNL     1     -22.183  -7.938   0.260  1.00  0.00     0.000 C 
BRANCH   6   7
HETATM    7  C   UNL     1     -23.439  -8.790   0.287  1.00  0.00     0.000 C 
BRANCH   7   8
HETATM    8  C   UNL     1     -23.104 -10.225  -0.076  1.00  0.00     0.000 C 
BRANCH   8   9
HETATM    9  C   UNL     1     -21.612 -10.463   0.078  1.00  0.00     0.000 C 
BRANCH   9  10
HETATM   10  C   UNL     1     -21.329 -11.953   0.086  1.00  0.00     0.000 C 
BRANCH  10  11
HETATM   11  C   UNL     1     -20.156 -12.262  -0.823  1.00  0.00     0.000 C 
BRANCH  11  12
HETATM   12  C   UNL     1     -19.342 -11.001  -1.069  1.00  0.00     0.000 C 
BRANCH  12  13
HETATM   13  C   UNL     1     -19.146 -10.813  -2.563  1.00  0.00     0.000 C 
BRANCH  13  14
HETATM   14  C   UNL     1     -20.262 -11.486  -3.352  1.00  0.00     0.004 C 
BRANCH  14  15
HETATM   15  C   UNL     1     -21.315 -10.480  -3.838  1.00  0.00    -0.023 C 
HETATM   16  C   UNL     1     -21.070 -10.148  -5.308  1.00  0.00     0.009 C 
HETATM   17  C   UNL     1     -22.741 -11.006  -3.653  1.00  0.00     0.009 C 
ENDBRANCH  14  15
ENDBRANCH  13  14
ENDBRANCH  12  13
ENDBRANCH  11  12
ENDBRANCH  10  11
ENDBRANCH   9  10
ENDBRANCH   8   9
ENDBRANCH   7   8
ENDBRANCH   6   7
ENDBRANCH   5   6
ENDBRANCH   4   5
ENDBRANCH   3   4
ENDBRANCH   2   3
ENDBRANCH   1   2
BRANCH   1  18
HETATM   18  C   UNL     1     -20.443  -6.149  -6.766  1.00  0.00     0.258 C 
HETATM   19  O   UNL     1     -19.590  -7.026  -6.781  1.00  0.00    -0.265 OA
BRANCH  18  20
HETATM   20  O   UNL     1     -20.885  -5.500  -7.881  1.00  0.00    -0.319 OA
BRANCH  20  21
HETATM   21  C   UNL     1     -21.417  -4.198  -7.603  1.00  0.00     0.213 C 
BRANCH  21  22
HETATM   22  C   UNL     1     -22.640  -3.863  -8.467  1.00  0.00     0.178 C 
BRANCH  22  23
HETATM   23  C   UNL     1     -22.629  -4.771  -9.717  1.00  0.00     0.222 C 
HETATM   24  C   UNL     1     -21.720  -4.366 -10.820  1.00  0.00     0.114 C 
HETATM   25  C   UNL     1     -22.407  -3.881 -11.845  1.00  0.00     0.173 C 
HETATM   26  C   UNL     1     -23.812  -3.917 -11.451  1.00  0.00     0.320 C 
HETATM   27  O   UNL     1     -24.723  -3.366 -12.023  1.00  0.00    -0.257 OA
HETATM   28  O   UNL     1     -23.926  -4.671 -10.324  1.00  0.00    -0.301 OA
BRANCH  24  29
HETATM   29  O   UNL     1     -20.366  -4.567 -10.804  1.00  0.00    -0.359 OA
HETATM   30  H   UNL     1     -19.987  -3.827 -10.298  1.00  0.00     0.217 HD
ENDBRANCH  24  29
BRANCH  25  31
HETATM   31  O   UNL     1     -21.945  -3.456 -13.047  1.00  0.00    -0.353 OA
HETATM   32  H   UNL     1     -21.470  -4.225 -13.412  1.00  0.00     0.218 HD
ENDBRANCH  25  31
ENDBRANCH  22  23
BRANCH  22  33
HETATM   33  O   UNL     1     -23.844  -4.082  -7.720  1.00  0.00    -0.390 OA
HETATM   34  H   UNL     1     -24.291  -3.208  -7.720  1.00  0.00     0.210 HD
ENDBRANCH  22  33
ENDBRANCH  21  22
ENDBRANCH  20  21
ENDBRANCH  18  20
ENDBRANCH   1  18
TORSDOF 22
ENDMDL
MODEL 7
REMARK VINA RESULT:      -6.8      1.478      3.362
REMARK  22 active torsions:
REMARK  status: ('A' for Active; 'I' for Inactive)
REMARK    1  A    between atoms: C_2  and  C_4 
REMARK    2  A    between atoms: C_4  and  C_5 
REMARK    3  A    between atoms: C_5  and  C_6 
REMARK    4  A    between atoms: C_6  and  C_7 
REMARK    5  A    between atoms: C_7  and  C_8 
REMARK    6  A    between atoms: C_8  and  C_9 
REMARK    7  A    between atoms: C_9  and  C_10 
REMARK    8  A    between atoms: C_10  and  C_11 
REMARK    9  A    between atoms: C_11  and  C_12 
REMARK   10  A    between atoms: C_12  and  C_13 
REMARK   11  A    between atoms: C_13  and  C_14 
REMARK   12  A    between atoms: C_14  and  C_15 
REMARK   13  A    between atoms: C_15  and  C_16 
REMARK   14  A    between atoms: C_16  and  C_17 
REMARK   15  A    between atoms: C_17  and  C_18 
REMARK   16  A    between atoms: C_18  and  O_20 
REMARK   17  A    between atoms: O_20  and  C_21 
REMARK   18  A    between atoms: C_21  and  C_22 
REMARK   19  A    between atoms: C_22  and  C_23 
REMARK   20  A    between atoms: C_22  and  O_31 
REMARK   21  A    between atoms: C_24  and  O_30 
REMARK   22  A    between atoms: C_25  and  O_29 
ROOT
HETATM    1  C   UNL     1     -19.939  -5.610  -7.300  1.00  0.00     0.111 C 
ENDROOT
BRANCH   1   2
HETATM    2  C   UNL     1     -21.074  -6.199  -6.467  1.00  0.00     0.010 C 
BRANCH   2   3
HETATM    3  C   UNL     1     -20.994  -5.808  -5.004  1.00  0.00     0.000 C 
BRANCH   3   4
HETATM    4  C   UNL     1     -21.182  -7.052  -4.143  1.00  0.00     0.000 C 
BRANCH   4   5
HETATM    5  C   UNL     1     -20.581  -8.265  -4.829  1.00  0.00     0.000 C 
BRANCH   5   6
HETATM    6  C   UNL     1     -21.397  -9.507  -4.513  1.00  0.00     0.000 C 
BRANCH   6   7
HETATM    7  C   UNL     1     -20.506 -10.735  -4.562  1.00  0.00     0.000 C 
BRANCH   7   8
HETATM    8  C   UNL     1     -21.253 -11.943  -4.031  1.00  0.00     0.000 C 
BRANCH   8   9
HETATM    9  C   UNL     1     -22.623 -11.524  -3.527  1.00  0.00     0.000 C 
BRANCH   9  10
HETATM   10  C   UNL     1     -22.865 -12.110  -2.149  1.00  0.00     0.000 C 
BRANCH  10  11
HETATM   11  C   UNL     1     -24.083 -11.467  -1.519  1.00  0.00     0.000 C 
BRANCH  11  12
HETATM   12  C   UNL     1     -23.898 -11.366  -0.012  1.00  0.00     0.000 C 
BRANCH  12  13
HETATM   13  C   UNL     1     -22.667 -10.529   0.287  1.00  0.00     0.000 C 
BRANCH  13  14
HETATM   14  C   UNL     1     -22.975  -9.041   0.181  1.00  0.00     0.004 C 
BRANCH  14  15
HETATM   15  C   UNL     1     -22.182  -8.366  -0.947  1.00  0.00    -0.023 C 
HETATM   16  C   UNL     1     -22.297  -6.848  -0.819  1.00  0.00     0.009 C 
HETATM   17  C   UNL     1     -20.709  -8.779  -0.942  1.00  0.00     0.009 C 
ENDBRANCH  14  15
ENDBRANCH  13  14
ENDBRANCH  12  13
ENDBRANCH  11  12
ENDBRANCH  10  11
ENDBRANCH   9  10
ENDBRANCH   8   9
ENDBRANCH   7   8
ENDBRANCH   6   7
ENDBRANCH   5   6
ENDBRANCH   4   5
ENDBRANCH   3   4
ENDBRANCH   2   3
ENDBRANCH   1   2
BRANCH   1  18
HETATM   18  C   UNL     1     -20.321  -4.248  -7.826  1.00  0.00     0.258 C 
HETATM   19  O   UNL     1     -20.816  -3.362  -7.142  1.00  0.00    -0.265 OA
BRANCH  18  20
HETATM   20  O   UNL     1     -20.117  -4.146  -9.169  1.00  0.00    -0.319 OA
BRANCH  20  21
HETATM   21  C   UNL     1     -21.047  -4.916  -9.943  1.00  0.00     0.213 C 
BRANCH  21  22
HETATM   22  C   UNL     1     -21.459  -4.212 -11.243  1.00  0.00     0.178 C 
BRANCH  22  23
HETATM   23  C   UNL     1     -22.361  -3.009 -10.892  1.00  0.00     0.222 C 
HETATM   24  C   UNL     1     -23.443  -3.258  -9.903  1.00  0.00     0.114 C 
HETATM   25  C   UNL     1     -24.629  -3.283 -10.496  1.00  0.00     0.173 C 
HETATM   26  C   UNL     1     -24.381  -3.077 -11.919  1.00  0.00     0.320 C 
HETATM   27  O   UNL     1     -25.179  -3.248 -12.810  1.00  0.00    -0.257 OA
HETATM   28  O   UNL     1     -23.093  -2.667 -12.079  1.00  0.00    -0.301 OA
BRANCH  24  29
HETATM   29  O   UNL     1     -23.235  -3.349  -8.553  1.00  0.00    -0.359 OA
HETATM   30  H   UNL     1     -22.468  -2.782  -8.357  1.00  0.00     0.217 HD
ENDBRANCH  24  29
BRANCH  25  31
HETATM   31  O   UNL     1     -25.852  -3.434  -9.931  1.00  0.00    -0.353 OA
HETATM   32  H   UNL     1     -26.049  -4.383 -10.024  1.00  0.00     0.218 HD
ENDBRANCH  25  31
ENDBRANCH  22  23
BRANCH  22  33
HETATM   33  O   UNL     1     -20.295  -3.757 -11.945  1.00  0.00    -0.390 OA
HETATM   34  H   UNL     1     -20.261  -4.320 -12.747  1.00  0.00     0.210 HD
ENDBRANCH  22  33
ENDBRANCH  21  22
ENDBRANCH  20  21
ENDBRANCH  18  20
ENDBRANCH   1  18
TORSDOF 22
ENDMDL
MODEL 8
REMARK VINA RESULT:      -6.8      1.591      3.573
REMARK  22 active torsions:
REMARK  status: ('A' for Active; 'I' for Inactive)
REMARK    1  A    between atoms: C_2  and  C_4 
REMARK    2  A    between atoms: C_4  and  C_5 
REMARK    3  A    between atoms: C_5  and  C_6 
REMARK    4  A    between atoms: C_6  and  C_7 
REMARK    5  A    between atoms: C_7  and  C_8 
REMARK    6  A    between atoms: C_8  and  C_9 
REMARK    7  A    between atoms: C_9  and  C_10 
REMARK    8  A    between atoms: C_10  and  C_11 
REMARK    9  A    between atoms: C_11  and  C_12 
REMARK   10  A    between atoms: C_12  and  C_13 
REMARK   11  A    between atoms: C_13  and  C_14 
REMARK   12  A    between atoms: C_14  and  C_15 
REMARK   13  A    between atoms: C_15  and  C_16 
REMARK   14  A    between atoms: C_16  and  C_17 
REMARK   15  A    between atoms: C_17  and  C_18 
REMARK   16  A    between atoms: C_18  and  O_20 
REMARK   17  A    between atoms: O_20  and  C_21 
REMARK   18  A    between atoms: C_21  and  C_22 
REMARK   19  A    between atoms: C_22  and  C_23 
REMARK   20  A    between atoms: C_22  and  O_31 
REMARK   21  A    between atoms: C_24  and  O_30 
REMARK   22  A    between atoms: C_25  and  O_29 
ROOT
HETATM    1  C   UNL     1     -20.127  -4.733  -9.797  1.00  0.00     0.111 C 
ENDROOT
BRANCH   1   2
HETATM    2  C   UNL     1     -20.141  -3.913  -8.510  1.00  0.00     0.010 C 
BRANCH   2   3
HETATM    3  C   UNL     1     -19.334  -4.553  -7.396  1.00  0.00     0.000 C 
BRANCH   3   4
HETATM    4  C   UNL     1     -20.231  -4.752  -6.180  1.00  0.00     0.000 C 
BRANCH   4   5
HETATM    5  C   UNL     1     -21.208  -5.888  -6.425  1.00  0.00     0.000 C 
BRANCH   5   6
HETATM    6  C   UNL     1     -21.751  -6.408  -5.106  1.00  0.00     0.000 C 
BRANCH   6   7
HETATM    7  C   UNL     1     -20.715  -7.291  -4.434  1.00  0.00     0.000 C 
BRANCH   7   8
HETATM    8  C   UNL     1     -21.120  -7.573  -3.000  1.00  0.00     0.000 C 
BRANCH   8   9
HETATM    9  C   UNL     1     -22.215  -6.612  -2.573  1.00  0.00     0.000 C 
BRANCH   9  10
HETATM   10  C   UNL     1     -22.132  -6.371  -1.078  1.00  0.00     0.000 C 
BRANCH  10  11
HETATM   11  C   UNL     1     -21.835  -7.672  -0.359  1.00  0.00     0.000 C 
BRANCH  11  12
HETATM   12  C   UNL     1     -23.110  -8.231   0.254  1.00  0.00     0.000 C 
BRANCH  12  13
HETATM   13  C   UNL     1     -23.280  -9.677  -0.173  1.00  0.00     0.000 C 
BRANCH  13  14
HETATM   14  C   UNL     1     -21.987 -10.461   0.010  1.00  0.00     0.004 C 
BRANCH  14  15
HETATM   15  C   UNL     1     -21.594 -11.234  -1.258  1.00  0.00    -0.023 C 
HETATM   16  C   UNL     1     -22.595 -10.935  -2.372  1.00  0.00     0.009 C 
HETATM   17  C   UNL     1     -20.177 -10.893  -1.723  1.00  0.00     0.009 C 
ENDBRANCH  14  15
ENDBRANCH  13  14
ENDBRANCH  12  13
ENDBRANCH  11  12
ENDBRANCH  10  11
ENDBRANCH   9  10
ENDBRANCH   8   9
ENDBRANCH   7   8
ENDBRANCH   6   7
ENDBRANCH   5   6
ENDBRANCH   4   5
ENDBRANCH   3   4
ENDBRANCH   2   3
ENDBRANCH   1   2
BRANCH   1  18
HETATM   18  C   UNL     1     -20.715  -3.938 -10.936  1.00  0.00     0.258 C 
HETATM   19  O   UNL     1     -20.320  -2.831 -11.278  1.00  0.00    -0.265 OA
BRANCH  18  20
HETATM   20  O   UNL     1     -21.787  -4.567 -11.496  1.00  0.00    -0.319 OA
BRANCH  20  21
HETATM   21  C   UNL     1     -23.030  -4.235 -10.864  1.00  0.00     0.213 C 
BRANCH  21  22
HETATM   22  C   UNL     1     -23.744  -3.059 -11.544  1.00  0.00     0.178 C 
BRANCH  22  23
HETATM   23  C   UNL     1     -23.933  -3.391 -13.041  1.00  0.00     0.222 C 
HETATM   24  C   UNL     1     -22.830  -2.988 -13.952  1.00  0.00     0.114 C 
HETATM   25  C   UNL     1     -23.186  -1.948 -14.694  1.00  0.00     0.173 C 
HETATM   26  C   UNL     1     -24.542  -1.596 -14.284  1.00  0.00     0.320 C 
HETATM   27  O   UNL     1     -25.128  -0.579 -14.571  1.00  0.00    -0.257 OA
HETATM   28  O   UNL     1     -25.036  -2.603 -13.514  1.00  0.00    -0.301 OA
BRANCH  24  29
HETATM   29  O   UNL     1     -21.649  -3.671 -14.068  1.00  0.00    -0.359 OA
HETATM   30  H   UNL     1     -21.454  -4.029 -13.184  1.00  0.00     0.217 HD
ENDBRANCH  24  29
BRANCH  25  31
HETATM   31  O   UNL     1     -22.481  -1.326 -15.670  1.00  0.00    -0.353 OA
HETATM   32  H   UNL     1     -21.982  -0.629 -15.205  1.00  0.00     0.218 HD
ENDBRANCH  25  31
ENDBRANCH  22  23
BRANCH  22  33
HETATM   33  O   UNL     1     -25.021  -2.839 -10.932  1.00  0.00    -0.390 OA
HETATM   34  H   UNL     1     -25.100  -3.560 -10.271  1.00  0.00     0.210 HD
ENDBRANCH  22  33
ENDBRANCH  21  22
ENDBRANCH  20  21
ENDBRANCH  18  20
ENDBRANCH   1  18
TORSDOF 22
ENDMDL
MODEL 9
REMARK VINA RESULT:      -6.7      1.343      3.230
REMARK  22 active torsions:
REMARK  status: ('A' for Active; 'I' for Inactive)
REMARK    1  A    between atoms: C_2  and  C_4 
REMARK    2  A    between atoms: C_4  and  C_5 
REMARK    3  A    between atoms: C_5  and  C_6 
REMARK    4  A    between atoms: C_6  and  C_7 
REMARK    5  A    between atoms: C_7  and  C_8 
REMARK    6  A    between atoms: C_8  and  C_9 
REMARK    7  A    between atoms: C_9  and  C_10 
REMARK    8  A    between atoms: C_10  and  C_11 
REMARK    9  A    between atoms: C_11  and  C_12 
REMARK   10  A    between atoms: C_12  and  C_13 
REMARK   11  A    between atoms: C_13  and  C_14 
REMARK   12  A    between atoms: C_14  and  C_15 
REMARK   13  A    between atoms: C_15  and  C_16 
REMARK   14  A    between atoms: C_16  and  C_17 
REMARK   15  A    between atoms: C_17  and  C_18 
REMARK   16  A    between atoms: C_18  and  O_20 
REMARK   17  A    between atoms: O_20  and  C_21 
REMARK   18  A    between atoms: C_21  and  C_22 
REMARK   19  A    between atoms: C_22  and  C_23 
REMARK   20  A    between atoms: C_22  and  O_31 
REMARK   21  A    between atoms: C_24  and  O_30 
REMARK   22  A    between atoms: C_25  and  O_29 
ROOT
HETATM    1  C   UNL     1     -21.532  -6.946  -6.042  1.00  0.00     0.111 C 
ENDROOT
BRANCH   1   2
HETATM    2  C   UNL     1     -21.068  -7.605  -4.746  1.00  0.00     0.010 C 
BRANCH   2   3
HETATM    3  C   UNL     1     -21.010  -9.117  -4.844  1.00  0.00     0.000 C 
BRANCH   3   4
HETATM    4  C   UNL     1     -21.100  -9.713  -3.444  1.00  0.00     0.000 C 
BRANCH   4   5
HETATM    5  C   UNL     1     -21.929 -10.984  -3.463  1.00  0.00     0.000 C 
BRANCH   5   6
HETATM    6  C   UNL     1     -23.079 -10.877  -2.476  1.00  0.00     0.000 C 
BRANCH   6   7
HETATM    7  C   UNL     1     -23.186 -12.159  -1.669  1.00  0.00     0.000 C 
BRANCH   7   8
HETATM    8  C   UNL     1     -21.996 -13.056  -1.955  1.00  0.00     0.000 C 
BRANCH   8   9
HETATM    9  C   UNL     1     -21.162 -13.225  -0.697  1.00  0.00     0.000 C 
BRANCH   9  10
HETATM   10  C   UNL     1     -19.782 -12.634  -0.914  1.00  0.00     0.000 C 
BRANCH  10  11
HETATM   11  C   UNL     1     -19.679 -11.291  -0.220  1.00  0.00     0.000 C 
BRANCH  11  12
HETATM   12  C   UNL     1     -20.794 -11.146   0.804  1.00  0.00     0.000 C 
BRANCH  12  13
HETATM   13  C   UNL     1     -20.957  -9.681   1.165  1.00  0.00     0.000 C 
BRANCH  13  14
HETATM   14  C   UNL     1     -21.061  -8.815  -0.083  1.00  0.00     0.004 C 
BRANCH  14  15
HETATM   15  C   UNL     1     -22.092  -7.688   0.079  1.00  0.00    -0.023 C 
HETATM   16  C   UNL     1     -22.263  -6.954  -1.249  1.00  0.00     0.009 C 
HETATM   17  C   UNL     1     -23.446  -8.214   0.562  1.00  0.00     0.009 C 
ENDBRANCH  14  15
ENDBRANCH  13  14
ENDBRANCH  12  13
ENDBRANCH  11  12
ENDBRANCH  10  11
ENDBRANCH   9  10
ENDBRANCH   8   9
ENDBRANCH   7   8
ENDBRANCH   6   7
ENDBRANCH   5   6
ENDBRANCH   4   5
ENDBRANCH   3   4
ENDBRANCH   2   3
ENDBRANCH   1   2
BRANCH   1  18
HETATM   18  C   UNL     1     -21.211  -5.472  -6.029  1.00  0.00     0.258 C 
HETATM   19  O   UNL     1     -20.264  -4.980  -5.431  1.00  0.00    -0.265 OA
BRANCH  18  20
HETATM   20  O   UNL     1     -22.144  -4.742  -6.704  1.00  0.00    -0.319 OA
BRANCH  20  21
HETATM   21  C   UNL     1     -21.637  -4.156  -7.911  1.00  0.00     0.213 C 
BRANCH  21  22
HETATM   22  C   UNL     1     -22.753  -3.702  -8.861  1.00  0.00     0.178 C 
BRANCH  22  23
HETATM   23  C   UNL     1     -22.726  -4.594 -10.122  1.00  0.00     0.222 C 
HETATM   24  C   UNL     1     -21.856  -4.136 -11.237  1.00  0.00     0.114 C 
HETATM   25  C   UNL     1     -22.582  -3.669 -12.244  1.00  0.00     0.173 C 
HETATM   26  C   UNL     1     -23.976  -3.771 -11.825  1.00  0.00     0.320 C 
HETATM   27  O   UNL     1     -24.920  -3.253 -12.373  1.00  0.00    -0.257 OA
HETATM   28  O   UNL     1     -24.037  -4.543 -10.706  1.00  0.00    -0.301 OA
BRANCH  24  29
HETATM   29  O   UNL     1     -20.494  -4.278 -11.247  1.00  0.00    -0.359 OA
HETATM   30  H   UNL     1     -20.301  -5.004 -11.866  1.00  0.00     0.217 HD
ENDBRANCH  24  29
BRANCH  25  31
HETATM   31  O   UNL     1     -22.161  -3.211 -13.447  1.00  0.00    -0.353 OA
HETATM   32  H   UNL     1     -22.412  -2.269 -13.452  1.00  0.00     0.218 HD
ENDBRANCH  25  31
ENDBRANCH  22  23
BRANCH  22  33
HETATM   33  O   UNL     1     -24.027  -3.818  -8.214  1.00  0.00    -0.390 OA
HETATM   34  H   UNL     1     -24.057  -3.053  -7.600  1.00  0.00     0.210 HD
ENDBRANCH  22  33
ENDBRANCH  21  22
ENDBRANCH  20  21
ENDBRANCH  18  20
ENDBRANCH   1  18
TORSDOF 22
ENDMDL
