MODEL 1
REMARK VINA RESULT:      -7.7      0.000      0.000
REMARK  13 active torsions:
REMARK  status: ('A' for Active; 'I' for Inactive)
REMARK    1  A    between atoms: C_2  and  C_3 
REMARK    2  A    between atoms: C_3  and  C_4 
REMARK    3  A    between atoms: C_4  and  C_5 
REMARK    4  A    between atoms: C_5  and  C_6 
REMARK    5  A    between atoms: C_6  and  C_7 
REMARK    6  A    between atoms: C_7  and  C_8 
REMARK    7  A    between atoms: C_8  and  C_9 
REMARK    8  A    between atoms: C_9  and  C_10 
REMARK    9  A    between atoms: C_10  and  C_11 
REMARK   10  A    between atoms: C_11  and  C_12 
REMARK   11  A    between atoms: C_12  and  C_13 
REMARK   12  A    between atoms: C_14  and  O_31 
REMARK   13  A    between atoms: C_15  and  N_20 
ROOT
HETATM    1  C   UNL     1     -20.019  -8.625  -3.694  1.00  0.00    -0.022 A 
HETATM    2  C   UNL     1     -20.082  -7.917  -4.908  1.00  0.00     0.102 A 
HETATM    3  C   UNL     1     -20.857  -6.753  -5.013  1.00  0.00     0.109 A 
HETATM    4  C   UNL     1     -21.540  -6.283  -3.870  1.00  0.00     0.043 A 
HETATM    5  C   UNL     1     -21.459  -6.965  -2.648  1.00  0.00    -0.059 A 
HETATM    6  C   UNL     1     -20.698  -8.132  -2.573  1.00  0.00     0.017 A 
HETATM    7  C   UNL     1     -22.175  -6.487  -1.422  1.00  0.00     0.048 C 
ENDROOT
BRANCH   1   8
HETATM    8  C   UNL     1     -19.281  -9.926  -3.552  1.00  0.00     0.041 C 
BRANCH   8   9
HETATM    9  C   UNL     1     -18.827 -10.168  -2.112  1.00  0.00     0.005 C 
BRANCH   9  10
HETATM   10  C   UNL     1     -19.482 -11.411  -1.513  1.00  0.00     0.000 C 
BRANCH  10  11
HETATM   11  C   UNL     1     -19.415 -11.407   0.010  1.00  0.00     0.000 C 
BRANCH  11  12
HETATM   12  C   UNL     1     -20.801 -11.326   0.628  1.00  0.00     0.000 C 
BRANCH  12  13
HETATM   13  C   UNL     1     -21.280  -9.880   0.618  1.00  0.00     0.000 C 
BRANCH  13  14
HETATM   14  C   UNL     1     -22.685  -9.792   0.050  1.00  0.00     0.000 C 
BRANCH  14  15
HETATM   15  C   UNL     1     -23.301 -11.179  -0.066  1.00  0.00     0.000 C 
BRANCH  15  16
HETATM   16  C   UNL     1     -23.988 -11.341  -1.416  1.00  0.00     0.000 C 
BRANCH  16  17
HETATM   17  C   UNL     1     -23.020 -11.031  -2.551  1.00  0.00    -0.000 C 
BRANCH  17  18
HETATM   18  C   UNL     1     -22.518 -12.317  -3.199  1.00  0.00    -0.005 C 
HETATM   19  C   UNL     1     -22.114 -12.074  -4.641  1.00  0.00     0.005 C 
ENDBRANCH  17  18
ENDBRANCH  16  17
ENDBRANCH  15  16
ENDBRANCH  14  15
ENDBRANCH  13  14
ENDBRANCH  12  13
ENDBRANCH  11  12
ENDBRANCH  10  11
ENDBRANCH   9  10
ENDBRANCH   8   9
ENDBRANCH   1   8
BRANCH   2  20
HETATM   20  O   UNL     1     -19.391  -8.389  -5.991  1.00  0.00    -0.358 OA
HETATM   21  H   UNL     1     -19.995  -8.722  -6.671  1.00  0.00     0.217 HD
ENDBRANCH   2  20
BRANCH   3  22
HETATM   22  N   UNL     1     -20.987  -6.029  -6.239  1.00  0.00    -0.193 N 
HETATM   23  N   UNL     1     -20.010  -5.982  -7.176  1.00  0.00    -0.277 N 
HETATM   24  C   UNL     1     -20.530  -5.231  -8.147  1.00  0.00     0.078 A 
ATOM     25  HN  UNL     1     -19.089  -6.421  -7.146  1.00  0.00     0.189 HD
HETATM   26  C   UNL     1     -19.956  -4.853  -9.372  1.00  0.00     0.033 A 
HETATM   27  C   UNL     1     -21.868  -4.820  -7.741  1.00  0.00     0.078 A 
HETATM   28  C   UNL     1     -20.778  -4.041 -10.173  1.00  0.00     0.002 A 
HETATM   29  C   UNL     1     -22.084  -3.635  -9.782  1.00  0.00     0.002 A 
HETATM   30  C   UNL     1     -22.676  -4.009  -8.558  1.00  0.00     0.033 A 
HETATM   31  N   UNL     1     -22.125  -5.337  -6.533  1.00  0.00    -0.277 N 
ATOM     32  HN  UNL     1     -22.969  -5.237  -5.968  1.00  0.00     0.189 HD
ENDBRANCH   3  22
TORSDOF 13
ENDMDL
MODEL 2
REMARK VINA RESULT:      -7.7      0.923      2.738
REMARK  13 active torsions:
REMARK  status: ('A' for Active; 'I' for Inactive)
REMARK    1  A    between atoms: C_2  and  C_3 
REMARK    2  A    between atoms: C_3  and  C_4 
REMARK    3  A    between atoms: C_4  and  C_5 
REMARK    4  A    between atoms: C_5  and  C_6 
REMARK    5  A    between atoms: C_6  and  C_7 
REMARK    6  A    between atoms: C_7  and  C_8 
REMARK    7  A    between atoms: C_8  and  C_9 
REMARK    8  A    between atoms: C_9  and  C_10 
REMARK    9  A    between atoms: C_10  and  C_11 
REMARK   10  A    between atoms: C_11  and  C_12 
REMARK   11  A    between atoms: C_12  and  C_13 
REMARK   12  A    between atoms: C_14  and  O_31 
REMARK   13  A    between atoms: C_15  and  N_20 
ROOT
HETATM    1  C   UNL     1     -20.059  -8.331  -3.789  1.00  0.00    -0.022 A 
HETATM    2  C   UNL     1     -20.111  -7.691  -5.041  1.00  0.00     0.102 A 
HETATM    3  C   UNL     1     -20.901  -6.547  -5.222  1.00  0.00     0.109 A 
HETATM    4  C   UNL     1     -21.611  -6.027  -4.117  1.00  0.00     0.043 A 
HETATM    5  C   UNL     1     -21.540  -6.640  -2.859  1.00  0.00    -0.059 A 
HETATM    6  C   UNL     1     -20.764  -7.789  -2.708  1.00  0.00     0.017 A 
HETATM    7  C   UNL     1     -22.285  -6.108  -1.673  1.00  0.00     0.048 C 
ENDROOT
BRANCH   1   8
HETATM    8  C   UNL     1     -19.304  -9.612  -3.565  1.00  0.00     0.041 C 
BRANCH   8   9
HETATM    9  C   UNL     1     -19.841 -10.385  -2.359  1.00  0.00     0.005 C 
BRANCH   9  10
HETATM   10  C   UNL     1     -20.377 -11.757  -2.759  1.00  0.00     0.000 C 
BRANCH  10  11
HETATM   11  C   UNL     1     -21.561 -11.645  -3.714  1.00  0.00     0.000 C 
BRANCH  11  12
HETATM   12  C   UNL     1     -22.747 -10.966  -3.053  1.00  0.00     0.000 C 
BRANCH  12  13
HETATM   13  C   UNL     1     -23.345 -11.893  -2.003  1.00  0.00     0.000 C 
BRANCH  13  14
HETATM   14  C   UNL     1     -23.824 -11.094  -0.803  1.00  0.00     0.000 C 
BRANCH  14  15
HETATM   15  C   UNL     1     -22.858  -9.958  -0.499  1.00  0.00     0.000 C 
BRANCH  15  16
HETATM   16  C   UNL     1     -23.529  -8.919   0.390  1.00  0.00     0.000 C 
BRANCH  16  17
HETATM   17  C   UNL     1     -22.486  -8.098   1.138  1.00  0.00    -0.000 C 
BRANCH  17  18
HETATM   18  C   UNL     1     -21.079  -8.593   0.821  1.00  0.00    -0.005 C 
HETATM   19  C   UNL     1     -20.475  -9.309   2.014  1.00  0.00     0.005 C 
ENDBRANCH  17  18
ENDBRANCH  16  17
ENDBRANCH  15  16
ENDBRANCH  14  15
ENDBRANCH  13  14
ENDBRANCH  12  13
ENDBRANCH  11  12
ENDBRANCH  10  11
ENDBRANCH   9  10
ENDBRANCH   8   9
ENDBRANCH   1   8
BRANCH   2  20
HETATM   20  O   UNL     1     -19.394  -8.210  -6.085  1.00  0.00    -0.358 OA
HETATM   21  H   UNL     1     -19.648  -7.794  -6.922  1.00  0.00     0.217 HD
ENDBRANCH   2  20
BRANCH   3  22
HETATM   22  N   UNL     1     -21.020  -5.892  -6.487  1.00  0.00    -0.193 N 
HETATM   23  N   UNL     1     -22.138  -5.236  -6.878  1.00  0.00    -0.277 N 
HETATM   24  C   UNL     1     -21.831  -4.768  -8.088  1.00  0.00     0.078 A 
ATOM     25  HN  UNL     1     -23.013  -5.126  -6.365  1.00  0.00     0.189 HD
HETATM   26  C   UNL     1     -22.620  -4.004  -8.964  1.00  0.00     0.033 A 
HETATM   27  C   UNL     1     -20.472  -5.183  -8.409  1.00  0.00     0.078 A 
HETATM   28  C   UNL     1     -21.992  -3.678 -10.178  1.00  0.00     0.002 A 
HETATM   29  C   UNL     1     -20.666  -4.082 -10.498  1.00  0.00     0.002 A 
HETATM   30  C   UNL     1     -19.860  -4.844  -9.629  1.00  0.00     0.033 A 
HETATM   31  N   UNL     1     -19.988  -5.892  -7.380  1.00  0.00    -0.277 N 
ATOM     32  HN  UNL     1     -19.070  -6.328  -7.287  1.00  0.00     0.189 HD
ENDBRANCH   3  22
TORSDOF 13
ENDMDL
MODEL 3
REMARK VINA RESULT:      -7.7      1.520      3.236
REMARK  13 active torsions:
REMARK  status: ('A' for Active; 'I' for Inactive)
REMARK    1  A    between atoms: C_2  and  C_3 
REMARK    2  A    between atoms: C_3  and  C_4 
REMARK    3  A    between atoms: C_4  and  C_5 
REMARK    4  A    between atoms: C_5  and  C_6 
REMARK    5  A    between atoms: C_6  and  C_7 
REMARK    6  A    between atoms: C_7  and  C_8 
REMARK    7  A    between atoms: C_8  and  C_9 
REMARK    8  A    between atoms: C_9  and  C_10 
REMARK    9  A    between atoms: C_10  and  C_11 
REMARK   10  A    between atoms: C_11  and  C_12 
REMARK   11  A    between atoms: C_12  and  C_13 
REMARK   12  A    between atoms: C_14  and  O_31 
REMARK   13  A    between atoms: C_15  and  N_20 
ROOT
HETATM    1  C   UNL     1     -21.267  -7.725  -1.739  1.00  0.00    -0.022 A 
HETATM    2  C   UNL     1     -21.540  -6.971  -2.896  1.00  0.00     0.102 A 
HETATM    3  C   UNL     1     -20.840  -7.217  -4.086  1.00  0.00     0.109 A 
HETATM    4  C   UNL     1     -19.887  -8.259  -4.113  1.00  0.00     0.043 A 
HETATM    5  C   UNL     1     -19.631  -9.034  -2.974  1.00  0.00    -0.059 A 
HETATM    6  C   UNL     1     -20.325  -8.758  -1.796  1.00  0.00     0.017 A 
HETATM    7  C   UNL     1     -18.624 -10.143  -2.979  1.00  0.00     0.048 C 
ENDROOT
BRANCH   1   8
HETATM    8  C   UNL     1     -21.920  -7.441  -0.415  1.00  0.00     0.041 C 
BRANCH   8   9
HETATM    9  C   UNL     1     -22.164  -8.722   0.384  1.00  0.00     0.005 C 
BRANCH   9  10
HETATM   10  C   UNL     1     -23.625  -9.161   0.320  1.00  0.00     0.000 C 
BRANCH  10  11
HETATM   11  C   UNL     1     -23.758 -10.629  -0.069  1.00  0.00     0.000 C 
BRANCH  11  12
HETATM   12  C   UNL     1     -22.402 -11.310  -0.142  1.00  0.00     0.000 C 
BRANCH  12  13
HETATM   13  C   UNL     1     -22.216 -11.928  -1.521  1.00  0.00     0.000 C 
BRANCH  13  14
HETATM   14  C   UNL     1     -23.267 -11.402  -2.483  1.00  0.00     0.000 C 
BRANCH  14  15
HETATM   15  C   UNL     1     -22.612 -10.871  -3.750  1.00  0.00     0.000 C 
BRANCH  15  16
HETATM   16  C   UNL     1     -21.677 -11.918  -4.340  1.00  0.00     0.000 C 
BRANCH  16  17
HETATM   17  C   UNL     1     -22.191 -12.396  -5.692  1.00  0.00    -0.000 C 
BRANCH  17  18
HETATM   18  C   UNL     1     -21.180 -12.094  -6.792  1.00  0.00    -0.005 C 
HETATM   19  C   UNL     1     -19.875 -11.590  -6.205  1.00  0.00     0.005 C 
ENDBRANCH  17  18
ENDBRANCH  16  17
ENDBRANCH  15  16
ENDBRANCH  14  15
ENDBRANCH  13  14
ENDBRANCH  12  13
ENDBRANCH  11  12
ENDBRANCH  10  11
ENDBRANCH   9  10
ENDBRANCH   8   9
ENDBRANCH   1   8
BRANCH   2  20
HETATM   20  O   UNL     1     -22.485  -5.982  -2.840  1.00  0.00    -0.358 OA
HETATM   21  H   UNL     1     -23.284  -6.237  -3.323  1.00  0.00     0.217 HD
ENDBRANCH   2  20
BRANCH   3  22
HETATM   22  N   UNL     1     -21.052  -6.445  -5.271  1.00  0.00    -0.193 N 
HETATM   23  N   UNL     1     -22.212  -5.797  -5.532  1.00  0.00    -0.277 N 
HETATM   24  C   UNL     1     -21.990  -5.200  -6.704  1.00  0.00     0.078 A 
ATOM     25  HN  UNL     1     -23.059  -5.771  -4.964  1.00  0.00     0.189 HD
HETATM   26  C   UNL     1     -22.853  -4.384  -7.454  1.00  0.00     0.033 A 
HETATM   27  C   UNL     1     -20.640  -5.530  -7.138  1.00  0.00     0.078 A 
HETATM   28  C   UNL     1     -22.307  -3.916  -8.661  1.00  0.00     0.002 A 
HETATM   29  C   UNL     1     -20.989  -4.236  -9.092  1.00  0.00     0.002 A 
HETATM   30  C   UNL     1     -20.110  -5.050  -8.349  1.00  0.00     0.033 A 
HETATM   31  N   UNL     1     -20.075  -6.319  -6.214  1.00  0.00    -0.277 N 
ATOM     32  HN  UNL     1     -19.139  -6.727  -6.215  1.00  0.00     0.189 HD
ENDBRANCH   3  22
TORSDOF 13
ENDMDL
MODEL 4
REMARK VINA RESULT:      -7.3      1.561      2.901
REMARK  13 active torsions:
REMARK  status: ('A' for Active; 'I' for Inactive)
REMARK    1  A    between atoms: C_2  and  C_3 
REMARK    2  A    between atoms: C_3  and  C_4 
REMARK    3  A    between atoms: C_4  and  C_5 
REMARK    4  A    between atoms: C_5  and  C_6 
REMARK    5  A    between atoms: C_6  and  C_7 
REMARK    6  A    between atoms: C_7  and  C_8 
REMARK    7  A    between atoms: C_8  and  C_9 
REMARK    8  A    between atoms: C_9  and  C_10 
REMARK    9  A    between atoms: C_10  and  C_11 
REMARK   10  A    between atoms: C_11  and  C_12 
REMARK   11  A    between atoms: C_12  and  C_13 
REMARK   12  A    between atoms: C_14  and  O_31 
REMARK   13  A    between atoms: C_15  and  N_20 
ROOT
HETATM    1  C   UNL     1     -21.358  -7.731  -1.729  1.00  0.00    -0.022 A 
HETATM    2  C   UNL     1     -21.589  -6.962  -2.884  1.00  0.00     0.102 A 
HETATM    3  C   UNL     1     -20.866  -7.210  -4.060  1.00  0.00     0.109 A 
HETATM    4  C   UNL     1     -19.931  -8.268  -4.075  1.00  0.00     0.043 A 
HETATM    5  C   UNL     1     -19.717  -9.059  -2.938  1.00  0.00    -0.059 A 
HETATM    6  C   UNL     1     -20.433  -8.782  -1.774  1.00  0.00     0.017 A 
HETATM    7  C   UNL     1     -18.730 -10.187  -2.929  1.00  0.00     0.048 C 
ENDROOT
BRANCH   1   8
HETATM    8  C   UNL     1     -22.037  -7.448  -0.418  1.00  0.00     0.041 C 
BRANCH   8   9
HETATM    9  C   UNL     1     -22.235  -8.721   0.406  1.00  0.00     0.005 C 
BRANCH   9  10
HETATM   10  C   UNL     1     -23.604  -9.350   0.155  1.00  0.00     0.000 C 
BRANCH  10  11
HETATM   11  C   UNL     1     -23.501 -10.853  -0.080  1.00  0.00     0.000 C 
BRANCH  11  12
HETATM   12  C   UNL     1     -22.095 -11.362   0.185  1.00  0.00     0.000 C 
BRANCH  12  13
HETATM   13  C   UNL     1     -22.164 -12.650   0.995  1.00  0.00     0.000 C 
BRANCH  13  14
HETATM   14  C   UNL     1     -21.504 -13.788   0.236  1.00  0.00     0.000 C 
BRANCH  14  15
HETATM   15  C   UNL     1     -20.791 -13.261  -1.001  1.00  0.00     0.000 C 
BRANCH  15  16
HETATM   16  C   UNL     1     -21.209 -14.057  -2.230  1.00  0.00     0.000 C 
BRANCH  16  17
HETATM   17  C   UNL     1     -22.323 -13.338  -2.982  1.00  0.00    -0.000 C 
BRANCH  17  18
HETATM   18  C   UNL     1     -21.795 -12.074  -3.650  1.00  0.00    -0.005 C 
HETATM   19  C   UNL     1     -22.833 -10.968  -3.613  1.00  0.00     0.005 C 
ENDBRANCH  17  18
ENDBRANCH  16  17
ENDBRANCH  15  16
ENDBRANCH  14  15
ENDBRANCH  13  14
ENDBRANCH  12  13
ENDBRANCH  11  12
ENDBRANCH  10  11
ENDBRANCH   9  10
ENDBRANCH   8   9
ENDBRANCH   1   8
BRANCH   2  20
HETATM   20  O   UNL     1     -22.517  -5.956  -2.841  1.00  0.00    -0.358 OA
HETATM   21  H   UNL     1     -22.816  -5.720  -3.731  1.00  0.00     0.217 HD
ENDBRANCH   2  20
BRANCH   3  22
HETATM   22  N   UNL     1     -21.036  -6.423  -5.242  1.00  0.00    -0.193 N 
HETATM   23  N   UNL     1     -20.055  -6.246  -6.158  1.00  0.00    -0.277 N 
HETATM   24  C   UNL     1     -20.620  -5.478  -7.090  1.00  0.00     0.078 A 
ATOM     25  HN  UNL     1     -19.104  -6.614  -6.140  1.00  0.00     0.189 HD
HETATM   26  C   UNL     1     -20.063  -4.983  -8.281  1.00  0.00     0.033 A 
HETATM   27  C   UNL     1     -21.989  -5.195  -6.683  1.00  0.00     0.078 A 
HETATM   28  C   UNL     1     -20.935  -4.188  -9.044  1.00  0.00     0.002 A 
HETATM   29  C   UNL     1     -22.273  -3.908  -8.651  1.00  0.00     0.002 A 
HETATM   30  C   UNL     1     -22.848  -4.399  -7.462  1.00  0.00     0.033 A 
HETATM   31  N   UNL     1     -22.221  -5.804  -5.512  1.00  0.00    -0.277 N 
ATOM     32  HN  UNL     1     -23.076  -5.803  -4.956  1.00  0.00     0.189 HD
ENDBRANCH   3  22
TORSDOF 13
ENDMDL
MODEL 5
REMARK VINA RESULT:      -7.2      1.127      2.395
REMARK  13 active torsions:
REMARK  status: ('A' for Active; 'I' for Inactive)
REMARK    1  A    between atoms: C_2  and  C_3 
REMARK    2  A    between atoms: C_3  and  C_4 
REMARK    3  A    between atoms: C_4  and  C_5 
REMARK    4  A    between atoms: C_5  and  C_6 
REMARK    5  A    between atoms: C_6  and  C_7 
REMARK    6  A    between atoms: C_7  and  C_8 
REMARK    7  A    between atoms: C_8  and  C_9 
REMARK    8  A    between atoms: C_9  and  C_10 
REMARK    9  A    between atoms: C_10  and  C_11 
REMARK   10  A    between atoms: C_11  and  C_12 
REMARK   11  A    between atoms: C_12  and  C_13 
REMARK   12  A    between atoms: C_14  and  O_31 
REMARK   13  A    between atoms: C_15  and  N_20 
ROOT
HETATM    1  C   UNL     1     -19.942  -8.527  -3.656  1.00  0.00    -0.022 A 
HETATM    2  C   UNL     1     -20.049  -7.834  -4.876  1.00  0.00     0.102 A 
HETATM    3  C   UNL     1     -20.898  -6.723  -4.989  1.00  0.00     0.109 A 
HETATM    4  C   UNL     1     -21.611  -6.291  -3.850  1.00  0.00     0.043 A 
HETATM    5  C   UNL     1     -21.487  -6.958  -2.624  1.00  0.00    -0.059 A 
HETATM    6  C   UNL     1     -20.652  -8.072  -2.539  1.00  0.00     0.017 A 
HETATM    7  C   UNL     1     -22.235  -6.519  -1.402  1.00  0.00     0.048 C 
ENDROOT
BRANCH   1   8
HETATM    8  C   UNL     1     -19.120  -9.777  -3.505  1.00  0.00     0.041 C 
BRANCH   8   9
HETATM    9  C   UNL     1     -17.813  -9.511  -2.757  1.00  0.00     0.005 C 
BRANCH   9  10
HETATM   10  C   UNL     1     -16.834 -10.675  -2.894  1.00  0.00     0.000 C 
BRANCH  10  11
HETATM   11  C   UNL     1     -16.497 -11.293  -1.542  1.00  0.00     0.000 C 
BRANCH  11  12
HETATM   12  C   UNL     1     -17.360 -12.510  -1.257  1.00  0.00     0.000 C 
BRANCH  12  13
HETATM   13  C   UNL     1     -18.183 -12.268   0.001  1.00  0.00     0.000 C 
BRANCH  13  14
HETATM   14  C   UNL     1     -19.650 -12.096  -0.352  1.00  0.00     0.000 C 
BRANCH  14  15
HETATM   15  C   UNL     1     -20.126 -10.696   0.011  1.00  0.00     0.000 C 
BRANCH  15  16
HETATM   16  C   UNL     1     -21.644 -10.666   0.119  1.00  0.00     0.000 C 
BRANCH  16  17
HETATM   17  C   UNL     1     -22.175 -12.011   0.600  1.00  0.00    -0.000 C 
BRANCH  17  18
HETATM   18  C   UNL     1     -23.637 -12.187   0.206  1.00  0.00    -0.005 C 
HETATM   19  C   UNL     1     -23.977 -11.341  -1.007  1.00  0.00     0.005 C 
ENDBRANCH  17  18
ENDBRANCH  16  17
ENDBRANCH  15  16
ENDBRANCH  14  15
ENDBRANCH  13  14
ENDBRANCH  12  13
ENDBRANCH  11  12
ENDBRANCH  10  11
ENDBRANCH   9  10
ENDBRANCH   8   9
ENDBRANCH   1   8
BRANCH   2  20
HETATM   20  O   UNL     1     -19.327  -8.267  -5.955  1.00  0.00    -0.358 OA
HETATM   21  H   UNL     1     -19.697  -7.924  -6.781  1.00  0.00     0.217 HD
ENDBRANCH   2  20
BRANCH   3  22
HETATM   22  N   UNL     1     -21.072  -6.017  -6.220  1.00  0.00    -0.193 N 
HETATM   23  N   UNL     1     -22.208  -5.353  -6.537  1.00  0.00    -0.277 N 
HETATM   24  C   UNL     1     -21.954  -4.833  -7.738  1.00  0.00     0.078 A 
ATOM     25  HN  UNL     1     -23.062  -5.270  -5.985  1.00  0.00     0.189 HD
HETATM   26  C   UNL     1     -22.783  -4.039  -8.548  1.00  0.00     0.033 A 
HETATM   27  C   UNL     1     -20.607  -5.225  -8.131  1.00  0.00     0.078 A 
HETATM   28  C   UNL     1     -22.207  -3.658  -9.772  1.00  0.00     0.002 A 
HETATM   29  C   UNL     1     -20.893  -4.039 -10.163  1.00  0.00     0.002 A 
HETATM   30  C   UNL     1     -20.048  -4.832  -9.360  1.00  0.00     0.033 A 
HETATM   31  N   UNL     1     -20.078  -5.973  -7.155  1.00  0.00    -0.277 N 
ATOM     32  HN  UNL     1     -19.155  -6.406  -7.118  1.00  0.00     0.189 HD
ENDBRANCH   3  22
TORSDOF 13
ENDMDL
MODEL 6
REMARK VINA RESULT:      -7.1      1.714      3.823
REMARK  13 active torsions:
REMARK  status: ('A' for Active; 'I' for Inactive)
REMARK    1  A    between atoms: C_2  and  C_3 
REMARK    2  A    between atoms: C_3  and  C_4 
REMARK    3  A    between atoms: C_4  and  C_5 
REMARK    4  A    between atoms: C_5  and  C_6 
REMARK    5  A    between atoms: C_6  and  C_7 
REMARK    6  A    between atoms: C_7  and  C_8 
REMARK    7  A    between atoms: C_8  and  C_9 
REMARK    8  A    between atoms: C_9  and  C_10 
REMARK    9  A    between atoms: C_10  and  C_11 
REMARK   10  A    between atoms: C_11  and  C_12 
REMARK   11  A    between atoms: C_12  and  C_13 
REMARK   12  A    between atoms: C_14  and  O_31 
REMARK   13  A    between atoms: C_15  and  N_20 
ROOT
HETATM    1  C   UNL     1     -21.117  -8.011  -1.806  1.00  0.00    -0.022 A 
HETATM    2  C   UNL     1     -21.380  -7.173  -2.906  1.00  0.00     0.102 A 
HETATM    3  C   UNL     1     -20.767  -7.412  -4.144  1.00  0.00     0.109 A 
HETATM    4  C   UNL     1     -19.913  -8.529  -4.278  1.00  0.00     0.043 A 
HETATM    5  C   UNL     1     -19.670  -9.386  -3.196  1.00  0.00    -0.059 A 
HETATM    6  C   UNL     1     -20.275  -9.117  -1.969  1.00  0.00     0.017 A 
HETATM    7  C   UNL     1     -18.767 -10.576  -3.313  1.00  0.00     0.048 C 
ENDROOT
BRANCH   1   8
HETATM    8  C   UNL     1     -21.674  -7.746  -0.435  1.00  0.00     0.041 C 
BRANCH   8   9
HETATM    9  C   UNL     1     -22.041  -9.043   0.289  1.00  0.00     0.005 C 
BRANCH   9  10
HETATM   10  C   UNL     1     -23.531  -9.354   0.173  1.00  0.00     0.000 C 
BRANCH  10  11
HETATM   11  C   UNL     1     -23.778 -10.690  -0.518  1.00  0.00     0.000 C 
BRANCH  11  12
HETATM   12  C   UNL     1     -23.445 -11.858   0.395  1.00  0.00     0.000 C 
BRANCH  12  13
HETATM   13  C   UNL     1     -22.406 -12.748  -0.275  1.00  0.00     0.000 C 
BRANCH  13  14
HETATM   14  C   UNL     1     -21.095 -12.697   0.488  1.00  0.00     0.000 C 
BRANCH  14  15
HETATM   15  C   UNL     1     -19.922 -12.566  -0.474  1.00  0.00     0.000 C 
BRANCH  15  16
HETATM   16  C   UNL     1     -18.747 -11.888   0.216  1.00  0.00     0.000 C 
BRANCH  16  17
HETATM   17  C   UNL     1     -17.427 -12.473  -0.272  1.00  0.00    -0.000 C 
BRANCH  17  18
HETATM   18  C   UNL     1     -16.271 -12.001   0.602  1.00  0.00    -0.005 C 
HETATM   19  C   UNL     1     -16.064 -12.937   1.778  1.00  0.00     0.005 C 
ENDBRANCH  17  18
ENDBRANCH  16  17
ENDBRANCH  15  16
ENDBRANCH  14  15
ENDBRANCH  13  14
ENDBRANCH  12  13
ENDBRANCH  11  12
ENDBRANCH  10  11
ENDBRANCH   9  10
ENDBRANCH   8   9
ENDBRANCH   1   8
BRANCH   2  20
HETATM   20  O   UNL     1     -22.229  -6.111  -2.747  1.00  0.00    -0.358 OA
HETATM   21  H   UNL     1     -23.130  -6.411  -2.559  1.00  0.00     0.217 HD
ENDBRANCH   2  20
BRANCH   3  22
HETATM   22  N   UNL     1     -20.969  -6.560  -5.275  1.00  0.00    -0.193 N 
HETATM   23  N   UNL     1     -20.015  -6.330  -6.207  1.00  0.00    -0.277 N 
HETATM   24  C   UNL     1     -20.605  -5.511  -7.078  1.00  0.00     0.078 A 
ATOM     25  HN  UNL     1     -19.064  -6.699  -6.237  1.00  0.00     0.189 HD
HETATM   26  C   UNL     1     -20.082  -4.950  -8.254  1.00  0.00     0.033 A 
HETATM   27  C   UNL     1     -21.962  -5.253  -6.616  1.00  0.00     0.078 A 
HETATM   28  C   UNL     1     -20.974  -4.114  -8.946  1.00  0.00     0.002 A 
HETATM   29  C   UNL     1     -22.300  -3.856  -8.500  1.00  0.00     0.002 A 
HETATM   30  C   UNL     1     -22.842  -4.415  -7.325  1.00  0.00     0.033 A 
HETATM   31  N   UNL     1     -22.161  -5.927  -5.475  1.00  0.00    -0.277 N 
ATOM     32  HN  UNL     1     -23.000  -5.958  -4.896  1.00  0.00     0.189 HD
ENDBRANCH   3  22
TORSDOF 13
ENDMDL
MODEL 7
REMARK VINA RESULT:      -6.8      2.403      4.424
REMARK  13 active torsions:
REMARK  status: ('A' for Active; 'I' for Inactive)
REMARK    1  A    between atoms: C_2  and  C_3 
REMARK    2  A    between atoms: C_3  and  C_4 
REMARK    3  A    between atoms: C_4  and  C_5 
REMARK    4  A    between atoms: C_5  and  C_6 
REMARK    5  A    between atoms: C_6  and  C_7 
REMARK    6  A    between atoms: C_7  and  C_8 
REMARK    7  A    between atoms: C_8  and  C_9 
REMARK    8  A    between atoms: C_9  and  C_10 
REMARK    9  A    between atoms: C_10  and  C_11 
REMARK   10  A    between atoms: C_11  and  C_12 
REMARK   11  A    between atoms: C_12  and  C_13 
REMARK   12  A    between atoms: C_14  and  O_31 
REMARK   13  A    between atoms: C_15  and  N_20 
ROOT
HETATM    1  C   UNL     1     -20.927  -5.268  -6.160  1.00  0.00    -0.022 A 
HETATM    2  C   UNL     1     -21.675  -4.961  -7.312  1.00  0.00     0.102 A 
HETATM    3  C   UNL     1     -21.056  -4.376  -8.426  1.00  0.00     0.109 A 
HETATM    4  C   UNL     1     -19.664  -4.137  -8.386  1.00  0.00     0.043 A 
HETATM    5  C   UNL     1     -18.907  -4.468  -7.254  1.00  0.00    -0.059 A 
HETATM    6  C   UNL     1     -19.547  -5.031  -6.151  1.00  0.00     0.017 A 
HETATM    7  C   UNL     1     -17.430  -4.222  -7.188  1.00  0.00     0.048 C 
ENDROOT
BRANCH   1   8
HETATM    8  C   UNL     1     -21.556  -5.809  -4.907  1.00  0.00     0.041 C 
BRANCH   8   9
HETATM    9  C   UNL     1     -21.418  -7.330  -4.812  1.00  0.00     0.005 C 
BRANCH   9  10
HETATM   10  C   UNL     1     -20.667  -7.753  -3.552  1.00  0.00     0.000 C 
BRANCH  10  11
HETATM   11  C   UNL     1     -21.618  -8.231  -2.461  1.00  0.00     0.000 C 
BRANCH  11  12
HETATM   12  C   UNL     1     -22.181  -7.066  -1.665  1.00  0.00     0.000 C 
BRANCH  12  13
HETATM   13  C   UNL     1     -22.145  -7.399  -0.179  1.00  0.00     0.000 C 
BRANCH  13  14
HETATM   14  C   UNL     1     -20.932  -8.254   0.142  1.00  0.00     0.000 C 
BRANCH  14  15
HETATM   15  C   UNL     1     -21.258  -9.249   1.248  1.00  0.00     0.000 C 
BRANCH  15  16
HETATM   16  C   UNL     1     -20.722 -10.629   0.892  1.00  0.00     0.000 C 
BRANCH  16  17
HETATM   17  C   UNL     1     -21.501 -11.222  -0.276  1.00  0.00    -0.000 C 
BRANCH  17  18
HETATM   18  C   UNL     1     -22.836 -11.785   0.196  1.00  0.00    -0.005 C 
HETATM   19  C   UNL     1     -23.981 -10.874  -0.206  1.00  0.00     0.005 C 
ENDBRANCH  17  18
ENDBRANCH  16  17
ENDBRANCH  15  16
ENDBRANCH  14  15
ENDBRANCH  13  14
ENDBRANCH  12  13
ENDBRANCH  11  12
ENDBRANCH  10  11
ENDBRANCH   9  10
ENDBRANCH   8   9
ENDBRANCH   1   8
BRANCH   2  20
HETATM   20  O   UNL     1     -23.018  -5.225  -7.325  1.00  0.00    -0.358 OA
HETATM   21  H   UNL     1     -23.360  -5.245  -8.231  1.00  0.00     0.217 HD
ENDBRANCH   2  20
BRANCH   3  22
HETATM   22  N   UNL     1     -21.785  -4.005  -9.599  1.00  0.00    -0.193 N 
HETATM   23  N   UNL     1     -21.204  -3.852 -10.812  1.00  0.00    -0.277 N 
HETATM   24  C   UNL     1     -22.217  -3.526 -11.616  1.00  0.00     0.078 A 
ATOM     25  HN  UNL     1     -20.219  -3.960 -11.056  1.00  0.00     0.189 HD
HETATM   26  C   UNL     1     -22.197  -3.254 -12.994  1.00  0.00     0.033 A 
HETATM   27  C   UNL     1     -23.437  -3.483 -10.820  1.00  0.00     0.078 A 
HETATM   28  C   UNL     1     -23.451  -2.932 -13.541  1.00  0.00     0.002 A 
HETATM   29  C   UNL     1     -24.645  -2.887 -12.770  1.00  0.00     0.002 A 
HETATM   30  C   UNL     1     -24.683  -3.161 -11.388  1.00  0.00     0.033 A 
HETATM   31  N   UNL     1     -23.131  -3.788  -9.553  1.00  0.00    -0.277 N 
ATOM     32  HN  UNL     1     -23.754  -3.843  -8.746  1.00  0.00     0.189 HD
ENDBRANCH   3  22
TORSDOF 13
ENDMDL
MODEL 8
REMARK VINA RESULT:      -6.8      1.624      2.737
REMARK  13 active torsions:
REMARK  status: ('A' for Active; 'I' for Inactive)
REMARK    1  A    between atoms: C_2  and  C_3 
REMARK    2  A    between atoms: C_3  and  C_4 
REMARK    3  A    between atoms: C_4  and  C_5 
REMARK    4  A    between atoms: C_5  and  C_6 
REMARK    5  A    between atoms: C_6  and  C_7 
REMARK    6  A    between atoms: C_7  and  C_8 
REMARK    7  A    between atoms: C_8  and  C_9 
REMARK    8  A    between atoms: C_9  and  C_10 
REMARK    9  A    between atoms: C_10  and  C_11 
REMARK   10  A    between atoms: C_11  and  C_12 
REMARK   11  A    between atoms: C_12  and  C_13 
REMARK   12  A    between atoms: C_14  and  O_31 
REMARK   13  A    between atoms: C_15  and  N_20 
ROOT
HETATM    1  C   UNL     1     -20.026  -8.505  -3.716  1.00  0.00    -0.022 A 
HETATM    2  C   UNL     1     -20.081  -7.830  -4.949  1.00  0.00     0.102 A 
HETATM    3  C   UNL     1     -20.845  -6.662  -5.086  1.00  0.00     0.109 A 
HETATM    4  C   UNL     1     -21.525  -6.155  -3.957  1.00  0.00     0.043 A 
HETATM    5  C   UNL     1     -21.451  -6.805  -2.718  1.00  0.00    -0.059 A 
HETATM    6  C   UNL     1     -20.701  -7.976  -2.610  1.00  0.00     0.017 A 
HETATM    7  C   UNL     1     -22.164  -6.288  -1.506  1.00  0.00     0.048 C 
ENDROOT
BRANCH   1   8
HETATM    8  C   UNL     1     -19.299  -9.809  -3.539  1.00  0.00     0.041 C 
BRANCH   8   9
HETATM    9  C   UNL     1     -20.022 -10.733  -2.557  1.00  0.00     0.005 C 
BRANCH   9  10
HETATM   10  C   UNL     1     -21.086 -11.578  -3.253  1.00  0.00     0.000 C 
BRANCH  10  11
HETATM   11  C   UNL     1     -22.495 -11.099  -2.921  1.00  0.00     0.000 C 
BRANCH  11  12
HETATM   12  C   UNL     1     -23.228 -12.096  -2.041  1.00  0.00     0.000 C 
BRANCH  12  13
HETATM   13  C   UNL     1     -23.730 -11.395  -0.785  1.00  0.00     0.000 C 
BRANCH  13  14
HETATM   14  C   UNL     1     -22.653 -11.391   0.284  1.00  0.00     0.000 C 
BRANCH  14  15
HETATM   15  C   UNL     1     -22.432 -12.796   0.826  1.00  0.00     0.000 C 
BRANCH  15  16
HETATM   16  C   UNL     1     -23.697 -13.304   1.506  1.00  0.00     0.000 C 
BRANCH  16  17
HETATM   17  C   UNL     1     -23.388 -14.510   2.383  1.00  0.00    -0.000 C 
BRANCH  17  18
HETATM   18  C   UNL     1     -21.979 -14.414   2.957  1.00  0.00    -0.005 C 
HETATM   19  C   UNL     1     -21.226 -15.718   2.766  1.00  0.00     0.005 C 
ENDBRANCH  17  18
ENDBRANCH  16  17
ENDBRANCH  15  16
ENDBRANCH  14  15
ENDBRANCH  13  14
ENDBRANCH  12  13
ENDBRANCH  11  12
ENDBRANCH  10  11
ENDBRANCH   9  10
ENDBRANCH   8   9
ENDBRANCH   1   8
BRANCH   2  20
HETATM   20  O   UNL     1     -19.393  -8.337  -6.019  1.00  0.00    -0.358 OA
HETATM   21  H   UNL     1     -18.828  -7.661  -6.421  1.00  0.00     0.217 HD
ENDBRANCH   2  20
BRANCH   3  22
HETATM   22  N   UNL     1     -20.966  -5.969  -6.332  1.00  0.00    -0.193 N 
HETATM   23  N   UNL     1     -19.988  -5.957  -7.268  1.00  0.00    -0.277 N 
HETATM   24  C   UNL     1     -20.500  -5.227  -8.260  1.00  0.00     0.078 A 
ATOM     25  HN  UNL     1     -19.072  -6.404  -7.225  1.00  0.00     0.189 HD
HETATM   26  C   UNL     1     -19.922  -4.888  -9.494  1.00  0.00     0.033 A 
HETATM   27  C   UNL     1     -21.834  -4.793  -7.867  1.00  0.00     0.078 A 
HETATM   28  C   UNL     1     -20.735  -4.090 -10.317  1.00  0.00     0.002 A 
HETATM   29  C   UNL     1     -22.037  -3.661  -9.939  1.00  0.00     0.002 A 
HETATM   30  C   UNL     1     -22.633  -3.996  -8.706  1.00  0.00     0.033 A 
HETATM   31  N   UNL     1     -22.098  -5.275  -6.645  1.00  0.00    -0.277 N 
ATOM     32  HN  UNL     1     -22.941  -5.152  -6.084  1.00  0.00     0.189 HD
ENDBRANCH   3  22
TORSDOF 13
ENDMDL
MODEL 9
REMARK VINA RESULT:      -6.8      2.977      8.913
REMARK  13 active torsions:
REMARK  status: ('A' for Active; 'I' for Inactive)
REMARK    1  A    between atoms: C_2  and  C_3 
REMARK    2  A    between atoms: C_3  and  C_4 
REMARK    3  A    between atoms: C_4  and  C_5 
REMARK    4  A    between atoms: C_5  and  C_6 
REMARK    5  A    between atoms: C_6  and  C_7 
REMARK    6  A    between atoms: C_7  and  C_8 
REMARK    7  A    between atoms: C_8  and  C_9 
REMARK    8  A    between atoms: C_9  and  C_10 
REMARK    9  A    between atoms: C_10  and  C_11 
REMARK   10  A    between atoms: C_11  and  C_12 
REMARK   11  A    between atoms: C_12  and  C_13 
REMARK   12  A    between atoms: C_14  and  O_31 
REMARK   13  A    between atoms: C_15  and  N_20 
ROOT
HETATM    1  C   UNL     1     -21.278  -7.271  -3.607  1.00  0.00    -0.022 A 
HETATM    2  C   UNL     1     -20.241  -8.222  -3.604  1.00  0.00     0.102 A 
HETATM    3  C   UNL     1     -19.880  -8.875  -2.416  1.00  0.00     0.109 A 
HETATM    4  C   UNL     1     -20.600  -8.590  -1.235  1.00  0.00     0.043 A 
HETATM    5  C   UNL     1     -21.654  -7.666  -1.236  1.00  0.00    -0.059 A 
HETATM    6  C   UNL     1     -21.982  -7.014  -2.425  1.00  0.00     0.017 A 
HETATM    7  C   UNL     1     -22.431  -7.345   0.004  1.00  0.00     0.048 C 
ENDROOT
BRANCH   1   8
HETATM    8  C   UNL     1     -21.643  -6.475  -4.830  1.00  0.00     0.041 C 
BRANCH   8   9
HETATM    9  C   UNL     1     -20.751  -5.244  -4.993  1.00  0.00     0.005 C 
BRANCH   9  10
HETATM   10  C   UNL     1     -19.949  -5.294  -6.292  1.00  0.00     0.000 C 
BRANCH  10  11
HETATM   11  C   UNL     1     -20.818  -5.696  -7.478  1.00  0.00     0.000 C 
BRANCH  11  12
HETATM   12  C   UNL     1     -21.916  -4.679  -7.733  1.00  0.00     0.000 C 
BRANCH  12  13
HETATM   13  C   UNL     1     -21.492  -3.742  -8.855  1.00  0.00     0.000 C 
BRANCH  13  14
HETATM   14  C   UNL     1     -20.299  -4.314  -9.600  1.00  0.00     0.000 C 
BRANCH  14  15
HETATM   15  C   UNL     1     -20.473  -4.136 -11.102  1.00  0.00     0.000 C 
BRANCH  15  16
HETATM   16  C   UNL     1     -21.283  -2.881 -11.395  1.00  0.00     0.000 C 
BRANCH  16  17
HETATM   17  C   UNL     1     -22.347  -3.161 -12.449  1.00  0.00    -0.000 C 
BRANCH  17  18
HETATM   18  C   UNL     1     -23.687  -3.475 -11.794  1.00  0.00    -0.005 C 
HETATM   19  C   UNL     1     -23.796  -4.952 -11.462  1.00  0.00     0.005 C 
ENDBRANCH  17  18
ENDBRANCH  16  17
ENDBRANCH  15  16
ENDBRANCH  14  15
ENDBRANCH  13  14
ENDBRANCH  12  13
ENDBRANCH  11  12
ENDBRANCH  10  11
ENDBRANCH   9  10
ENDBRANCH   8   9
ENDBRANCH   1   8
BRANCH   2  20
HETATM   20  O   UNL     1     -19.578  -8.490  -4.770  1.00  0.00    -0.358 OA
HETATM   21  H   UNL     1     -19.954  -7.987  -5.508  1.00  0.00     0.217 HD
ENDBRANCH   2  20
BRANCH   3  22
HETATM   22  N   UNL     1     -18.804  -9.814  -2.357  1.00  0.00    -0.193 N 
HETATM   23  N   UNL     1     -17.590  -9.582  -2.910  1.00  0.00    -0.277 N 
HETATM   24  C   UNL     1     -16.889 -10.679  -2.621  1.00  0.00     0.078 A 
ATOM     25  HN  UNL     1     -17.283  -8.759  -3.429  1.00  0.00     0.189 HD
HETATM   26  C   UNL     1     -15.557 -10.984  -2.946  1.00  0.00     0.033 A 
HETATM   27  C   UNL     1     -17.747 -11.587  -1.872  1.00  0.00     0.078 A 
HETATM   28  C   UNL     1     -15.122 -12.241  -2.492  1.00  0.00     0.002 A 
HETATM   29  C   UNL     1     -15.955 -13.133  -1.762  1.00  0.00     0.002 A 
HETATM   30  C   UNL     1     -17.292 -12.840  -1.424  1.00  0.00     0.033 A 
HETATM   31  N   UNL     1     -18.949 -11.014  -1.724  1.00  0.00    -0.277 N 
ATOM     32  HN  UNL     1     -19.773 -11.385  -1.252  1.00  0.00     0.189 HD
ENDBRANCH   3  22
TORSDOF 13
ENDMDL
