MODEL 1
REMARK VINA RESULT:      -5.4      0.000      0.000
REMARK  9 active torsions:
REMARK  status: ('A' for Active; 'I' for Inactive)
REMARK    1  A    between atoms: C_2  and  C_3 
REMARK    2  A    between atoms: C_3  and  C_4 
REMARK    3  A    between atoms: C_4  and  O_5 
REMARK    4  A    between atoms: O_5  and  C_6 
REMARK    5  A    between atoms: C_6  and  C_7 
REMARK    6  A    between atoms: C_7  and  O_9 
REMARK    7  A    between atoms: O_9  and  C_10 
REMARK    8  A    between atoms: C_10  and  C_11 
REMARK    9  A    between atoms: C_11  and  O_12 
ROOT
HETATM    1  C   UNL     1     -23.515  -2.734 -12.059  1.00  0.00     0.141 C 
HETATM    2  C   UNL     1     -22.170  -3.419 -12.301  1.00  0.00     0.042 C 
ENDROOT
BRANCH   1   3
HETATM    3  C   UNL     1     -24.343  -3.513 -11.026  1.00  0.00     0.199 C 
BRANCH   3   4
HETATM    4  O   UNL     1     -24.073  -3.065  -9.699  1.00  0.00    -0.389 OA
BRANCH   4   5
HETATM    5  C   UNL     1     -23.570  -4.138  -8.902  1.00  0.00     0.167 C 
BRANCH   5   6
HETATM    6  C   UNL     1     -22.220  -3.726  -8.331  1.00  0.00     0.026 C 
BRANCH   6   7
HETATM    7  C   UNL     1     -21.869  -4.561  -7.102  1.00  0.00    -0.002 C 
HETATM    8  C   UNL     1     -20.393  -4.447  -6.761  1.00  0.00     0.005 C 
ENDBRANCH   6   7
ENDBRANCH   5   6
ENDBRANCH   4   5
ENDBRANCH   3   4
ENDBRANCH   1   3
BRANCH   1   9
HETATM    9  O   UNL     1     -24.190  -2.653 -13.327  1.00  0.00    -0.382 OA
BRANCH   9  10
HETATM   10  C   UNL     1     -23.301  -2.428 -14.431  1.00  0.00     0.194 C 
BRANCH  10  11
HETATM   11  C   UNL     1     -23.627  -1.077 -15.057  1.00  0.00     0.190 C 
BRANCH  11  12
HETATM   12  O   UNL     1     -24.908  -0.636 -14.610  1.00  0.00    -0.399 OA
HETATM   13  H   UNL     1     -24.945   0.312 -14.843  1.00  0.00     0.209 HD
ENDBRANCH  11  12
ENDBRANCH  10  11
ENDBRANCH   9  10
ENDBRANCH   1   9
TORSDOF 9
ENDMDL
MODEL 2
REMARK VINA RESULT:      -5.1      1.556      1.858
REMARK  9 active torsions:
REMARK  status: ('A' for Active; 'I' for Inactive)
REMARK    1  A    between atoms: C_2  and  C_3 
REMARK    2  A    between atoms: C_3  and  C_4 
REMARK    3  A    between atoms: C_4  and  O_5 
REMARK    4  A    between atoms: O_5  and  C_6 
REMARK    5  A    between atoms: C_6  and  C_7 
REMARK    6  A    between atoms: C_7  and  O_9 
REMARK    7  A    between atoms: O_9  and  C_10 
REMARK    8  A    between atoms: C_10  and  C_11 
REMARK    9  A    between atoms: C_11  and  O_12 
ROOT
HETATM    1  C   UNL     1     -21.706  -3.330 -11.176  1.00  0.00     0.141 C 
HETATM    2  C   UNL     1     -20.423  -4.120 -10.923  1.00  0.00     0.042 C 
ENDROOT
BRANCH   1   3
HETATM    3  C   UNL     1     -22.766  -3.660 -10.115  1.00  0.00     0.199 C 
BRANCH   3   4
HETATM    4  O   UNL     1     -22.320  -4.692  -9.238  1.00  0.00    -0.389 OA
BRANCH   4   5
HETATM    5  C   UNL     1     -22.550  -4.327  -7.877  1.00  0.00     0.167 C 
BRANCH   5   6
HETATM    6  C   UNL     1     -21.362  -3.512  -7.385  1.00  0.00     0.026 C 
BRANCH   6   7
HETATM    7  C   UNL     1     -20.167  -4.414  -7.085  1.00  0.00    -0.002 C 
HETATM    8  C   UNL     1     -20.148  -4.836  -5.626  1.00  0.00     0.005 C 
ENDBRANCH   6   7
ENDBRANCH   5   6
ENDBRANCH   4   5
ENDBRANCH   3   4
ENDBRANCH   1   3
BRANCH   1   9
HETATM    9  O   UNL     1     -22.160  -3.662 -12.500  1.00  0.00    -0.382 OA
BRANCH   9  10
HETATM   10  C   UNL     1     -23.044  -2.681 -13.061  1.00  0.00     0.194 C 
BRANCH  10  11
HETATM   11  C   UNL     1     -22.949  -2.745 -14.581  1.00  0.00     0.190 C 
BRANCH  11  12
HETATM   12  O   UNL     1     -23.855  -1.807 -15.160  1.00  0.00    -0.399 OA
HETATM   13  H   UNL     1     -23.315  -1.012 -15.338  1.00  0.00     0.209 HD
ENDBRANCH  11  12
ENDBRANCH  10  11
ENDBRANCH   9  10
ENDBRANCH   1   9
TORSDOF 9
ENDMDL
MODEL 3
REMARK VINA RESULT:      -5.1      2.167      2.993
REMARK  9 active torsions:
REMARK  status: ('A' for Active; 'I' for Inactive)
REMARK    1  A    between atoms: C_2  and  C_3 
REMARK    2  A    between atoms: C_3  and  C_4 
REMARK    3  A    between atoms: C_4  and  O_5 
REMARK    4  A    between atoms: O_5  and  C_6 
REMARK    5  A    between atoms: C_6  and  C_7 
REMARK    6  A    between atoms: C_7  and  O_9 
REMARK    7  A    between atoms: O_9  and  C_10 
REMARK    8  A    between atoms: C_10  and  C_11 
REMARK    9  A    between atoms: C_11  and  O_12 
ROOT
HETATM    1  C   UNL     1     -23.944  -4.513  -9.983  1.00  0.00     0.141 C 
HETATM    2  C   UNL     1     -24.878  -3.336  -9.701  1.00  0.00     0.042 C 
ENDROOT
BRANCH   1   3
HETATM    3  C   UNL     1     -22.633  -4.367  -9.198  1.00  0.00     0.199 C 
BRANCH   3   4
HETATM    4  O   UNL     1     -21.498  -4.568 -10.039  1.00  0.00    -0.389 OA
BRANCH   4   5
HETATM    5  C   UNL     1     -20.292  -4.286  -9.329  1.00  0.00     0.167 C 
BRANCH   5   6
HETATM    6  C   UNL     1     -20.152  -5.289  -8.192  1.00  0.00     0.026 C 
BRANCH   6   7
HETATM    7  C   UNL     1     -19.380  -4.685  -7.022  1.00  0.00    -0.002 C 
HETATM    8  C   UNL     1     -20.203  -4.712  -5.745  1.00  0.00     0.005 C 
ENDBRANCH   6   7
ENDBRANCH   5   6
ENDBRANCH   4   5
ENDBRANCH   3   4
ENDBRANCH   1   3
BRANCH   1   9
HETATM    9  O   UNL     1     -23.711  -4.546 -11.402  1.00  0.00    -0.382 OA
BRANCH   9  10
HETATM   10  C   UNL     1     -24.125  -3.348 -12.074  1.00  0.00     0.194 C 
BRANCH  10  11
HETATM   11  C   UNL     1     -22.919  -2.741 -12.782  1.00  0.00     0.190 C 
BRANCH  11  12
HETATM   12  O   UNL     1     -21.871  -3.706 -12.861  1.00  0.00    -0.399 OA
HETATM   13  H   UNL     1     -22.161  -4.441 -12.286  1.00  0.00     0.209 HD
ENDBRANCH  11  12
ENDBRANCH  10  11
ENDBRANCH   9  10
ENDBRANCH   1   9
TORSDOF 9
ENDMDL
MODEL 4
REMARK VINA RESULT:      -4.7      2.885      3.805
REMARK  9 active torsions:
REMARK  status: ('A' for Active; 'I' for Inactive)
REMARK    1  A    between atoms: C_2  and  C_3 
REMARK    2  A    between atoms: C_3  and  C_4 
REMARK    3  A    between atoms: C_4  and  O_5 
REMARK    4  A    between atoms: O_5  and  C_6 
REMARK    5  A    between atoms: C_6  and  C_7 
REMARK    6  A    between atoms: C_7  and  O_9 
REMARK    7  A    between atoms: O_9  and  C_10 
REMARK    8  A    between atoms: C_10  and  C_11 
REMARK    9  A    between atoms: C_11  and  O_12 
ROOT
HETATM    1  C   UNL     1     -21.607  -3.890 -10.165  1.00  0.00     0.141 C 
HETATM    2  C   UNL     1     -20.566  -4.049 -11.273  1.00  0.00     0.042 C 
ENDROOT
BRANCH   1   3
HETATM    3  C   UNL     1     -21.089  -4.479  -8.845  1.00  0.00     0.199 C 
BRANCH   3   4
HETATM    4  O   UNL     1     -21.404  -3.634  -7.740  1.00  0.00    -0.389 OA
BRANCH   4   5
HETATM    5  C   UNL     1     -20.940  -4.211  -6.519  1.00  0.00     0.167 C 
BRANCH   5   6
HETATM    6  C   UNL     1     -19.971  -5.337  -6.853  1.00  0.00     0.026 C 
BRANCH   6   7
HETATM    7  C   UNL     1     -20.218  -6.553  -5.963  1.00  0.00    -0.002 C 
HETATM    8  C   UNL     1     -21.188  -6.226  -4.840  1.00  0.00     0.005 C 
ENDBRANCH   6   7
ENDBRANCH   5   6
ENDBRANCH   4   5
ENDBRANCH   3   4
ENDBRANCH   1   3
BRANCH   1   9
HETATM    9  O   UNL     1     -22.807  -4.550 -10.606  1.00  0.00    -0.382 OA
BRANCH   9  10
HETATM   10  C   UNL     1     -23.892  -3.647 -10.859  1.00  0.00     0.194 C 
BRANCH  10  11
HETATM   11  C   UNL     1     -24.588  -3.334  -9.539  1.00  0.00     0.190 C 
BRANCH  11  12
HETATM   12  O   UNL     1     -25.998  -3.251  -9.747  1.00  0.00    -0.399 OA
HETATM   13  H   UNL     1     -26.317  -4.172  -9.683  1.00  0.00     0.209 HD
ENDBRANCH  11  12
ENDBRANCH  10  11
ENDBRANCH   9  10
ENDBRANCH   1   9
TORSDOF 9
ENDMDL
MODEL 5
REMARK VINA RESULT:      -4.6      2.561      3.366
REMARK  9 active torsions:
REMARK  status: ('A' for Active; 'I' for Inactive)
REMARK    1  A    between atoms: C_2  and  C_3 
REMARK    2  A    between atoms: C_3  and  C_4 
REMARK    3  A    between atoms: C_4  and  O_5 
REMARK    4  A    between atoms: O_5  and  C_6 
REMARK    5  A    between atoms: C_6  and  C_7 
REMARK    6  A    between atoms: C_7  and  O_9 
REMARK    7  A    between atoms: O_9  and  C_10 
REMARK    8  A    between atoms: C_10  and  C_11 
REMARK    9  A    between atoms: C_11  and  O_12 
ROOT
HETATM    1  C   UNL     1     -23.888  -4.412 -10.821  1.00  0.00     0.141 C 
HETATM    2  C   UNL     1     -24.239  -3.166 -11.634  1.00  0.00     0.042 C 
ENDROOT
BRANCH   1   3
HETATM    3  C   UNL     1     -24.008  -4.130  -9.316  1.00  0.00     0.199 C 
BRANCH   3   4
HETATM    4  O   UNL     1     -22.798  -3.586  -8.792  1.00  0.00    -0.389 OA
BRANCH   4   5
HETATM    5  C   UNL     1     -22.403  -4.288  -7.613  1.00  0.00     0.167 C 
BRANCH   5   6
HETATM    6  C   UNL     1     -21.146  -3.634  -7.056  1.00  0.00     0.026 C 
BRANCH   6   7
HETATM    7  C   UNL     1     -20.171  -4.685  -6.530  1.00  0.00    -0.002 C 
HETATM    8  C   UNL     1     -20.745  -5.419  -5.331  1.00  0.00     0.005 C 
ENDBRANCH   6   7
ENDBRANCH   5   6
ENDBRANCH   4   5
ENDBRANCH   3   4
ENDBRANCH   1   3
BRANCH   1   9
HETATM    9  O   UNL     1     -22.551  -4.798 -11.183  1.00  0.00    -0.382 OA
BRANCH   9  10
HETATM   10  C   UNL     1     -21.850  -3.792 -11.928  1.00  0.00     0.194 C 
BRANCH  10  11
HETATM   11  C   UNL     1     -20.478  -3.581 -11.299  1.00  0.00     0.190 C 
BRANCH  11  12
HETATM   12  O   UNL     1     -20.227  -4.605 -10.338  1.00  0.00    -0.399 OA
HETATM   13  H   UNL     1     -20.882  -4.453  -9.629  1.00  0.00     0.209 HD
ENDBRANCH  11  12
ENDBRANCH  10  11
ENDBRANCH   9  10
ENDBRANCH   1   9
TORSDOF 9
ENDMDL
MODEL 6
REMARK VINA RESULT:      -4.5      3.532      5.334
REMARK  9 active torsions:
REMARK  status: ('A' for Active; 'I' for Inactive)
REMARK    1  A    between atoms: C_2  and  C_3 
REMARK    2  A    between atoms: C_3  and  C_4 
REMARK    3  A    between atoms: C_4  and  O_5 
REMARK    4  A    between atoms: O_5  and  C_6 
REMARK    5  A    between atoms: C_6  and  C_7 
REMARK    6  A    between atoms: C_7  and  O_9 
REMARK    7  A    between atoms: O_9  and  C_10 
REMARK    8  A    between atoms: C_10  and  C_11 
REMARK    9  A    between atoms: C_11  and  O_12 
ROOT
HETATM    1  C   UNL     1     -20.696  -4.385  -8.031  1.00  0.00     0.141 C 
HETATM    2  C   UNL     1     -20.215  -4.563  -9.470  1.00  0.00     0.042 C 
ENDROOT
BRANCH   1   3
HETATM    3  C   UNL     1     -20.176  -5.521  -7.139  1.00  0.00     0.199 C 
BRANCH   3   4
HETATM    4  O   UNL     1     -21.194  -6.486  -6.880  1.00  0.00    -0.389 OA
BRANCH   4   5
HETATM    5  C   UNL     1     -20.940  -7.163  -5.649  1.00  0.00     0.167 C 
BRANCH   5   6
HETATM    6  C   UNL     1     -21.254  -6.216  -4.499  1.00  0.00     0.026 C 
BRANCH   6   7
HETATM    7  C   UNL     1     -21.314  -6.968  -3.172  1.00  0.00    -0.002 C 
HETATM    8  C   UNL     1     -22.095  -6.185  -2.130  1.00  0.00     0.005 C 
ENDBRANCH   6   7
ENDBRANCH   5   6
ENDBRANCH   4   5
ENDBRANCH   3   4
ENDBRANCH   1   3
BRANCH   1   9
HETATM    9  O   UNL     1     -22.134  -4.350  -8.061  1.00  0.00    -0.382 OA
BRANCH   9  10
HETATM   10  C   UNL     1     -22.663  -3.620  -9.177  1.00  0.00     0.194 C 
BRANCH  10  11
HETATM   11  C   UNL     1     -24.113  -4.037  -9.395  1.00  0.00     0.190 C 
BRANCH  11  12
HETATM   12  O   UNL     1     -24.968  -2.908  -9.221  1.00  0.00    -0.399 OA
HETATM   13  H   UNL     1     -25.452  -3.083  -8.390  1.00  0.00     0.209 HD
ENDBRANCH  11  12
ENDBRANCH  10  11
ENDBRANCH   9  10
ENDBRANCH   1   9
TORSDOF 9
ENDMDL
MODEL 7
REMARK VINA RESULT:      -4.5      4.222      6.695
REMARK  9 active torsions:
REMARK  status: ('A' for Active; 'I' for Inactive)
REMARK    1  A    between atoms: C_2  and  C_3 
REMARK    2  A    between atoms: C_3  and  C_4 
REMARK    3  A    between atoms: C_4  and  O_5 
REMARK    4  A    between atoms: O_5  and  C_6 
REMARK    5  A    between atoms: C_6  and  C_7 
REMARK    6  A    between atoms: C_7  and  O_9 
REMARK    7  A    between atoms: O_9  and  C_10 
REMARK    8  A    between atoms: C_10  and  C_11 
REMARK    9  A    between atoms: C_11  and  O_12 
ROOT
HETATM    1  C   UNL     1     -21.289  -4.959  -6.434  1.00  0.00     0.141 C 
HETATM    2  C   UNL     1     -19.779  -4.768  -6.296  1.00  0.00     0.042 C 
ENDROOT
BRANCH   1   3
HETATM    3  C   UNL     1     -21.802  -5.989  -5.418  1.00  0.00     0.199 C 
BRANCH   3   4
HETATM    4  O   UNL     1     -20.987  -6.015  -4.247  1.00  0.00    -0.389 OA
BRANCH   4   5
HETATM    5  C   UNL     1     -21.516  -6.932  -3.289  1.00  0.00     0.167 C 
BRANCH   5   6
HETATM    6  C   UNL     1     -22.208  -6.138  -2.189  1.00  0.00     0.026 C 
BRANCH   6   7
HETATM    7  C   UNL     1     -22.223  -6.921  -0.878  1.00  0.00    -0.002 C 
HETATM    8  C   UNL     1     -22.061  -8.411  -1.123  1.00  0.00     0.005 C 
ENDBRANCH   6   7
ENDBRANCH   5   6
ENDBRANCH   4   5
ENDBRANCH   3   4
ENDBRANCH   1   3
BRANCH   1   9
HETATM    9  O   UNL     1     -21.547  -5.375  -7.787  1.00  0.00    -0.382 OA
BRANCH   9  10
HETATM   10  C   UNL     1     -21.786  -4.281  -8.683  1.00  0.00     0.194 C 
BRANCH  10  11
HETATM   11  C   UNL     1     -23.188  -4.418  -9.264  1.00  0.00     0.190 C 
BRANCH  11  12
HETATM   12  O   UNL     1     -24.142  -3.878  -8.351  1.00  0.00    -0.399 OA
HETATM   13  H   UNL     1     -24.929  -4.450  -8.439  1.00  0.00     0.209 HD
ENDBRANCH  11  12
ENDBRANCH  10  11
ENDBRANCH   9  10
ENDBRANCH   1   9
TORSDOF 9
ENDMDL
MODEL 8
REMARK VINA RESULT:      -4.4      3.655      7.999
REMARK  9 active torsions:
REMARK  status: ('A' for Active; 'I' for Inactive)
REMARK    1  A    between atoms: C_2  and  C_3 
REMARK    2  A    between atoms: C_3  and  C_4 
REMARK    3  A    between atoms: C_4  and  O_5 
REMARK    4  A    between atoms: O_5  and  C_6 
REMARK    5  A    between atoms: C_6  and  C_7 
REMARK    6  A    between atoms: C_7  and  O_9 
REMARK    7  A    between atoms: O_9  and  C_10 
REMARK    8  A    between atoms: C_10  and  C_11 
REMARK    9  A    between atoms: C_11  and  O_12 
ROOT
HETATM    1  C   UNL     1     -21.053  -5.616  -6.289  1.00  0.00     0.141 C 
HETATM    2  C   UNL     1     -19.709  -5.105  -6.807  1.00  0.00     0.042 C 
ENDROOT
BRANCH   1   3
HETATM    3  C   UNL     1     -22.214  -4.842  -6.931  1.00  0.00     0.199 C 
BRANCH   3   4
HETATM    4  O   UNL     1     -21.739  -3.732  -7.692  1.00  0.00    -0.389 OA
BRANCH   4   5
HETATM    5  C   UNL     1     -22.337  -3.722  -8.989  1.00  0.00     0.167 C 
BRANCH   5   6
HETATM    6  C   UNL     1     -21.276  -4.096 -10.014  1.00  0.00     0.026 C 
BRANCH   6   7
HETATM    7  C   UNL     1     -21.902  -4.334 -11.387  1.00  0.00    -0.002 C 
HETATM    8  C   UNL     1     -22.199  -3.021 -12.092  1.00  0.00     0.005 C 
ENDBRANCH   6   7
ENDBRANCH   5   6
ENDBRANCH   4   5
ENDBRANCH   3   4
ENDBRANCH   1   3
BRANCH   1   9
HETATM    9  O   UNL     1     -21.045  -5.470  -4.858  1.00  0.00    -0.382 OA
BRANCH   9  10
HETATM   10  C   UNL     1     -21.758  -6.512  -4.176  1.00  0.00     0.194 C 
BRANCH  10  11
HETATM   11  C   UNL     1     -21.473  -6.406  -2.682  1.00  0.00     0.190 C 
BRANCH  11  12
HETATM   12  O   UNL     1     -22.581  -5.794  -2.024  1.00  0.00    -0.399 OA
HETATM   13  H   UNL     1     -22.535  -6.112  -1.102  1.00  0.00     0.209 HD
ENDBRANCH  11  12
ENDBRANCH  10  11
ENDBRANCH   9  10
ENDBRANCH   1   9
TORSDOF 9
ENDMDL
MODEL 9
REMARK VINA RESULT:      -4.4      4.183      6.606
REMARK  9 active torsions:
REMARK  status: ('A' for Active; 'I' for Inactive)
REMARK    1  A    between atoms: C_2  and  C_3 
REMARK    2  A    between atoms: C_3  and  C_4 
REMARK    3  A    between atoms: C_4  and  O_5 
REMARK    4  A    between atoms: O_5  and  C_6 
REMARK    5  A    between atoms: C_6  and  C_7 
REMARK    6  A    between atoms: C_7  and  O_9 
REMARK    7  A    between atoms: O_9  and  C_10 
REMARK    8  A    between atoms: C_10  and  C_11 
REMARK    9  A    between atoms: C_11  and  O_12 
ROOT
HETATM    1  C   UNL     1     -21.045  -5.699  -6.446  1.00  0.00     0.141 C 
HETATM    2  C   UNL     1     -20.433  -4.388  -5.953  1.00  0.00     0.042 C 
ENDROOT
BRANCH   1   3
HETATM    3  C   UNL     1     -20.172  -6.894  -6.034  1.00  0.00     0.199 C 
BRANCH   3   4
HETATM    4  O   UNL     1     -20.967  -8.046  -5.755  1.00  0.00    -0.389 OA
BRANCH   4   5
HETATM    5  C   UNL     1     -21.884  -7.775  -4.694  1.00  0.00     0.167 C 
BRANCH   5   6
HETATM    6  C   UNL     1     -21.091  -7.511  -3.422  1.00  0.00     0.026 C 
BRANCH   6   7
HETATM    7  C   UNL     1     -21.596  -6.256  -2.714  1.00  0.00    -0.002 C 
HETATM    8  C   UNL     1     -22.249  -6.598  -1.385  1.00  0.00     0.005 C 
ENDBRANCH   6   7
ENDBRANCH   5   6
ENDBRANCH   4   5
ENDBRANCH   3   4
ENDBRANCH   1   3
BRANCH   1   9
HETATM    9  O   UNL     1     -21.171  -5.603  -7.876  1.00  0.00    -0.382 OA
BRANCH   9  10
HETATM   10  C   UNL     1     -21.494  -4.281  -8.331  1.00  0.00     0.194 C 
BRANCH  10  11
HETATM   11  C   UNL     1     -22.892  -4.298  -8.937  1.00  0.00     0.190 C 
BRANCH  11  12
HETATM   12  O   UNL     1     -23.856  -3.979  -7.934  1.00  0.00    -0.399 OA
HETATM   13  H   UNL     1     -24.514  -4.700  -7.977  1.00  0.00     0.209 HD
ENDBRANCH  11  12
ENDBRANCH  10  11
ENDBRANCH   9  10
ENDBRANCH   1   9
TORSDOF 9
ENDMDL
