MODEL 1
REMARK VINA RESULT:      -1.3      0.000      0.000
REMARK  13 active torsions:
REMARK  status: ('A' for Active; 'I' for Inactive)
REMARK    1  A    between atoms: C_11  and  O_12 
REMARK    2  A    between atoms: O_12  and  C_13 
REMARK    3  A    between atoms: C_14  and  O_24 
REMARK    4  A    between atoms: C_15  and  O_23 
REMARK    5  A    between atoms: C_16  and  O_22 
REMARK    6  A    between atoms: C_17  and  C_19 
REMARK    7  A    between atoms: O_24  and  C_25 
REMARK    8  A    between atoms: C_26  and  O_36 
REMARK    9  A    between atoms: C_27  and  O_35 
REMARK   10  A    between atoms: C_28  and  O_34 
REMARK   11  A    between atoms: C_29  and  C_31 
REMARK   12  A    between atoms: C_48  and  C_52 
REMARK   13  A    between atoms: C_52  and  O_54 
ROOT
HETATM    1  K   UNL     2     -32.324  -8.576   4.529  1.00  0.00     0.000 K 
ENDROOT
TORSDOF 13
ENDMDL
MODEL 2
REMARK VINA RESULT:      -1.3     23.494     23.494
REMARK  13 active torsions:
REMARK  status: ('A' for Active; 'I' for Inactive)
REMARK    1  A    between atoms: C_11  and  O_12 
REMARK    2  A    between atoms: O_12  and  C_13 
REMARK    3  A    between atoms: C_14  and  O_24 
REMARK    4  A    between atoms: C_15  and  O_23 
REMARK    5  A    between atoms: C_16  and  O_22 
REMARK    6  A    between atoms: C_17  and  C_19 
REMARK    7  A    between atoms: O_24  and  C_25 
REMARK    8  A    between atoms: C_26  and  O_36 
REMARK    9  A    between atoms: C_27  and  O_35 
REMARK   10  A    between atoms: C_28  and  O_34 
REMARK   11  A    between atoms: C_29  and  C_31 
REMARK   12  A    between atoms: C_48  and  C_52 
REMARK   13  A    between atoms: C_52  and  O_54 
ROOT
HETATM    1  K   UNL     2     -11.257   1.620   2.468  1.00  0.00     0.000 K 
ENDROOT
TORSDOF 13
ENDMDL
MODEL 3
REMARK VINA RESULT:      -1.2     19.033     19.033
REMARK  13 active torsions:
REMARK  status: ('A' for Active; 'I' for Inactive)
REMARK    1  A    between atoms: C_11  and  O_12 
REMARK    2  A    between atoms: O_12  and  C_13 
REMARK    3  A    between atoms: C_14  and  O_24 
REMARK    4  A    between atoms: C_15  and  O_23 
REMARK    5  A    between atoms: C_16  and  O_22 
REMARK    6  A    between atoms: C_17  and  C_19 
REMARK    7  A    between atoms: O_24  and  C_25 
REMARK    8  A    between atoms: C_26  and  O_36 
REMARK    9  A    between atoms: C_27  and  O_35 
REMARK   10  A    between atoms: C_28  and  O_34 
REMARK   11  A    between atoms: C_29  and  C_31 
REMARK   12  A    between atoms: C_48  and  C_52 
REMARK   13  A    between atoms: C_52  and  O_54 
ROOT
HETATM    1  K   UNL     2     -27.015 -13.665 -13.026  1.00  0.00     0.000 K 
ENDROOT
TORSDOF 13
ENDMDL
MODEL 4
REMARK VINA RESULT:      -1.2     22.214     22.214
REMARK  13 active torsions:
REMARK  status: ('A' for Active; 'I' for Inactive)
REMARK    1  A    between atoms: C_11  and  O_12 
REMARK    2  A    between atoms: O_12  and  C_13 
REMARK    3  A    between atoms: C_14  and  O_24 
REMARK    4  A    between atoms: C_15  and  O_23 
REMARK    5  A    between atoms: C_16  and  O_22 
REMARK    6  A    between atoms: C_17  and  C_19 
REMARK    7  A    between atoms: O_24  and  C_25 
REMARK    8  A    between atoms: C_26  and  O_36 
REMARK    9  A    between atoms: C_27  and  O_35 
REMARK   10  A    between atoms: C_28  and  O_34 
REMARK   11  A    between atoms: C_29  and  C_31 
REMARK   12  A    between atoms: C_48  and  C_52 
REMARK   13  A    between atoms: C_52  and  O_54 
ROOT
HETATM    1  K   UNL     2     -25.110   0.412 -14.461  1.00  0.00     0.000 K 
ENDROOT
TORSDOF 13
ENDMDL
MODEL 5
REMARK VINA RESULT:      -1.2     14.855     14.855
REMARK  13 active torsions:
REMARK  status: ('A' for Active; 'I' for Inactive)
REMARK    1  A    between atoms: C_11  and  O_12 
REMARK    2  A    between atoms: O_12  and  C_13 
REMARK    3  A    between atoms: C_14  and  O_24 
REMARK    4  A    between atoms: C_15  and  O_23 
REMARK    5  A    between atoms: C_16  and  O_22 
REMARK    6  A    between atoms: C_17  and  C_19 
REMARK    7  A    between atoms: O_24  and  C_25 
REMARK    8  A    between atoms: C_26  and  O_36 
REMARK    9  A    between atoms: C_27  and  O_35 
REMARK   10  A    between atoms: C_28  and  O_34 
REMARK   11  A    between atoms: C_29  and  C_31 
REMARK   12  A    between atoms: C_48  and  C_52 
REMARK   13  A    between atoms: C_52  and  O_54 
ROOT
HETATM    1  K   UNL     2     -27.327  -5.622  -9.145  1.00  0.00     0.000 K 
ENDROOT
TORSDOF 13
ENDMDL
MODEL 6
REMARK VINA RESULT:      -1.1     12.328     12.328
REMARK  13 active torsions:
REMARK  status: ('A' for Active; 'I' for Inactive)
REMARK    1  A    between atoms: C_11  and  O_12 
REMARK    2  A    between atoms: O_12  and  C_13 
REMARK    3  A    between atoms: C_14  and  O_24 
REMARK    4  A    between atoms: C_15  and  O_23 
REMARK    5  A    between atoms: C_16  and  O_22 
REMARK    6  A    between atoms: C_17  and  C_19 
REMARK    7  A    between atoms: O_24  and  C_25 
REMARK    8  A    between atoms: C_26  and  O_36 
REMARK    9  A    between atoms: C_27  and  O_35 
REMARK   10  A    between atoms: C_28  and  O_34 
REMARK   11  A    between atoms: C_29  and  C_31 
REMARK   12  A    between atoms: C_48  and  C_52 
REMARK   13  A    between atoms: C_52  and  O_54 
ROOT
HETATM    1  K   UNL     2     -25.223  -5.220  -4.974  1.00  0.00     0.000 K 
ENDROOT
TORSDOF 13
ENDMDL
MODEL 7
REMARK VINA RESULT:      -1.1     26.895     26.895
REMARK  13 active torsions:
REMARK  status: ('A' for Active; 'I' for Inactive)
REMARK    1  A    between atoms: C_11  and  O_12 
REMARK    2  A    between atoms: O_12  and  C_13 
REMARK    3  A    between atoms: C_14  and  O_24 
REMARK    4  A    between atoms: C_15  and  O_23 
REMARK    5  A    between atoms: C_16  and  O_22 
REMARK    6  A    between atoms: C_17  and  C_19 
REMARK    7  A    between atoms: O_24  and  C_25 
REMARK    8  A    between atoms: C_26  and  O_36 
REMARK    9  A    between atoms: C_27  and  O_35 
REMARK   10  A    between atoms: C_28  and  O_34 
REMARK   11  A    between atoms: C_29  and  C_31 
REMARK   12  A    between atoms: C_48  and  C_52 
REMARK   13  A    between atoms: C_52  and  O_54 
ROOT
HETATM    1  K   UNL     2     -35.597  -5.029 -21.929  1.00  0.00     0.000 K 
ENDROOT
TORSDOF 13
ENDMDL
MODEL 8
REMARK VINA RESULT:      -1.0      9.902      9.902
REMARK  13 active torsions:
REMARK  status: ('A' for Active; 'I' for Inactive)
REMARK    1  A    between atoms: C_11  and  O_12 
REMARK    2  A    between atoms: O_12  and  C_13 
REMARK    3  A    between atoms: C_14  and  O_24 
REMARK    4  A    between atoms: C_15  and  O_23 
REMARK    5  A    between atoms: C_16  and  O_22 
REMARK    6  A    between atoms: C_17  and  C_19 
REMARK    7  A    between atoms: O_24  and  C_25 
REMARK    8  A    between atoms: C_26  and  O_36 
REMARK    9  A    between atoms: C_27  and  O_35 
REMARK   10  A    between atoms: C_28  and  O_34 
REMARK   11  A    between atoms: C_29  and  C_31 
REMARK   12  A    between atoms: C_48  and  C_52 
REMARK   13  A    between atoms: C_52  and  O_54 
ROOT
HETATM    1  K   UNL     2     -32.732  -6.045  -5.036  1.00  0.00     0.000 K 
ENDROOT
TORSDOF 13
ENDMDL
MODEL 9
REMARK VINA RESULT:      -1.0     25.472     25.472
REMARK  13 active torsions:
REMARK  status: ('A' for Active; 'I' for Inactive)
REMARK    1  A    between atoms: C_11  and  O_12 
REMARK    2  A    between atoms: O_12  and  C_13 
REMARK    3  A    between atoms: C_14  and  O_24 
REMARK    4  A    between atoms: C_15  and  O_23 
REMARK    5  A    between atoms: C_16  and  O_22 
REMARK    6  A    between atoms: C_17  and  C_19 
REMARK    7  A    between atoms: O_24  and  C_25 
REMARK    8  A    between atoms: C_26  and  O_36 
REMARK    9  A    between atoms: C_27  and  O_35 
REMARK   10  A    between atoms: C_28  and  O_34 
REMARK   11  A    between atoms: C_29  and  C_31 
REMARK   12  A    between atoms: C_48  and  C_52 
REMARK   13  A    between atoms: C_52  and  O_54 
ROOT
HETATM    1  K   UNL     2     -23.196   0.193 -17.577  1.00  0.00     0.000 K 
ENDROOT
TORSDOF 13
ENDMDL
