MODEL 1
REMARK VINA RESULT:      -5.9      0.000      0.000
REMARK  10 active torsions:
REMARK  status: ('A' for Active; 'I' for Inactive)
REMARK    1  A    between atoms: C_2  and  C_3 
REMARK    2  A    between atoms: C_3  and  C_4 
REMARK    3  A    between atoms: C_4  and  C_5 
REMARK    4  A    between atoms: C_5  and  C_6 
REMARK    5  A    between atoms: C_6  and  C_7 
REMARK    6  A    between atoms: C_7  and  C_8 
REMARK    7  A    between atoms: C_8  and  C_9 
REMARK    8  A    between atoms: C_9  and  C_10 
REMARK    9  A    between atoms: C_9  and  O_12 
REMARK   10  A    between atoms: C_10  and  O_11 
ROOT
HETATM    1  C   UNL     1     -22.226  -3.607 -12.446  1.00  0.00     0.002 C 
ENDROOT
BRANCH   1   2
HETATM    2  C   UNL     1     -21.590  -3.350 -11.079  1.00  0.00     0.000 C 
BRANCH   2   3
HETATM    3  C   UNL     1     -22.526  -3.852  -9.978  1.00  0.00     0.000 C 
BRANCH   3   4
HETATM    4  C   UNL     1     -21.752  -4.476  -8.823  1.00  0.00     0.000 C 
BRANCH   4   5
HETATM    5  C   UNL     1     -20.266  -4.574  -9.166  1.00  0.00    -0.000 C 
BRANCH   5   6
HETATM    6  C   UNL     1     -19.404  -4.242  -7.949  1.00  0.00    -0.005 C 
HETATM    7  C   UNL     1     -20.073  -4.700  -6.664  1.00  0.00     0.005 C 
ENDBRANCH   5   6
ENDBRANCH   4   5
ENDBRANCH   3   4
ENDBRANCH   2   3
ENDBRANCH   1   2
BRANCH   1   8
HETATM    8  C   UNL     1     -23.140  -2.467 -12.885  1.00  0.00     0.034 C 
BRANCH   8   9
HETATM    9  C   UNL     1     -23.442  -2.482 -14.392  1.00  0.00     0.141 C 
BRANCH   9  10
HETATM   10  C   UNL     1     -23.678  -1.089 -14.997  1.00  0.00     0.195 C 
BRANCH  10  11
HETATM   11  O   UNL     1     -24.942  -0.546 -14.641  1.00  0.00    -0.398 OA
HETATM   12  H   UNL     1     -24.842   0.428 -14.638  1.00  0.00     0.209 HD
ENDBRANCH  10  11
ENDBRANCH   9  10
BRANCH   9  13
HETATM   13  O   UNL     1     -22.328  -3.082 -15.073  1.00  0.00    -0.393 OA
HETATM   14  H   UNL     1     -22.400  -4.045 -14.975  1.00  0.00     0.210 HD
ENDBRANCH   9  13
ENDBRANCH   8   9
ENDBRANCH   1   8
TORSDOF 10
ENDMDL
MODEL 2
REMARK VINA RESULT:      -5.8     11.888     13.832
REMARK  10 active torsions:
REMARK  status: ('A' for Active; 'I' for Inactive)
REMARK    1  A    between atoms: C_2  and  C_3 
REMARK    2  A    between atoms: C_3  and  C_4 
REMARK    3  A    between atoms: C_4  and  C_5 
REMARK    4  A    between atoms: C_5  and  C_6 
REMARK    5  A    between atoms: C_6  and  C_7 
REMARK    6  A    between atoms: C_7  and  C_8 
REMARK    7  A    between atoms: C_8  and  C_9 
REMARK    8  A    between atoms: C_9  and  C_10 
REMARK    9  A    between atoms: C_9  and  O_12 
REMARK   10  A    between atoms: C_10  and  O_11 
ROOT
HETATM    1  C   UNL     1     -33.159  -3.685 -11.290  1.00  0.00     0.002 C 
ENDROOT
BRANCH   1   2
HETATM    2  C   UNL     1     -33.492  -2.225 -10.984  1.00  0.00     0.000 C 
BRANCH   2   3
HETATM    3  C   UNL     1     -34.935  -1.933 -11.399  1.00  0.00     0.000 C 
BRANCH   3   4
HETATM    4  C   UNL     1     -35.002  -1.250 -12.760  1.00  0.00     0.000 C 
BRANCH   4   5
HETATM    5  C   UNL     1     -35.236   0.252 -12.595  1.00  0.00    -0.000 C 
BRANCH   5   6
HETATM    6  C   UNL     1     -34.590   1.032 -13.738  1.00  0.00    -0.005 C 
HETATM    7  C   UNL     1     -35.424   0.935 -15.005  1.00  0.00     0.005 C 
ENDBRANCH   5   6
ENDBRANCH   4   5
ENDBRANCH   3   4
ENDBRANCH   2   3
ENDBRANCH   1   2
BRANCH   1   8
HETATM    8  C   UNL     1     -34.050  -4.657 -10.521  1.00  0.00     0.034 C 
BRANCH   8   9
HETATM    9  C   UNL     1     -34.057  -6.072 -11.121  1.00  0.00     0.141 C 
BRANCH   9  10
HETATM   10  C   UNL     1     -34.706  -7.132 -10.217  1.00  0.00     0.195 C 
BRANCH  10  11
HETATM   11  O   UNL     1     -34.162  -8.429 -10.418  1.00  0.00    -0.398 OA
HETATM   12  H   UNL     1     -34.037  -8.538 -11.384  1.00  0.00     0.209 HD
ENDBRANCH  10  11
ENDBRANCH   9  10
BRANCH   9  13
HETATM   13  O   UNL     1     -34.784  -6.037 -12.361  1.00  0.00    -0.393 OA
HETATM   14  H   UNL     1     -35.117  -5.134 -12.486  1.00  0.00     0.210 HD
ENDBRANCH   9  13
ENDBRANCH   8   9
ENDBRANCH   1   8
TORSDOF 10
ENDMDL
MODEL 3
REMARK VINA RESULT:      -5.7      1.239      1.751
REMARK  10 active torsions:
REMARK  status: ('A' for Active; 'I' for Inactive)
REMARK    1  A    between atoms: C_2  and  C_3 
REMARK    2  A    between atoms: C_3  and  C_4 
REMARK    3  A    between atoms: C_4  and  C_5 
REMARK    4  A    between atoms: C_5  and  C_6 
REMARK    5  A    between atoms: C_6  and  C_7 
REMARK    6  A    between atoms: C_7  and  C_8 
REMARK    7  A    between atoms: C_8  and  C_9 
REMARK    8  A    between atoms: C_9  and  C_10 
REMARK    9  A    between atoms: C_9  and  O_12 
REMARK   10  A    between atoms: C_10  and  O_11 
ROOT
HETATM    1  C   UNL     1     -21.472  -3.610 -11.724  1.00  0.00     0.002 C 
ENDROOT
BRANCH   1   2
HETATM    2  C   UNL     1     -21.186  -3.856 -10.242  1.00  0.00     0.000 C 
BRANCH   2   3
HETATM    3  C   UNL     1     -22.501  -3.862  -9.462  1.00  0.00     0.000 C 
BRANCH   3   4
HETATM    4  C   UNL     1     -22.326  -4.454  -8.068  1.00  0.00     0.000 C 
BRANCH   4   5
HETATM    5  C   UNL     1     -21.400  -3.576  -7.226  1.00  0.00    -0.000 C 
BRANCH   5   6
HETATM    6  C   UNL     1     -20.440  -4.432  -6.404  1.00  0.00    -0.005 C 
HETATM    7  C   UNL     1     -19.208  -4.803  -7.212  1.00  0.00     0.005 C 
ENDBRANCH   5   6
ENDBRANCH   4   5
ENDBRANCH   3   4
ENDBRANCH   2   3
ENDBRANCH   1   2
BRANCH   1   8
HETATM    8  C   UNL     1     -22.963  -3.672 -12.045  1.00  0.00     0.034 C 
BRANCH   8   9
HETATM    9  C   UNL     1     -23.426  -2.543 -12.980  1.00  0.00     0.141 C 
BRANCH   9  10
HETATM   10  C   UNL     1     -23.016  -2.738 -14.447  1.00  0.00     0.195 C 
BRANCH  10  11
HETATM   11  O   UNL     1     -23.667  -1.828 -15.322  1.00  0.00    -0.398 OA
HETATM   12  H   UNL     1     -23.917  -2.334 -16.123  1.00  0.00     0.209 HD
ENDBRANCH  10  11
ENDBRANCH   9  10
BRANCH   9  13
HETATM   13  O   UNL     1     -24.861  -2.467 -12.923  1.00  0.00    -0.393 OA
HETATM   14  H   UNL     1     -25.104  -2.021 -12.096  1.00  0.00     0.210 HD
ENDBRANCH   9  13
ENDBRANCH   8   9
ENDBRANCH   1   8
TORSDOF 10
ENDMDL
MODEL 4
REMARK VINA RESULT:      -5.6      2.318      3.108
REMARK  10 active torsions:
REMARK  status: ('A' for Active; 'I' for Inactive)
REMARK    1  A    between atoms: C_2  and  C_3 
REMARK    2  A    between atoms: C_3  and  C_4 
REMARK    3  A    between atoms: C_4  and  C_5 
REMARK    4  A    between atoms: C_5  and  C_6 
REMARK    5  A    between atoms: C_6  and  C_7 
REMARK    6  A    between atoms: C_7  and  C_8 
REMARK    7  A    between atoms: C_8  and  C_9 
REMARK    8  A    between atoms: C_9  and  C_10 
REMARK    9  A    between atoms: C_9  and  O_12 
REMARK   10  A    between atoms: C_10  and  O_11 
ROOT
HETATM    1  C   UNL     1     -21.603  -3.527 -11.154  1.00  0.00     0.002 C 
ENDROOT
BRANCH   1   2
HETATM    2  C   UNL     1     -20.422  -4.397 -10.722  1.00  0.00     0.000 C 
BRANCH   2   3
HETATM    3  C   UNL     1     -20.104  -4.132  -9.249  1.00  0.00     0.000 C 
BRANCH   3   4
HETATM    4  C   UNL     1     -21.181  -4.696  -8.331  1.00  0.00     0.000 C 
BRANCH   4   5
HETATM    5  C   UNL     1     -21.158  -3.985  -6.978  1.00  0.00    -0.000 C 
BRANCH   5   6
HETATM    6  C   UNL     1     -20.176  -4.661  -6.025  1.00  0.00    -0.005 C 
HETATM    7  C   UNL     1     -20.268  -6.174  -6.127  1.00  0.00     0.005 C 
ENDBRANCH   5   6
ENDBRANCH   4   5
ENDBRANCH   3   4
ENDBRANCH   2   3
ENDBRANCH   1   2
BRANCH   1   8
HETATM    8  C   UNL     1     -22.787  -4.357 -11.642  1.00  0.00     0.034 C 
BRANCH   8   9
HETATM    9  C   UNL     1     -24.140  -3.656 -11.439  1.00  0.00     0.141 C 
BRANCH   9  10
HETATM   10  C   UNL     1     -24.479  -3.365  -9.969  1.00  0.00     0.195 C 
BRANCH  10  11
HETATM   11  O   UNL     1     -25.877  -3.247  -9.745  1.00  0.00    -0.398 OA
HETATM   12  H   UNL     1     -26.101  -3.863  -9.017  1.00  0.00     0.209 HD
ENDBRANCH  10  11
ENDBRANCH   9  10
BRANCH   9  13
HETATM   13  O   UNL     1     -24.115  -2.406 -12.148  1.00  0.00    -0.393 OA
HETATM   14  H   UNL     1     -24.271  -1.695 -11.506  1.00  0.00     0.210 HD
ENDBRANCH   9  13
ENDBRANCH   8   9
ENDBRANCH   1   8
TORSDOF 10
ENDMDL
MODEL 5
REMARK VINA RESULT:      -5.6      1.100      2.042
REMARK  10 active torsions:
REMARK  status: ('A' for Active; 'I' for Inactive)
REMARK    1  A    between atoms: C_2  and  C_3 
REMARK    2  A    between atoms: C_3  and  C_4 
REMARK    3  A    between atoms: C_4  and  C_5 
REMARK    4  A    between atoms: C_5  and  C_6 
REMARK    5  A    between atoms: C_6  and  C_7 
REMARK    6  A    between atoms: C_7  and  C_8 
REMARK    7  A    between atoms: C_8  and  C_9 
REMARK    8  A    between atoms: C_9  and  C_10 
REMARK    9  A    between atoms: C_9  and  O_12 
REMARK   10  A    between atoms: C_10  and  O_11 
ROOT
HETATM    1  C   UNL     1     -23.616  -2.984 -11.636  1.00  0.00     0.002 C 
ENDROOT
BRANCH   1   2
HETATM    2  C   UNL     1     -23.015  -4.325 -11.214  1.00  0.00     0.000 C 
BRANCH   2   3
HETATM    3  C   UNL     1     -21.538  -4.369 -11.609  1.00  0.00     0.000 C 
BRANCH   3   4
HETATM    4  C   UNL     1     -20.659  -3.663 -10.583  1.00  0.00     0.000 C 
BRANCH   4   5
HETATM    5  C   UNL     1     -20.158  -4.656  -9.534  1.00  0.00    -0.000 C 
BRANCH   5   6
HETATM    6  C   UNL     1     -20.170  -4.028  -8.142  1.00  0.00    -0.005 C 
HETATM    7  C   UNL     1     -21.589  -3.737  -7.686  1.00  0.00     0.005 C 
ENDBRANCH   5   6
ENDBRANCH   4   5
ENDBRANCH   3   4
ENDBRANCH   2   3
ENDBRANCH   1   2
BRANCH   1   8
HETATM    8  C   UNL     1     -24.136  -3.008 -13.071  1.00  0.00     0.034 C 
BRANCH   8   9
HETATM    9  C   UNL     1     -23.745  -1.757 -13.875  1.00  0.00     0.141 C 
BRANCH   9  10
HETATM   10  C   UNL     1     -22.921  -2.056 -15.136  1.00  0.00     0.195 C 
BRANCH  10  11
HETATM   11  O   UNL     1     -22.326  -3.346 -15.108  1.00  0.00    -0.398 OA
HETATM   12  H   UNL     1     -22.897  -3.934 -15.643  1.00  0.00     0.209 HD
ENDBRANCH  10  11
ENDBRANCH   9  10
BRANCH   9  13
HETATM   13  O   UNL     1     -24.949  -1.082 -14.277  1.00  0.00    -0.393 OA
HETATM   14  H   UNL     1     -25.423  -0.811 -13.474  1.00  0.00     0.210 HD
ENDBRANCH   9  13
ENDBRANCH   8   9
ENDBRANCH   1   8
TORSDOF 10
ENDMDL
MODEL 6
REMARK VINA RESULT:      -5.6     12.110     13.663
REMARK  10 active torsions:
REMARK  status: ('A' for Active; 'I' for Inactive)
REMARK    1  A    between atoms: C_2  and  C_3 
REMARK    2  A    between atoms: C_3  and  C_4 
REMARK    3  A    between atoms: C_4  and  C_5 
REMARK    4  A    between atoms: C_5  and  C_6 
REMARK    5  A    between atoms: C_6  and  C_7 
REMARK    6  A    between atoms: C_7  and  C_8 
REMARK    7  A    between atoms: C_8  and  C_9 
REMARK    8  A    between atoms: C_9  and  C_10 
REMARK    9  A    between atoms: C_9  and  O_12 
REMARK   10  A    between atoms: C_10  and  O_11 
ROOT
HETATM    1  C   UNL     1     -36.548  -0.030 -12.586  1.00  0.00     0.002 C 
ENDROOT
BRANCH   1   2
HETATM    2  C   UNL     1     -35.036  -0.257 -12.594  1.00  0.00     0.000 C 
BRANCH   2   3
HETATM    3  C   UNL     1     -34.743  -1.749 -12.430  1.00  0.00     0.000 C 
BRANCH   3   4
HETATM    4  C   UNL     1     -33.975  -2.034 -11.144  1.00  0.00     0.000 C 
BRANCH   4   5
HETATM    5  C   UNL     1     -33.217  -3.356 -11.255  1.00  0.00    -0.000 C 
BRANCH   5   6
HETATM    6  C   UNL     1     -33.922  -4.454 -10.462  1.00  0.00    -0.005 C 
HETATM    7  C   UNL     1     -33.778  -5.803 -11.147  1.00  0.00     0.005 C 
ENDBRANCH   5   6
ENDBRANCH   4   5
ENDBRANCH   3   4
ENDBRANCH   2   3
ENDBRANCH   1   2
BRANCH   1   8
HETATM    8  C   UNL     1     -37.179  -0.274 -13.955  1.00  0.00     0.034 C 
BRANCH   8   9
HETATM    9  C   UNL     1     -36.358   0.319 -15.112  1.00  0.00     0.141 C 
BRANCH   9  10
HETATM   10  C   UNL     1     -35.836  -0.727 -16.109  1.00  0.00     0.195 C 
BRANCH  10  11
HETATM   11  O   UNL     1     -36.538  -0.703 -17.343  1.00  0.00    -0.398 OA
HETATM   12  H   UNL     1     -35.881  -0.499 -18.040  1.00  0.00     0.209 HD
ENDBRANCH  10  11
ENDBRANCH   9  10
BRANCH   9  13
HETATM   13  O   UNL     1     -37.189   1.245 -15.830  1.00  0.00    -0.393 OA
HETATM   14  H   UNL     1     -36.626   1.732 -16.453  1.00  0.00     0.210 HD
ENDBRANCH   9  13
ENDBRANCH   8   9
ENDBRANCH   1   8
TORSDOF 10
ENDMDL
MODEL 7
REMARK VINA RESULT:      -5.4     12.175     13.504
REMARK  10 active torsions:
REMARK  status: ('A' for Active; 'I' for Inactive)
REMARK    1  A    between atoms: C_2  and  C_3 
REMARK    2  A    between atoms: C_3  and  C_4 
REMARK    3  A    between atoms: C_4  and  C_5 
REMARK    4  A    between atoms: C_5  and  C_6 
REMARK    5  A    between atoms: C_6  and  C_7 
REMARK    6  A    between atoms: C_7  and  C_8 
REMARK    7  A    between atoms: C_8  and  C_9 
REMARK    8  A    between atoms: C_9  and  C_10 
REMARK    9  A    between atoms: C_9  and  O_12 
REMARK   10  A    between atoms: C_10  and  O_11 
ROOT
HETATM    1  C   UNL     1     -34.948  -1.845 -11.381  1.00  0.00     0.002 C 
ENDROOT
BRANCH   1   2
HETATM    2  C   UNL     1     -33.935  -2.591 -10.512  1.00  0.00     0.000 C 
BRANCH   2   3
HETATM    3  C   UNL     1     -32.877  -3.241 -11.404  1.00  0.00     0.000 C 
BRANCH   3   4
HETATM    4  C   UNL     1     -33.316  -4.620 -11.885  1.00  0.00     0.000 C 
BRANCH   4   5
HETATM    5  C   UNL     1     -34.313  -5.235 -10.904  1.00  0.00    -0.000 C 
BRANCH   5   6
HETATM    6  C   UNL     1     -33.951  -6.687 -10.600  1.00  0.00    -0.005 C 
HETATM    7  C   UNL     1     -34.956  -7.315  -9.649  1.00  0.00     0.005 C 
ENDBRANCH   5   6
ENDBRANCH   4   5
ENDBRANCH   3   4
ENDBRANCH   2   3
ENDBRANCH   1   2
BRANCH   1   8
HETATM    8  C   UNL     1     -36.214  -1.478 -10.611  1.00  0.00     0.034 C 
BRANCH   8   9
HETATM    9  C   UNL     1     -36.765  -0.092 -10.982  1.00  0.00     0.141 C 
BRANCH   9  10
HETATM   10  C   UNL     1     -37.261   0.726  -9.781  1.00  0.00     0.195 C 
BRANCH  10  11
HETATM   11  O   UNL     1     -36.199   1.328  -9.054  1.00  0.00    -0.398 OA
HETATM   12  H   UNL     1     -35.813   2.017  -9.633  1.00  0.00     0.209 HD
ENDBRANCH  10  11
ENDBRANCH   9  10
BRANCH   9  13
HETATM   13  O   UNL     1     -35.721   0.653 -11.631  1.00  0.00    -0.393 OA
HETATM   14  H   UNL     1     -34.971   0.714 -11.016  1.00  0.00     0.210 HD
ENDBRANCH   9  13
ENDBRANCH   8   9
ENDBRANCH   1   8
TORSDOF 10
ENDMDL
MODEL 8
REMARK VINA RESULT:      -5.4     11.917     13.068
REMARK  10 active torsions:
REMARK  status: ('A' for Active; 'I' for Inactive)
REMARK    1  A    between atoms: C_2  and  C_3 
REMARK    2  A    between atoms: C_3  and  C_4 
REMARK    3  A    between atoms: C_4  and  C_5 
REMARK    4  A    between atoms: C_5  and  C_6 
REMARK    5  A    between atoms: C_6  and  C_7 
REMARK    6  A    between atoms: C_7  and  C_8 
REMARK    7  A    between atoms: C_8  and  C_9 
REMARK    8  A    between atoms: C_9  and  C_10 
REMARK    9  A    between atoms: C_9  and  O_12 
REMARK   10  A    between atoms: C_10  and  O_11 
ROOT
HETATM    1  C   UNL     1     -34.914  -1.687 -11.478  1.00  0.00     0.002 C 
ENDROOT
BRANCH   1   2
HETATM    2  C   UNL     1     -33.635  -2.128 -10.764  1.00  0.00     0.000 C 
BRANCH   2   3
HETATM    3  C   UNL     1     -33.437  -3.633 -10.956  1.00  0.00     0.000 C 
BRANCH   3   4
HETATM    4  C   UNL     1     -34.439  -4.210 -11.949  1.00  0.00     0.000 C 
BRANCH   4   5
HETATM    5  C   UNL     1     -34.586  -5.718 -11.745  1.00  0.00    -0.000 C 
BRANCH   5   6
HETATM    6  C   UNL     1     -34.381  -6.090 -10.279  1.00  0.00    -0.005 C 
HETATM    7  C   UNL     1     -34.796  -7.528 -10.016  1.00  0.00     0.005 C 
ENDBRANCH   5   6
ENDBRANCH   4   5
ENDBRANCH   3   4
ENDBRANCH   2   3
ENDBRANCH   1   2
BRANCH   1   8
HETATM    8  C   UNL     1     -34.687  -0.476 -12.379  1.00  0.00     0.034 C 
BRANCH   8   9
HETATM    9  C   UNL     1     -35.965  -0.006 -13.092  1.00  0.00     0.141 C 
BRANCH   9  10
HETATM   10  C   UNL     1     -35.772   0.304 -14.584  1.00  0.00     0.195 C 
BRANCH  10  11
HETATM   11  O   UNL     1     -34.408   0.503 -14.929  1.00  0.00    -0.398 OA
HETATM   12  H   UNL     1     -34.384   1.231 -15.583  1.00  0.00     0.209 HD
ENDBRANCH  10  11
ENDBRANCH   9  10
BRANCH   9  13
HETATM   13  O   UNL     1     -36.957  -1.040 -12.974  1.00  0.00    -0.393 OA
HETATM   14  H   UNL     1     -37.810  -0.669 -13.253  1.00  0.00     0.210 HD
ENDBRANCH   9  13
ENDBRANCH   8   9
ENDBRANCH   1   8
TORSDOF 10
ENDMDL
MODEL 9
REMARK VINA RESULT:      -5.3      1.625      2.127
REMARK  10 active torsions:
REMARK  status: ('A' for Active; 'I' for Inactive)
REMARK    1  A    between atoms: C_2  and  C_3 
REMARK    2  A    between atoms: C_3  and  C_4 
REMARK    3  A    between atoms: C_4  and  C_5 
REMARK    4  A    between atoms: C_5  and  C_6 
REMARK    5  A    between atoms: C_6  and  C_7 
REMARK    6  A    between atoms: C_7  and  C_8 
REMARK    7  A    between atoms: C_8  and  C_9 
REMARK    8  A    between atoms: C_9  and  C_10 
REMARK    9  A    between atoms: C_9  and  O_12 
REMARK   10  A    between atoms: C_10  and  O_11 
ROOT
HETATM    1  C   UNL     1     -21.343  -3.987 -11.094  1.00  0.00     0.002 C 
ENDROOT
BRANCH   1   2
HETATM    2  C   UNL     1     -21.029  -4.127  -9.604  1.00  0.00     0.000 C 
BRANCH   2   3
HETATM    3  C   UNL     1     -22.296  -3.863  -8.788  1.00  0.00     0.000 C 
BRANCH   3   4
HETATM    4  C   UNL     1     -22.170  -4.394  -7.365  1.00  0.00     0.000 C 
BRANCH   4   5
HETATM    5  C   UNL     1     -20.771  -4.119  -6.813  1.00  0.00    -0.000 C 
BRANCH   5   6
HETATM    6  C   UNL     1     -20.496  -4.973  -5.578  1.00  0.00    -0.005 C 
HETATM    7  C   UNL     1     -20.402  -6.446  -5.940  1.00  0.00     0.005 C 
ENDBRANCH   5   6
ENDBRANCH   4   5
ENDBRANCH   3   4
ENDBRANCH   2   3
ENDBRANCH   1   2
BRANCH   1   8
HETATM    8  C   UNL     1     -22.712  -4.557 -11.455  1.00  0.00     0.034 C 
BRANCH   8   9
HETATM    9  C   UNL     1     -23.294  -3.958 -12.744  1.00  0.00     0.141 C 
BRANCH   9  10
HETATM   10  C   UNL     1     -24.402  -2.921 -12.508  1.00  0.00     0.195 C 
BRANCH  10  11
HETATM   11  O   UNL     1     -24.532  -2.004 -13.586  1.00  0.00    -0.398 OA
HETATM   12  H   UNL     1     -24.568  -2.536 -14.408  1.00  0.00     0.209 HD
ENDBRANCH  10  11
ENDBRANCH   9  10
BRANCH   9  13
HETATM   13  O   UNL     1     -22.230  -3.318 -13.469  1.00  0.00    -0.393 OA
HETATM   14  H   UNL     1     -22.569  -2.478 -13.818  1.00  0.00     0.210 HD
ENDBRANCH   9  13
ENDBRANCH   8   9
ENDBRANCH   1   8
TORSDOF 10
ENDMDL
