MODEL 1
REMARK VINA RESULT:      -3.1      0.000      0.000
REMARK  1 active torsions:
REMARK  status: ('A' for Active; 'I' for Inactive)
REMARK    1  A    between atoms: C_2  and  O_4 
ROOT
HETATM    1  C   UNL     1     -33.207  -2.890 -11.186  1.00  0.00     0.039 C 
HETATM    2  C   UNL     1     -32.842  -4.185 -11.893  1.00  0.00     0.110 C 
HETATM    3  C   UNL     1     -33.493  -5.391 -11.232  1.00  0.00     0.039 C 
ENDROOT
BRANCH   2   4
HETATM    4  O   UNL     1     -33.259  -4.113 -13.252  1.00  0.00    -0.396 OA
HETATM    5  H   UNL     1     -32.555  -3.675 -13.760  1.00  0.00     0.209 HD
ENDBRANCH   2   4
TORSDOF 1
ENDMDL
MODEL 2
REMARK VINA RESULT:      -3.1     12.936     13.334
REMARK  1 active torsions:
REMARK  status: ('A' for Active; 'I' for Inactive)
REMARK    1  A    between atoms: C_2  and  O_4 
ROOT
HETATM    1  C   UNL     1     -29.888 -15.560 -20.185  1.00  0.00     0.039 C 
HETATM    2  C   UNL     1     -30.049 -14.818 -18.868  1.00  0.00     0.110 C 
HETATM    3  C   UNL     1     -28.807 -14.940 -17.996  1.00  0.00     0.039 C 
ENDROOT
BRANCH   2   4
HETATM    4  O   UNL     1     -30.304 -13.442 -19.131  1.00  0.00    -0.396 OA
HETATM    5  H   UNL     1     -29.677 -12.915 -18.608  1.00  0.00     0.209 HD
ENDBRANCH   2   4
TORSDOF 1
ENDMDL
MODEL 3
REMARK VINA RESULT:      -3.0      8.896      9.134
REMARK  1 active torsions:
REMARK  status: ('A' for Active; 'I' for Inactive)
REMARK    1  A    between atoms: C_2  and  O_4 
ROOT
HETATM    1  C   UNL     1     -24.052  -3.163 -11.436  1.00  0.00     0.039 C 
HETATM    2  C   UNL     1     -24.529  -3.849 -10.166  1.00  0.00     0.110 C 
HETATM    3  C   UNL     1     -23.482  -3.785  -9.063  1.00  0.00     0.039 C 
ENDROOT
BRANCH   2   4
HETATM    4  O   UNL     1     -25.725  -3.223  -9.714  1.00  0.00    -0.396 OA
HETATM    5  H   UNL     1     -25.478  -2.410  -9.241  1.00  0.00     0.209 HD
ENDBRANCH   2   4
TORSDOF 1
ENDMDL
MODEL 4
REMARK VINA RESULT:      -2.9     12.834     13.251
REMARK  1 active torsions:
REMARK  status: ('A' for Active; 'I' for Inactive)
REMARK    1  A    between atoms: C_2  and  O_4 
ROOT
HETATM    1  C   UNL     1     -24.535   7.079 -11.488  1.00  0.00     0.039 C 
HETATM    2  C   UNL     1     -25.680   6.744 -10.545  1.00  0.00     0.110 C 
HETATM    3  C   UNL     1     -27.022   7.189 -11.107  1.00  0.00     0.039 C 
ENDROOT
BRANCH   2   4
HETATM    4  O   UNL     1     -25.708   5.339 -10.320  1.00  0.00    -0.396 OA
HETATM    5  H   UNL     1     -25.077   4.924 -10.933  1.00  0.00     0.209 HD
ENDBRANCH   2   4
TORSDOF 1
ENDMDL
MODEL 5
REMARK VINA RESULT:      -2.9     10.272     10.548
REMARK  1 active torsions:
REMARK  status: ('A' for Active; 'I' for Inactive)
REMARK    1  A    between atoms: C_2  and  O_4 
ROOT
HETATM    1  C   UNL     1     -24.181  -2.950 -12.396  1.00  0.00     0.039 C 
HETATM    2  C   UNL     1     -22.668  -2.883 -12.523  1.00  0.00     0.110 C 
HETATM    3  C   UNL     1     -21.978  -3.847 -11.569  1.00  0.00     0.039 C 
ENDROOT
BRANCH   2   4
HETATM    4  O   UNL     1     -22.294  -3.197 -13.860  1.00  0.00    -0.396 OA
HETATM    5  H   UNL     1     -22.438  -2.406 -14.406  1.00  0.00     0.209 HD
ENDBRANCH   2   4
TORSDOF 1
ENDMDL
MODEL 6
REMARK VINA RESULT:      -2.9     12.558     13.197
REMARK  1 active torsions:
REMARK  status: ('A' for Active; 'I' for Inactive)
REMARK    1  A    between atoms: C_2  and  O_4 
ROOT
HETATM    1  C   UNL     1     -26.048   8.500 -10.581  1.00  0.00     0.039 C 
HETATM    2  C   UNL     1     -26.375   7.111 -11.105  1.00  0.00     0.110 C 
HETATM    3  C   UNL     1     -26.061   6.033 -10.078  1.00  0.00     0.039 C 
ENDROOT
BRANCH   2   4
HETATM    4  O   UNL     1     -27.756   7.049 -11.443  1.00  0.00    -0.396 OA
HETATM    5  H   UNL     1     -28.135   7.936 -11.320  1.00  0.00     0.209 HD
ENDBRANCH   2   4
TORSDOF 1
ENDMDL
MODEL 7
REMARK VINA RESULT:      -2.9     16.402     16.522
REMARK  1 active torsions:
REMARK  status: ('A' for Active; 'I' for Inactive)
REMARK    1  A    between atoms: C_2  and  O_4 
ROOT
HETATM    1  C   UNL     1     -22.275  -6.878  -0.979  1.00  0.00     0.039 C 
HETATM    2  C   UNL     1     -22.641  -8.044  -0.076  1.00  0.00     0.110 C 
HETATM    3  C   UNL     1     -21.541  -8.344   0.932  1.00  0.00     0.039 C 
ENDROOT
BRANCH   2   4
HETATM    4  O   UNL     1     -23.845  -7.740   0.620  1.00  0.00    -0.396 OA
HETATM    5  H   UNL     1     -23.922  -6.772   0.678  1.00  0.00     0.209 HD
ENDBRANCH   2   4
TORSDOF 1
ENDMDL
MODEL 8
REMARK VINA RESULT:      -2.8     25.923     26.279
REMARK  1 active torsions:
REMARK  status: ('A' for Active; 'I' for Inactive)
REMARK    1  A    between atoms: C_2  and  O_4 
ROOT
HETATM    1  C   UNL     1     -11.360   4.985 -19.447  1.00  0.00     0.039 C 
HETATM    2  C   UNL     1      -9.876   5.296 -19.343  1.00  0.00     0.110 C 
HETATM    3  C   UNL     1      -9.425   6.265 -20.426  1.00  0.00     0.039 C 
ENDROOT
BRANCH   2   4
HETATM    4  O   UNL     1      -9.602   5.859 -18.065  1.00  0.00    -0.396 OA
HETATM    5  H   UNL     1     -10.446   5.958 -17.593  1.00  0.00     0.209 HD
ENDBRANCH   2   4
TORSDOF 1
ENDMDL
MODEL 9
REMARK VINA RESULT:      -2.8     11.251     11.450
REMARK  1 active torsions:
REMARK  status: ('A' for Active; 'I' for Inactive)
REMARK    1  A    between atoms: C_2  and  O_4 
ROOT
HETATM    1  C   UNL     1     -22.399  -3.825  -9.641  1.00  0.00     0.039 C 
HETATM    2  C   UNL     1     -22.478  -4.354  -8.218  1.00  0.00     0.110 C 
HETATM    3  C   UNL     1     -21.465  -3.676  -7.308  1.00  0.00     0.039 C 
ENDROOT
BRANCH   2   4
HETATM    4  O   UNL     1     -23.789  -4.135  -7.707  1.00  0.00    -0.396 OA
HETATM    5  H   UNL     1     -24.366  -4.836  -8.053  1.00  0.00     0.209 HD
ENDBRANCH   2   4
TORSDOF 1
ENDMDL
