MODEL 1
REMARK VINA RESULT:      -6.3      0.000      0.000
REMARK  3 active torsions:
REMARK  status: ('A' for Active; 'I' for Inactive)
REMARK    1  A    between atoms: C_2  and  C_3 
REMARK    2  A    between atoms: C_3  and  C_4 
REMARK    3  A    between atoms: C_3  and  O_10 
ROOT
HETATM    1  C   UNL     1     -34.354  -4.574 -11.009  1.00  0.00    -0.030 A 
HETATM    2  C   UNL     1     -33.239  -3.719 -11.022  1.00  0.00     0.010 A 
HETATM    3  C   UNL     1     -33.401  -2.335 -10.925  1.00  0.00     0.001 A 
HETATM    4  C   UNL     1     -34.673  -1.787 -10.807  1.00  0.00     0.000 A 
HETATM    5  C   UNL     1     -35.791  -2.621 -10.784  1.00  0.00     0.001 A 
HETATM    6  C   UNL     1     -35.630  -4.005 -10.889  1.00  0.00     0.010 A 
ENDROOT
BRANCH   1   7
HETATM    7  C   UNL     1     -34.208  -6.080 -11.117  1.00  0.00     0.150 C 
BRANCH   7   8
HETATM    8  C   UNL     1     -34.752  -6.852  -9.908  1.00  0.00     0.032 C 
HETATM    9  C   UNL     1     -34.352  -8.318  -9.892  1.00  0.00     0.008 C 
ENDBRANCH   7   8
BRANCH   7  10
HETATM   10  O   UNL     1     -32.832  -6.437 -11.272  1.00  0.00    -0.391 OA
HETATM   11  H   UNL     1     -32.311  -5.914 -10.642  1.00  0.00     0.210 HD
ENDBRANCH   7  10
ENDBRANCH   1   7
TORSDOF 3
ENDMDL
MODEL 2
REMARK VINA RESULT:      -6.0     11.018     12.472
REMARK  3 active torsions:
REMARK  status: ('A' for Active; 'I' for Inactive)
REMARK    1  A    between atoms: C_2  and  C_3 
REMARK    2  A    between atoms: C_3  and  C_4 
REMARK    3  A    between atoms: C_3  and  O_10 
ROOT
HETATM    1  C   UNL     1     -22.613  -3.849 -11.006  1.00  0.00    -0.030 A 
HETATM    2  C   UNL     1     -21.305  -4.106 -11.449  1.00  0.00     0.010 A 
HETATM    3  C   UNL     1     -20.288  -4.398 -10.537  1.00  0.00     0.001 A 
HETATM    4  C   UNL     1     -20.563  -4.445  -9.175  1.00  0.00     0.000 A 
HETATM    5  C   UNL     1     -21.858  -4.199  -8.718  1.00  0.00     0.001 A 
HETATM    6  C   UNL     1     -22.874  -3.900  -9.629  1.00  0.00     0.010 A 
ENDROOT
BRANCH   1   7
HETATM    7  C   UNL     1     -23.736  -3.524 -11.973  1.00  0.00     0.150 C 
BRANCH   7   8
HETATM    8  C   UNL     1     -23.420  -2.375 -12.939  1.00  0.00     0.032 C 
HETATM    9  C   UNL     1     -23.113  -2.835 -14.354  1.00  0.00     0.008 C 
ENDBRANCH   7   8
BRANCH   7  10
HETATM   10  O   UNL     1     -24.922  -3.170 -11.257  1.00  0.00    -0.391 OA
HETATM   11  H   UNL     1     -24.690  -2.491 -10.603  1.00  0.00     0.210 HD
ENDBRANCH   7  10
ENDBRANCH   1   7
TORSDOF 3
ENDMDL
MODEL 3
REMARK VINA RESULT:      -5.9     11.887     13.006
REMARK  3 active torsions:
REMARK  status: ('A' for Active; 'I' for Inactive)
REMARK    1  A    between atoms: C_2  and  C_3 
REMARK    2  A    between atoms: C_3  and  C_4 
REMARK    3  A    between atoms: C_3  and  O_10 
ROOT
HETATM    1  C   UNL     1     -21.911  -4.086  -8.938  1.00  0.00    -0.030 A 
HETATM    2  C   UNL     1     -20.633  -4.345  -9.462  1.00  0.00     0.010 A 
HETATM    3  C   UNL     1     -20.402  -4.288 -10.838  1.00  0.00     0.001 A 
HETATM    4  C   UNL     1     -21.437  -3.965 -11.708  1.00  0.00     0.000 A 
HETATM    5  C   UNL     1     -22.711  -3.697 -11.205  1.00  0.00     0.001 A 
HETATM    6  C   UNL     1     -22.945  -3.762  -9.829  1.00  0.00     0.010 A 
ENDROOT
BRANCH   1   7
HETATM    7  C   UNL     1     -22.192  -4.147  -7.449  1.00  0.00     0.150 C 
BRANCH   7   8
HETATM    8  C   UNL     1     -21.450  -5.270  -6.714  1.00  0.00     0.032 C 
HETATM    9  C   UNL     1     -20.378  -4.770  -5.760  1.00  0.00     0.008 C 
ENDBRANCH   7   8
BRANCH   7  10
HETATM   10  O   UNL     1     -23.591  -4.331  -7.214  1.00  0.00    -0.391 OA
HETATM   11  H   UNL     1     -23.964  -4.814  -7.969  1.00  0.00     0.210 HD
ENDBRANCH   7  10
ENDBRANCH   1   7
TORSDOF 3
ENDMDL
MODEL 4
REMARK VINA RESULT:      -5.9      3.173      5.435
REMARK  3 active torsions:
REMARK  status: ('A' for Active; 'I' for Inactive)
REMARK    1  A    between atoms: C_2  and  C_3 
REMARK    2  A    between atoms: C_3  and  C_4 
REMARK    3  A    between atoms: C_3  and  O_10 
ROOT
HETATM    1  C   UNL     1     -34.706  -2.031 -12.537  1.00  0.00    -0.030 A 
HETATM    2  C   UNL     1     -34.360  -3.287 -13.063  1.00  0.00     0.010 A 
HETATM    3  C   UNL     1     -33.676  -4.223 -12.283  1.00  0.00     0.001 A 
HETATM    4  C   UNL     1     -33.337  -3.923 -10.968  1.00  0.00     0.000 A 
HETATM    5  C   UNL     1     -33.680  -2.684 -10.427  1.00  0.00     0.001 A 
HETATM    6  C   UNL     1     -34.356  -1.744 -11.209  1.00  0.00     0.010 A 
ENDROOT
BRANCH   1   7
HETATM    7  C   UNL     1     -35.443  -0.993 -13.362  1.00  0.00     0.150 C 
BRANCH   7   8
HETATM    8  C   UNL     1     -34.962   0.446 -13.135  1.00  0.00     0.032 C 
HETATM    9  C   UNL     1     -34.931   1.284 -14.403  1.00  0.00     0.008 C 
ENDBRANCH   7   8
BRANCH   7  10
HETATM   10  O   UNL     1     -36.843  -1.029 -13.071  1.00  0.00    -0.391 OA
HETATM   11  H   UNL     1     -36.952  -1.063 -12.108  1.00  0.00     0.210 HD
ENDBRANCH   7  10
ENDBRANCH   1   7
TORSDOF 3
ENDMDL
MODEL 5
REMARK VINA RESULT:      -5.8     10.824     12.075
REMARK  3 active torsions:
REMARK  status: ('A' for Active; 'I' for Inactive)
REMARK    1  A    between atoms: C_2  and  C_3 
REMARK    2  A    between atoms: C_3  and  C_4 
REMARK    3  A    between atoms: C_3  and  O_10 
ROOT
HETATM    1  C   UNL     1     -22.871  -3.583 -10.010  1.00  0.00    -0.030 A 
HETATM    2  C   UNL     1     -24.182  -3.410 -10.485  1.00  0.00     0.010 A 
HETATM    3  C   UNL     1     -24.424  -3.186 -11.843  1.00  0.00     0.001 A 
HETATM    4  C   UNL     1     -23.366  -3.139 -12.744  1.00  0.00     0.000 A 
HETATM    5  C   UNL     1     -22.059  -3.316 -12.290  1.00  0.00     0.001 A 
HETATM    6  C   UNL     1     -21.815  -3.532 -10.932  1.00  0.00     0.010 A 
ENDROOT
BRANCH   1   7
HETATM    7  C   UNL     1     -22.577  -3.822  -8.542  1.00  0.00     0.150 C 
BRANCH   7   8
HETATM    8  C   UNL     1     -21.584  -4.961  -8.278  1.00  0.00     0.032 C 
HETATM    9  C   UNL     1     -20.256  -4.491  -7.708  1.00  0.00     0.008 C 
ENDBRANCH   7   8
BRANCH   7  10
HETATM   10  O   UNL     1     -23.783  -4.132  -7.837  1.00  0.00    -0.391 OA
HETATM   11  H   UNL     1     -23.578  -4.800  -7.164  1.00  0.00     0.210 HD
ENDBRANCH   7  10
ENDBRANCH   1   7
TORSDOF 3
ENDMDL
MODEL 6
REMARK VINA RESULT:      -5.8      2.414      4.740
REMARK  3 active torsions:
REMARK  status: ('A' for Active; 'I' for Inactive)
REMARK    1  A    between atoms: C_2  and  C_3 
REMARK    2  A    between atoms: C_3  and  C_4 
REMARK    3  A    between atoms: C_3  and  O_10 
ROOT
HETATM    1  C   UNL     1     -34.834  -2.888 -11.317  1.00  0.00    -0.030 A 
HETATM    2  C   UNL     1     -35.466  -4.054 -10.856  1.00  0.00     0.010 A 
HETATM    3  C   UNL     1     -34.773  -5.266 -10.801  1.00  0.00     0.001 A 
HETATM    4  C   UNL     1     -33.441  -5.329 -11.195  1.00  0.00     0.000 A 
HETATM    5  C   UNL     1     -32.796  -4.178 -11.648  1.00  0.00     0.001 A 
HETATM    6  C   UNL     1     -33.491  -2.967 -11.712  1.00  0.00     0.010 A 
ENDROOT
BRANCH   1   7
HETATM    7  C   UNL     1     -35.563  -1.560 -11.393  1.00  0.00     0.150 C 
BRANCH   7   8
HETATM    8  C   UNL     1     -36.559  -1.323 -10.251  1.00  0.00     0.032 C 
HETATM    9  C   UNL     1     -37.014   0.121 -10.129  1.00  0.00     0.008 C 
ENDBRANCH   7   8
BRANCH   7  10
HETATM   10  O   UNL     1     -36.288  -1.460 -12.622  1.00  0.00    -0.391 OA
HETATM   11  H   UNL     1     -35.651  -1.485 -13.353  1.00  0.00     0.210 HD
ENDBRANCH   7  10
ENDBRANCH   1   7
TORSDOF 3
ENDMDL
MODEL 7
REMARK VINA RESULT:      -5.8      2.583      4.771
REMARK  3 active torsions:
REMARK  status: ('A' for Active; 'I' for Inactive)
REMARK    1  A    between atoms: C_2  and  C_3 
REMARK    2  A    between atoms: C_3  and  C_4 
REMARK    3  A    between atoms: C_3  and  O_10 
ROOT
HETATM    1  C   UNL     1     -35.105  -2.501 -10.986  1.00  0.00    -0.030 A 
HETATM    2  C   UNL     1     -33.741  -2.340 -11.279  1.00  0.00     0.010 A 
HETATM    3  C   UNL     1     -32.902  -3.451 -11.398  1.00  0.00     0.001 A 
HETATM    4  C   UNL     1     -33.413  -4.734 -11.236  1.00  0.00     0.000 A 
HETATM    5  C   UNL     1     -34.768  -4.912 -10.953  1.00  0.00     0.001 A 
HETATM    6  C   UNL     1     -35.605  -3.801 -10.825  1.00  0.00     0.010 A 
ENDROOT
BRANCH   1   7
HETATM    7  C   UNL     1     -36.038  -1.313 -10.845  1.00  0.00     0.150 C 
BRANCH   7   8
HETATM    8  C   UNL     1     -35.852  -0.237 -11.923  1.00  0.00     0.032 C 
HETATM    9  C   UNL     1     -36.955  -0.227 -12.969  1.00  0.00     0.008 C 
ENDBRANCH   7   8
BRANCH   7  10
HETATM   10  O   UNL     1     -35.854  -0.684  -9.574  1.00  0.00    -0.391 OA
HETATM   11  H   UNL     1     -36.711  -0.336  -9.281  1.00  0.00     0.210 HD
ENDBRANCH   7  10
ENDBRANCH   1   7
TORSDOF 3
ENDMDL
MODEL 8
REMARK VINA RESULT:      -5.7     11.431     12.772
REMARK  3 active torsions:
REMARK  status: ('A' for Active; 'I' for Inactive)
REMARK    1  A    between atoms: C_2  and  C_3 
REMARK    2  A    between atoms: C_3  and  C_4 
REMARK    3  A    between atoms: C_3  and  O_10 
ROOT
HETATM    1  C   UNL     1     -21.822  -4.210  -9.882  1.00  0.00    -0.030 A 
HETATM    2  C   UNL     1     -20.427  -4.209  -9.711  1.00  0.00     0.010 A 
HETATM    3  C   UNL     1     -19.866  -4.095  -8.436  1.00  0.00     0.001 A 
HETATM    4  C   UNL     1     -20.686  -3.990  -7.318  1.00  0.00     0.000 A 
HETATM    5  C   UNL     1     -22.073  -3.998  -7.469  1.00  0.00     0.001 A 
HETATM    6  C   UNL     1     -22.635  -4.103  -8.744  1.00  0.00     0.010 A 
ENDROOT
BRANCH   1   7
HETATM    7  C   UNL     1     -22.459  -4.326 -11.254  1.00  0.00     0.150 C 
BRANCH   7   8
HETATM    8  C   UNL     1     -22.808  -2.979 -11.900  1.00  0.00     0.032 C 
HETATM    9  C   UNL     1     -24.221  -2.920 -12.458  1.00  0.00     0.008 C 
ENDBRANCH   7   8
BRANCH   7  10
HETATM   10  O   UNL     1     -23.665  -5.092 -11.179  1.00  0.00    -0.391 OA
HETATM   11  H   UNL     1     -23.428  -6.033 -11.204  1.00  0.00     0.210 HD
ENDBRANCH   7  10
ENDBRANCH   1   7
TORSDOF 3
ENDMDL
MODEL 9
REMARK VINA RESULT:      -5.6     12.021     13.276
REMARK  3 active torsions:
REMARK  status: ('A' for Active; 'I' for Inactive)
REMARK    1  A    between atoms: C_2  and  C_3 
REMARK    2  A    between atoms: C_3  and  C_4 
REMARK    3  A    between atoms: C_3  and  O_10 
ROOT
HETATM    1  C   UNL     1     -21.856  -4.486  -8.250  1.00  0.00    -0.030 A 
HETATM    2  C   UNL     1     -20.579  -4.234  -8.778  1.00  0.00     0.010 A 
HETATM    3  C   UNL     1     -19.443  -4.331  -7.970  1.00  0.00     0.001 A 
HETATM    4  C   UNL     1     -19.565  -4.687  -6.632  1.00  0.00     0.000 A 
HETATM    5  C   UNL     1     -20.825  -4.948  -6.094  1.00  0.00     0.001 A 
HETATM    6  C   UNL     1     -21.962  -4.844  -6.899  1.00  0.00     0.010 A 
ENDROOT
BRANCH   1   7
HETATM    7  C   UNL     1     -23.108  -4.383  -9.102  1.00  0.00     0.150 C 
BRANCH   7   8
HETATM    8  C   UNL     1     -22.906  -3.638 -10.427  1.00  0.00     0.032 C 
HETATM    9  C   UNL     1     -23.093  -4.516 -11.654  1.00  0.00     0.008 C 
ENDBRANCH   7   8
BRANCH   7  10
HETATM   10  O   UNL     1     -24.144  -3.708  -8.383  1.00  0.00    -0.391 OA
HETATM   11  H   UNL     1     -24.869  -4.336  -8.235  1.00  0.00     0.210 HD
ENDBRANCH   7  10
ENDBRANCH   1   7
TORSDOF 3
ENDMDL
