MODEL 1
REMARK VINA RESULT:      -6.7      0.000      0.000
REMARK  20 active torsions:
REMARK  status: ('A' for Active; 'I' for Inactive)
REMARK    1  A    between atoms: C_2  and  C_3 
REMARK    2  A    between atoms: C_3  and  C_4 
REMARK    3  A    between atoms: C_4  and  C_5 
REMARK    4  A    between atoms: C_5  and  C_6 
REMARK    5  A    between atoms: C_6  and  C_7 
REMARK    6  A    between atoms: C_7  and  C_8 
REMARK    7  A    between atoms: C_8  and  C_9 
REMARK    8  A    between atoms: C_9  and  C_10 
REMARK    9  A    between atoms: C_10  and  C_11 
REMARK   10  A    between atoms: C_11  and  C_12 
REMARK   11  A    between atoms: C_12  and  C_13 
REMARK   12  A    between atoms: C_13  and  C_14 
REMARK   13  A    between atoms: C_14  and  C_15 
REMARK   14  A    between atoms: C_15  and  C_16 
REMARK   15  A    between atoms: C_16  and  C_17 
REMARK   16  A    between atoms: C_17  and  C_18 
REMARK       I    between atoms: C_18  and  N_20 
REMARK   17  A    between atoms: N_20  and  C_21 
REMARK   18  A    between atoms: C_21  and  C_22 
REMARK   19  A    between atoms: C_22  and  C_23 
REMARK   20  A    between atoms: C_23  and  N_24 
ROOT
HETATM    1  C   UNL     1     -21.380  -8.057  -4.522  1.00  0.00     0.000 C 
ENDROOT
BRANCH   1   2
HETATM    2  C   UNL     1     -21.242  -7.936  -3.013  1.00  0.00     0.000 C 
BRANCH   2   3
HETATM    3  C   UNL     1     -21.671  -6.554  -2.550  1.00  0.00     0.000 C 
BRANCH   3   4
HETATM    4  C   UNL     1     -22.321  -6.644  -1.180  1.00  0.00     0.000 C 
BRANCH   4   5
HETATM    5  C   UNL     1     -21.727  -7.802  -0.398  1.00  0.00     0.000 C 
BRANCH   5   6
HETATM    6  C   UNL     1     -22.837  -8.676   0.155  1.00  0.00     0.000 C 
BRANCH   6   7
HETATM    7  C   UNL     1     -22.683 -10.095  -0.361  1.00  0.00     0.000 C 
BRANCH   7   8
HETATM    8  C   UNL     1     -23.970 -10.869  -0.139  1.00  0.00     0.000 C 
BRANCH   8   9
HETATM    9  C   UNL     1     -23.659 -12.224   0.470  1.00  0.00     0.000 C 
BRANCH   9  10
HETATM   10  C   UNL     1     -22.157 -12.402   0.603  1.00  0.00     0.000 C 
BRANCH  10  11
HETATM   11  C   UNL     1     -21.835 -13.824   1.033  1.00  0.00     0.000 C 
BRANCH  11  12
HETATM   12  C   UNL     1     -22.343 -14.073   2.443  1.00  0.00    -0.000 C 
BRANCH  12  13
HETATM   13  C   UNL     1     -23.340 -15.224   2.459  1.00  0.00    -0.005 C 
HETATM   14  C   UNL     1     -24.428 -14.970   3.483  1.00  0.00     0.005 C 
ENDBRANCH  12  13
ENDBRANCH  11  12
ENDBRANCH  10  11
ENDBRANCH   9  10
ENDBRANCH   8   9
ENDBRANCH   7   8
ENDBRANCH   6   7
ENDBRANCH   5   6
ENDBRANCH   4   5
ENDBRANCH   3   4
ENDBRANCH   2   3
ENDBRANCH   1   2
BRANCH   1  15
HETATM   15  C   UNL     1     -21.657  -6.689  -5.142  1.00  0.00     0.000 C 
BRANCH  15  16
HETATM   16  C   UNL     1     -20.457  -6.219  -5.931  1.00  0.00     0.009 C 
BRANCH  16  17
HETATM   17  C   UNL     1     -20.275  -4.699  -5.895  1.00  0.00     0.103 C 
BRANCH  17  18
HETATM   18  C   UNL     1     -20.741  -4.090  -7.189  1.00  0.00     0.217 C 
HETATM   19  O   UNL     1     -19.948  -3.672  -8.038  1.00  0.00    -0.274 OA
HETATM   20  N   UNL     1     -22.107  -4.033  -7.358  1.00  0.00    -0.361 N 
HETATM   21  H   UNL     1     -22.739  -4.404  -6.655  1.00  0.00     0.162 HD
BRANCH  20  22
HETATM   22  C   UNL     1     -22.658  -3.503  -8.586  1.00  0.00     0.124 C 
BRANCH  22  23
HETATM   23  C   UNL     1     -22.816  -4.578  -9.663  1.00  0.00     0.050 C 
BRANCH  23  24
HETATM   24  C   UNL     1     -23.903  -4.223 -10.690  1.00  0.00     0.273 C 
BRANCH  24  25
HETATM   25  N   UNL     1     -23.495  -3.131 -11.591  1.00  0.00     0.080 N 
HETATM   26  C   UNL     1     -22.159  -3.376 -12.157  1.00  0.00     0.309 C 
HETATM   27  C   UNL     1     -24.455  -3.002 -12.695  1.00  0.00     0.309 C 
ENDBRANCH  24  25
ENDBRANCH  23  24
ENDBRANCH  22  23
ENDBRANCH  20  22
ENDBRANCH  17  18
ENDBRANCH  16  17
ENDBRANCH  15  16
ENDBRANCH   1  15
TORSDOF 20
ENDMDL
MODEL 2
REMARK VINA RESULT:      -6.7     13.993     16.732
REMARK  20 active torsions:
REMARK  status: ('A' for Active; 'I' for Inactive)
REMARK    1  A    between atoms: C_2  and  C_3 
REMARK    2  A    between atoms: C_3  and  C_4 
REMARK    3  A    between atoms: C_4  and  C_5 
REMARK    4  A    between atoms: C_5  and  C_6 
REMARK    5  A    between atoms: C_6  and  C_7 
REMARK    6  A    between atoms: C_7  and  C_8 
REMARK    7  A    between atoms: C_8  and  C_9 
REMARK    8  A    between atoms: C_9  and  C_10 
REMARK    9  A    between atoms: C_10  and  C_11 
REMARK   10  A    between atoms: C_11  and  C_12 
REMARK   11  A    between atoms: C_12  and  C_13 
REMARK   12  A    between atoms: C_13  and  C_14 
REMARK   13  A    between atoms: C_14  and  C_15 
REMARK   14  A    between atoms: C_15  and  C_16 
REMARK   15  A    between atoms: C_16  and  C_17 
REMARK   16  A    between atoms: C_17  and  C_18 
REMARK       I    between atoms: C_18  and  N_20 
REMARK   17  A    between atoms: N_20  and  C_21 
REMARK   18  A    between atoms: C_21  and  C_22 
REMARK   19  A    between atoms: C_22  and  C_23 
REMARK   20  A    between atoms: C_23  and  N_24 
ROOT
HETATM    1  C   UNL     1     -34.881   0.518 -15.016  1.00  0.00     0.000 C 
ENDROOT
BRANCH   1   2
HETATM    2  C   UNL     1     -35.077   0.830 -13.541  1.00  0.00     0.000 C 
BRANCH   2   3
HETATM    3  C   UNL     1     -35.604  -0.390 -12.806  1.00  0.00     0.000 C 
BRANCH   3   4
HETATM    4  C   UNL     1     -36.309   0.036 -11.530  1.00  0.00     0.000 C 
BRANCH   4   5
HETATM    5  C   UNL     1     -36.767  -1.186 -10.756  1.00  0.00     0.000 C 
BRANCH   5   6
HETATM    6  C   UNL     1     -35.715  -2.276 -10.838  1.00  0.00     0.000 C 
BRANCH   6   7
HETATM    7  C   UNL     1     -34.490  -1.874 -10.038  1.00  0.00     0.000 C 
BRANCH   7   8
HETATM    8  C   UNL     1     -33.233  -2.360 -10.736  1.00  0.00     0.000 C 
BRANCH   8   9
HETATM    9  C   UNL     1     -33.601  -3.307 -11.864  1.00  0.00     0.000 C 
BRANCH   9  10
HETATM   10  C   UNL     1     -32.885  -4.633 -11.682  1.00  0.00     0.000 C 
BRANCH  10  11
HETATM   11  C   UNL     1     -33.899  -5.752 -11.502  1.00  0.00     0.000 C 
BRANCH  11  12
HETATM   12  C   UNL     1     -34.358  -5.816 -10.055  1.00  0.00    -0.000 C 
BRANCH  12  13
HETATM   13  C   UNL     1     -35.089  -7.123  -9.781  1.00  0.00    -0.005 C 
HETATM   14  C   UNL     1     -34.147  -8.301  -9.935  1.00  0.00     0.005 C 
ENDBRANCH  12  13
ENDBRANCH  11  12
ENDBRANCH  10  11
ENDBRANCH   9  10
ENDBRANCH   8   9
ENDBRANCH   7   8
ENDBRANCH   6   7
ENDBRANCH   5   6
ENDBRANCH   4   5
ENDBRANCH   3   4
ENDBRANCH   2   3
ENDBRANCH   1   2
BRANCH   1  15
HETATM   15  C   UNL     1     -36.232   0.342 -15.705  1.00  0.00     0.000 C 
BRANCH  15  16
HETATM   16  C   UNL     1     -36.348  -1.049 -16.284  1.00  0.00     0.009 C 
BRANCH  16  17
HETATM   17  C   UNL     1     -35.082  -1.497 -17.022  1.00  0.00     0.103 C 
BRANCH  17  18
HETATM   18  C   UNL     1     -34.459  -2.671 -16.319  1.00  0.00     0.217 C 
HETATM   19  O   UNL     1     -34.739  -2.958 -15.151  1.00  0.00    -0.274 OA
HETATM   20  N   UNL     1     -33.561  -3.400 -17.068  1.00  0.00    -0.361 N 
HETATM   21  H   UNL     1     -33.365  -3.158 -18.034  1.00  0.00     0.162 HD
BRANCH  20  22
HETATM   22  C   UNL     1     -32.937  -4.574 -16.498  1.00  0.00     0.124 C 
BRANCH  22  23
HETATM   23  C   UNL     1     -31.563  -4.855 -17.109  1.00  0.00     0.050 C 
BRANCH  23  24
HETATM   24  C   UNL     1     -31.303  -6.358 -17.301  1.00  0.00     0.273 C 
BRANCH  24  25
HETATM   25  N   UNL     1     -29.888  -6.717 -17.103  1.00  0.00     0.080 N 
HETATM   26  C   UNL     1     -29.054  -6.238 -18.217  1.00  0.00     0.309 C 
HETATM   27  C   UNL     1     -29.387  -6.126 -15.855  1.00  0.00     0.309 C 
ENDBRANCH  24  25
ENDBRANCH  23  24
ENDBRANCH  22  23
ENDBRANCH  20  22
ENDBRANCH  17  18
ENDBRANCH  16  17
ENDBRANCH  15  16
ENDBRANCH   1  15
TORSDOF 20
ENDMDL
MODEL 3
REMARK VINA RESULT:      -6.6      2.188      3.349
REMARK  20 active torsions:
REMARK  status: ('A' for Active; 'I' for Inactive)
REMARK    1  A    between atoms: C_2  and  C_3 
REMARK    2  A    between atoms: C_3  and  C_4 
REMARK    3  A    between atoms: C_4  and  C_5 
REMARK    4  A    between atoms: C_5  and  C_6 
REMARK    5  A    between atoms: C_6  and  C_7 
REMARK    6  A    between atoms: C_7  and  C_8 
REMARK    7  A    between atoms: C_8  and  C_9 
REMARK    8  A    between atoms: C_9  and  C_10 
REMARK    9  A    between atoms: C_10  and  C_11 
REMARK   10  A    between atoms: C_11  and  C_12 
REMARK   11  A    between atoms: C_12  and  C_13 
REMARK   12  A    between atoms: C_13  and  C_14 
REMARK   13  A    between atoms: C_14  and  C_15 
REMARK   14  A    between atoms: C_15  and  C_16 
REMARK   15  A    between atoms: C_16  and  C_17 
REMARK   16  A    between atoms: C_17  and  C_18 
REMARK       I    between atoms: C_18  and  N_20 
REMARK   17  A    between atoms: N_20  and  C_21 
REMARK   18  A    between atoms: C_21  and  C_22 
REMARK   19  A    between atoms: C_22  and  C_23 
REMARK   20  A    between atoms: C_23  and  N_24 
ROOT
HETATM    1  C   UNL     1     -22.252  -6.440  -4.909  1.00  0.00     0.000 C 
ENDROOT
BRANCH   1   2
HETATM    2  C   UNL     1     -22.298  -7.185  -3.585  1.00  0.00     0.000 C 
BRANCH   2   3
HETATM    3  C   UNL     1     -21.786  -6.301  -2.460  1.00  0.00     0.000 C 
BRANCH   3   4
HETATM    4  C   UNL     1     -22.294  -6.813  -1.124  1.00  0.00     0.000 C 
BRANCH   4   5
HETATM    5  C   UNL     1     -21.328  -7.839  -0.560  1.00  0.00     0.000 C 
BRANCH   5   6
HETATM    6  C   UNL     1     -22.023  -8.682   0.493  1.00  0.00     0.000 C 
BRANCH   6   7
HETATM    7  C   UNL     1     -23.465  -8.929   0.087  1.00  0.00     0.000 C 
BRANCH   7   8
HETATM    8  C   UNL     1     -23.727 -10.422  -0.010  1.00  0.00     0.000 C 
BRANCH   8   9
HETATM    9  C   UNL     1     -22.621 -11.090  -0.806  1.00  0.00     0.000 C 
BRANCH   9  10
HETATM   10  C   UNL     1     -22.954 -11.056  -2.286  1.00  0.00     0.000 C 
BRANCH  10  11
HETATM   11  C   UNL     1     -21.780 -10.496  -3.073  1.00  0.00     0.000 C 
BRANCH  11  12
HETATM   12  C   UNL     1     -20.501 -11.226  -2.696  1.00  0.00    -0.000 C 
BRANCH  12  13
HETATM   13  C   UNL     1     -19.399 -10.233  -2.349  1.00  0.00    -0.005 C 
HETATM   14  C   UNL     1     -19.209  -9.236  -3.474  1.00  0.00     0.005 C 
ENDBRANCH  12  13
ENDBRANCH  11  12
ENDBRANCH  10  11
ENDBRANCH   9  10
ENDBRANCH   8   9
ENDBRANCH   7   8
ENDBRANCH   6   7
ENDBRANCH   5   6
ENDBRANCH   4   5
ENDBRANCH   3   4
ENDBRANCH   2   3
ENDBRANCH   1   2
BRANCH   1  15
HETATM   15  C   UNL     1     -21.115  -6.973  -5.779  1.00  0.00     0.000 C 
BRANCH  15  16
HETATM   16  C   UNL     1     -20.153  -5.860  -6.122  1.00  0.00     0.009 C 
BRANCH  16  17
HETATM   17  C   UNL     1     -20.859  -4.575  -6.567  1.00  0.00     0.103 C 
BRANCH  17  18
HETATM   18  C   UNL     1     -20.376  -4.164  -7.931  1.00  0.00     0.217 C 
HETATM   19  O   UNL     1     -19.177  -4.013  -8.182  1.00  0.00    -0.274 OA
HETATM   20  N   UNL     1     -21.363  -3.971  -8.873  1.00  0.00    -0.361 N 
HETATM   21  H   UNL     1     -22.341  -4.123  -8.648  1.00  0.00     0.162 HD
BRANCH  20  22
HETATM   22  C   UNL     1     -21.002  -3.613 -10.227  1.00  0.00     0.124 C 
BRANCH  22  23
HETATM   23  C   UNL     1     -21.589  -4.579 -11.259  1.00  0.00     0.050 C 
BRANCH  23  24
HETATM   24  C   UNL     1     -23.122  -4.663 -11.177  1.00  0.00     0.273 C 
BRANCH  24  25
HETATM   25  N   UNL     1     -23.759  -3.335 -11.122  1.00  0.00     0.080 N 
HETATM   26  C   UNL     1     -24.466  -3.030 -12.375  1.00  0.00     0.309 C 
HETATM   27  C   UNL     1     -24.724  -3.284 -10.016  1.00  0.00     0.309 C 
ENDBRANCH  24  25
ENDBRANCH  23  24
ENDBRANCH  22  23
ENDBRANCH  20  22
ENDBRANCH  17  18
ENDBRANCH  16  17
ENDBRANCH  15  16
ENDBRANCH   1  15
TORSDOF 20
ENDMDL
MODEL 4
REMARK VINA RESULT:      -6.5      2.372      4.681
REMARK  20 active torsions:
REMARK  status: ('A' for Active; 'I' for Inactive)
REMARK    1  A    between atoms: C_2  and  C_3 
REMARK    2  A    between atoms: C_3  and  C_4 
REMARK    3  A    between atoms: C_4  and  C_5 
REMARK    4  A    between atoms: C_5  and  C_6 
REMARK    5  A    between atoms: C_6  and  C_7 
REMARK    6  A    between atoms: C_7  and  C_8 
REMARK    7  A    between atoms: C_8  and  C_9 
REMARK    8  A    between atoms: C_9  and  C_10 
REMARK    9  A    between atoms: C_10  and  C_11 
REMARK   10  A    between atoms: C_11  and  C_12 
REMARK   11  A    between atoms: C_12  and  C_13 
REMARK   12  A    between atoms: C_13  and  C_14 
REMARK   13  A    between atoms: C_14  and  C_15 
REMARK   14  A    between atoms: C_15  and  C_16 
REMARK   15  A    between atoms: C_16  and  C_17 
REMARK   16  A    between atoms: C_17  and  C_18 
REMARK       I    between atoms: C_18  and  N_20 
REMARK   17  A    between atoms: N_20  and  C_21 
REMARK   18  A    between atoms: C_21  and  C_22 
REMARK   19  A    between atoms: C_22  and  C_23 
REMARK   20  A    between atoms: C_23  and  N_24 
ROOT
HETATM    1  C   UNL     1     -22.364  -6.645  -1.264  1.00  0.00     0.000 C 
ENDROOT
BRANCH   1   2
HETATM    2  C   UNL     1     -21.576  -7.771  -0.614  1.00  0.00     0.000 C 
BRANCH   2   3
HETATM    3  C   UNL     1     -22.236  -8.199   0.686  1.00  0.00     0.000 C 
BRANCH   3   4
HETATM    4  C   UNL     1     -23.506  -8.979   0.391  1.00  0.00     0.000 C 
BRANCH   4   5
HETATM    5  C   UNL     1     -23.209 -10.104  -0.584  1.00  0.00     0.000 C 
BRANCH   5   6
HETATM    6  C   UNL     1     -23.043 -11.411   0.167  1.00  0.00     0.000 C 
BRANCH   6   7
HETATM    7  C   UNL     1     -21.775 -12.111  -0.288  1.00  0.00     0.000 C 
BRANCH   7   8
HETATM    8  C   UNL     1     -20.559 -11.397   0.272  1.00  0.00     0.000 C 
BRANCH   8   9
HETATM    9  C   UNL     1     -19.468 -11.330  -0.781  1.00  0.00     0.000 C 
BRANCH   9  10
HETATM   10  C   UNL     1     -20.037 -10.801  -2.085  1.00  0.00     0.000 C 
BRANCH  10  11
HETATM   11  C   UNL     1     -18.957 -10.775  -3.154  1.00  0.00     0.000 C 
BRANCH  11  12
HETATM   12  C   UNL     1     -18.317  -9.398  -3.219  1.00  0.00    -0.000 C 
BRANCH  12  13
HETATM   13  C   UNL     1     -16.847  -9.470  -2.829  1.00  0.00    -0.005 C 
HETATM   14  C   UNL     1     -15.993  -9.806  -4.035  1.00  0.00     0.005 C 
ENDBRANCH  12  13
ENDBRANCH  11  12
ENDBRANCH  10  11
ENDBRANCH   9  10
ENDBRANCH   8   9
ENDBRANCH   7   8
ENDBRANCH   6   7
ENDBRANCH   5   6
ENDBRANCH   4   5
ENDBRANCH   3   4
ENDBRANCH   2   3
ENDBRANCH   1   2
BRANCH   1  15
HETATM   15  C   UNL     1     -21.659  -6.167  -2.532  1.00  0.00     0.000 C 
BRANCH  15  16
HETATM   16  C   UNL     1     -21.448  -7.324  -3.482  1.00  0.00     0.009 C 
BRANCH  16  17
HETATM   17  C   UNL     1     -22.029  -7.066  -4.876  1.00  0.00     0.103 C 
BRANCH  17  18
HETATM   18  C   UNL     1     -20.919  -6.880  -5.874  1.00  0.00     0.217 C 
HETATM   19  O   UNL     1     -19.990  -7.686  -5.976  1.00  0.00    -0.274 OA
HETATM   20  N   UNL     1     -21.015  -5.753  -6.661  1.00  0.00    -0.361 N 
HETATM   21  H   UNL     1     -21.801  -5.117  -6.573  1.00  0.00     0.162 HD
BRANCH  20  22
HETATM   22  C   UNL     1     -20.020  -5.502  -7.680  1.00  0.00     0.124 C 
BRANCH  22  23
HETATM   23  C   UNL     1     -20.544  -4.590  -8.792  1.00  0.00     0.050 C 
BRANCH  23  24
HETATM   24  C   UNL     1     -22.074  -4.652  -8.927  1.00  0.00     0.273 C 
BRANCH  24  25
HETATM   25  N   UNL     1     -22.545  -4.183 -10.242  1.00  0.00     0.080 N 
HETATM   26  C   UNL     1     -21.501  -4.333 -11.268  1.00  0.00     0.309 C 
HETATM   27  C   UNL     1     -23.725  -4.950 -10.659  1.00  0.00     0.309 C 
ENDBRANCH  24  25
ENDBRANCH  23  24
ENDBRANCH  22  23
ENDBRANCH  20  22
ENDBRANCH  17  18
ENDBRANCH  16  17
ENDBRANCH  15  16
ENDBRANCH   1  15
TORSDOF 20
ENDMDL
MODEL 5
REMARK VINA RESULT:      -6.5      2.337      4.002
REMARK  20 active torsions:
REMARK  status: ('A' for Active; 'I' for Inactive)
REMARK    1  A    between atoms: C_2  and  C_3 
REMARK    2  A    between atoms: C_3  and  C_4 
REMARK    3  A    between atoms: C_4  and  C_5 
REMARK    4  A    between atoms: C_5  and  C_6 
REMARK    5  A    between atoms: C_6  and  C_7 
REMARK    6  A    between atoms: C_7  and  C_8 
REMARK    7  A    between atoms: C_8  and  C_9 
REMARK    8  A    between atoms: C_9  and  C_10 
REMARK    9  A    between atoms: C_10  and  C_11 
REMARK   10  A    between atoms: C_11  and  C_12 
REMARK   11  A    between atoms: C_12  and  C_13 
REMARK   12  A    between atoms: C_13  and  C_14 
REMARK   13  A    between atoms: C_14  and  C_15 
REMARK   14  A    between atoms: C_15  and  C_16 
REMARK   15  A    between atoms: C_16  and  C_17 
REMARK   16  A    between atoms: C_17  and  C_18 
REMARK       I    between atoms: C_18  and  N_20 
REMARK   17  A    between atoms: N_20  and  C_21 
REMARK   18  A    between atoms: C_21  and  C_22 
REMARK   19  A    between atoms: C_22  and  C_23 
REMARK   20  A    between atoms: C_23  and  N_24 
ROOT
HETATM    1  C   UNL     1     -21.007  -7.350  -3.013  1.00  0.00     0.000 C 
ENDROOT
BRANCH   1   2
HETATM    2  C   UNL     1     -21.913  -6.284  -2.417  1.00  0.00     0.000 C 
BRANCH   2   3
HETATM    3  C   UNL     1     -22.352  -6.682  -1.017  1.00  0.00     0.000 C 
BRANCH   3   4
HETATM    4  C   UNL     1     -21.813  -8.061  -0.677  1.00  0.00     0.000 C 
BRANCH   4   5
HETATM    5  C   UNL     1     -22.841  -8.837   0.126  1.00  0.00     0.000 C 
BRANCH   5   6
HETATM    6  C   UNL     1     -23.148 -10.154  -0.561  1.00  0.00     0.000 C 
BRANCH   6   7
HETATM    7  C   UNL     1     -22.039 -10.498  -1.539  1.00  0.00     0.000 C 
BRANCH   7   8
HETATM    8  C   UNL     1     -22.632 -10.842  -2.893  1.00  0.00     0.000 C 
BRANCH   8   9
HETATM    9  C   UNL     1     -21.815 -11.939  -3.552  1.00  0.00     0.000 C 
BRANCH   9  10
HETATM   10  C   UNL     1     -20.341 -11.580  -3.517  1.00  0.00     0.000 C 
BRANCH  10  11
HETATM   11  C   UNL     1     -19.985 -10.716  -4.717  1.00  0.00     0.000 C 
BRANCH  11  12
HETATM   12  C   UNL     1     -18.590 -10.137  -4.551  1.00  0.00    -0.000 C 
BRANCH  12  13
HETATM   13  C   UNL     1     -18.311  -9.823  -3.087  1.00  0.00    -0.005 C 
HETATM   14  C   UNL     1     -16.837  -9.533  -2.879  1.00  0.00     0.005 C 
ENDBRANCH  12  13
ENDBRANCH  11  12
ENDBRANCH  10  11
ENDBRANCH   9  10
ENDBRANCH   8   9
ENDBRANCH   7   8
ENDBRANCH   6   7
ENDBRANCH   5   6
ENDBRANCH   4   5
ENDBRANCH   3   4
ENDBRANCH   2   3
ENDBRANCH   1   2
BRANCH   1  15
HETATM   15  C   UNL     1     -21.031  -7.274  -4.538  1.00  0.00     0.000 C 
BRANCH  15  16
HETATM   16  C   UNL     1     -21.510  -5.913  -4.987  1.00  0.00     0.009 C 
BRANCH  16  17
HETATM   17  C   UNL     1     -20.367  -4.990  -5.421  1.00  0.00     0.103 C 
BRANCH  17  18
HETATM   18  C   UNL     1     -20.454  -4.714  -6.897  1.00  0.00     0.217 C 
HETATM   19  O   UNL     1     -19.484  -4.309  -7.544  1.00  0.00    -0.274 OA
HETATM   20  N   UNL     1     -21.685  -4.947  -7.469  1.00  0.00    -0.361 N 
HETATM   21  H   UNL     1     -22.461  -5.301  -6.920  1.00  0.00     0.162 HD
BRANCH  20  22
HETATM   22  C   UNL     1     -21.864  -4.752  -8.892  1.00  0.00     0.124 C 
BRANCH  22  23
HETATM   23  C   UNL     1     -22.827  -3.605  -9.204  1.00  0.00     0.050 C 
BRANCH  23  24
HETATM   24  C   UNL     1     -23.701  -3.893 -10.436  1.00  0.00     0.273 C 
BRANCH  24  25
HETATM   25  N   UNL     1     -23.500  -2.909 -11.514  1.00  0.00     0.080 N 
HETATM   26  C   UNL     1     -22.181  -3.070 -12.146  1.00  0.00     0.309 C 
HETATM   27  C   UNL     1     -24.536  -3.070 -12.543  1.00  0.00     0.309 C 
ENDBRANCH  24  25
ENDBRANCH  23  24
ENDBRANCH  22  23
ENDBRANCH  20  22
ENDBRANCH  17  18
ENDBRANCH  16  17
ENDBRANCH  15  16
ENDBRANCH   1  15
TORSDOF 20
ENDMDL
MODEL 6
REMARK VINA RESULT:      -6.4      2.073      3.860
REMARK  20 active torsions:
REMARK  status: ('A' for Active; 'I' for Inactive)
REMARK    1  A    between atoms: C_2  and  C_3 
REMARK    2  A    between atoms: C_3  and  C_4 
REMARK    3  A    between atoms: C_4  and  C_5 
REMARK    4  A    between atoms: C_5  and  C_6 
REMARK    5  A    between atoms: C_6  and  C_7 
REMARK    6  A    between atoms: C_7  and  C_8 
REMARK    7  A    between atoms: C_8  and  C_9 
REMARK    8  A    between atoms: C_9  and  C_10 
REMARK    9  A    between atoms: C_10  and  C_11 
REMARK   10  A    between atoms: C_11  and  C_12 
REMARK   11  A    between atoms: C_12  and  C_13 
REMARK   12  A    between atoms: C_13  and  C_14 
REMARK   13  A    between atoms: C_14  and  C_15 
REMARK   14  A    between atoms: C_15  and  C_16 
REMARK   15  A    between atoms: C_16  and  C_17 
REMARK   16  A    between atoms: C_17  and  C_18 
REMARK       I    between atoms: C_18  and  N_20 
REMARK   17  A    between atoms: N_20  and  C_21 
REMARK   18  A    between atoms: C_21  and  C_22 
REMARK   19  A    between atoms: C_22  and  C_23 
REMARK   20  A    between atoms: C_23  and  N_24 
ROOT
HETATM    1  C   UNL     1     -21.921  -6.030  -2.524  1.00  0.00     0.000 C 
ENDROOT
BRANCH   1   2
HETATM    2  C   UNL     1     -22.275  -6.580  -1.152  1.00  0.00     0.000 C 
BRANCH   2   3
HETATM    3  C   UNL     1     -21.489  -7.849  -0.871  1.00  0.00     0.000 C 
BRANCH   3   4
HETATM    4  C   UNL     1     -22.065  -8.559   0.343  1.00  0.00     0.000 C 
BRANCH   4   5
HETATM    5  C   UNL     1     -21.267  -9.816   0.637  1.00  0.00     0.000 C 
BRANCH   5   6
HETATM    6  C   UNL     1     -22.039 -11.039   0.176  1.00  0.00     0.000 C 
BRANCH   6   7
HETATM    7  C   UNL     1     -23.484 -10.665  -0.098  1.00  0.00     0.000 C 
BRANCH   7   8
HETATM    8  C   UNL     1     -23.966 -11.352  -1.363  1.00  0.00     0.000 C 
BRANCH   8   9
HETATM    9  C   UNL     1     -22.805 -12.055  -2.044  1.00  0.00     0.000 C 
BRANCH   9  10
HETATM   10  C   UNL     1     -22.637 -11.528  -3.457  1.00  0.00     0.000 C 
BRANCH  10  11
HETATM   11  C   UNL     1     -21.580 -10.436  -3.485  1.00  0.00     0.000 C 
BRANCH  11  12
HETATM   12  C   UNL     1     -20.321 -10.943  -4.170  1.00  0.00    -0.000 C 
BRANCH  12  13
HETATM   13  C   UNL     1     -19.262  -9.850  -4.223  1.00  0.00    -0.005 C 
HETATM   14  C   UNL     1     -18.795  -9.496  -2.824  1.00  0.00     0.005 C 
ENDBRANCH  12  13
ENDBRANCH  11  12
ENDBRANCH  10  11
ENDBRANCH   9  10
ENDBRANCH   8   9
ENDBRANCH   7   8
ENDBRANCH   6   7
ENDBRANCH   5   6
ENDBRANCH   4   5
ENDBRANCH   3   4
ENDBRANCH   2   3
ENDBRANCH   1   2
BRANCH   1  15
HETATM   15  C   UNL     1     -21.644  -7.172  -3.500  1.00  0.00     0.000 C 
BRANCH  15  16
HETATM   16  C   UNL     1     -22.100  -6.795  -4.890  1.00  0.00     0.009 C 
BRANCH  16  17
HETATM   17  C   UNL     1     -20.961  -6.799  -5.914  1.00  0.00     0.103 C 
BRANCH  17  18
HETATM   18  C   UNL     1     -20.830  -5.442  -6.550  1.00  0.00     0.217 C 
HETATM   19  O   UNL     1     -20.224  -4.518  -6.000  1.00  0.00    -0.274 OA
HETATM   20  N   UNL     1     -21.431  -5.307  -7.783  1.00  0.00    -0.361 N 
HETATM   21  H   UNL     1     -21.904  -6.088  -8.225  1.00  0.00     0.162 HD
BRANCH  20  22
HETATM   22  C   UNL     1     -21.329  -4.053  -8.498  1.00  0.00     0.124 C 
BRANCH  22  23
HETATM   23  C   UNL     1     -21.146  -4.257 -10.003  1.00  0.00     0.050 C 
BRANCH  23  24
HETATM   24  C   UNL     1     -22.112  -3.396 -10.832  1.00  0.00     0.273 C 
BRANCH  24  25
HETATM   25  N   UNL     1     -23.422  -4.043 -11.027  1.00  0.00     0.080 N 
HETATM   26  C   UNL     1     -24.457  -3.418 -10.188  1.00  0.00     0.309 C 
HETATM   27  C   UNL     1     -23.832  -3.939 -12.433  1.00  0.00     0.309 C 
ENDBRANCH  24  25
ENDBRANCH  23  24
ENDBRANCH  22  23
ENDBRANCH  20  22
ENDBRANCH  17  18
ENDBRANCH  16  17
ENDBRANCH  15  16
ENDBRANCH   1  15
TORSDOF 20
ENDMDL
MODEL 7
REMARK VINA RESULT:      -6.3      4.024     11.244
REMARK  20 active torsions:
REMARK  status: ('A' for Active; 'I' for Inactive)
REMARK    1  A    between atoms: C_2  and  C_3 
REMARK    2  A    between atoms: C_3  and  C_4 
REMARK    3  A    between atoms: C_4  and  C_5 
REMARK    4  A    between atoms: C_5  and  C_6 
REMARK    5  A    between atoms: C_6  and  C_7 
REMARK    6  A    between atoms: C_7  and  C_8 
REMARK    7  A    between atoms: C_8  and  C_9 
REMARK    8  A    between atoms: C_9  and  C_10 
REMARK    9  A    between atoms: C_10  and  C_11 
REMARK   10  A    between atoms: C_11  and  C_12 
REMARK   11  A    between atoms: C_12  and  C_13 
REMARK   12  A    between atoms: C_13  and  C_14 
REMARK   13  A    between atoms: C_14  and  C_15 
REMARK   14  A    between atoms: C_15  and  C_16 
REMARK   15  A    between atoms: C_16  and  C_17 
REMARK   16  A    between atoms: C_17  and  C_18 
REMARK       I    between atoms: C_18  and  N_20 
REMARK   17  A    between atoms: N_20  and  C_21 
REMARK   18  A    between atoms: C_21  and  C_22 
REMARK   19  A    between atoms: C_22  and  C_23 
REMARK   20  A    between atoms: C_23  and  N_24 
ROOT
HETATM    1  C   UNL     1     -21.531  -7.343  -1.645  1.00  0.00     0.000 C 
ENDROOT
BRANCH   1   2
HETATM    2  C   UNL     1     -21.813  -6.256  -2.669  1.00  0.00     0.000 C 
BRANCH   2   3
HETATM    3  C   UNL     1     -21.736  -6.820  -4.078  1.00  0.00     0.000 C 
BRANCH   3   4
HETATM    4  C   UNL     1     -21.098  -5.804  -5.010  1.00  0.00     0.000 C 
BRANCH   4   5
HETATM    5  C   UNL     1     -20.203  -6.508  -6.012  1.00  0.00     0.000 C 
BRANCH   5   6
HETATM    6  C   UNL     1     -20.092  -5.681  -7.279  1.00  0.00     0.000 C 
BRANCH   6   7
HETATM    7  C   UNL     1     -21.088  -4.537  -7.239  1.00  0.00     0.000 C 
BRANCH   7   8
HETATM    8  C   UNL     1     -21.366  -4.042  -8.647  1.00  0.00     0.000 C 
BRANCH   8   9
HETATM    9  C   UNL     1     -20.300  -4.559  -9.596  1.00  0.00     0.000 C 
BRANCH   9  10
HETATM   10  C   UNL     1     -20.483  -3.938 -10.969  1.00  0.00     0.000 C 
BRANCH  10  11
HETATM   11  C   UNL     1     -21.858  -4.282 -11.519  1.00  0.00     0.000 C 
BRANCH  11  12
HETATM   12  C   UNL     1     -22.475  -3.062 -12.184  1.00  0.00    -0.000 C 
BRANCH  12  13
HETATM   13  C   UNL     1     -23.988  -3.065 -12.010  1.00  0.00    -0.005 C 
HETATM   14  C   UNL     1     -24.356  -3.372 -10.572  1.00  0.00     0.005 C 
ENDBRANCH  12  13
ENDBRANCH  11  12
ENDBRANCH  10  11
ENDBRANCH   9  10
ENDBRANCH   8   9
ENDBRANCH   7   8
ENDBRANCH   6   7
ENDBRANCH   5   6
ENDBRANCH   4   5
ENDBRANCH   3   4
ENDBRANCH   2   3
ENDBRANCH   1   2
BRANCH   1  15
HETATM   15  C   UNL     1     -22.412  -7.153  -0.412  1.00  0.00     0.000 C 
BRANCH  15  16
HETATM   16  C   UNL     1     -22.385  -8.396   0.447  1.00  0.00     0.009 C 
BRANCH  16  17
HETATM   17  C   UNL     1     -23.273  -9.519  -0.097  1.00  0.00     0.103 C 
BRANCH  17  18
HETATM   18  C   UNL     1     -22.427 -10.596  -0.716  1.00  0.00     0.217 C 
HETATM   19  O   UNL     1     -22.604 -10.982  -1.876  1.00  0.00    -0.274 OA
HETATM   20  N   UNL     1     -21.445 -11.117   0.097  1.00  0.00    -0.361 N 
HETATM   21  H   UNL     1     -21.304 -10.768   1.040  1.00  0.00     0.162 HD
BRANCH  20  22
HETATM   22  C   UNL     1     -20.549 -12.130  -0.416  1.00  0.00     0.124 C 
BRANCH  22  23
HETATM   23  C   UNL     1     -19.242 -11.536  -0.945  1.00  0.00     0.050 C 
BRANCH  23  24
HETATM   24  C   UNL     1     -19.086 -11.722  -2.462  1.00  0.00     0.273 C 
BRANCH  24  25
HETATM   25  N   UNL     1     -19.432 -10.507  -3.220  1.00  0.00     0.080 N 
HETATM   26  C   UNL     1     -18.616  -9.359  -2.791  1.00  0.00     0.309 C 
HETATM   27  C   UNL     1     -19.212 -10.726  -4.655  1.00  0.00     0.309 C 
ENDBRANCH  24  25
ENDBRANCH  23  24
ENDBRANCH  22  23
ENDBRANCH  20  22
ENDBRANCH  17  18
ENDBRANCH  16  17
ENDBRANCH  15  16
ENDBRANCH   1  15
TORSDOF 20
ENDMDL
MODEL 8
REMARK VINA RESULT:      -6.3      2.579      4.091
REMARK  20 active torsions:
REMARK  status: ('A' for Active; 'I' for Inactive)
REMARK    1  A    between atoms: C_2  and  C_3 
REMARK    2  A    between atoms: C_3  and  C_4 
REMARK    3  A    between atoms: C_4  and  C_5 
REMARK    4  A    between atoms: C_5  and  C_6 
REMARK    5  A    between atoms: C_6  and  C_7 
REMARK    6  A    between atoms: C_7  and  C_8 
REMARK    7  A    between atoms: C_8  and  C_9 
REMARK    8  A    between atoms: C_9  and  C_10 
REMARK    9  A    between atoms: C_10  and  C_11 
REMARK   10  A    between atoms: C_11  and  C_12 
REMARK   11  A    between atoms: C_12  and  C_13 
REMARK   12  A    between atoms: C_13  and  C_14 
REMARK   13  A    between atoms: C_14  and  C_15 
REMARK   14  A    between atoms: C_15  and  C_16 
REMARK   15  A    between atoms: C_16  and  C_17 
REMARK   16  A    between atoms: C_17  and  C_18 
REMARK       I    between atoms: C_18  and  N_20 
REMARK   17  A    between atoms: N_20  and  C_21 
REMARK   18  A    between atoms: C_21  and  C_22 
REMARK   19  A    between atoms: C_22  and  C_23 
REMARK   20  A    between atoms: C_23  and  N_24 
ROOT
HETATM    1  C   UNL     1     -21.536  -6.310  -2.928  1.00  0.00     0.000 C 
ENDROOT
BRANCH   1   2
HETATM    2  C   UNL     1     -22.247  -6.519  -1.600  1.00  0.00     0.000 C 
BRANCH   2   3
HETATM    3  C   UNL     1     -21.556  -7.603  -0.792  1.00  0.00     0.000 C 
BRANCH   3   4
HETATM    4  C   UNL     1     -22.411  -7.986   0.403  1.00  0.00     0.000 C 
BRANCH   4   5
HETATM    5  C   UNL     1     -23.285  -9.178   0.056  1.00  0.00     0.000 C 
BRANCH   5   6
HETATM    6  C   UNL     1     -22.463 -10.231  -0.661  1.00  0.00     0.000 C 
BRANCH   6   7
HETATM    7  C   UNL     1     -21.858 -11.191   0.348  1.00  0.00     0.000 C 
BRANCH   7   8
HETATM    8  C   UNL     1     -20.367 -10.937   0.475  1.00  0.00     0.000 C 
BRANCH   8   9
HETATM    9  C   UNL     1     -19.658 -11.371  -0.795  1.00  0.00     0.000 C 
BRANCH   9  10
HETATM   10  C   UNL     1     -18.444 -12.214  -0.450  1.00  0.00     0.000 C 
BRANCH  10  11
HETATM   11  C   UNL     1     -17.483 -12.253  -1.628  1.00  0.00     0.000 C 
BRANCH  11  12
HETATM   12  C   UNL     1     -16.289 -11.351  -1.359  1.00  0.00    -0.000 C 
BRANCH  12  13
HETATM   13  C   UNL     1     -15.911 -10.576  -2.614  1.00  0.00    -0.005 C 
HETATM   14  C   UNL     1     -16.841  -9.394  -2.808  1.00  0.00     0.005 C 
ENDBRANCH  12  13
ENDBRANCH  11  12
ENDBRANCH  10  11
ENDBRANCH   9  10
ENDBRANCH   8   9
ENDBRANCH   7   8
ENDBRANCH   6   7
ENDBRANCH   5   6
ENDBRANCH   4   5
ENDBRANCH   3   4
ENDBRANCH   2   3
ENDBRANCH   1   2
BRANCH   1  15
HETATM   15  C   UNL     1     -21.309  -7.650  -3.624  1.00  0.00     0.000 C 
BRANCH  15  16
HETATM   16  C   UNL     1     -21.465  -7.496  -5.119  1.00  0.00     0.009 C 
BRANCH  16  17
HETATM   17  C   UNL     1     -20.208  -6.940  -5.797  1.00  0.00     0.103 C 
BRANCH  17  18
HETATM   18  C   UNL     1     -20.478  -5.564  -6.342  1.00  0.00     0.217 C 
HETATM   19  O   UNL     1     -19.643  -4.658  -6.270  1.00  0.00    -0.274 OA
HETATM   20  N   UNL     1     -21.715  -5.391  -6.923  1.00  0.00    -0.361 N 
HETATM   21  H   UNL     1     -22.376  -6.158  -6.991  1.00  0.00     0.162 HD
BRANCH  20  22
HETATM   22  C   UNL     1     -22.058  -4.116  -7.515  1.00  0.00     0.124 C 
BRANCH  22  23
HETATM   23  C   UNL     1     -21.828  -4.096  -9.027  1.00  0.00     0.050 C 
BRANCH  23  24
HETATM   24  C   UNL     1     -23.021  -4.669  -9.809  1.00  0.00     0.273 C 
BRANCH  24  25
HETATM   25  N   UNL     1     -22.983  -4.315 -11.238  1.00  0.00     0.080 N 
HETATM   26  C   UNL     1     -23.669  -3.038 -11.491  1.00  0.00     0.309 C 
HETATM   27  C   UNL     1     -21.592  -4.196 -11.692  1.00  0.00     0.309 C 
ENDBRANCH  24  25
ENDBRANCH  23  24
ENDBRANCH  22  23
ENDBRANCH  20  22
ENDBRANCH  17  18
ENDBRANCH  16  17
ENDBRANCH  15  16
ENDBRANCH   1  15
TORSDOF 20
ENDMDL
MODEL 9
REMARK VINA RESULT:      -6.3      1.693      2.931
REMARK  20 active torsions:
REMARK  status: ('A' for Active; 'I' for Inactive)
REMARK    1  A    between atoms: C_2  and  C_3 
REMARK    2  A    between atoms: C_3  and  C_4 
REMARK    3  A    between atoms: C_4  and  C_5 
REMARK    4  A    between atoms: C_5  and  C_6 
REMARK    5  A    between atoms: C_6  and  C_7 
REMARK    6  A    between atoms: C_7  and  C_8 
REMARK    7  A    between atoms: C_8  and  C_9 
REMARK    8  A    between atoms: C_9  and  C_10 
REMARK    9  A    between atoms: C_10  and  C_11 
REMARK   10  A    between atoms: C_11  and  C_12 
REMARK   11  A    between atoms: C_12  and  C_13 
REMARK   12  A    between atoms: C_13  and  C_14 
REMARK   13  A    between atoms: C_14  and  C_15 
REMARK   14  A    between atoms: C_15  and  C_16 
REMARK   15  A    between atoms: C_16  and  C_17 
REMARK   16  A    between atoms: C_17  and  C_18 
REMARK       I    between atoms: C_18  and  N_20 
REMARK   17  A    between atoms: N_20  and  C_21 
REMARK   18  A    between atoms: C_21  and  C_22 
REMARK   19  A    between atoms: C_22  and  C_23 
REMARK   20  A    between atoms: C_23  and  N_24 
ROOT
HETATM    1  C   UNL     1     -21.170  -8.556  -3.019  1.00  0.00     0.000 C 
ENDROOT
BRANCH   1   2
HETATM    2  C   UNL     1     -20.874  -7.505  -1.960  1.00  0.00     0.000 C 
BRANCH   2   3
HETATM    3  C   UNL     1     -22.157  -7.071  -1.271  1.00  0.00     0.000 C 
BRANCH   3   4
HETATM    4  C   UNL     1     -22.196  -7.618   0.146  1.00  0.00     0.000 C 
BRANCH   4   5
HETATM    5  C   UNL     1     -23.353  -8.589   0.296  1.00  0.00     0.000 C 
BRANCH   5   6
HETATM    6  C   UNL     1     -22.937  -9.968  -0.178  1.00  0.00     0.000 C 
BRANCH   6   7
HETATM    7  C   UNL     1     -24.122 -10.914  -0.120  1.00  0.00     0.000 C 
BRANCH   7   8
HETATM    8  C   UNL     1     -23.652 -12.346  -0.305  1.00  0.00     0.000 C 
BRANCH   8   9
HETATM    9  C   UNL     1     -23.405 -12.988   1.048  1.00  0.00     0.000 C 
BRANCH   9  10
HETATM   10  C   UNL     1     -21.914 -13.140   1.287  1.00  0.00     0.000 C 
BRANCH  10  11
HETATM   11  C   UNL     1     -21.165 -13.081  -0.035  1.00  0.00     0.000 C 
BRANCH  11  12
HETATM   12  C   UNL     1     -19.863 -12.315   0.134  1.00  0.00    -0.000 C 
BRANCH  12  13
HETATM   13  C   UNL     1     -19.642 -11.368  -1.038  1.00  0.00    -0.005 C 
HETATM   14  C   UNL     1     -19.176 -12.135  -2.260  1.00  0.00     0.005 C 
ENDBRANCH  12  13
ENDBRANCH  11  12
ENDBRANCH  10  11
ENDBRANCH   9  10
ENDBRANCH   8   9
ENDBRANCH   7   8
ENDBRANCH   6   7
ENDBRANCH   5   6
ENDBRANCH   4   5
ENDBRANCH   3   4
ENDBRANCH   2   3
ENDBRANCH   1   2
BRANCH   1  15
HETATM   15  C   UNL     1     -19.910  -8.867  -3.824  1.00  0.00     0.000 C 
BRANCH  15  16
HETATM   16  C   UNL     1     -19.895  -8.065  -5.104  1.00  0.00     0.009 C 
BRANCH  16  17
HETATM   17  C   UNL     1     -21.299  -7.774  -5.644  1.00  0.00     0.103 C 
BRANCH  17  18
HETATM   18  C   UNL     1     -21.495  -6.292  -5.809  1.00  0.00     0.217 C 
HETATM   19  O   UNL     1     -21.822  -5.567  -4.866  1.00  0.00    -0.274 OA
HETATM   20  N   UNL     1     -21.283  -5.806  -7.081  1.00  0.00    -0.361 N 
HETATM   21  H   UNL     1     -20.992  -6.420  -7.836  1.00  0.00     0.162 HD
BRANCH  20  22
HETATM   22  C   UNL     1     -21.405  -4.388  -7.338  1.00  0.00     0.124 C 
BRANCH  22  23
HETATM   23  C   UNL     1     -22.593  -4.062  -8.245  1.00  0.00     0.050 C 
BRANCH  23  24
HETATM   24  C   UNL     1     -22.204  -4.031  -9.732  1.00  0.00     0.273 C 
BRANCH  24  25
HETATM   25  N   UNL     1     -23.296  -3.543 -10.592  1.00  0.00     0.080 N 
HETATM   26  C   UNL     1     -23.502  -4.428 -11.749  1.00  0.00     0.309 C 
HETATM   27  C   UNL     1     -24.548  -3.473  -9.827  1.00  0.00     0.309 C 
ENDBRANCH  24  25
ENDBRANCH  23  24
ENDBRANCH  22  23
ENDBRANCH  20  22
ENDBRANCH  17  18
ENDBRANCH  16  17
ENDBRANCH  15  16
ENDBRANCH   1  15
TORSDOF 20
ENDMDL
