MODEL 1
REMARK VINA RESULT:      -6.4      0.000      0.000
REMARK  14 active torsions:
REMARK  status: ('A' for Active; 'I' for Inactive)
REMARK    1  A    between atoms: C_2  and  C_3 
REMARK    2  A    between atoms: C_3  and  C_4 
REMARK    3  A    between atoms: C_4  and  C_5 
REMARK    4  A    between atoms: C_5  and  C_6 
REMARK    5  A    between atoms: C_6  and  C_7 
REMARK    6  A    between atoms: C_7  and  C_8 
REMARK    7  A    between atoms: C_8  and  C_9 
REMARK    8  A    between atoms: C_9  and  C_10 
REMARK    9  A    between atoms: C_10  and  C_11 
REMARK   10  A    between atoms: C_11  and  C_12 
REMARK       I    between atoms: C_12  and  N_14 
REMARK   11  A    between atoms: N_14  and  C_16 
REMARK   12  A    between atoms: C_16  and  C_17 
REMARK   13  A    between atoms: C_17  and  O_19 
REMARK   14  A    between atoms: O_19  and  C_20 
ROOT
HETATM    1  C   UNL     1     -21.115  -5.640  -5.491  1.00  0.00     0.103 C 
ENDROOT
BRANCH   1   2
HETATM    2  C   UNL     1     -22.161  -6.599  -4.949  1.00  0.00     0.009 C 
BRANCH   2   3
HETATM    3  C   UNL     1     -22.108  -6.651  -3.422  1.00  0.00     0.000 C 
BRANCH   3   4
HETATM    4  C   UNL     1     -21.188  -7.776  -2.968  1.00  0.00     0.000 C 
BRANCH   4   5
HETATM    5  C   UNL     1     -20.920  -7.693  -1.472  1.00  0.00     0.000 C 
BRANCH   5   6
HETATM    6  C   UNL     1     -22.166  -7.215  -0.740  1.00  0.00     0.000 C 
BRANCH   6   7
HETATM    7  C   UNL     1     -22.408  -8.053   0.507  1.00  0.00     0.000 C 
BRANCH   7   8
HETATM    8  C   UNL     1     -23.534  -9.050   0.269  1.00  0.00     0.000 C 
BRANCH   8   9
HETATM    9  C   UNL     1     -22.972 -10.388  -0.192  1.00  0.00    -0.000 C 
BRANCH   9  10
HETATM   10  C   UNL     1     -24.012 -11.171  -0.983  1.00  0.00    -0.005 C 
HETATM   11  C   UNL     1     -23.884 -12.659  -0.712  1.00  0.00     0.005 C 
ENDBRANCH   9  10
ENDBRANCH   8   9
ENDBRANCH   7   8
ENDBRANCH   6   7
ENDBRANCH   5   6
ENDBRANCH   4   5
ENDBRANCH   3   4
ENDBRANCH   2   3
ENDBRANCH   1   2
BRANCH   1  12
HETATM   12  C   UNL     1     -21.585  -4.860  -6.720  1.00  0.00     0.219 C 
HETATM   13  O   UNL     1     -22.762  -4.645  -6.947  1.00  0.00    -0.273 OA
HETATM   14  N   UNL     1     -20.571  -4.418  -7.568  1.00  0.00    -0.347 N 
HETATM   15  C   UNL     1     -19.155  -4.650  -7.320  1.00  0.00     0.153 C 
BRANCH  14  16
HETATM   16  C   UNL     1     -20.955  -3.629  -8.756  1.00  0.00     0.236 C 
BRANCH  16  17
HETATM   17  C   UNL     1     -21.182  -4.401 -10.073  1.00  0.00     0.277 C 
HETATM   18  O   UNL     1     -20.268  -4.735 -10.821  1.00  0.00    -0.263 OA
BRANCH  17  19
HETATM   19  O   UNL     1     -22.503  -4.641 -10.342  1.00  0.00    -0.316 OA
BRANCH  19  20
HETATM   20  C   UNL     1     -23.300  -3.440 -10.374  1.00  0.00     0.123 C 
HETATM   21  C   UNL     1     -23.367  -2.885 -11.795  1.00  0.00     0.040 C 
HETATM   22  C   UNL     1     -24.705  -3.747  -9.875  1.00  0.00     0.040 C 
ENDBRANCH  19  20
ENDBRANCH  17  19
ENDBRANCH  16  17
ENDBRANCH  14  16
ENDBRANCH   1  12
TORSDOF 14
ENDMDL
MODEL 2
REMARK VINA RESULT:      -6.4      1.336      2.174
REMARK  14 active torsions:
REMARK  status: ('A' for Active; 'I' for Inactive)
REMARK    1  A    between atoms: C_2  and  C_3 
REMARK    2  A    between atoms: C_3  and  C_4 
REMARK    3  A    between atoms: C_4  and  C_5 
REMARK    4  A    between atoms: C_5  and  C_6 
REMARK    5  A    between atoms: C_6  and  C_7 
REMARK    6  A    between atoms: C_7  and  C_8 
REMARK    7  A    between atoms: C_8  and  C_9 
REMARK    8  A    between atoms: C_9  and  C_10 
REMARK    9  A    between atoms: C_10  and  C_11 
REMARK   10  A    between atoms: C_11  and  C_12 
REMARK       I    between atoms: C_12  and  N_14 
REMARK   11  A    between atoms: N_14  and  C_16 
REMARK   12  A    between atoms: C_16  and  C_17 
REMARK   13  A    between atoms: C_17  and  O_19 
REMARK   14  A    between atoms: O_19  and  C_20 
ROOT
HETATM    1  C   UNL     1     -20.380  -4.981  -7.087  1.00  0.00     0.103 C 
ENDROOT
BRANCH   1   2
HETATM    2  C   UNL     1     -20.575  -5.214  -5.599  1.00  0.00     0.009 C 
BRANCH   2   3
HETATM    3  C   UNL     1     -20.534  -6.708  -5.276  1.00  0.00     0.000 C 
BRANCH   3   4
HETATM    4  C   UNL     1     -21.713  -7.084  -4.388  1.00  0.00     0.000 C 
BRANCH   4   5
HETATM    5  C   UNL     1     -21.283  -7.206  -2.933  1.00  0.00     0.000 C 
BRANCH   5   6
HETATM    6  C   UNL     1     -22.109  -6.270  -2.060  1.00  0.00     0.000 C 
BRANCH   6   7
HETATM    7  C   UNL     1     -22.353  -6.890  -0.693  1.00  0.00     0.000 C 
BRANCH   7   8
HETATM    8  C   UNL     1     -21.362  -8.016  -0.432  1.00  0.00     0.000 C 
BRANCH   8   9
HETATM    9  C   UNL     1     -21.995  -9.090   0.443  1.00  0.00    -0.000 C 
BRANCH   9  10
HETATM   10  C   UNL     1     -23.438  -9.348   0.027  1.00  0.00    -0.005 C 
HETATM   11  C   UNL     1     -23.675 -10.831  -0.192  1.00  0.00     0.005 C 
ENDBRANCH   9  10
ENDBRANCH   8   9
ENDBRANCH   7   8
ENDBRANCH   6   7
ENDBRANCH   5   6
ENDBRANCH   4   5
ENDBRANCH   3   4
ENDBRANCH   2   3
ENDBRANCH   1   2
BRANCH   1  12
HETATM   12  C   UNL     1     -21.633  -4.454  -7.789  1.00  0.00     0.219 C 
HETATM   13  O   UNL     1     -22.682  -4.269  -7.200  1.00  0.00    -0.273 OA
HETATM   14  N   UNL     1     -21.491  -4.206  -9.152  1.00  0.00    -0.347 N 
HETATM   15  C   UNL     1     -20.248  -4.407  -9.884  1.00  0.00     0.153 C 
BRANCH  14  16
HETATM   16  C   UNL     1     -22.655  -3.663  -9.883  1.00  0.00     0.236 C 
BRANCH  16  17
HETATM   17  C   UNL     1     -22.744  -3.965 -11.393  1.00  0.00     0.277 C 
HETATM   18  O   UNL     1     -23.172  -5.025 -11.841  1.00  0.00    -0.263 OA
BRANCH  17  19
HETATM   19  O   UNL     1     -22.263  -2.953 -12.180  1.00  0.00    -0.316 OA
BRANCH  19  20
HETATM   20  C   UNL     1     -23.260  -2.403 -13.063  1.00  0.00     0.123 C 
HETATM   21  C   UNL     1     -22.990  -2.835 -14.503  1.00  0.00     0.040 C 
HETATM   22  C   UNL     1     -24.641  -2.879 -12.633  1.00  0.00     0.040 C 
ENDBRANCH  19  20
ENDBRANCH  17  19
ENDBRANCH  16  17
ENDBRANCH  14  16
ENDBRANCH   1  12
TORSDOF 14
ENDMDL
MODEL 3
REMARK VINA RESULT:      -6.4      3.031      9.306
REMARK  14 active torsions:
REMARK  status: ('A' for Active; 'I' for Inactive)
REMARK    1  A    between atoms: C_2  and  C_3 
REMARK    2  A    between atoms: C_3  and  C_4 
REMARK    3  A    between atoms: C_4  and  C_5 
REMARK    4  A    between atoms: C_5  and  C_6 
REMARK    5  A    between atoms: C_6  and  C_7 
REMARK    6  A    between atoms: C_7  and  C_8 
REMARK    7  A    between atoms: C_8  and  C_9 
REMARK    8  A    between atoms: C_9  and  C_10 
REMARK    9  A    between atoms: C_10  and  C_11 
REMARK   10  A    between atoms: C_11  and  C_12 
REMARK       I    between atoms: C_12  and  N_14 
REMARK   11  A    between atoms: N_14  and  C_16 
REMARK   12  A    between atoms: C_16  and  C_17 
REMARK   13  A    between atoms: C_17  and  O_19 
REMARK   14  A    between atoms: O_19  and  C_20 
ROOT
HETATM    1  C   UNL     1     -22.276  -6.364  -5.127  1.00  0.00     0.103 C 
ENDROOT
BRANCH   1   2
HETATM    2  C   UNL     1     -21.541  -5.910  -6.376  1.00  0.00     0.009 C 
BRANCH   2   3
HETATM    3  C   UNL     1     -20.401  -4.957  -6.017  1.00  0.00     0.000 C 
BRANCH   3   4
HETATM    4  C   UNL     1     -19.507  -4.730  -7.229  1.00  0.00     0.000 C 
BRANCH   4   5
HETATM    5  C   UNL     1     -20.246  -3.966  -8.318  1.00  0.00     0.000 C 
BRANCH   5   6
HETATM    6  C   UNL     1     -20.150  -4.712  -9.642  1.00  0.00     0.000 C 
BRANCH   6   7
HETATM    7  C   UNL     1     -20.421  -3.772 -10.807  1.00  0.00     0.000 C 
BRANCH   7   8
HETATM    8  C   UNL     1     -21.893  -3.382 -10.847  1.00  0.00     0.000 C 
BRANCH   8   9
HETATM    9  C   UNL     1     -22.750  -4.578 -11.240  1.00  0.00    -0.000 C 
BRANCH   9  10
HETATM   10  C   UNL     1     -23.810  -4.858 -10.183  1.00  0.00    -0.005 C 
HETATM   11  C   UNL     1     -24.126  -3.599  -9.394  1.00  0.00     0.005 C 
ENDBRANCH   9  10
ENDBRANCH   8   9
ENDBRANCH   7   8
ENDBRANCH   6   7
ENDBRANCH   5   6
ENDBRANCH   4   5
ENDBRANCH   3   4
ENDBRANCH   2   3
ENDBRANCH   1   2
BRANCH   1  12
HETATM   12  C   UNL     1     -21.531  -7.444  -4.342  1.00  0.00     0.219 C 
HETATM   13  O   UNL     1     -21.062  -8.433  -4.876  1.00  0.00    -0.273 OA
HETATM   14  N   UNL     1     -21.433  -7.221  -2.970  1.00  0.00    -0.347 N 
HETATM   15  C   UNL     1     -21.974  -6.046  -2.302  1.00  0.00     0.153 C 
BRANCH  14  16
HETATM   16  C   UNL     1     -20.696  -8.211  -2.158  1.00  0.00     0.236 C 
BRANCH  16  17
HETATM   17  C   UNL     1     -21.410  -8.775  -0.912  1.00  0.00     0.277 C 
HETATM   18  O   UNL     1     -20.884  -8.828   0.196  1.00  0.00    -0.263 OA
BRANCH  17  19
HETATM   19  O   UNL     1     -22.670  -9.244  -1.173  1.00  0.00    -0.316 OA
BRANCH  19  20
HETATM   20  C   UNL     1     -22.749 -10.683  -1.166  1.00  0.00     0.123 C 
HETATM   21  C   UNL     1     -23.910 -11.147  -0.290  1.00  0.00     0.040 C 
HETATM   22  C   UNL     1     -22.944 -11.189  -2.589  1.00  0.00     0.040 C 
ENDBRANCH  19  20
ENDBRANCH  17  19
ENDBRANCH  16  17
ENDBRANCH  14  16
ENDBRANCH   1  12
TORSDOF 14
ENDMDL
MODEL 4
REMARK VINA RESULT:      -6.3      3.421      9.688
REMARK  14 active torsions:
REMARK  status: ('A' for Active; 'I' for Inactive)
REMARK    1  A    between atoms: C_2  and  C_3 
REMARK    2  A    between atoms: C_3  and  C_4 
REMARK    3  A    between atoms: C_4  and  C_5 
REMARK    4  A    between atoms: C_5  and  C_6 
REMARK    5  A    between atoms: C_6  and  C_7 
REMARK    6  A    between atoms: C_7  and  C_8 
REMARK    7  A    between atoms: C_8  and  C_9 
REMARK    8  A    between atoms: C_9  and  C_10 
REMARK    9  A    between atoms: C_10  and  C_11 
REMARK   10  A    between atoms: C_11  and  C_12 
REMARK       I    between atoms: C_12  and  N_14 
REMARK   11  A    between atoms: N_14  and  C_16 
REMARK   12  A    between atoms: C_16  and  C_17 
REMARK   13  A    between atoms: C_17  and  O_19 
REMARK   14  A    between atoms: O_19  and  C_20 
ROOT
HETATM    1  C   UNL     1     -20.790  -6.762  -4.006  1.00  0.00     0.103 C 
ENDROOT
BRANCH   1   2
HETATM    2  C   UNL     1     -21.358  -5.865  -5.092  1.00  0.00     0.009 C 
BRANCH   2   3
HETATM    3  C   UNL     1     -20.319  -4.838  -5.543  1.00  0.00     0.000 C 
BRANCH   3   4
HETATM    4  C   UNL     1     -20.823  -4.087  -6.769  1.00  0.00     0.000 C 
BRANCH   4   5
HETATM    5  C   UNL     1     -21.760  -4.956  -7.595  1.00  0.00     0.000 C 
BRANCH   5   6
HETATM    6  C   UNL     1     -23.141  -4.319  -7.669  1.00  0.00     0.000 C 
BRANCH   6   7
HETATM    7  C   UNL     1     -23.358  -3.669  -9.027  1.00  0.00     0.000 C 
BRANCH   7   8
HETATM    8  C   UNL     1     -22.505  -4.351 -10.088  1.00  0.00     0.000 C 
BRANCH   8   9
HETATM    9  C   UNL     1     -22.010  -3.333 -11.108  1.00  0.00    -0.000 C 
BRANCH   9  10
HETATM   10  C   UNL     1     -20.517  -3.500 -11.362  1.00  0.00    -0.005 C 
HETATM   11  C   UNL     1     -19.960  -4.653 -10.547  1.00  0.00     0.005 C 
ENDBRANCH   9  10
ENDBRANCH   8   9
ENDBRANCH   7   8
ENDBRANCH   6   7
ENDBRANCH   5   6
ENDBRANCH   4   5
ENDBRANCH   3   4
ENDBRANCH   2   3
ENDBRANCH   1   2
BRANCH   1  12
HETATM   12  C   UNL     1     -21.589  -6.717  -2.702  1.00  0.00     0.219 C 
HETATM   13  O   UNL     1     -22.433  -5.868  -2.482  1.00  0.00    -0.273 OA
HETATM   14  N   UNL     1     -21.277  -7.713  -1.780  1.00  0.00    -0.347 N 
HETATM   15  C   UNL     1     -20.281  -8.749  -2.016  1.00  0.00     0.153 C 
BRANCH  14  16
HETATM   16  C   UNL     1     -22.036  -7.747  -0.513  1.00  0.00     0.236 C 
BRANCH  16  17
HETATM   17  C   UNL     1     -22.086  -9.090   0.245  1.00  0.00     0.277 C 
HETATM   18  O   UNL     1     -21.209  -9.454   1.024  1.00  0.00    -0.263 OA
BRANCH  17  19
HETATM   19  O   UNL     1     -23.181  -9.851  -0.066  1.00  0.00    -0.316 OA
BRANCH  19  20
HETATM   20  C   UNL     1     -22.837 -11.149  -0.589  1.00  0.00     0.123 C 
HETATM   21  C   UNL     1     -23.502 -12.247   0.237  1.00  0.00     0.040 C 
HETATM   22  C   UNL     1     -23.289 -11.251  -2.040  1.00  0.00     0.040 C 
ENDBRANCH  19  20
ENDBRANCH  17  19
ENDBRANCH  16  17
ENDBRANCH  14  16
ENDBRANCH   1  12
TORSDOF 14
ENDMDL
MODEL 5
REMARK VINA RESULT:      -6.1      2.039      3.789
REMARK  14 active torsions:
REMARK  status: ('A' for Active; 'I' for Inactive)
REMARK    1  A    between atoms: C_2  and  C_3 
REMARK    2  A    between atoms: C_3  and  C_4 
REMARK    3  A    between atoms: C_4  and  C_5 
REMARK    4  A    between atoms: C_5  and  C_6 
REMARK    5  A    between atoms: C_6  and  C_7 
REMARK    6  A    between atoms: C_7  and  C_8 
REMARK    7  A    between atoms: C_8  and  C_9 
REMARK    8  A    between atoms: C_9  and  C_10 
REMARK    9  A    between atoms: C_10  and  C_11 
REMARK   10  A    between atoms: C_11  and  C_12 
REMARK       I    between atoms: C_12  and  N_14 
REMARK   11  A    between atoms: N_14  and  C_16 
REMARK   12  A    between atoms: C_16  and  C_17 
REMARK   13  A    between atoms: C_17  and  O_19 
REMARK   14  A    between atoms: O_19  and  C_20 
ROOT
HETATM    1  C   UNL     1     -20.812  -7.986  -2.567  1.00  0.00     0.103 C 
ENDROOT
BRANCH   1   2
HETATM    2  C   UNL     1     -20.634  -7.614  -1.105  1.00  0.00     0.009 C 
BRANCH   2   3
HETATM    3  C   UNL     1     -20.990  -8.793  -0.199  1.00  0.00     0.000 C 
BRANCH   3   4
HETATM    4  C   UNL     1     -22.081  -8.388   0.783  1.00  0.00     0.000 C 
BRANCH   4   5
HETATM    5  C   UNL     1     -23.442  -8.893   0.327  1.00  0.00     0.000 C 
BRANCH   5   6
HETATM    6  C   UNL     1     -23.277 -10.093  -0.596  1.00  0.00     0.000 C 
BRANCH   6   7
HETATM    7  C   UNL     1     -24.217 -11.216  -0.186  1.00  0.00     0.000 C 
BRANCH   7   8
HETATM    8  C   UNL     1     -23.510 -12.563  -0.272  1.00  0.00     0.000 C 
BRANCH   8   9
HETATM    9  C   UNL     1     -22.648 -12.790   0.963  1.00  0.00    -0.000 C 
BRANCH   9  10
HETATM   10  C   UNL     1     -23.362 -13.687   1.966  1.00  0.00    -0.005 C 
HETATM   11  C   UNL     1     -22.360 -14.484   2.782  1.00  0.00     0.005 C 
ENDBRANCH   9  10
ENDBRANCH   8   9
ENDBRANCH   7   8
ENDBRANCH   6   7
ENDBRANCH   5   6
ENDBRANCH   4   5
ENDBRANCH   3   4
ENDBRANCH   2   3
ENDBRANCH   1   2
BRANCH   1  12
HETATM   12  C   UNL     1     -21.423  -6.866  -3.409  1.00  0.00     0.219 C 
HETATM   13  O   UNL     1     -21.761  -5.799  -2.930  1.00  0.00    -0.273 OA
HETATM   14  N   UNL     1     -21.573  -7.155  -4.764  1.00  0.00    -0.347 N 
HETATM   15  C   UNL     1     -21.171  -8.416  -5.370  1.00  0.00     0.153 C 
BRANCH  14  16
HETATM   16  C   UNL     1     -22.127  -6.101  -5.640  1.00  0.00     0.236 C 
BRANCH  16  17
HETATM   17  C   UNL     1     -21.122  -5.264  -6.459  1.00  0.00     0.277 C 
HETATM   18  O   UNL     1     -20.381  -4.425  -5.955  1.00  0.00    -0.263 OA
BRANCH  17  19
HETATM   19  O   UNL     1     -21.167  -5.522  -7.803  1.00  0.00    -0.316 OA
BRANCH  19  20
HETATM   20  C   UNL     1     -21.200  -4.326  -8.606  1.00  0.00     0.123 C 
HETATM   21  C   UNL     1     -20.349  -4.505  -9.861  1.00  0.00     0.040 C 
HETATM   22  C   UNL     1     -22.637  -4.014  -8.999  1.00  0.00     0.040 C 
ENDBRANCH  19  20
ENDBRANCH  17  19
ENDBRANCH  16  17
ENDBRANCH  14  16
ENDBRANCH   1  12
TORSDOF 14
ENDMDL
MODEL 6
REMARK VINA RESULT:      -6.0      1.506      2.582
REMARK  14 active torsions:
REMARK  status: ('A' for Active; 'I' for Inactive)
REMARK    1  A    between atoms: C_2  and  C_3 
REMARK    2  A    between atoms: C_3  and  C_4 
REMARK    3  A    between atoms: C_4  and  C_5 
REMARK    4  A    between atoms: C_5  and  C_6 
REMARK    5  A    between atoms: C_6  and  C_7 
REMARK    6  A    between atoms: C_7  and  C_8 
REMARK    7  A    between atoms: C_8  and  C_9 
REMARK    8  A    between atoms: C_9  and  C_10 
REMARK    9  A    between atoms: C_10  and  C_11 
REMARK   10  A    between atoms: C_11  and  C_12 
REMARK       I    between atoms: C_12  and  N_14 
REMARK   11  A    between atoms: N_14  and  C_16 
REMARK   12  A    between atoms: C_16  and  C_17 
REMARK   13  A    between atoms: C_17  and  O_19 
REMARK   14  A    between atoms: O_19  and  C_20 
ROOT
HETATM    1  C   UNL     1     -20.831  -6.799  -4.584  1.00  0.00     0.103 C 
ENDROOT
BRANCH   1   2
HETATM    2  C   UNL     1     -21.010  -8.294  -4.778  1.00  0.00     0.009 C 
BRANCH   2   3
HETATM    3  C   UNL     1     -20.277  -9.073  -3.685  1.00  0.00     0.000 C 
BRANCH   3   4
HETATM    4  C   UNL     1     -20.824 -10.492  -3.597  1.00  0.00     0.000 C 
BRANCH   4   5
HETATM    5  C   UNL     1     -22.343 -10.499  -3.702  1.00  0.00     0.000 C 
BRANCH   5   6
HETATM    6  C   UNL     1     -22.960 -10.936  -2.381  1.00  0.00     0.000 C 
BRANCH   6   7
HETATM    7  C   UNL     1     -22.042 -10.587  -1.220  1.00  0.00     0.000 C 
BRANCH   7   8
HETATM    8  C   UNL     1     -22.856 -10.227   0.016  1.00  0.00     0.000 C 
BRANCH   8   9
HETATM    9  C   UNL     1     -23.102  -8.725   0.072  1.00  0.00    -0.000 C 
BRANCH   9  10
HETATM   10  C   UNL     1     -21.875  -7.956  -0.401  1.00  0.00    -0.005 C 
HETATM   11  C   UNL     1     -22.284  -6.741  -1.215  1.00  0.00     0.005 C 
ENDBRANCH   9  10
ENDBRANCH   8   9
ENDBRANCH   7   8
ENDBRANCH   6   7
ENDBRANCH   5   6
ENDBRANCH   4   5
ENDBRANCH   3   4
ENDBRANCH   2   3
ENDBRANCH   1   2
BRANCH   1  12
HETATM   12  C   UNL     1     -21.768  -5.957  -5.451  1.00  0.00     0.219 C 
HETATM   13  O   UNL     1     -22.978  -5.981  -5.318  1.00  0.00    -0.273 OA
HETATM   14  N   UNL     1     -21.140  -5.165  -6.410  1.00  0.00    -0.347 N 
HETATM   15  C   UNL     1     -19.696  -5.106  -6.589  1.00  0.00     0.153 C 
BRANCH  14  16
HETATM   16  C   UNL     1     -21.988  -4.302  -7.259  1.00  0.00     0.236 C 
BRANCH  16  17
HETATM   17  C   UNL     1     -21.742  -4.349  -8.781  1.00  0.00     0.277 C 
HETATM   18  O   UNL     1     -20.720  -3.923  -9.310  1.00  0.00    -0.263 OA
BRANCH  17  19
HETATM   19  O   UNL     1     -22.792  -4.877  -9.485  1.00  0.00    -0.316 OA
BRANCH  19  20
HETATM   20  C   UNL     1     -23.383  -3.937 -10.405  1.00  0.00     0.123 C 
HETATM   21  C   UNL     1     -23.578  -4.585 -11.773  1.00  0.00     0.040 C 
HETATM   22  C   UNL     1     -24.727  -3.469  -9.862  1.00  0.00     0.040 C 
ENDBRANCH  19  20
ENDBRANCH  17  19
ENDBRANCH  16  17
ENDBRANCH  14  16
ENDBRANCH   1  12
TORSDOF 14
ENDMDL
MODEL 7
REMARK VINA RESULT:      -5.8      1.488      2.347
REMARK  14 active torsions:
REMARK  status: ('A' for Active; 'I' for Inactive)
REMARK    1  A    between atoms: C_2  and  C_3 
REMARK    2  A    between atoms: C_3  and  C_4 
REMARK    3  A    between atoms: C_4  and  C_5 
REMARK    4  A    between atoms: C_5  and  C_6 
REMARK    5  A    between atoms: C_6  and  C_7 
REMARK    6  A    between atoms: C_7  and  C_8 
REMARK    7  A    between atoms: C_8  and  C_9 
REMARK    8  A    between atoms: C_9  and  C_10 
REMARK    9  A    between atoms: C_10  and  C_11 
REMARK   10  A    between atoms: C_11  and  C_12 
REMARK       I    between atoms: C_12  and  N_14 
REMARK   11  A    between atoms: N_14  and  C_16 
REMARK   12  A    between atoms: C_16  and  C_17 
REMARK   13  A    between atoms: C_17  and  O_19 
REMARK   14  A    between atoms: O_19  and  C_20 
ROOT
HETATM    1  C   UNL     1     -20.819  -6.991  -5.109  1.00  0.00     0.103 C 
ENDROOT
BRANCH   1   2
HETATM    2  C   UNL     1     -21.470  -7.720  -3.947  1.00  0.00     0.009 C 
BRANCH   2   3
HETATM    3  C   UNL     1     -21.252  -6.958  -2.639  1.00  0.00     0.000 C 
BRANCH   3   4
HETATM    4  C   UNL     1     -20.946  -7.933  -1.510  1.00  0.00     0.000 C 
BRANCH   4   5
HETATM    5  C   UNL     1     -20.879  -9.363  -2.027  1.00  0.00     0.000 C 
BRANCH   5   6
HETATM    6  C   UNL     1     -21.557 -10.310  -1.045  1.00  0.00     0.000 C 
BRANCH   6   7
HETATM    7  C   UNL     1     -23.070 -10.221  -1.175  1.00  0.00     0.000 C 
BRANCH   7   8
HETATM    8  C   UNL     1     -23.749 -11.023  -0.073  1.00  0.00     0.000 C 
BRANCH   8   9
HETATM    9  C   UNL     1     -23.262 -12.466  -0.087  1.00  0.00    -0.000 C 
BRANCH   9  10
HETATM   10  C   UNL     1     -23.398 -13.098   1.292  1.00  0.00    -0.005 C 
HETATM   11  C   UNL     1     -22.122 -13.827   1.676  1.00  0.00     0.005 C 
ENDBRANCH   9  10
ENDBRANCH   8   9
ENDBRANCH   7   8
ENDBRANCH   6   7
ENDBRANCH   5   6
ENDBRANCH   4   5
ENDBRANCH   3   4
ENDBRANCH   2   3
ENDBRANCH   1   2
BRANCH   1  12
HETATM   12  C   UNL     1     -21.698  -5.892  -5.707  1.00  0.00     0.219 C 
HETATM   13  O   UNL     1     -22.881  -5.785  -5.439  1.00  0.00    -0.273 OA
HETATM   14  N   UNL     1     -21.052  -5.025  -6.585  1.00  0.00    -0.347 N 
HETATM   15  C   UNL     1     -19.637  -5.119  -6.918  1.00  0.00     0.153 C 
BRANCH  14  16
HETATM   16  C   UNL     1     -21.838  -3.919  -7.172  1.00  0.00     0.236 C 
BRANCH  16  17
HETATM   17  C   UNL     1     -22.712  -4.248  -8.399  1.00  0.00     0.277 C 
HETATM   18  O   UNL     1     -23.899  -3.943  -8.479  1.00  0.00    -0.263 OA
BRANCH  17  19
HETATM   19  O   UNL     1     -22.046  -4.947  -9.371  1.00  0.00    -0.316 OA
BRANCH  19  20
HETATM   20  C   UNL     1     -21.530  -4.103 -10.419  1.00  0.00     0.123 C 
HETATM   21  C   UNL     1     -20.088  -4.486 -10.747  1.00  0.00     0.040 C 
HETATM   22  C   UNL     1     -22.396  -4.247 -11.663  1.00  0.00     0.040 C 
ENDBRANCH  19  20
ENDBRANCH  17  19
ENDBRANCH  16  17
ENDBRANCH  14  16
ENDBRANCH   1  12
TORSDOF 14
ENDMDL
MODEL 8
REMARK VINA RESULT:      -5.7      3.313      9.510
REMARK  14 active torsions:
REMARK  status: ('A' for Active; 'I' for Inactive)
REMARK    1  A    between atoms: C_2  and  C_3 
REMARK    2  A    between atoms: C_3  and  C_4 
REMARK    3  A    between atoms: C_4  and  C_5 
REMARK    4  A    between atoms: C_5  and  C_6 
REMARK    5  A    between atoms: C_6  and  C_7 
REMARK    6  A    between atoms: C_7  and  C_8 
REMARK    7  A    between atoms: C_8  and  C_9 
REMARK    8  A    between atoms: C_9  and  C_10 
REMARK    9  A    between atoms: C_10  and  C_11 
REMARK   10  A    between atoms: C_11  and  C_12 
REMARK       I    between atoms: C_12  and  N_14 
REMARK   11  A    between atoms: N_14  and  C_16 
REMARK   12  A    between atoms: C_16  and  C_17 
REMARK   13  A    between atoms: C_17  and  O_19 
REMARK   14  A    between atoms: O_19  and  C_20 
ROOT
HETATM    1  C   UNL     1     -19.998  -7.333  -5.442  1.00  0.00     0.103 C 
ENDROOT
BRANCH   1   2
HETATM    2  C   UNL     1     -20.910  -6.516  -6.342  1.00  0.00     0.009 C 
BRANCH   2   3
HETATM    3  C   UNL     1     -20.522  -5.037  -6.306  1.00  0.00     0.000 C 
BRANCH   3   4
HETATM    4  C   UNL     1     -19.417  -4.761  -7.316  1.00  0.00     0.000 C 
BRANCH   4   5
HETATM    5  C   UNL     1     -19.902  -3.823  -8.413  1.00  0.00     0.000 C 
BRANCH   5   6
HETATM    6  C   UNL     1     -20.040  -4.577  -9.728  1.00  0.00     0.000 C 
BRANCH   6   7
HETATM    7  C   UNL     1     -21.374  -4.264 -10.387  1.00  0.00     0.000 C 
BRANCH   7   8
HETATM    8  C   UNL     1     -22.527  -4.636  -9.464  1.00  0.00     0.000 C 
BRANCH   8   9
HETATM    9  C   UNL     1     -23.821  -4.771 -10.256  1.00  0.00    -0.000 C 
BRANCH   9  10
HETATM   10  C   UNL     1     -24.416  -3.402 -10.561  1.00  0.00    -0.005 C 
HETATM   11  C   UNL     1     -24.418  -3.139 -12.056  1.00  0.00     0.005 C 
ENDBRANCH   9  10
ENDBRANCH   8   9
ENDBRANCH   7   8
ENDBRANCH   6   7
ENDBRANCH   5   6
ENDBRANCH   4   5
ENDBRANCH   3   4
ENDBRANCH   2   3
ENDBRANCH   1   2
BRANCH   1  12
HETATM   12  C   UNL     1     -20.661  -8.595  -4.891  1.00  0.00     0.219 C 
HETATM   13  O   UNL     1     -20.655  -9.653  -5.494  1.00  0.00    -0.273 OA
HETATM   14  N   UNL     1     -21.282  -8.449  -3.652  1.00  0.00    -0.347 N 
HETATM   15  C   UNL     1     -21.299  -7.202  -2.900  1.00  0.00     0.153 C 
BRANCH  14  16
HETATM   16  C   UNL     1     -21.913  -9.640  -3.047  1.00  0.00     0.236 C 
BRANCH  16  17
HETATM   17  C   UNL     1     -21.209 -10.269  -1.826  1.00  0.00     0.277 C 
HETATM   18  O   UNL     1     -21.030 -11.477  -1.704  1.00  0.00    -0.263 OA
BRANCH  17  19
HETATM   19  O   UNL     1     -20.841  -9.351  -0.878  1.00  0.00    -0.316 OA
BRANCH  19  20
HETATM   20  C   UNL     1     -21.669  -9.395   0.300  1.00  0.00     0.123 C 
HETATM   21  C   UNL     1     -20.873  -8.948   1.525  1.00  0.00     0.040 C 
HETATM   22  C   UNL     1     -22.875  -8.484   0.111  1.00  0.00     0.040 C 
ENDBRANCH  19  20
ENDBRANCH  17  19
ENDBRANCH  16  17
ENDBRANCH  14  16
ENDBRANCH   1  12
TORSDOF 14
ENDMDL
MODEL 9
REMARK VINA RESULT:      -5.7      2.107      4.071
REMARK  14 active torsions:
REMARK  status: ('A' for Active; 'I' for Inactive)
REMARK    1  A    between atoms: C_2  and  C_3 
REMARK    2  A    between atoms: C_3  and  C_4 
REMARK    3  A    between atoms: C_4  and  C_5 
REMARK    4  A    between atoms: C_5  and  C_6 
REMARK    5  A    between atoms: C_6  and  C_7 
REMARK    6  A    between atoms: C_7  and  C_8 
REMARK    7  A    between atoms: C_8  and  C_9 
REMARK    8  A    between atoms: C_9  and  C_10 
REMARK    9  A    between atoms: C_10  and  C_11 
REMARK   10  A    between atoms: C_11  and  C_12 
REMARK       I    between atoms: C_12  and  N_14 
REMARK   11  A    between atoms: N_14  and  C_16 
REMARK   12  A    between atoms: C_16  and  C_17 
REMARK   13  A    between atoms: C_17  and  O_19 
REMARK   14  A    between atoms: O_19  and  C_20 
ROOT
HETATM    1  C   UNL     1     -20.901  -8.902  -3.794  1.00  0.00     0.103 C 
ENDROOT
BRANCH   1   2
HETATM    2  C   UNL     1     -21.854 -10.080  -3.682  1.00  0.00     0.009 C 
BRANCH   2   3
HETATM    3  C   UNL     1     -21.154 -11.285  -3.052  1.00  0.00     0.000 C 
BRANCH   3   4
HETATM    4  C   UNL     1     -21.791 -12.577  -3.544  1.00  0.00     0.000 C 
BRANCH   4   5
HETATM    5  C   UNL     1     -22.926 -13.010  -2.627  1.00  0.00     0.000 C 
BRANCH   5   6
HETATM    6  C   UNL     1     -22.796 -12.329  -1.271  1.00  0.00     0.000 C 
BRANCH   6   7
HETATM    7  C   UNL     1     -24.006 -11.450  -0.996  1.00  0.00     0.000 C 
BRANCH   7   8
HETATM    8  C   UNL     1     -23.653 -10.349  -0.005  1.00  0.00     0.000 C 
BRANCH   8   9
HETATM    9  C   UNL     1     -22.142 -10.244   0.158  1.00  0.00    -0.000 C 
BRANCH   9  10
HETATM   10  C   UNL     1     -21.689  -8.791   0.094  1.00  0.00    -0.005 C 
HETATM   11  C   UNL     1     -22.884  -7.860   0.001  1.00  0.00     0.005 C 
ENDBRANCH   9  10
ENDBRANCH   8   9
ENDBRANCH   7   8
ENDBRANCH   6   7
ENDBRANCH   5   6
ENDBRANCH   4   5
ENDBRANCH   3   4
ENDBRANCH   2   3
ENDBRANCH   1   2
BRANCH   1  12
HETATM   12  C   UNL     1     -21.208  -7.983  -4.976  1.00  0.00     0.219 C 
HETATM   13  O   UNL     1     -21.151  -8.362  -6.131  1.00  0.00    -0.273 OA
HETATM   14  N   UNL     1     -21.551  -6.675  -4.639  1.00  0.00    -0.347 N 
HETATM   15  C   UNL     1     -21.638  -6.191  -3.268  1.00  0.00     0.153 C 
BRANCH  14  16
HETATM   16  C   UNL     1     -21.893  -5.743  -5.733  1.00  0.00     0.236 C 
BRANCH  16  17
HETATM   17  C   UNL     1     -20.801  -4.751  -6.183  1.00  0.00     0.277 C 
HETATM   18  O   UNL     1     -19.659  -4.759  -5.730  1.00  0.00    -0.263 OA
BRANCH  17  19
HETATM   19  O   UNL     1     -21.240  -3.839  -7.105  1.00  0.00    -0.316 OA
BRANCH  19  20
HETATM   20  C   UNL     1     -21.548  -4.431  -8.383  1.00  0.00     0.123 C 
HETATM   21  C   UNL     1     -22.827  -3.826  -8.954  1.00  0.00     0.040 C 
HETATM   22  C   UNL     1     -20.392  -4.195  -9.346  1.00  0.00     0.040 C 
ENDBRANCH  19  20
ENDBRANCH  17  19
ENDBRANCH  16  17
ENDBRANCH  14  16
ENDBRANCH   1  12
TORSDOF 14
ENDMDL
