MODEL 1
REMARK VINA RESULT:      -6.0      0.000      0.000
REMARK  6 active torsions:
REMARK  status: ('A' for Active; 'I' for Inactive)
REMARK    1  A    between atoms: C_1  and  O_12 
REMARK    2  A    between atoms: C_2  and  O_11 
REMARK    3  A    between atoms: C_3  and  O_10 
REMARK    4  A    between atoms: C_4  and  O_9 
REMARK    5  A    between atoms: C_5  and  O_8 
REMARK    6  A    between atoms: C_6  and  O_7 
ROOT
HETATM    1  C   UNL     1     -21.642  -4.117 -11.352  1.00  0.00     0.180 C 
HETATM    2  C   UNL     1     -22.983  -4.032 -12.099  1.00  0.00     0.180 C 
HETATM    3  C   UNL     1     -23.942  -3.045 -11.407  1.00  0.00     0.180 C 
HETATM    4  C   UNL     1     -24.169  -3.426  -9.932  1.00  0.00     0.180 C 
HETATM    5  C   UNL     1     -22.832  -3.515  -9.172  1.00  0.00     0.180 C 
HETATM    6  C   UNL     1     -21.846  -4.479  -9.866  1.00  0.00     0.180 C 
ENDROOT
BRANCH   1   7
HETATM    7  O   UNL     1     -20.874  -2.913 -11.469  1.00  0.00    -0.390 OA
HETATM    8  H   UNL     1     -20.184  -2.863 -10.785  1.00  0.00     0.210 HD
ENDBRANCH   1   7
BRANCH   2   9
HETATM    9  O   UNL     1     -23.610  -5.328 -12.108  1.00  0.00    -0.390 OA
HETATM   10  H   UNL     1     -24.010  -5.449 -12.992  1.00  0.00     0.210 HD
ENDBRANCH   2   9
BRANCH   6  11
HETATM   11  O   UNL     1     -20.572  -4.462  -9.210  1.00  0.00    -0.390 OA
HETATM   12  H   UNL     1     -20.072  -5.233  -9.537  1.00  0.00     0.210 HD
ENDBRANCH   6  11
BRANCH   3  13
HETATM   13  O   UNL     1     -25.188  -3.023 -12.109  1.00  0.00    -0.390 OA
HETATM   14  H   UNL     1     -25.872  -2.779 -11.455  1.00  0.00     0.210 HD
ENDBRANCH   3  13
BRANCH   5  15
HETATM   15  O   UNL     1     -23.096  -3.954  -7.834  1.00  0.00    -0.390 OA
HETATM   16  H   UNL     1     -23.098  -3.150  -7.279  1.00  0.00     0.210 HD
ENDBRANCH   5  15
BRANCH   4  17
HETATM   17  O   UNL     1     -24.855  -4.692  -9.815  1.00  0.00    -0.390 OA
HETATM   18  H   UNL     1     -24.184  -5.386  -9.649  1.00  0.00     0.210 HD
ENDBRANCH   4  17
TORSDOF 6
ENDMDL
MODEL 2
REMARK VINA RESULT:      -5.7      1.199      3.162
REMARK  6 active torsions:
REMARK  status: ('A' for Active; 'I' for Inactive)
REMARK    1  A    between atoms: C_1  and  O_12 
REMARK    2  A    between atoms: C_2  and  O_11 
REMARK    3  A    between atoms: C_3  and  O_10 
REMARK    4  A    between atoms: C_4  and  O_9 
REMARK    5  A    between atoms: C_5  and  O_8 
REMARK    6  A    between atoms: C_6  and  O_7 
ROOT
HETATM    1  C   UNL     1     -23.927  -3.748 -12.081  1.00  0.00     0.180 C 
HETATM    2  C   UNL     1     -24.301  -4.182 -10.655  1.00  0.00     0.180 C 
HETATM    3  C   UNL     1     -23.527  -3.362  -9.605  1.00  0.00     0.180 C 
HETATM    4  C   UNL     1     -22.006  -3.469  -9.821  1.00  0.00     0.180 C 
HETATM    5  C   UNL     1     -21.619  -3.038 -11.248  1.00  0.00     0.180 C 
HETATM    6  C   UNL     1     -22.404  -3.829 -12.315  1.00  0.00     0.180 C 
ENDROOT
BRANCH   1   7
HETATM    7  O   UNL     1     -24.409  -2.436 -12.398  1.00  0.00    -0.390 OA
HETATM    8  H   UNL     1     -25.303  -2.468 -12.780  1.00  0.00     0.210 HD
ENDBRANCH   1   7
BRANCH   2   9
HETATM    9  O   UNL     1     -23.963  -5.570 -10.471  1.00  0.00    -0.390 OA
HETATM   10  H   UNL     1     -24.779  -6.087 -10.622  1.00  0.00     0.210 HD
ENDBRANCH   2   9
BRANCH   6  11
HETATM   11  O   UNL     1     -22.114  -3.337 -13.629  1.00  0.00    -0.390 OA
HETATM   12  H   UNL     1     -21.429  -2.650 -13.534  1.00  0.00     0.210 HD
ENDBRANCH   6  11
BRANCH   3  13
HETATM   13  O   UNL     1     -23.874  -3.820  -8.295  1.00  0.00    -0.390 OA
HETATM   14  H   UNL     1     -24.612  -4.448  -8.407  1.00  0.00     0.210 HD
ENDBRANCH   3  13
BRANCH   5  15
HETATM   15  O   UNL     1     -20.210  -3.238 -11.419  1.00  0.00    -0.390 OA
HETATM   16  H   UNL     1     -20.053  -3.254 -12.383  1.00  0.00     0.210 HD
ENDBRANCH   5  15
BRANCH   4  17
HETATM   17  O   UNL     1     -21.537  -4.818  -9.600  1.00  0.00    -0.390 OA
HETATM   18  H   UNL     1     -22.035  -5.414 -10.197  1.00  0.00     0.210 HD
ENDBRANCH   4  17
TORSDOF 6
ENDMDL
MODEL 3
REMARK VINA RESULT:      -5.7      0.911      2.975
REMARK  6 active torsions:
REMARK  status: ('A' for Active; 'I' for Inactive)
REMARK    1  A    between atoms: C_1  and  O_12 
REMARK    2  A    between atoms: C_2  and  O_11 
REMARK    3  A    between atoms: C_3  and  O_10 
REMARK    4  A    between atoms: C_4  and  O_9 
REMARK    5  A    between atoms: C_5  and  O_8 
REMARK    6  A    between atoms: C_6  and  O_7 
ROOT
HETATM    1  C   UNL     1     -24.403  -3.382 -10.008  1.00  0.00     0.180 C 
HETATM    2  C   UNL     1     -24.464  -3.278 -11.540  1.00  0.00     0.180 C 
HETATM    3  C   UNL     1     -23.685  -4.429 -12.205  1.00  0.00     0.180 C 
HETATM    4  C   UNL     1     -22.223  -4.467 -11.725  1.00  0.00     0.180 C 
HETATM    5  C   UNL     1     -22.149  -4.571 -10.190  1.00  0.00     0.180 C 
HETATM    6  C   UNL     1     -22.946  -3.441  -9.503  1.00  0.00     0.180 C 
ENDROOT
BRANCH   1   7
HETATM    7  O   UNL     1     -25.148  -4.498  -9.505  1.00  0.00    -0.390 OA
HETATM    8  H   UNL     1     -24.934  -5.315  -9.988  1.00  0.00     0.210 HD
ENDBRANCH   1   7
BRANCH   2   9
HETATM    9  O   UNL     1     -23.867  -2.037 -11.962  1.00  0.00    -0.390 OA
HETATM   10  H   UNL     1     -22.962  -2.012 -11.593  1.00  0.00     0.210 HD
ENDBRANCH   2   9
BRANCH   6  11
HETATM   11  O   UNL     1     -22.959  -3.618  -8.081  1.00  0.00    -0.390 OA
HETATM   12  H   UNL     1     -22.348  -4.351  -7.878  1.00  0.00     0.210 HD
ENDBRANCH   6  11
BRANCH   3  13
HETATM   13  O   UNL     1     -23.734  -4.276 -13.627  1.00  0.00    -0.390 OA
HETATM   14  H   UNL     1     -23.197  -3.489 -13.841  1.00  0.00     0.210 HD
ENDBRANCH   3  13
BRANCH   5  15
HETATM   15  O   UNL     1     -20.772  -4.516  -9.795  1.00  0.00    -0.390 OA
HETATM   16  H   UNL     1     -20.398  -5.398  -9.988  1.00  0.00     0.210 HD
ENDBRANCH   5  15
BRANCH   4  17
HETATM   17  O   UNL     1     -21.500  -3.290 -12.146  1.00  0.00    -0.390 OA
HETATM   18  H   UNL     1     -21.764  -3.085 -13.067  1.00  0.00     0.210 HD
ENDBRANCH   4  17
TORSDOF 6
ENDMDL
MODEL 4
REMARK VINA RESULT:      -5.5      1.220      3.037
REMARK  6 active torsions:
REMARK  status: ('A' for Active; 'I' for Inactive)
REMARK    1  A    between atoms: C_1  and  O_12 
REMARK    2  A    between atoms: C_2  and  O_11 
REMARK    3  A    between atoms: C_3  and  O_10 
REMARK    4  A    between atoms: C_4  and  O_9 
REMARK    5  A    between atoms: C_5  and  O_8 
REMARK    6  A    between atoms: C_6  and  O_7 
ROOT
HETATM    1  C   UNL     1     -21.565  -3.725  -9.656  1.00  0.00     0.180 C 
HETATM    2  C   UNL     1     -23.004  -3.959  -9.170  1.00  0.00     0.180 C 
HETATM    3  C   UNL     1     -23.789  -4.838 -10.164  1.00  0.00     0.180 C 
HETATM    4  C   UNL     1     -23.790  -4.222 -11.575  1.00  0.00     0.180 C 
HETATM    5  C   UNL     1     -22.352  -3.982 -12.073  1.00  0.00     0.180 C 
HETATM    6  C   UNL     1     -21.540  -3.127 -11.078  1.00  0.00     0.180 C 
ENDROOT
BRANCH   1   7
HETATM    7  O   UNL     1     -20.770  -4.917  -9.605  1.00  0.00    -0.390 OA
HETATM    8  H   UNL     1     -19.845  -4.718  -9.380  1.00  0.00     0.210 HD
ENDBRANCH   1   7
BRANCH   2   9
HETATM    9  O   UNL     1     -23.686  -2.695  -9.060  1.00  0.00    -0.390 OA
HETATM   10  H   UNL     1     -23.208  -2.060  -9.628  1.00  0.00     0.210 HD
ENDBRANCH   2   9
BRANCH   6  11
HETATM   11  O   UNL     1     -20.176  -3.009 -11.503  1.00  0.00    -0.390 OA
HETATM   12  H   UNL     1     -20.160  -2.376 -12.244  1.00  0.00     0.210 HD
ENDBRANCH   6  11
BRANCH   3  13
HETATM   13  O   UNL     1     -25.131  -5.000  -9.695  1.00  0.00    -0.390 OA
HETATM   14  H   UNL     1     -25.673  -5.225 -10.476  1.00  0.00     0.210 HD
ENDBRANCH   3  13
BRANCH   5  15
HETATM   15  O   UNL     1     -22.414  -3.333 -13.349  1.00  0.00    -0.390 OA
HETATM   16  H   UNL     1     -21.795  -2.577 -13.301  1.00  0.00     0.210 HD
ENDBRANCH   5  15
BRANCH   4  17
HETATM   17  O   UNL     1     -24.506  -2.968 -11.603  1.00  0.00    -0.390 OA
HETATM   18  H   UNL     1     -25.466  -3.167 -11.607  1.00  0.00     0.210 HD
ENDBRANCH   4  17
TORSDOF 6
ENDMDL
MODEL 5
REMARK VINA RESULT:      -5.3      1.141      3.448
REMARK  6 active torsions:
REMARK  status: ('A' for Active; 'I' for Inactive)
REMARK    1  A    between atoms: C_1  and  O_12 
REMARK    2  A    between atoms: C_2  and  O_11 
REMARK    3  A    between atoms: C_3  and  O_10 
REMARK    4  A    between atoms: C_4  and  O_9 
REMARK    5  A    between atoms: C_5  and  O_8 
REMARK    6  A    between atoms: C_6  and  O_7 
ROOT
HETATM    1  C   UNL     1     -22.820  -4.377  -9.411  1.00  0.00     0.180 C 
HETATM    2  C   UNL     1     -21.486  -4.134 -10.135  1.00  0.00     0.180 C 
HETATM    3  C   UNL     1     -21.520  -2.817 -10.933  1.00  0.00     0.180 C 
HETATM    4  C   UNL     1     -22.688  -2.801 -11.936  1.00  0.00     0.180 C 
HETATM    5  C   UNL     1     -24.032  -3.044 -11.223  1.00  0.00     0.180 C 
HETATM    6  C   UNL     1     -24.009  -4.346 -10.394  1.00  0.00     0.180 C 
ENDROOT
BRANCH   1   7
HETATM    7  O   UNL     1     -23.038  -3.451  -8.340  1.00  0.00    -0.390 OA
HETATM    8  H   UNL     1     -23.589  -2.702  -8.623  1.00  0.00     0.210 HD
ENDBRANCH   1   7
BRANCH   2   9
HETATM    9  O   UNL     1     -21.239  -5.209 -11.061  1.00  0.00    -0.390 OA
HETATM   10  H   UNL     1     -21.106  -6.020 -10.532  1.00  0.00     0.210 HD
ENDBRANCH   2   9
BRANCH   6  11
HETATM   11  O   UNL     1     -25.224  -4.497  -9.650  1.00  0.00    -0.390 OA
HETATM   12  H   UNL     1     -25.928  -4.049 -10.155  1.00  0.00     0.210 HD
ENDBRANCH   6  11
BRANCH   3  13
HETATM   13  O   UNL     1     -20.277  -2.646 -11.620  1.00  0.00    -0.390 OA
HETATM   14  H   UNL     1     -20.171  -3.424 -12.201  1.00  0.00     0.210 HD
ENDBRANCH   3  13
BRANCH   5  15
HETATM   15  O   UNL     1     -25.068  -3.104 -12.211  1.00  0.00    -0.390 OA
HETATM   16  H   UNL     1     -24.680  -3.555 -12.986  1.00  0.00     0.210 HD
ENDBRANCH   5  15
BRANCH   4  17
HETATM   17  O   UNL     1     -22.517  -3.805 -12.960  1.00  0.00    -0.390 OA
HETATM   18  H   UNL     1     -21.582  -3.786 -13.251  1.00  0.00     0.210 HD
ENDBRANCH   4  17
TORSDOF 6
ENDMDL
MODEL 6
REMARK VINA RESULT:      -5.3      0.924      3.375
REMARK  6 active torsions:
REMARK  status: ('A' for Active; 'I' for Inactive)
REMARK    1  A    between atoms: C_1  and  O_12 
REMARK    2  A    between atoms: C_2  and  O_11 
REMARK    3  A    between atoms: C_3  and  O_10 
REMARK    4  A    between atoms: C_4  and  O_9 
REMARK    5  A    between atoms: C_5  and  O_8 
REMARK    6  A    between atoms: C_6  and  O_7 
ROOT
HETATM    1  C   UNL     1     -22.914  -4.103 -11.843  1.00  0.00     0.180 C 
HETATM    2  C   UNL     1     -21.768  -4.432 -10.873  1.00  0.00     0.180 C 
HETATM    3  C   UNL     1     -22.307  -5.045  -9.566  1.00  0.00     0.180 C 
HETATM    4  C   UNL     1     -23.333  -4.115  -8.893  1.00  0.00     0.180 C 
HETATM    5  C   UNL     1     -24.487  -3.778  -9.856  1.00  0.00     0.180 C 
HETATM    6  C   UNL     1     -23.966  -3.188 -11.184  1.00  0.00     0.180 C 
ENDROOT
BRANCH   1   7
HETATM    7  O   UNL     1     -23.540  -5.280 -12.369  1.00  0.00    -0.390 OA
HETATM    8  H   UNL     1     -23.383  -6.052 -11.799  1.00  0.00     0.210 HD
ENDBRANCH   1   7
BRANCH   2   9
HETATM    9  O   UNL     1     -21.060  -3.224 -10.538  1.00  0.00    -0.390 OA
HETATM   10  H   UNL     1     -20.436  -3.043 -11.268  1.00  0.00     0.210 HD
ENDBRANCH   2   9
BRANCH   6  11
HETATM   11  O   UNL     1     -25.043  -2.985 -12.108  1.00  0.00    -0.390 OA
HETATM   12  H   UNL     1     -24.654  -2.969 -13.002  1.00  0.00     0.210 HD
ENDBRANCH   6  11
BRANCH   3  13
HETATM   13  O   UNL     1     -21.216  -5.302  -8.677  1.00  0.00    -0.390 OA
HETATM   14  H   UNL     1     -21.509  -5.024  -7.788  1.00  0.00     0.210 HD
ENDBRANCH   3  13
BRANCH   5  15
HETATM   15  O   UNL     1     -25.363  -2.846  -9.210  1.00  0.00    -0.390 OA
HETATM   16  H   UNL     1     -25.173  -1.973  -9.606  1.00  0.00     0.210 HD
ENDBRANCH   5  15
BRANCH   4  17
HETATM   17  O   UNL     1     -22.719  -2.884  -8.454  1.00  0.00    -0.390 OA
HETATM   18  H   UNL     1     -21.809  -2.853  -8.814  1.00  0.00     0.210 HD
ENDBRANCH   4  17
TORSDOF 6
ENDMDL
MODEL 7
REMARK VINA RESULT:      -5.2      1.028      3.330
REMARK  6 active torsions:
REMARK  status: ('A' for Active; 'I' for Inactive)
REMARK    1  A    between atoms: C_1  and  O_12 
REMARK    2  A    between atoms: C_2  and  O_11 
REMARK    3  A    between atoms: C_3  and  O_10 
REMARK    4  A    between atoms: C_4  and  O_9 
REMARK    5  A    between atoms: C_5  and  O_8 
REMARK    6  A    between atoms: C_6  and  O_7 
ROOT
HETATM    1  C   UNL     1     -23.157  -3.550 -12.102  1.00  0.00     0.180 C 
HETATM    2  C   UNL     1     -21.641  -3.714 -11.911  1.00  0.00     0.180 C 
HETATM    3  C   UNL     1     -21.328  -4.785 -10.848  1.00  0.00     0.180 C 
HETATM    4  C   UNL     1     -22.008  -4.456  -9.506  1.00  0.00     0.180 C 
HETATM    5  C   UNL     1     -23.529  -4.288  -9.684  1.00  0.00     0.180 C 
HETATM    6  C   UNL     1     -23.863  -3.239 -10.766  1.00  0.00     0.180 C 
ENDROOT
BRANCH   1   7
HETATM    7  O   UNL     1     -23.757  -4.692 -12.726  1.00  0.00    -0.390 OA
HETATM    8  H   UNL     1     -23.123  -5.425 -12.812  1.00  0.00     0.210 HD
ENDBRANCH   1   7
BRANCH   2   9
HETATM    9  O   UNL     1     -21.074  -2.467 -11.466  1.00  0.00    -0.390 OA
HETATM   10  H   UNL     1     -21.309  -2.365 -10.522  1.00  0.00     0.210 HD
ENDBRANCH   2   9
BRANCH   6  11
HETATM   11  O   UNL     1     -25.276  -3.178 -10.996  1.00  0.00    -0.390 OA
HETATM   12  H   UNL     1     -25.513  -3.957 -11.533  1.00  0.00     0.210 HD
ENDBRANCH   6  11
BRANCH   3  13
HETATM   13  O   UNL     1     -19.912  -4.881 -10.674  1.00  0.00    -0.390 OA
HETATM   14  H   UNL     1     -19.658  -5.783 -10.951  1.00  0.00     0.210 HD
ENDBRANCH   3  13
BRANCH   5  15
HETATM   15  O   UNL     1     -24.095  -3.901  -8.426  1.00  0.00    -0.390 OA
HETATM   16  H   UNL     1     -24.355  -4.730  -7.978  1.00  0.00     0.210 HD
ENDBRANCH   5  15
BRANCH   4  17
HETATM   17  O   UNL     1     -21.472  -3.247  -8.927  1.00  0.00    -0.390 OA
HETATM   18  H   UNL     1     -21.640  -3.272  -7.962  1.00  0.00     0.210 HD
ENDBRANCH   4  17
TORSDOF 6
ENDMDL
MODEL 8
REMARK VINA RESULT:      -5.0     10.083     11.963
REMARK  6 active torsions:
REMARK  status: ('A' for Active; 'I' for Inactive)
REMARK    1  A    between atoms: C_1  and  O_12 
REMARK    2  A    between atoms: C_2  and  O_11 
REMARK    3  A    between atoms: C_3  and  O_10 
REMARK    4  A    between atoms: C_4  and  O_9 
REMARK    5  A    between atoms: C_5  and  O_8 
REMARK    6  A    between atoms: C_6  and  O_7 
ROOT
HETATM    1  C   UNL     1     -34.599  -2.752 -10.370  1.00  0.00     0.180 C 
HETATM    2  C   UNL     1     -33.934  -4.131 -10.498  1.00  0.00     0.180 C 
HETATM    3  C   UNL     1     -32.977  -4.175 -11.705  1.00  0.00     0.180 C 
HETATM    4  C   UNL     1     -33.704  -3.803 -13.010  1.00  0.00     0.180 C 
HETATM    5  C   UNL     1     -34.376  -2.422 -12.894  1.00  0.00     0.180 C 
HETATM    6  C   UNL     1     -35.318  -2.348 -11.674  1.00  0.00     0.180 C 
ENDROOT
BRANCH   1   7
HETATM    7  O   UNL     1     -33.672  -1.732  -9.979  1.00  0.00    -0.390 OA
HETATM    8  H   UNL     1     -32.764  -2.077  -9.929  1.00  0.00     0.210 HD
ENDBRANCH   1   7
BRANCH   2   9
HETATM    9  O   UNL     1     -34.946  -5.136 -10.698  1.00  0.00    -0.390 OA
HETATM   10  H   UNL     1     -35.283  -5.386  -9.815  1.00  0.00     0.210 HD
ENDBRANCH   2   9
BRANCH   6  11
HETATM   11  O   UNL     1     -35.846  -1.025 -11.517  1.00  0.00    -0.390 OA
HETATM   12  H   UNL     1     -35.105  -0.451 -11.249  1.00  0.00     0.210 HD
ENDBRANCH   6  11
BRANCH   3  13
HETATM   13  O   UNL     1     -32.408  -5.483 -11.812  1.00  0.00    -0.390 OA
HETATM   14  H   UNL     1     -31.673  -5.521 -11.170  1.00  0.00     0.210 HD
ENDBRANCH   3  13
BRANCH   5  15
HETATM   15  O   UNL     1     -35.106  -2.167 -14.100  1.00  0.00    -0.390 OA
HETATM   16  H   UNL     1     -34.882  -2.894 -14.713  1.00  0.00     0.210 HD
ENDBRANCH   5  15
BRANCH   4  17
HETATM   17  O   UNL     1     -34.711  -4.782 -13.349  1.00  0.00    -0.390 OA
HETATM   18  H   UNL     1     -34.259  -5.634 -13.525  1.00  0.00     0.210 HD
ENDBRANCH   4  17
TORSDOF 6
ENDMDL
MODEL 9
REMARK VINA RESULT:      -4.9     12.932     14.750
REMARK  6 active torsions:
REMARK  status: ('A' for Active; 'I' for Inactive)
REMARK    1  A    between atoms: C_1  and  O_12 
REMARK    2  A    between atoms: C_2  and  O_11 
REMARK    3  A    between atoms: C_3  and  O_10 
REMARK    4  A    between atoms: C_4  and  O_9 
REMARK    5  A    between atoms: C_5  and  O_8 
REMARK    6  A    between atoms: C_6  and  O_7 
ROOT
HETATM    1  C   UNL     1     -37.556   0.242 -15.156  1.00  0.00     0.180 C 
HETATM    2  C   UNL     1     -37.119   0.302 -13.684  1.00  0.00     0.180 C 
HETATM    3  C   UNL     1     -35.593   0.486 -13.565  1.00  0.00     0.180 C 
HETATM    4  C   UNL     1     -34.837  -0.631 -14.307  1.00  0.00     0.180 C 
HETATM    5  C   UNL     1     -35.267  -0.702 -15.785  1.00  0.00     0.180 C 
HETATM    6  C   UNL     1     -36.796  -0.857 -15.926  1.00  0.00     0.180 C 
ENDROOT
BRANCH   1   7
HETATM    7  O   UNL     1     -37.413   1.503 -15.821  1.00  0.00    -0.390 OA
HETATM    8  H   UNL     1     -36.989   1.401 -16.691  1.00  0.00     0.210 HD
ENDBRANCH   1   7
BRANCH   2   9
HETATM    9  O   UNL     1     -37.470  -0.930 -13.027  1.00  0.00    -0.390 OA
HETATM   10  H   UNL     1     -38.210  -0.732 -12.419  1.00  0.00     0.210 HD
ENDBRANCH   2   9
BRANCH   6  11
HETATM   11  O   UNL     1     -37.188  -0.809 -17.303  1.00  0.00    -0.390 OA
HETATM   12  H   UNL     1     -38.021  -1.310 -17.382  1.00  0.00     0.210 HD
ENDBRANCH   6  11
BRANCH   3  13
HETATM   13  O   UNL     1     -35.223   0.500 -12.183  1.00  0.00    -0.390 OA
HETATM   14  H   UNL     1     -35.531  -0.346 -11.804  1.00  0.00     0.210 HD
ENDBRANCH   3  13
BRANCH   5  15
HETATM   15  O   UNL     1     -34.597  -1.808 -16.402  1.00  0.00    -0.390 OA
HETATM   16  H   UNL     1     -33.876  -1.424 -16.939  1.00  0.00     0.210 HD
ENDBRANCH   5  15
BRANCH   4  17
HETATM   17  O   UNL     1     -35.065  -1.919 -13.695  1.00  0.00    -0.390 OA
HETATM   18  H   UNL     1     -36.020  -1.991 -13.487  1.00  0.00     0.210 HD
ENDBRANCH   4  17
TORSDOF 6
ENDMDL
