MODEL 1
REMARK VINA RESULT:      -7.5      0.000      0.000
REMARK  7 active torsions:
REMARK  status: ('A' for Active; 'I' for Inactive)
REMARK    1  A    between atoms: C_5  and  C_34 
REMARK    2  A    between atoms: C_15  and  O_28 
REMARK    3  A    between atoms: C_19  and  O_26 
REMARK    4  A    between atoms: C_20  and  O_25 
REMARK    5  A    between atoms: C_21  and  C_23 
REMARK    6  A    between atoms: C_23  and  O_24 
REMARK    7  A    between atoms: C_34  and  O_36 
ROOT
HETATM    1  C   UNL     1     -24.323 -10.739  -0.024  1.00  0.00     0.010 C 
HETATM    2  C   UNL     1     -22.832 -10.639  -0.329  1.00  0.00    -0.014 C 
HETATM    3  C   UNL     1     -22.141 -11.821   0.360  1.00  0.00     0.006 C 
HETATM    4  C   UNL     1     -20.654 -11.518   0.428  1.00  0.00     0.021 C 
HETATM    5  C   UNL     1     -20.100 -11.572  -1.003  1.00  0.00     0.053 C 
HETATM    6  C   UNL     1     -18.611 -11.283  -1.007  1.00  0.00     0.022 C 
HETATM    7  C   UNL     1     -18.166 -11.528  -2.447  1.00  0.00     0.016 C 
HETATM    8  C   UNL     1     -18.682 -10.499  -3.478  1.00  0.00    -0.013 C 
HETATM    9  C   UNL     1     -19.959  -9.810  -3.136  1.00  0.00    -0.069 C 
HETATM   10  C   UNL     1     -20.042  -8.734  -4.001  1.00  0.00    -0.022 C 
HETATM   11  C   UNL     1     -19.006  -8.580  -5.358  1.00  0.00     0.033 C 
HETATM   12  C   UNL     1     -17.862  -9.847  -5.908  1.00  0.00     0.007 C 
HETATM   13  C   UNL     1     -18.994 -10.847  -5.211  1.00  0.00    -0.026 C 
HETATM   14  C   UNL     1     -18.957 -12.098  -6.188  1.00  0.00     0.042 C 
HETATM   15  C   UNL     1     -17.615 -12.353  -6.676  1.00  0.00     0.124 C 
HETATM   16  C   UNL     1     -16.835 -12.211  -5.352  1.00  0.00     0.036 C 
HETATM   17  C   UNL     1     -16.223 -10.843  -5.629  1.00  0.00    -0.030 C 
HETATM   18  C   UNL     1     -15.115 -11.535  -6.738  1.00  0.00     0.044 C 
HETATM   19  C   UNL     1     -14.522 -13.054  -6.400  1.00  0.00     0.148 C 
HETATM   20  C   UNL     1     -15.442 -14.161  -5.755  1.00  0.00     0.157 C 
HETATM   21  C   UNL     1     -16.369 -13.528  -4.751  1.00  0.00     0.012 C 
HETATM   22  C   UNL     1     -15.687 -13.357  -3.370  1.00  0.00     0.020 C 
HETATM   23  C   UNL     1     -15.200 -10.065  -4.749  1.00  0.00     0.016 C 
HETATM   24  C   UNL     1     -20.634 -10.785  -5.551  1.00  0.00     0.016 C 
HETATM   25  C   UNL     1     -20.782 -10.392  -1.888  1.00  0.00     0.038 C 
HETATM   26  C   UNL     1     -22.371 -10.478  -1.835  1.00  0.00    -0.005 C 
HETATM   27  C   UNL     1     -23.013 -11.527  -2.752  1.00  0.00     0.011 C 
HETATM   28  C   UNL     1     -17.642  -9.308  -3.027  1.00  0.00     0.021 C 
ENDROOT
BRANCH   5  29
HETATM   29  C   UNL     1     -20.139 -13.107  -1.298  1.00  0.00     0.149 C 
HETATM   30  O   UNL     1     -20.692 -13.591  -2.280  1.00  0.00    -0.649 OA
BRANCH  29  31
HETATM   31  O   UNL     1     -19.634 -13.940  -0.388  1.00  0.00    -0.776 OA
HETATM   32  H   UNL     1     -18.904 -13.384  -0.007  1.00  0.00     0.167 HD
ENDBRANCH  29  31
ENDBRANCH   5  29
BRANCH  15  33
HETATM   33  O   UNL     1     -17.561 -13.532  -7.448  1.00  0.00    -0.395 OA
HETATM   34  H   UNL     1     -18.496 -13.852  -7.581  1.00  0.00     0.210 HD
ENDBRANCH  15  33
BRANCH  21  35
HETATM   35  C   UNL     1     -17.676 -14.405  -4.588  1.00  0.00     0.176 C 
BRANCH  35  36
HETATM   36  O   UNL     1     -17.631 -15.602  -5.346  1.00  0.00    -0.400 OA
HETATM   37  H   UNL     1     -17.171 -16.251  -4.785  1.00  0.00     0.209 HD
ENDBRANCH  35  36
ENDBRANCH  21  35
BRANCH  19  38
HETATM   38  O   UNL     1     -13.325 -12.891  -5.631  1.00  0.00    -0.393 OA
HETATM   39  H   UNL     1     -12.756 -12.249  -6.081  1.00  0.00     0.210 HD
ENDBRANCH  19  38
BRANCH  20  40
HETATM   40  O   UNL     1     -14.768 -15.264  -5.136  1.00  0.00    -0.392 OA
HETATM   41  H   UNL     1     -14.050 -14.884  -4.583  1.00  0.00     0.210 HD
ENDBRANCH  20  40
TORSDOF 7
ENDMDL
MODEL 2
REMARK VINA RESULT:      -7.5      1.799      3.048
REMARK  7 active torsions:
REMARK  status: ('A' for Active; 'I' for Inactive)
REMARK    1  A    between atoms: C_5  and  C_34 
REMARK    2  A    between atoms: C_15  and  O_28 
REMARK    3  A    between atoms: C_19  and  O_26 
REMARK    4  A    between atoms: C_20  and  O_25 
REMARK    5  A    between atoms: C_21  and  C_23 
REMARK    6  A    between atoms: C_23  and  O_24 
REMARK    7  A    between atoms: C_34  and  O_36 
ROOT
HETATM    1  C   UNL     1     -22.325  -6.836  -0.774  1.00  0.00     0.010 C 
HETATM    2  C   UNL     1     -21.492  -8.106  -0.919  1.00  0.00    -0.014 C 
HETATM    3  C   UNL     1     -22.458  -9.296  -0.889  1.00  0.00     0.006 C 
HETATM    4  C   UNL     1     -21.647 -10.550  -0.611  1.00  0.00     0.021 C 
HETATM    5  C   UNL     1     -20.780 -10.830  -1.848  1.00  0.00     0.053 C 
HETATM    6  C   UNL     1     -19.944 -12.078  -1.638  1.00  0.00     0.022 C 
HETATM    7  C   UNL     1     -19.268 -12.329  -2.984  1.00  0.00     0.016 C 
HETATM    8  C   UNL     1     -18.187 -11.297  -3.378  1.00  0.00    -0.013 C 
HETATM    9  C   UNL     1     -18.336  -9.935  -2.794  1.00  0.00    -0.069 C 
HETATM   10  C   UNL     1     -17.121  -9.308  -3.002  1.00  0.00    -0.022 C 
HETATM   11  C   UNL     1     -15.931  -9.963  -4.048  1.00  0.00     0.033 C 
HETATM   12  C   UNL     1     -16.188 -11.386  -5.110  1.00  0.00     0.007 C 
HETATM   13  C   UNL     1     -17.761 -10.847  -5.062  1.00  0.00    -0.026 C 
HETATM   14  C   UNL     1     -18.255 -11.183  -6.534  1.00  0.00     0.042 C 
HETATM   15  C   UNL     1     -17.672 -12.418  -7.023  1.00  0.00     0.124 C 
HETATM   16  C   UNL     1     -17.873 -13.302  -5.774  1.00  0.00     0.036 C 
HETATM   17  C   UNL     1     -16.425 -13.300  -5.296  1.00  0.00    -0.030 C 
HETATM   18  C   UNL     1     -15.983 -14.380  -6.552  1.00  0.00     0.044 C 
HETATM   19  C   UNL     1     -17.084 -15.546  -6.998  1.00  0.00     0.148 C 
HETATM   20  C   UNL     1     -18.629 -15.233  -7.041  1.00  0.00     0.157 C 
HETATM   21  C   UNL     1     -18.994 -14.322  -5.898  1.00  0.00     0.012 C 
HETATM   22  C   UNL     1     -19.238 -15.116  -4.590  1.00  0.00     0.020 C 
HETATM   23  C   UNL     1     -15.819 -14.091  -4.099  1.00  0.00     0.016 C 
HETATM   24  C   UNL     1     -18.222  -9.272  -5.399  1.00  0.00     0.016 C 
HETATM   25  C   UNL     1     -19.719  -9.615  -2.047  1.00  0.00     0.038 C 
HETATM   26  C   UNL     1     -20.462  -8.208  -2.117  1.00  0.00    -0.005 C 
HETATM   27  C   UNL     1     -21.105  -7.859  -3.466  1.00  0.00     0.011 C 
HETATM   28  C   UNL     1     -17.049 -11.876  -2.342  1.00  0.00     0.021 C 
ENDROOT
BRANCH   5  29
HETATM   29  C   UNL     1     -21.851 -11.319  -2.877  1.00  0.00     0.149 C 
HETATM   30  O   UNL     1     -21.992 -10.822  -3.989  1.00  0.00    -0.649 OA
BRANCH  29  31
HETATM   31  O   UNL     1     -22.719 -12.253  -2.492  1.00  0.00    -0.776 OA
HETATM   32  H   UNL     1     -23.463 -12.097  -3.133  1.00  0.00     0.167 HD
ENDBRANCH  29  31
ENDBRANCH   5  29
BRANCH  15  33
HETATM   33  O   UNL     1     -18.200 -12.776  -8.281  1.00  0.00    -0.395 OA
HETATM   34  H   UNL     1     -18.536 -11.945  -8.718  1.00  0.00     0.210 HD
ENDBRANCH  15  33
BRANCH  21  35
HETATM   35  C   UNL     1     -20.289 -13.487  -6.258  1.00  0.00     0.176 C 
BRANCH  35  36
HETATM   36  O   UNL     1     -20.826 -13.829  -7.524  1.00  0.00    -0.400 OA
HETATM   37  H   UNL     1     -21.792 -13.754  -7.429  1.00  0.00     0.209 HD
ENDBRANCH  35  36
ENDBRANCH  21  35
BRANCH  19  38
HETATM   38  O   UNL     1     -16.834 -16.708  -6.199  1.00  0.00    -0.393 OA
HETATM   39  H   UNL     1     -17.658 -17.209  -6.119  1.00  0.00     0.210 HD
ENDBRANCH  19  38
BRANCH  20  40
HETATM   40  O   UNL     1     -19.507 -16.365  -7.032  1.00  0.00    -0.392 OA
HETATM   41  H   UNL     1     -19.187 -16.967  -6.323  1.00  0.00     0.210 HD
ENDBRANCH  20  40
TORSDOF 7
ENDMDL
MODEL 3
REMARK VINA RESULT:      -7.4      3.881      6.562
REMARK  7 active torsions:
REMARK  status: ('A' for Active; 'I' for Inactive)
REMARK    1  A    between atoms: C_5  and  C_34 
REMARK    2  A    between atoms: C_15  and  O_28 
REMARK    3  A    between atoms: C_19  and  O_26 
REMARK    4  A    between atoms: C_20  and  O_25 
REMARK    5  A    between atoms: C_21  and  C_23 
REMARK    6  A    between atoms: C_23  and  O_24 
REMARK    7  A    between atoms: C_34  and  O_36 
ROOT
HETATM    1  C   UNL     1     -21.471  -5.935  -3.191  1.00  0.00     0.010 C 
HETATM    2  C   UNL     1     -21.116  -7.032  -2.193  1.00  0.00    -0.014 C 
HETATM    3  C   UNL     1     -22.242  -7.091  -1.154  1.00  0.00     0.006 C 
HETATM    4  C   UNL     1     -21.725  -7.856   0.052  1.00  0.00     0.021 C 
HETATM    5  C   UNL     1     -21.552  -9.325  -0.364  1.00  0.00     0.053 C 
HETATM    6  C   UNL     1     -21.041 -10.149   0.801  1.00  0.00     0.022 C 
HETATM    7  C   UNL     1     -21.072 -11.593   0.305  1.00  0.00     0.016 C 
HETATM    8  C   UNL     1     -20.036 -11.933  -0.790  1.00  0.00    -0.013 C 
HETATM    9  C   UNL     1     -19.586 -10.798  -1.645  1.00  0.00    -0.069 C 
HETATM   10  C   UNL     1     -18.455 -11.251  -2.298  1.00  0.00    -0.022 C 
HETATM   11  C   UNL     1     -18.012 -12.907  -2.299  1.00  0.00     0.033 C 
HETATM   12  C   UNL     1     -19.030 -14.228  -1.640  1.00  0.00     0.007 C 
HETATM   13  C   UNL     1     -20.254 -13.184  -2.059  1.00  0.00    -0.026 C 
HETATM   14  C   UNL     1     -21.381 -14.193  -2.539  1.00  0.00     0.042 C 
HETATM   15  C   UNL     1     -21.380 -15.409  -1.748  1.00  0.00     0.124 C 
HETATM   16  C   UNL     1     -21.253 -14.791  -0.340  1.00  0.00     0.036 C 
HETATM   17  C   UNL     1     -19.787 -15.136  -0.105  1.00  0.00    -0.030 C 
HETATM   18  C   UNL     1     -20.190 -16.782   0.155  1.00  0.00     0.044 C 
HETATM   19  C   UNL     1     -21.626 -17.119   0.925  1.00  0.00     0.148 C 
HETATM   20  C   UNL     1     -22.919 -16.259   0.650  1.00  0.00     0.157 C 
HETATM   21  C   UNL     1     -22.537 -14.812   0.475  1.00  0.00     0.012 C 
HETATM   22  C   UNL     1     -22.402 -14.088   1.838  1.00  0.00     0.020 C 
HETATM   23  C   UNL     1     -18.953 -14.905   1.191  1.00  0.00     0.016 C 
HETATM   24  C   UNL     1     -20.409 -12.483  -3.574  1.00  0.00     0.016 C 
HETATM   25  C   UNL     1     -20.407  -9.425  -1.513  1.00  0.00     0.038 C 
HETATM   26  C   UNL     1     -20.739  -8.468  -2.742  1.00  0.00    -0.005 C 
HETATM   27  C   UNL     1     -21.777  -8.998  -3.740  1.00  0.00     0.011 C 
HETATM   28  C   UNL     1     -18.751 -11.981   0.235  1.00  0.00     0.021 C 
ENDROOT
BRANCH   5  29
HETATM   29  C   UNL     1     -23.038  -9.797  -0.477  1.00  0.00     0.149 C 
HETATM   30  O   UNL     1     -23.898  -9.519   0.352  1.00  0.00    -0.649 OA
BRANCH  29  31
HETATM   31  O   UNL     1     -23.367 -10.624  -1.468  1.00  0.00    -0.776 OA
HETATM   32  H   UNL     1     -22.471 -10.834  -1.845  1.00  0.00     0.167 HD
ENDBRANCH  29  31
ENDBRANCH   5  29
BRANCH  15  33
HETATM   33  O   UNL     1     -22.454 -16.254  -2.096  1.00  0.00    -0.395 OA
HETATM   34  H   UNL     1     -23.099 -15.719  -2.639  1.00  0.00     0.210 HD
ENDBRANCH  15  33
BRANCH  21  35
HETATM   35  C   UNL     1     -23.615 -14.067  -0.413  1.00  0.00     0.176 C 
BRANCH  35  36
HETATM   36  O   UNL     1     -24.694 -14.908  -0.785  1.00  0.00    -0.400 OA
HETATM   37  H   UNL     1     -24.554 -15.115  -1.726  1.00  0.00     0.209 HD
ENDBRANCH  35  36
ENDBRANCH  21  35
BRANCH  19  38
HETATM   38  O   UNL     1     -21.361 -17.183   2.331  1.00  0.00    -0.393 OA
HETATM   39  H   UNL     1     -21.691 -16.371   2.742  1.00  0.00     0.210 HD
ENDBRANCH  19  38
BRANCH  20  40
HETATM   40  O   UNL     1     -23.963 -16.350   1.627  1.00  0.00    -0.392 OA
HETATM   41  H   UNL     1     -24.506 -17.134   1.389  1.00  0.00     0.210 HD
ENDBRANCH  20  40
TORSDOF 7
ENDMDL
MODEL 4
REMARK VINA RESULT:      -7.0      2.355      7.038
REMARK  7 active torsions:
REMARK  status: ('A' for Active; 'I' for Inactive)
REMARK    1  A    between atoms: C_5  and  C_34 
REMARK    2  A    between atoms: C_15  and  O_28 
REMARK    3  A    between atoms: C_19  and  O_26 
REMARK    4  A    between atoms: C_20  and  O_25 
REMARK    5  A    between atoms: C_21  and  C_23 
REMARK    6  A    between atoms: C_23  and  O_24 
REMARK    7  A    between atoms: C_34  and  O_36 
ROOT
HETATM    1  C   UNL     1     -17.608 -15.032  -8.917  1.00  0.00     0.010 C 
HETATM    2  C   UNL     1     -18.381 -13.891  -8.264  1.00  0.00    -0.014 C 
HETATM    3  C   UNL     1     -19.855 -14.307  -8.207  1.00  0.00     0.006 C 
HETATM    4  C   UNL     1     -20.684 -13.058  -7.960  1.00  0.00     0.021 C 
HETATM    5  C   UNL     1     -20.396 -12.581  -6.528  1.00  0.00     0.053 C 
HETATM    6  C   UNL     1     -21.200 -11.334  -6.213  1.00  0.00     0.022 C 
HETATM    7  C   UNL     1     -20.949 -11.069  -4.730  1.00  0.00     0.016 C 
HETATM    8  C   UNL     1     -19.516 -10.609  -4.379  1.00  0.00    -0.013 C 
HETATM    9  C   UNL     1     -18.439 -11.044  -5.312  1.00  0.00    -0.069 C 
HETATM   10  C   UNL     1     -17.341 -10.262  -5.001  1.00  0.00    -0.022 C 
HETATM   11  C   UNL     1     -17.283  -9.308  -3.578  1.00  0.00     0.033 C 
HETATM   12  C   UNL     1     -18.513  -9.357  -2.274  1.00  0.00     0.007 C 
HETATM   13  C   UNL     1     -18.690 -10.920  -2.816  1.00  0.00    -0.026 C 
HETATM   14  C   UNL     1     -18.983 -11.694  -1.460  1.00  0.00     0.042 C 
HETATM   15  C   UNL     1     -19.779 -10.893  -0.550  1.00  0.00     0.124 C 
HETATM   16  C   UNL     1     -20.837 -10.364  -1.542  1.00  0.00     0.036 C 
HETATM   17  C   UNL     1     -20.303  -8.942  -1.660  1.00  0.00    -0.030 C 
HETATM   18  C   UNL     1     -20.907  -8.558  -0.102  1.00  0.00     0.044 C 
HETATM   19  C   UNL     1     -22.347  -9.250   0.366  1.00  0.00     0.148 C 
HETATM   20  C   UNL     1     -22.702 -10.736  -0.028  1.00  0.00     0.157 C 
HETATM   21  C   UNL     1     -22.201 -11.026  -1.418  1.00  0.00     0.012 C 
HETATM   22  C   UNL     1     -23.206 -10.549  -2.498  1.00  0.00     0.020 C 
HETATM   23  C   UNL     1     -20.936  -7.752  -2.442  1.00  0.00     0.016 C 
HETATM   24  C   UNL     1     -17.418 -11.993  -3.011  1.00  0.00     0.016 C 
HETATM   25  C   UNL     1     -18.836 -12.143  -6.411  1.00  0.00     0.038 C 
HETATM   26  C   UNL     1     -17.870 -13.321  -6.878  1.00  0.00    -0.005 C 
HETATM   27  C   UNL     1     -17.628 -14.432  -5.848  1.00  0.00     0.011 C 
HETATM   28  C   UNL     1     -19.713  -9.077  -4.942  1.00  0.00     0.021 C 
ENDROOT
BRANCH   5  29
HETATM   29  C   UNL     1     -21.130 -13.671  -5.680  1.00  0.00     0.149 C 
HETATM   30  O   UNL     1     -20.582 -14.320  -4.796  1.00  0.00    -0.649 OA
BRANCH  29  31
HETATM   31  O   UNL     1     -22.386 -13.981  -5.999  1.00  0.00    -0.776 OA
HETATM   32  H   UNL     1     -22.497 -14.844  -5.517  1.00  0.00     0.167 HD
ENDBRANCH  29  31
ENDBRANCH   5  29
BRANCH  15  33
HETATM   33  O   UNL     1     -20.138 -11.622   0.602  1.00  0.00    -0.395 OA
HETATM   34  H   UNL     1     -19.988 -11.034   1.394  1.00  0.00     0.210 HD
ENDBRANCH  15  33
BRANCH  21  35
HETATM   35  C   UNL     1     -21.937 -12.576  -1.591  1.00  0.00     0.176 C 
BRANCH  35  36
HETATM   36  O   UNL     1     -22.306 -13.325  -0.445  1.00  0.00    -0.400 OA
HETATM   37  H   UNL     1     -21.821 -12.925   0.298  1.00  0.00     0.209 HD
ENDBRANCH  35  36
ENDBRANCH  21  35
BRANCH  19  38
HETATM   38  O   UNL     1     -23.402  -8.366  -0.028  1.00  0.00    -0.393 OA
HETATM   39  H   UNL     1     -23.943  -8.812  -0.696  1.00  0.00     0.210 HD
ENDBRANCH  19  38
BRANCH  20  40
HETATM   40  O   UNL     1     -24.085 -11.102   0.056  1.00  0.00    -0.392 OA
HETATM   41  H   UNL     1     -24.138 -12.061  -0.155  1.00  0.00     0.210 HD
ENDBRANCH  20  40
TORSDOF 7
ENDMDL
MODEL 5
REMARK VINA RESULT:      -6.8      2.070      3.560
REMARK  7 active torsions:
REMARK  status: ('A' for Active; 'I' for Inactive)
REMARK    1  A    between atoms: C_5  and  C_34 
REMARK    2  A    between atoms: C_15  and  O_28 
REMARK    3  A    between atoms: C_19  and  O_26 
REMARK    4  A    between atoms: C_20  and  O_25 
REMARK    5  A    between atoms: C_21  and  C_23 
REMARK    6  A    between atoms: C_23  and  O_24 
REMARK    7  A    between atoms: C_34  and  O_36 
ROOT
HETATM    1  C   UNL     1     -24.178 -14.866   2.855  1.00  0.00     0.010 C 
HETATM    2  C   UNL     1     -22.944 -14.232   2.220  1.00  0.00    -0.014 C 
HETATM    3  C   UNL     1     -22.032 -15.370   1.750  1.00  0.00     0.006 C 
HETATM    4  C   UNL     1     -20.649 -14.791   1.508  1.00  0.00     0.021 C 
HETATM    5  C   UNL     1     -20.733 -13.875   0.278  1.00  0.00     0.053 C 
HETATM    6  C   UNL     1     -19.378 -13.266  -0.024  1.00  0.00     0.022 C 
HETATM    7  C   UNL     1     -19.566 -12.523  -1.345  1.00  0.00     0.016 C 
HETATM    8  C   UNL     1     -20.459 -11.265  -1.269  1.00  0.00    -0.013 C 
HETATM    9  C   UNL     1     -21.481 -11.249  -0.184  1.00  0.00    -0.069 C 
HETATM   10  C   UNL     1     -21.912  -9.937  -0.100  1.00  0.00    -0.022 C 
HETATM   11  C   UNL     1     -21.527  -8.779  -1.303  1.00  0.00     0.033 C 
HETATM   12  C   UNL     1     -20.712  -9.161  -2.855  1.00  0.00     0.007 C 
HETATM   13  C   UNL     1     -21.458 -10.629  -2.618  1.00  0.00    -0.026 C 
HETATM   14  C   UNL     1     -21.827 -11.040  -4.107  1.00  0.00     0.042 C 
HETATM   15  C   UNL     1     -20.806 -10.617  -5.046  1.00  0.00     0.124 C 
HETATM   16  C   UNL     1     -19.550 -11.060  -4.267  1.00  0.00     0.036 C 
HETATM   17  C   UNL     1     -19.105  -9.677  -3.806  1.00  0.00    -0.030 C 
HETATM   18  C   UNL     1     -18.552  -9.302  -5.385  1.00  0.00     0.044 C 
HETATM   19  C   UNL     1     -17.874 -10.528  -6.284  1.00  0.00     0.148 C 
HETATM   20  C   UNL     1     -18.448 -11.996  -6.220  1.00  0.00     0.157 C 
HETATM   21  C   UNL     1     -18.880 -12.312  -4.812  1.00  0.00     0.012 C 
HETATM   22  C   UNL     1     -17.689 -12.790  -3.943  1.00  0.00     0.020 C 
HETATM   23  C   UNL     1     -17.810  -9.308  -3.024  1.00  0.00     0.016 C 
HETATM   24  C   UNL     1     -23.092 -10.808  -2.293  1.00  0.00     0.016 C 
HETATM   25  C   UNL     1     -21.718 -12.625   0.605  1.00  0.00     0.038 C 
HETATM   26  C   UNL     1     -23.145 -13.130   1.101  1.00  0.00    -0.005 C 
HETATM   27  C   UNL     1     -24.109 -13.591   0.000  1.00  0.00     0.011 C 
HETATM   28  C   UNL     1     -19.325 -10.325  -0.539  1.00  0.00     0.021 C 
ENDROOT
BRANCH   5  29
HETATM   29  C   UNL     1     -20.892 -14.917  -0.878  1.00  0.00     0.149 C 
HETATM   30  O   UNL     1     -21.798 -14.873  -1.704  1.00  0.00    -0.649 OA
BRANCH  29  31
HETATM   31  O   UNL     1     -20.063 -15.959  -0.911  1.00  0.00    -0.776 OA
HETATM   32  H   UNL     1     -19.249 -15.542  -1.302  1.00  0.00     0.167 HD
ENDBRANCH  29  31
ENDBRANCH   5  29
BRANCH  15  33
HETATM   33  O   UNL     1     -21.076 -11.084  -6.349  1.00  0.00    -0.395 OA
HETATM   34  H   UNL     1     -20.916 -10.330  -6.983  1.00  0.00     0.210 HD
ENDBRANCH  15  33
BRANCH  21  35
HETATM   35  C   UNL     1     -20.004 -13.425  -4.823  1.00  0.00     0.176 C 
BRANCH  35  36
HETATM   36  O   UNL     1     -20.274 -13.918  -6.124  1.00  0.00    -0.400 OA
HETATM   37  H   UNL     1     -21.030 -13.398  -6.451  1.00  0.00     0.209 HD
ENDBRANCH  35  36
ENDBRANCH  21  35
BRANCH  19  38
HETATM   38  O   UNL     1     -16.467 -10.532  -6.021  1.00  0.00    -0.393 OA
HETATM   39  H   UNL     1     -16.182  -9.621  -5.858  1.00  0.00     0.210 HD
ENDBRANCH  19  38
BRANCH  20  40
HETATM   40  O   UNL     1     -17.581 -13.037  -6.686  1.00  0.00    -0.392 OA
HETATM   41  H   UNL     1     -16.928 -13.204  -5.971  1.00  0.00     0.210 HD
ENDBRANCH  20  40
TORSDOF 7
ENDMDL
MODEL 6
REMARK VINA RESULT:      -6.7      1.443      2.090
REMARK  7 active torsions:
REMARK  status: ('A' for Active; 'I' for Inactive)
REMARK    1  A    between atoms: C_5  and  C_34 
REMARK    2  A    between atoms: C_15  and  O_28 
REMARK    3  A    between atoms: C_19  and  O_26 
REMARK    4  A    between atoms: C_20  and  O_25 
REMARK    5  A    between atoms: C_21  and  C_23 
REMARK    6  A    between atoms: C_23  and  O_24 
REMARK    7  A    between atoms: C_34  and  O_36 
ROOT
HETATM    1  C   UNL     1     -24.416 -10.966  -0.077  1.00  0.00     0.010 C 
HETATM    2  C   UNL     1     -23.111 -10.546  -0.746  1.00  0.00    -0.014 C 
HETATM    3  C   UNL     1     -22.047 -10.433   0.351  1.00  0.00     0.006 C 
HETATM    4  C   UNL     1     -20.885  -9.629  -0.205  1.00  0.00     0.021 C 
HETATM    5  C   UNL     1     -20.195 -10.485  -1.279  1.00  0.00     0.053 C 
HETATM    6  C   UNL     1     -19.016  -9.740  -1.875  1.00  0.00     0.022 C 
HETATM    7  C   UNL     1     -18.334 -10.753  -2.792  1.00  0.00     0.016 C 
HETATM    8  C   UNL     1     -19.132 -11.132  -4.060  1.00  0.00    -0.013 C 
HETATM    9  C   UNL     1     -20.614 -10.999  -3.968  1.00  0.00    -0.069 C 
HETATM   10  C   UNL     1     -21.073 -11.061  -5.271  1.00  0.00    -0.022 C 
HETATM   11  C   UNL     1     -20.063 -11.557  -6.564  1.00  0.00     0.033 C 
HETATM   12  C   UNL     1     -18.408 -12.217  -6.362  1.00  0.00     0.007 C 
HETATM   13  C   UNL     1     -19.033 -12.713  -4.903  1.00  0.00    -0.026 C 
HETATM   14  C   UNL     1     -18.306 -14.112  -4.706  1.00  0.00     0.042 C 
HETATM   15  C   UNL     1     -16.948 -14.082  -5.213  1.00  0.00     0.124 C 
HETATM   16  C   UNL     1     -16.490 -12.730  -4.627  1.00  0.00     0.036 C 
HETATM   17  C   UNL     1     -16.544 -11.926  -5.920  1.00  0.00    -0.030 C 
HETATM   18  C   UNL     1     -15.114 -12.686  -6.482  1.00  0.00     0.044 C 
HETATM   19  C   UNL     1     -13.938 -13.055  -5.362  1.00  0.00     0.148 C 
HETATM   20  C   UNL     1     -14.321 -13.566  -3.920  1.00  0.00     0.157 C 
HETATM   21  C   UNL     1     -15.551 -12.846  -3.436  1.00  0.00     0.012 C 
HETATM   22  C   UNL     1     -15.200 -11.474  -2.806  1.00  0.00     0.020 C 
HETATM   23  C   UNL     1     -16.108 -10.446  -6.137  1.00  0.00     0.016 C 
HETATM   24  C   UNL     1     -20.463 -13.572  -4.740  1.00  0.00     0.016 C 
HETATM   25  C   UNL     1     -21.226 -10.738  -2.508  1.00  0.00     0.038 C 
HETATM   26  C   UNL     1     -22.593 -11.374  -1.992  1.00  0.00    -0.005 C 
HETATM   27  C   UNL     1     -22.564 -12.882  -1.715  1.00  0.00     0.011 C 
HETATM   28  C   UNL     1     -18.818  -9.727  -4.854  1.00  0.00     0.021 C 
ENDROOT
BRANCH   5  29
HETATM   29  C   UNL     1     -19.490 -11.574  -0.406  1.00  0.00     0.149 C 
HETATM   30  O   UNL     1     -19.597 -12.778  -0.615  1.00  0.00    -0.649 OA
BRANCH  29  31
HETATM   31  O   UNL     1     -18.822 -11.183   0.678  1.00  0.00    -0.776 OA
HETATM   32  H   UNL     1     -18.006 -10.790   0.267  1.00  0.00     0.167 HD
ENDBRANCH  29  31
ENDBRANCH   5  29
BRANCH  15  33
HETATM   33  O   UNL     1     -16.265 -15.284  -4.933  1.00  0.00    -0.395 OA
HETATM   34  H   UNL     1     -16.941 -15.958  -4.645  1.00  0.00     0.210 HD
ENDBRANCH  15  33
BRANCH  21  35
HETATM   35  C   UNL     1     -16.321 -13.731  -2.374  1.00  0.00     0.176 C 
BRANCH  35  36
HETATM   36  O   UNL     1     -15.621 -14.919  -2.043  1.00  0.00    -0.400 OA
HETATM   37  H   UNL     1     -14.791 -14.627  -1.627  1.00  0.00     0.209 HD
ENDBRANCH  35  36
ENDBRANCH  21  35
BRANCH  19  38
HETATM   38  O   UNL     1     -13.054 -11.933  -5.274  1.00  0.00    -0.393 OA
HETATM   39  H   UNL     1     -12.987 -11.667  -4.345  1.00  0.00     0.210 HD
ENDBRANCH  19  38
BRANCH  20  40
HETATM   40  O   UNL     1     -13.299 -13.468  -2.920  1.00  0.00    -0.392 OA
HETATM   41  H   UNL     1     -13.201 -12.513  -2.708  1.00  0.00     0.210 HD
ENDBRANCH  20  40
TORSDOF 7
ENDMDL
MODEL 7
REMARK VINA RESULT:      -6.7      2.012      3.682
REMARK  7 active torsions:
REMARK  status: ('A' for Active; 'I' for Inactive)
REMARK    1  A    between atoms: C_5  and  C_34 
REMARK    2  A    between atoms: C_15  and  O_28 
REMARK    3  A    between atoms: C_19  and  O_26 
REMARK    4  A    between atoms: C_20  and  O_25 
REMARK    5  A    between atoms: C_21  and  C_23 
REMARK    6  A    between atoms: C_23  and  O_24 
REMARK    7  A    between atoms: C_34  and  O_36 
ROOT
HETATM    1  C   UNL     1     -22.754  -8.196   0.605  1.00  0.00     0.010 C 
HETATM    2  C   UNL     1     -22.219  -9.520   0.069  1.00  0.00    -0.014 C 
HETATM    3  C   UNL     1     -23.208 -10.022  -0.989  1.00  0.00     0.006 C 
HETATM    4  C   UNL     1     -22.932 -11.496  -1.225  1.00  0.00     0.021 C 
HETATM    5  C   UNL     1     -21.572 -11.611  -1.931  1.00  0.00     0.053 C 
HETATM    6  C   UNL     1     -21.236 -13.064  -2.203  1.00  0.00     0.022 C 
HETATM    7  C   UNL     1     -19.961 -13.023  -3.041  1.00  0.00     0.016 C 
HETATM    8  C   UNL     1     -18.696 -12.549  -2.290  1.00  0.00    -0.013 C 
HETATM    9  C   UNL     1     -18.923 -11.648  -1.125  1.00  0.00    -0.069 C 
HETATM   10  C   UNL     1     -17.727 -11.632  -0.431  1.00  0.00    -0.022 C 
HETATM   11  C   UNL     1     -16.282 -12.268  -1.101  1.00  0.00     0.033 C 
HETATM   12  C   UNL     1     -16.114 -12.833  -2.794  1.00  0.00     0.007 C 
HETATM   13  C   UNL     1     -17.307 -11.702  -3.047  1.00  0.00    -0.026 C 
HETATM   14  C   UNL     1     -16.907 -11.134  -4.476  1.00  0.00     0.042 C 
HETATM   15  C   UNL     1     -16.368 -12.175  -5.331  1.00  0.00     0.124 C 
HETATM   16  C   UNL     1     -17.398 -13.289  -5.051  1.00  0.00     0.036 C 
HETATM   17  C   UNL     1     -16.518 -14.152  -4.155  1.00  0.00    -0.030 C 
HETATM   18  C   UNL     1     -15.621 -14.691  -5.513  1.00  0.00     0.044 C 
HETATM   19  C   UNL     1     -16.439 -14.917  -6.945  1.00  0.00     0.148 C 
HETATM   20  C   UNL     1     -17.596 -13.939  -7.385  1.00  0.00     0.157 C 
HETATM   21  C   UNL     1     -18.394 -13.522  -6.177  1.00  0.00     0.012 C 
HETATM   22  C   UNL     1     -19.479 -14.570  -5.820  1.00  0.00     0.020 C 
HETATM   23  C   UNL     1     -16.859 -15.545  -3.547  1.00  0.00     0.016 C 
HETATM   24  C   UNL     1     -17.215 -10.112  -2.526  1.00  0.00     0.016 C 
HETATM   25  C   UNL     1     -20.405 -11.064  -0.941  1.00  0.00     0.038 C 
HETATM   26  C   UNL     1     -20.721  -9.585  -0.440  1.00  0.00    -0.005 C 
HETATM   27  C   UNL     1     -20.397  -8.461  -1.432  1.00  0.00     0.011 C 
HETATM   28  C   UNL     1     -18.483 -13.955  -1.465  1.00  0.00     0.021 C 
ENDROOT
BRANCH   5  29
HETATM   29  C   UNL     1     -21.916 -11.078  -3.361  1.00  0.00     0.149 C 
HETATM   30  O   UNL     1     -21.312 -10.156  -3.899  1.00  0.00    -0.649 OA
BRANCH  29  31
HETATM   31  O   UNL     1     -22.978 -11.582  -3.987  1.00  0.00    -0.776 OA
HETATM   32  H   UNL     1     -23.020 -10.999  -4.791  1.00  0.00     0.167 HD
ENDBRANCH  29  31
ENDBRANCH   5  29
BRANCH  15  33
HETATM   33  O   UNL     1     -16.123 -11.697  -6.635  1.00  0.00    -0.395 OA
HETATM   34  H   UNL     1     -15.313 -11.116  -6.600  1.00  0.00     0.210 HD
ENDBRANCH  15  33
BRANCH  21  35
HETATM   35  C   UNL     1     -19.080 -12.119  -6.434  1.00  0.00     0.176 C 
BRANCH  35  36
HETATM   36  O   UNL     1     -18.860 -11.635  -7.748  1.00  0.00    -0.400 OA
HETATM   37  H   UNL     1     -18.810 -10.666  -7.666  1.00  0.00     0.209 HD
ENDBRANCH  35  36
ENDBRANCH  21  35
BRANCH  19  38
HETATM   38  O   UNL     1     -16.896 -16.273  -6.975  1.00  0.00    -0.393 OA
HETATM   39  H   UNL     1     -16.229 -16.812  -7.426  1.00  0.00     0.210 HD
ENDBRANCH  19  38
BRANCH  20  40
HETATM   40  O   UNL     1     -18.492 -14.427  -8.390  1.00  0.00    -0.392 OA
HETATM   41  H   UNL     1     -18.795 -13.646  -8.904  1.00  0.00     0.210 HD
ENDBRANCH  20  40
TORSDOF 7
ENDMDL
MODEL 8
REMARK VINA RESULT:      -6.7      2.500      7.150
REMARK  7 active torsions:
REMARK  status: ('A' for Active; 'I' for Inactive)
REMARK    1  A    between atoms: C_5  and  C_34 
REMARK    2  A    between atoms: C_15  and  O_28 
REMARK    3  A    between atoms: C_19  and  O_26 
REMARK    4  A    between atoms: C_20  and  O_25 
REMARK    5  A    between atoms: C_21  and  C_23 
REMARK    6  A    between atoms: C_23  and  O_24 
REMARK    7  A    between atoms: C_34  and  O_36 
ROOT
HETATM    1  C   UNL     1     -12.950 -12.683  -6.458  1.00  0.00     0.010 C 
HETATM    2  C   UNL     1     -14.079 -13.001  -5.483  1.00  0.00    -0.014 C 
HETATM    3  C   UNL     1     -13.705 -12.386  -4.130  1.00  0.00     0.006 C 
HETATM    4  C   UNL     1     -14.577 -13.030  -3.066  1.00  0.00     0.021 C 
HETATM    5  C   UNL     1     -16.019 -12.547  -3.287  1.00  0.00     0.053 C 
HETATM    6  C   UNL     1     -16.946 -13.152  -2.250  1.00  0.00     0.022 C 
HETATM    7  C   UNL     1     -18.292 -12.470  -2.481  1.00  0.00     0.016 C 
HETATM    8  C   UNL     1     -19.007 -12.856  -3.796  1.00  0.00    -0.013 C 
HETATM    9  C   UNL     1     -18.129 -13.303  -4.914  1.00  0.00    -0.069 C 
HETATM   10  C   UNL     1     -18.974 -13.898  -5.833  1.00  0.00    -0.022 C 
HETATM   11  C   UNL     1     -20.678 -13.742  -5.730  1.00  0.00     0.033 C 
HETATM   12  C   UNL     1     -21.529 -12.667  -4.574  1.00  0.00     0.007 C 
HETATM   13  C   UNL     1     -20.124 -11.789  -4.711  1.00  0.00    -0.026 C 
HETATM   14  C   UNL     1     -20.670 -10.301  -4.623  1.00  0.00     0.042 C 
HETATM   15  C   UNL     1     -21.786 -10.196  -3.703  1.00  0.00     0.124 C 
HETATM   16  C   UNL     1     -21.224 -11.028  -2.531  1.00  0.00     0.036 C 
HETATM   17  C   UNL     1     -22.068 -12.277  -2.754  1.00  0.00    -0.030 C 
HETATM   18  C   UNL     1     -23.453 -11.485  -2.126  1.00  0.00     0.044 C 
HETATM   19  C   UNL     1     -23.233 -10.409  -0.875  1.00  0.00     0.148 C 
HETATM   20  C   UNL     1     -21.970  -9.464  -0.827  1.00  0.00     0.157 C 
HETATM   21  C   UNL     1     -20.763 -10.204  -1.339  1.00  0.00     0.012 C 
HETATM   22  C   UNL     1     -20.105 -11.062  -0.228  1.00  0.00     0.020 C 
HETATM   23  C   UNL     1     -22.124 -13.556  -1.866  1.00  0.00     0.016 C 
HETATM   24  C   UNL     1     -19.448 -11.325  -6.173  1.00  0.00     0.016 C 
HETATM   25  C   UNL     1     -16.551 -13.086  -4.725  1.00  0.00     0.038 C 
HETATM   26  C   UNL     1     -15.567 -12.657  -5.901  1.00  0.00    -0.005 C 
HETATM   27  C   UNL     1     -15.710 -11.212  -6.398  1.00  0.00     0.011 C 
HETATM   28  C   UNL     1     -19.491 -14.336  -3.268  1.00  0.00     0.021 C 
ENDROOT
BRANCH   5  29
HETATM   29  C   UNL     1     -15.926 -11.058  -2.819  1.00  0.00     0.149 C 
HETATM   30  O   UNL     1     -16.132 -10.104  -3.563  1.00  0.00    -0.649 OA
BRANCH  29  31
HETATM   31  O   UNL     1     -15.507 -10.808  -1.580  1.00  0.00    -0.776 OA
HETATM   32  H   UNL     1     -14.675 -10.295  -1.760  1.00  0.00     0.167 HD
ENDBRANCH  29  31
ENDBRANCH   5  29
BRANCH  15  33
HETATM   33  O   UNL     1     -22.195  -8.857  -3.536  1.00  0.00    -0.395 OA
HETATM   34  H   UNL     1     -21.378  -8.284  -3.556  1.00  0.00     0.210 HD
ENDBRANCH  15  33
BRANCH  21  35
HETATM   35  C   UNL     1     -19.700  -9.183  -1.915  1.00  0.00     0.176 C 
BRANCH  35  36
HETATM   36  O   UNL     1     -20.090  -7.832  -1.742  1.00  0.00    -0.400 OA
HETATM   37  H   UNL     1     -20.591  -7.598  -2.543  1.00  0.00     0.209 HD
ENDBRANCH  35  36
ENDBRANCH  21  35
BRANCH  19  38
HETATM   38  O   UNL     1     -23.355 -11.137   0.351  1.00  0.00    -0.393 OA
HETATM   39  H   UNL     1     -23.245 -10.518   1.088  1.00  0.00     0.210 HD
ENDBRANCH  19  38
BRANCH  20  40
HETATM   40  O   UNL     1     -21.658  -8.886   0.446  1.00  0.00    -0.392 OA
HETATM   41  H   UNL     1     -20.745  -8.528   0.379  1.00  0.00     0.210 HD
ENDBRANCH  20  40
TORSDOF 7
ENDMDL
MODEL 9
REMARK VINA RESULT:      -6.7      2.282      4.407
REMARK  7 active torsions:
REMARK  status: ('A' for Active; 'I' for Inactive)
REMARK    1  A    between atoms: C_5  and  C_34 
REMARK    2  A    between atoms: C_15  and  O_28 
REMARK    3  A    between atoms: C_19  and  O_26 
REMARK    4  A    between atoms: C_20  and  O_25 
REMARK    5  A    between atoms: C_21  and  C_23 
REMARK    6  A    between atoms: C_23  and  O_24 
REMARK    7  A    between atoms: C_34  and  O_36 
ROOT
HETATM    1  C   UNL     1     -22.689  -7.994   1.102  1.00  0.00     0.010 C 
HETATM    2  C   UNL     1     -22.602  -8.563  -0.310  1.00  0.00    -0.014 C 
HETATM    3  C   UNL     1     -21.668  -7.654  -1.116  1.00  0.00     0.006 C 
HETATM    4  C   UNL     1     -21.893  -7.942  -2.591  1.00  0.00     0.021 C 
HETATM    5  C   UNL     1     -21.350  -9.349  -2.881  1.00  0.00     0.053 C 
HETATM    6  C   UNL     1     -21.539  -9.700  -4.344  1.00  0.00     0.022 C 
HETATM    7  C   UNL     1     -20.819 -11.034  -4.525  1.00  0.00     0.016 C 
HETATM    8  C   UNL     1     -21.488 -12.241  -3.830  1.00  0.00    -0.013 C 
HETATM    9  C   UNL     1     -22.321 -11.932  -2.633  1.00  0.00    -0.069 C 
HETATM   10  C   UNL     1     -23.064 -13.073  -2.394  1.00  0.00    -0.022 C 
HETATM   11  C   UNL     1     -22.714 -14.561  -3.170  1.00  0.00     0.033 C 
HETATM   12  C   UNL     1     -21.275 -14.852  -4.201  1.00  0.00     0.007 C 
HETATM   13  C   UNL     1     -20.619 -13.686  -3.214  1.00  0.00    -0.026 C 
HETATM   14  C   UNL     1     -19.119 -14.192  -3.080  1.00  0.00     0.042 C 
HETATM   15  C   UNL     1     -18.646 -14.790  -4.314  1.00  0.00     0.124 C 
HETATM   16  C   UNL     1     -19.163 -13.737  -5.317  1.00  0.00     0.036 C 
HETATM   17  C   UNL     1     -20.333 -14.546  -5.866  1.00  0.00    -0.030 C 
HETATM   18  C   UNL     1     -19.259 -15.539  -6.760  1.00  0.00     0.044 C 
HETATM   19  C   UNL     1     -17.900 -14.829  -7.408  1.00  0.00     0.148 C 
HETATM   20  C   UNL     1     -17.112 -13.711  -6.621  1.00  0.00     0.157 C 
HETATM   21  C   UNL     1     -18.085 -12.827  -5.886  1.00  0.00     0.012 C 
HETATM   22  C   UNL     1     -18.654 -11.715  -6.804  1.00  0.00     0.020 C 
HETATM   23  C   UNL     1     -21.294 -14.156  -7.028  1.00  0.00     0.016 C 
HETATM   24  C   UNL     1     -20.659 -13.743  -1.540  1.00  0.00     0.016 C 
HETATM   25  C   UNL     1     -22.219 -10.441  -2.048  1.00  0.00     0.038 C 
HETATM   26  C   UNL     1     -22.243 -10.095  -0.494  1.00  0.00    -0.005 C 
HETATM   27  C   UNL     1     -20.992 -10.496   0.299  1.00  0.00     0.011 C 
HETATM   28  C   UNL     1     -22.701 -12.387  -4.931  1.00  0.00     0.021 C 
ENDROOT
BRANCH   5  29
HETATM   29  C   UNL     1     -19.806  -9.115  -2.793  1.00  0.00     0.149 C 
HETATM   30  O   UNL     1     -19.211  -8.289  -3.476  1.00  0.00    -0.649 OA
BRANCH  29  31
HETATM   31  O   UNL     1     -19.087  -9.919  -2.012  1.00  0.00    -0.776 OA
HETATM   32  H   UNL     1     -18.416  -9.281  -1.649  1.00  0.00     0.167 HD
ENDBRANCH  29  31
ENDBRANCH   5  29
BRANCH  15  33
HETATM   33  O   UNL     1     -17.280 -15.132  -4.231  1.00  0.00    -0.395 OA
HETATM   34  H   UNL     1     -16.769 -14.299  -4.031  1.00  0.00     0.210 HD
ENDBRANCH  15  33
BRANCH  21  35
HETATM   35  C   UNL     1     -17.382 -12.167  -4.631  1.00  0.00     0.176 C 
BRANCH  35  36
HETATM   36  O   UNL     1     -16.000 -12.471  -4.556  1.00  0.00    -0.400 OA
HETATM   37  H   UNL     1     -15.565 -11.876  -5.192  1.00  0.00     0.209 HD
ENDBRANCH  35  36
ENDBRANCH  21  35
BRANCH  19  38
HETATM   38  O   UNL     1     -18.234 -14.371  -8.722  1.00  0.00    -0.393 OA
HETATM   39  H   UNL     1     -17.503 -14.590  -9.319  1.00  0.00     0.210 HD
ENDBRANCH  19  38
BRANCH  20  40
HETATM   40  O   UNL     1     -16.231 -12.890  -7.397  1.00  0.00    -0.392 OA
HETATM   41  H   UNL     1     -15.585 -12.495  -6.770  1.00  0.00     0.210 HD
ENDBRANCH  20  40
TORSDOF 7
ENDMDL
