MODEL 1
REMARK VINA RESULT:      -6.8      0.000      0.000
REMARK  8 active torsions:
REMARK  status: ('A' for Active; 'I' for Inactive)
REMARK    1  A    between atoms: C_3  and  O_8 
REMARK    2  A    between atoms: C_6  and  O_7 
REMARK    3  A    between atoms: O_8  and  C_9 
REMARK    4  A    between atoms: C_10  and  O_19 
REMARK    5  A    between atoms: C_11  and  O_18 
REMARK    6  A    between atoms: C_12  and  O_17 
REMARK    7  A    between atoms: C_13  and  C_15 
REMARK    8  A    between atoms: C_15  and  O_16 
ROOT
HETATM    1  C   UNL     1     -21.689  -4.162 -10.075  1.00  0.00     0.298 C 
HETATM    2  C   UNL     1     -23.029  -4.243  -9.310  1.00  0.00     0.205 C 
HETATM    3  C   UNL     1     -24.027  -4.912 -10.275  1.00  0.00     0.183 C 
HETATM    4  C   UNL     1     -24.127  -4.170 -11.633  1.00  0.00     0.180 C 
HETATM    5  C   UNL     1     -22.720  -3.894 -12.194  1.00  0.00     0.179 C 
HETATM    6  O   UNL     1     -21.911  -3.264 -11.180  1.00  0.00    -0.348 OA
ENDROOT
BRANCH   1   7
HETATM    7  O   UNL     1     -20.591  -3.703  -9.280  1.00  0.00    -0.318 OA
BRANCH   7   8
HETATM    8  C   UNL     1     -20.454  -4.359  -8.072  1.00  0.00     0.072 A 
HETATM    9  C   UNL     1     -19.931  -5.652  -8.135  1.00  0.00     0.039 A 
HETATM   10  C   UNL     1     -19.838  -6.433  -6.975  1.00  0.00     0.039 A 
HETATM   11  C   UNL     1     -20.263  -5.919  -5.755  1.00  0.00     0.065 A 
HETATM   12  C   UNL     1     -20.736  -4.620  -5.664  1.00  0.00     0.039 A 
HETATM   13  C   UNL     1     -20.820  -3.842  -6.820  1.00  0.00     0.039 A 
BRANCH  11  14
HETATM   14  O   UNL     1     -20.202  -6.722  -4.658  1.00  0.00    -0.361 OA
HETATM   15  H   UNL     1     -21.045  -6.637  -4.168  1.00  0.00     0.217 HD
ENDBRANCH  11  14
ENDBRANCH   7   8
ENDBRANCH   1   7
BRANCH   2  16
HETATM   16  O   UNL     1     -23.524  -2.937  -8.949  1.00  0.00    -0.388 OA
HETATM   17  H   UNL     1     -22.915  -2.572  -8.279  1.00  0.00     0.210 HD
ENDBRANCH   2  16
BRANCH   3  18
HETATM   18  O   UNL     1     -25.312  -5.026  -9.672  1.00  0.00    -0.390 OA
HETATM   19  H   UNL     1     -25.288  -5.860  -9.171  1.00  0.00     0.210 HD
ENDBRANCH   3  18
BRANCH   5  20
HETATM   20  C   UNL     1     -22.702  -2.965 -13.406  1.00  0.00     0.198 C 
BRANCH  20  21
HETATM   21  O   UNL     1     -23.605  -3.476 -14.395  1.00  0.00    -0.398 OA
HETATM   22  H   UNL     1     -24.469  -3.061 -14.200  1.00  0.00     0.209 HD
ENDBRANCH  20  21
ENDBRANCH   5  20
BRANCH   4  23
HETATM   23  O   UNL     1     -24.866  -2.950 -11.489  1.00  0.00    -0.390 OA
HETATM   24  H   UNL     1     -24.324  -2.221 -11.844  1.00  0.00     0.210 HD
ENDBRANCH   4  23
TORSDOF 8
ENDMDL
MODEL 2
REMARK VINA RESULT:      -6.5      1.388      2.836
REMARK  8 active torsions:
REMARK  status: ('A' for Active; 'I' for Inactive)
REMARK    1  A    between atoms: C_3  and  O_8 
REMARK    2  A    between atoms: C_6  and  O_7 
REMARK    3  A    between atoms: O_8  and  C_9 
REMARK    4  A    between atoms: C_10  and  O_19 
REMARK    5  A    between atoms: C_11  and  O_18 
REMARK    6  A    between atoms: C_12  and  O_17 
REMARK    7  A    between atoms: C_13  and  C_15 
REMARK    8  A    between atoms: C_15  and  O_16 
ROOT
HETATM    1  C   UNL     1     -21.241  -3.866  -9.861  1.00  0.00     0.298 C 
HETATM    2  C   UNL     1     -21.130  -3.831 -11.401  1.00  0.00     0.205 C 
HETATM    3  C   UNL     1     -22.187  -2.817 -11.878  1.00  0.00     0.183 C 
HETATM    4  C   UNL     1     -23.610  -3.155 -11.362  1.00  0.00     0.180 C 
HETATM    5  C   UNL     1     -23.573  -3.438  -9.849  1.00  0.00     0.179 C 
HETATM    6  O   UNL     1     -22.543  -4.405  -9.564  1.00  0.00    -0.348 OA
ENDROOT
BRANCH   1   7
HETATM    7  O   UNL     1     -20.226  -4.646  -9.222  1.00  0.00    -0.318 OA
BRANCH   7   8
HETATM    8  C   UNL     1     -20.522  -5.005  -7.921  1.00  0.00     0.072 A 
HETATM    9  C   UNL     1     -19.949  -4.213  -6.924  1.00  0.00     0.039 A 
HETATM   10  C   UNL     1     -20.116  -4.550  -5.573  1.00  0.00     0.039 A 
HETATM   11  C   UNL     1     -20.857  -5.672  -5.224  1.00  0.00     0.065 A 
HETATM   12  C   UNL     1     -21.477  -6.439  -6.196  1.00  0.00     0.039 A 
HETATM   13  C   UNL     1     -21.315  -6.097  -7.540  1.00  0.00     0.039 A 
BRANCH  11  14
HETATM   14  O   UNL     1     -20.959  -5.996  -3.905  1.00  0.00    -0.361 OA
HETATM   15  H   UNL     1     -20.597  -5.255  -3.379  1.00  0.00     0.217 HD
ENDBRANCH  11  14
ENDBRANCH   7   8
ENDBRANCH   1   7
BRANCH   2  16
HETATM   16  O   UNL     1     -21.410  -5.118 -11.992  1.00  0.00    -0.388 OA
HETATM   17  H   UNL     1     -20.577  -5.444 -12.382  1.00  0.00     0.210 HD
ENDBRANCH   2  16
BRANCH   3  18
HETATM   18  O   UNL     1     -22.183  -2.713 -13.299  1.00  0.00    -0.390 OA
HETATM   19  H   UNL     1     -21.260  -2.521 -13.540  1.00  0.00     0.210 HD
ENDBRANCH   3  18
BRANCH   5  20
HETATM   20  C   UNL     1     -24.875  -4.007  -9.290  1.00  0.00     0.198 C 
BRANCH  20  21
HETATM   21  O   UNL     1     -25.973  -3.238  -9.795  1.00  0.00    -0.398 OA
HETATM   22  H   UNL     1     -26.775  -3.752  -9.576  1.00  0.00     0.209 HD
ENDBRANCH  20  21
ENDBRANCH   5  20
BRANCH   4  23
HETATM   23  O   UNL     1     -24.154  -4.272 -12.076  1.00  0.00    -0.390 OA
HETATM   24  H   UNL     1     -24.680  -3.931 -12.823  1.00  0.00     0.210 HD
ENDBRANCH   4  23
TORSDOF 8
ENDMDL
MODEL 3
REMARK VINA RESULT:      -6.5      2.196      6.989
REMARK  8 active torsions:
REMARK  status: ('A' for Active; 'I' for Inactive)
REMARK    1  A    between atoms: C_3  and  O_8 
REMARK    2  A    between atoms: C_6  and  O_7 
REMARK    3  A    between atoms: O_8  and  C_9 
REMARK    4  A    between atoms: C_10  and  O_19 
REMARK    5  A    between atoms: C_11  and  O_18 
REMARK    6  A    between atoms: C_12  and  O_17 
REMARK    7  A    between atoms: C_13  and  C_15 
REMARK    8  A    between atoms: C_15  and  O_16 
ROOT
HETATM    1  C   UNL     1     -21.333  -5.553  -6.048  1.00  0.00     0.298 C 
HETATM    2  C   UNL     1     -20.806  -6.922  -6.532  1.00  0.00     0.205 C 
HETATM    3  C   UNL     1     -21.570  -7.982  -5.715  1.00  0.00     0.183 C 
HETATM    4  C   UNL     1     -21.434  -7.765  -4.186  1.00  0.00     0.180 C 
HETATM    5  C   UNL     1     -21.720  -6.295  -3.829  1.00  0.00     0.179 C 
HETATM    6  O   UNL     1     -20.930  -5.431  -4.670  1.00  0.00    -0.348 OA
ENDROOT
BRANCH   1   7
HETATM    7  O   UNL     1     -20.845  -4.441  -6.805  1.00  0.00    -0.318 OA
BRANCH   7   8
HETATM    8  C   UNL     1     -21.202  -4.464  -8.139  1.00  0.00     0.072 A 
HETATM    9  C   UNL     1     -20.147  -4.506  -9.053  1.00  0.00     0.039 A 
HETATM   10  C   UNL     1     -20.403  -4.440 -10.429  1.00  0.00     0.039 A 
HETATM   11  C   UNL     1     -21.711  -4.337 -10.889  1.00  0.00     0.065 A 
HETATM   12  C   UNL     1     -22.773  -4.348 -10.000  1.00  0.00     0.039 A 
HETATM   13  C   UNL     1     -22.516  -4.421  -8.630  1.00  0.00     0.039 A 
BRANCH  11  14
HETATM   14  O   UNL     1     -21.919  -4.228 -12.230  1.00  0.00    -0.361 OA
HETATM   15  H   UNL     1     -21.752  -5.101 -12.638  1.00  0.00     0.217 HD
ENDBRANCH  11  14
ENDBRANCH   7   8
ENDBRANCH   1   7
BRANCH   2  16
HETATM   16  O   UNL     1     -19.390  -7.071  -6.291  1.00  0.00    -0.388 OA
HETATM   17  H   UNL     1     -19.255  -7.954  -5.899  1.00  0.00     0.210 HD
ENDBRANCH   2  16
BRANCH   3  18
HETATM   18  O   UNL     1     -21.149  -9.295  -6.073  1.00  0.00    -0.390 OA
HETATM   19  H   UNL     1     -20.724  -9.201  -6.943  1.00  0.00     0.210 HD
ENDBRANCH   3  18
BRANCH   5  20
HETATM   20  C   UNL     1     -21.385  -5.926  -2.386  1.00  0.00     0.198 C 
BRANCH  20  21
HETATM   21  O   UNL     1     -22.603  -5.838  -1.635  1.00  0.00    -0.398 OA
HETATM   22  H   UNL     1     -22.341  -5.941  -0.699  1.00  0.00     0.209 HD
ENDBRANCH  20  21
ENDBRANCH   5  20
BRANCH   4  23
HETATM   23  O   UNL     1     -20.129  -8.153  -3.734  1.00  0.00    -0.390 OA
HETATM   24  H   UNL     1     -19.467  -7.720  -4.304  1.00  0.00     0.210 HD
ENDBRANCH   4  23
TORSDOF 8
ENDMDL
MODEL 4
REMARK VINA RESULT:      -6.2      1.486      2.008
REMARK  8 active torsions:
REMARK  status: ('A' for Active; 'I' for Inactive)
REMARK    1  A    between atoms: C_3  and  O_8 
REMARK    2  A    between atoms: C_6  and  O_7 
REMARK    3  A    between atoms: O_8  and  C_9 
REMARK    4  A    between atoms: C_10  and  O_19 
REMARK    5  A    between atoms: C_11  and  O_18 
REMARK    6  A    between atoms: C_12  and  O_17 
REMARK    7  A    between atoms: C_13  and  C_15 
REMARK    8  A    between atoms: C_15  and  O_16 
ROOT
HETATM    1  C   UNL     1     -21.864  -4.741  -8.654  1.00  0.00     0.298 C 
HETATM    2  C   UNL     1     -23.352  -4.350  -8.516  1.00  0.00     0.205 C 
HETATM    3  C   UNL     1     -24.036  -4.827  -9.812  1.00  0.00     0.183 C 
HETATM    4  C   UNL     1     -23.356  -4.260 -11.085  1.00  0.00     0.180 C 
HETATM    5  C   UNL     1     -21.832  -4.459 -11.008  1.00  0.00     0.179 C 
HETATM    6  O   UNL     1     -21.343  -3.960  -9.746  1.00  0.00    -0.348 OA
ENDROOT
BRANCH   1   7
HETATM    7  O   UNL     1     -21.090  -4.513  -7.471  1.00  0.00    -0.318 OA
BRANCH   7   8
HETATM    8  C   UNL     1     -21.058  -5.584  -6.600  1.00  0.00     0.072 A 
HETATM    9  C   UNL     1     -22.178  -5.739  -5.781  1.00  0.00     0.039 A 
HETATM   10  C   UNL     1     -22.202  -6.741  -4.801  1.00  0.00     0.039 A 
HETATM   11  C   UNL     1     -21.111  -7.587  -4.646  1.00  0.00     0.065 A 
HETATM   12  C   UNL     1     -20.013  -7.484  -5.484  1.00  0.00     0.039 A 
HETATM   13  C   UNL     1     -19.995  -6.490  -6.464  1.00  0.00     0.039 A 
BRANCH  11  14
HETATM   14  O   UNL     1     -21.150  -8.519  -3.653  1.00  0.00    -0.361 OA
HETATM   15  H   UNL     1     -21.409  -9.375  -4.046  1.00  0.00     0.217 HD
ENDBRANCH  11  14
ENDBRANCH   7   8
ENDBRANCH   1   7
BRANCH   2  16
HETATM   16  O   UNL     1     -23.525  -2.923  -8.388  1.00  0.00    -0.388 OA
HETATM   17  H   UNL     1     -24.478  -2.738  -8.489  1.00  0.00     0.210 HD
ENDBRANCH   2  16
BRANCH   3  18
HETATM   18  O   UNL     1     -25.423  -4.503  -9.799  1.00  0.00    -0.390 OA
HETATM   19  H   UNL     1     -25.601  -4.099 -10.666  1.00  0.00     0.210 HD
ENDBRANCH   3  18
BRANCH   5  20
HETATM   20  C   UNL     1     -21.051  -3.729 -12.098  1.00  0.00     0.198 C 
BRANCH  20  21
HETATM   21  O   UNL     1     -21.897  -3.563 -13.243  1.00  0.00    -0.398 OA
HETATM   22  H   UNL     1     -22.787  -3.370 -12.886  1.00  0.00     0.209 HD
ENDBRANCH  20  21
ENDBRANCH   5  20
BRANCH   4  23
HETATM   23  O   UNL     1     -23.680  -2.873 -11.256  1.00  0.00    -0.390 OA
HETATM   24  H   UNL     1     -23.176  -2.533 -12.018  1.00  0.00     0.210 HD
ENDBRANCH   4  23
TORSDOF 8
ENDMDL
MODEL 5
REMARK VINA RESULT:      -6.1      2.915      5.308
REMARK  8 active torsions:
REMARK  status: ('A' for Active; 'I' for Inactive)
REMARK    1  A    between atoms: C_3  and  O_8 
REMARK    2  A    between atoms: C_6  and  O_7 
REMARK    3  A    between atoms: O_8  and  C_9 
REMARK    4  A    between atoms: C_10  and  O_19 
REMARK    5  A    between atoms: C_11  and  O_18 
REMARK    6  A    between atoms: C_12  and  O_17 
REMARK    7  A    between atoms: C_13  and  C_15 
REMARK    8  A    between atoms: C_15  and  O_16 
ROOT
HETATM    1  C   UNL     1     -21.592  -5.712  -5.839  1.00  0.00     0.298 C 
HETATM    2  C   UNL     1     -20.078  -5.833  -6.123  1.00  0.00     0.205 C 
HETATM    3  C   UNL     1     -19.618  -4.431  -6.567  1.00  0.00     0.183 C 
HETATM    4  C   UNL     1     -20.438  -3.890  -7.768  1.00  0.00     0.180 C 
HETATM    5  C   UNL     1     -21.945  -4.059  -7.501  1.00  0.00     0.179 C 
HETATM    6  O   UNL     1     -22.216  -5.418  -7.103  1.00  0.00    -0.348 OA
ENDROOT
BRANCH   1   7
HETATM    7  O   UNL     1     -22.172  -6.887  -5.263  1.00  0.00    -0.318 OA
BRANCH   7   8
HETATM    8  C   UNL     1     -21.853  -7.084  -3.934  1.00  0.00     0.072 A 
HETATM    9  C   UNL     1     -21.195  -8.278  -3.634  1.00  0.00     0.039 A 
HETATM   10  C   UNL     1     -20.910  -8.611  -2.303  1.00  0.00     0.039 A 
HETATM   11  C   UNL     1     -21.278  -7.749  -1.277  1.00  0.00     0.065 A 
HETATM   12  C   UNL     1     -21.884  -6.536  -1.558  1.00  0.00     0.039 A 
HETATM   13  C   UNL     1     -22.160  -6.203  -2.886  1.00  0.00     0.039 A 
BRANCH  11  14
HETATM   14  O   UNL     1     -21.027  -8.127   0.007  1.00  0.00    -0.361 OA
HETATM   15  H   UNL     1     -20.427  -8.898  -0.012  1.00  0.00     0.217 HD
ENDBRANCH  11  14
ENDBRANCH   7   8
ENDBRANCH   1   7
BRANCH   2  16
HETATM   16  O   UNL     1     -19.801  -6.778  -7.178  1.00  0.00    -0.388 OA
HETATM   17  H   UNL     1     -19.425  -6.274  -7.925  1.00  0.00     0.210 HD
ENDBRANCH   2  16
BRANCH   3  18
HETATM   18  O   UNL     1     -18.227  -4.429  -6.872  1.00  0.00    -0.390 OA
HETATM   19  H   UNL     1     -17.790  -4.794  -6.083  1.00  0.00     0.210 HD
ENDBRANCH   3  18
BRANCH   5  20
HETATM   20  C   UNL     1     -22.828  -3.775  -8.714  1.00  0.00     0.198 C 
BRANCH  20  21
HETATM   21  O   UNL     1     -24.203  -3.831  -8.311  1.00  0.00    -0.398 OA
HETATM   22  H   UNL     1     -24.520  -2.906  -8.332  1.00  0.00     0.209 HD
ENDBRANCH  20  21
ENDBRANCH   5  20
BRANCH   4  23
HETATM   23  O   UNL     1     -20.058  -4.554  -8.980  1.00  0.00    -0.390 OA
HETATM   24  H   UNL     1     -20.426  -4.054  -9.731  1.00  0.00     0.210 HD
ENDBRANCH   4  23
TORSDOF 8
ENDMDL
MODEL 6
REMARK VINA RESULT:      -6.1      9.870     11.740
REMARK  8 active torsions:
REMARK  status: ('A' for Active; 'I' for Inactive)
REMARK    1  A    between atoms: C_3  and  O_8 
REMARK    2  A    between atoms: C_6  and  O_7 
REMARK    3  A    between atoms: O_8  and  C_9 
REMARK    4  A    between atoms: C_10  and  O_19 
REMARK    5  A    between atoms: C_11  and  O_18 
REMARK    6  A    between atoms: C_12  and  O_17 
REMARK    7  A    between atoms: C_13  and  C_15 
REMARK    8  A    between atoms: C_15  and  O_16 
ROOT
HETATM    1  C   UNL     1     -28.335  -6.463 -18.470  1.00  0.00     0.298 C 
HETATM    2  C   UNL     1     -27.464  -6.770 -17.232  1.00  0.00     0.205 C 
HETATM    3  C   UNL     1     -28.397  -7.462 -16.220  1.00  0.00     0.183 C 
HETATM    4  C   UNL     1     -29.659  -6.618 -15.902  1.00  0.00     0.180 C 
HETATM    5  C   UNL     1     -30.314  -6.128 -17.207  1.00  0.00     0.179 C 
HETATM    6  O   UNL     1     -29.319  -5.502 -18.041  1.00  0.00    -0.348 OA
ENDROOT
BRANCH   1   7
HETATM    7  O   UNL     1     -27.600  -5.952 -19.587  1.00  0.00    -0.318 OA
BRANCH   7   8
HETATM    8  C   UNL     1     -26.557  -6.759 -19.995  1.00  0.00     0.072 A 
HETATM    9  C   UNL     1     -25.345  -6.577 -19.326  1.00  0.00     0.039 A 
HETATM   10  C   UNL     1     -24.203  -7.283 -19.728  1.00  0.00     0.039 A 
HETATM   11  C   UNL     1     -24.276  -8.173 -20.794  1.00  0.00     0.065 A 
HETATM   12  C   UNL     1     -25.481  -8.407 -21.436  1.00  0.00     0.039 A 
HETATM   13  C   UNL     1     -26.618  -7.707 -21.028  1.00  0.00     0.039 A 
BRANCH  11  14
HETATM   14  O   UNL     1     -23.137  -8.806 -21.187  1.00  0.00    -0.361 OA
HETATM   15  H   UNL     1     -22.802  -9.331 -20.433  1.00  0.00     0.217 HD
ENDBRANCH  11  14
ENDBRANCH   7   8
ENDBRANCH   1   7
BRANCH   2  16
HETATM   16  O   UNL     1     -26.929  -5.569 -16.637  1.00  0.00    -0.388 OA
HETATM   17  H   UNL     1     -27.065  -5.639 -15.673  1.00  0.00     0.210 HD
ENDBRANCH   2  16
BRANCH   3  18
HETATM   18  O   UNL     1     -27.695  -7.781 -15.022  1.00  0.00    -0.390 OA
HETATM   19  H   UNL     1     -27.933  -8.702 -14.821  1.00  0.00     0.210 HD
ENDBRANCH   3  18
BRANCH   5  20
HETATM   20  C   UNL     1     -31.422  -5.099 -17.000  1.00  0.00     0.198 C 
BRANCH  20  21
HETATM   21  O   UNL     1     -32.684  -5.777 -16.959  1.00  0.00    -0.398 OA
HETATM   22  H   UNL     1     -32.476  -6.725 -17.082  1.00  0.00     0.209 HD
ENDBRANCH  20  21
ENDBRANCH   5  20
BRANCH   4  23
HETATM   23  O   UNL     1     -29.326  -5.511 -15.054  1.00  0.00    -0.390 OA
HETATM   24  H   UNL     1     -29.935  -4.777 -15.255  1.00  0.00     0.210 HD
ENDBRANCH   4  23
TORSDOF 8
ENDMDL
MODEL 7
REMARK VINA RESULT:      -5.7      7.500      9.126
REMARK  8 active torsions:
REMARK  status: ('A' for Active; 'I' for Inactive)
REMARK    1  A    between atoms: C_3  and  O_8 
REMARK    2  A    between atoms: C_6  and  O_7 
REMARK    3  A    between atoms: O_8  and  C_9 
REMARK    4  A    between atoms: C_10  and  O_19 
REMARK    5  A    between atoms: C_11  and  O_18 
REMARK    6  A    between atoms: C_12  and  O_17 
REMARK    7  A    between atoms: C_13  and  C_15 
REMARK    8  A    between atoms: C_15  and  O_16 
ROOT
HETATM    1  C   UNL     1     -19.357  -9.597  -3.420  1.00  0.00     0.298 C 
HETATM    2  C   UNL     1     -20.319  -9.472  -4.622  1.00  0.00     0.205 C 
HETATM    3  C   UNL     1     -20.295 -10.842  -5.326  1.00  0.00     0.183 C 
HETATM    4  C   UNL     1     -18.861 -11.285  -5.716  1.00  0.00     0.180 C 
HETATM    5  C   UNL     1     -17.908 -11.119  -4.519  1.00  0.00     0.179 C 
HETATM    6  O   UNL     1     -18.042  -9.790  -3.976  1.00  0.00    -0.348 OA
ENDROOT
BRANCH   1   7
HETATM    7  O   UNL     1     -19.362  -8.460  -2.549  1.00  0.00    -0.318 OA
BRANCH   7   8
HETATM    8  C   UNL     1     -20.489  -8.359  -1.758  1.00  0.00     0.072 A 
HETATM    9  C   UNL     1     -21.234  -7.187  -1.903  1.00  0.00     0.039 A 
HETATM   10  C   UNL     1     -22.344  -6.949  -1.080  1.00  0.00     0.039 A 
HETATM   11  C   UNL     1     -22.708  -7.884  -0.118  1.00  0.00     0.065 A 
HETATM   12  C   UNL     1     -22.014  -9.077   0.005  1.00  0.00     0.039 A 
HETATM   13  C   UNL     1     -20.914  -9.314  -0.821  1.00  0.00     0.039 A 
BRANCH  11  14
HETATM   14  O   UNL     1     -23.762  -7.599   0.695  1.00  0.00    -0.361 OA
HETATM   15  H   UNL     1     -24.458  -7.172   0.157  1.00  0.00     0.217 HD
ENDBRANCH  11  14
ENDBRANCH   7   8
ENDBRANCH   1   7
BRANCH   2  16
HETATM   16  O   UNL     1     -19.891  -8.456  -5.553  1.00  0.00    -0.388 OA
HETATM   17  H   UNL     1     -20.371  -8.608  -6.388  1.00  0.00     0.210 HD
ENDBRANCH   2  16
BRANCH   3  18
HETATM   18  O   UNL     1     -21.145 -10.837  -6.468  1.00  0.00    -0.390 OA
HETATM   19  H   UNL     1     -20.588 -10.529  -7.203  1.00  0.00     0.210 HD
ENDBRANCH   3  18
BRANCH   5  20
HETATM   20  C   UNL     1     -16.433 -11.303  -4.865  1.00  0.00     0.198 C 
BRANCH  20  21
HETATM   21  O   UNL     1     -15.921 -10.071  -5.388  1.00  0.00    -0.398 OA
HETATM   22  H   UNL     1     -15.728 -10.246  -6.330  1.00  0.00     0.209 HD
ENDBRANCH  20  21
ENDBRANCH   5  20
BRANCH   4  23
HETATM   23  O   UNL     1     -18.392 -10.537  -6.847  1.00  0.00    -0.390 OA
HETATM   24  H   UNL     1     -18.508  -9.588  -6.655  1.00  0.00     0.210 HD
ENDBRANCH   4  23
TORSDOF 8
ENDMDL
MODEL 8
REMARK VINA RESULT:      -5.6      8.273     11.598
REMARK  8 active torsions:
REMARK  status: ('A' for Active; 'I' for Inactive)
REMARK    1  A    between atoms: C_3  and  O_8 
REMARK    2  A    between atoms: C_6  and  O_7 
REMARK    3  A    between atoms: O_8  and  C_9 
REMARK    4  A    between atoms: C_10  and  O_19 
REMARK    5  A    between atoms: C_11  and  O_18 
REMARK    6  A    between atoms: C_12  and  O_17 
REMARK    7  A    between atoms: C_13  and  C_15 
REMARK    8  A    between atoms: C_15  and  O_16 
ROOT
HETATM    1  C   UNL     1     -27.738  -6.028 -18.837  1.00  0.00     0.298 C 
HETATM    2  C   UNL     1     -29.117  -6.671 -18.569  1.00  0.00     0.205 C 
HETATM    3  C   UNL     1     -29.483  -6.297 -17.120  1.00  0.00     0.183 C 
HETATM    4  C   UNL     1     -28.390  -6.717 -16.103  1.00  0.00     0.180 C 
HETATM    5  C   UNL     1     -27.004  -6.261 -16.594  1.00  0.00     0.179 C 
HETATM    6  O   UNL     1     -26.809  -6.689 -17.956  1.00  0.00    -0.348 OA
ENDROOT
BRANCH   1   7
HETATM    7  O   UNL     1     -27.297  -6.140 -20.194  1.00  0.00    -0.318 OA
BRANCH   7   8
HETATM    8  C   UNL     1     -26.065  -6.747 -20.341  1.00  0.00     0.072 A 
HETATM    9  C   UNL     1     -25.942  -7.627 -21.418  1.00  0.00     0.039 A 
HETATM   10  C   UNL     1     -24.761  -8.361 -21.598  1.00  0.00     0.039 A 
HETATM   11  C   UNL     1     -23.707  -8.210 -20.706  1.00  0.00     0.065 A 
HETATM   12  C   UNL     1     -23.790  -7.303 -19.662  1.00  0.00     0.039 A 
HETATM   13  C   UNL     1     -24.965  -6.569 -19.489  1.00  0.00     0.039 A 
BRANCH  11  14
HETATM   14  O   UNL     1     -22.593  -8.973 -20.885  1.00  0.00    -0.361 OA
HETATM   15  H   UNL     1     -22.743  -9.558 -21.654  1.00  0.00     0.217 HD
ENDBRANCH  11  14
ENDBRANCH   7   8
ENDBRANCH   1   7
BRANCH   2  16
HETATM   16  O   UNL     1     -29.074  -8.109 -18.689  1.00  0.00    -0.388 OA
HETATM   17  H   UNL     1     -29.706  -8.359 -19.389  1.00  0.00     0.210 HD
ENDBRANCH   2  16
BRANCH   3  18
HETATM   18  O   UNL     1     -30.743  -6.854 -16.757  1.00  0.00    -0.390 OA
HETATM   19  H   UNL     1     -30.609  -7.818 -16.761  1.00  0.00     0.210 HD
ENDBRANCH   3  18
BRANCH   5  20
HETATM   20  C   UNL     1     -25.839  -6.827 -15.786  1.00  0.00     0.198 C 
BRANCH  20  21
HETATM   21  O   UNL     1     -24.769  -5.873 -15.782  1.00  0.00    -0.398 OA
HETATM   22  H   UNL     1     -25.092  -5.116 -16.309  1.00  0.00     0.209 HD
ENDBRANCH  20  21
ENDBRANCH   5  20
BRANCH   4  23
HETATM   23  O   UNL     1     -28.414  -8.135 -15.893  1.00  0.00    -0.390 OA
HETATM   24  H   UNL     1     -27.963  -8.563 -16.644  1.00  0.00     0.210 HD
ENDBRANCH   4  23
TORSDOF 8
ENDMDL
MODEL 9
REMARK VINA RESULT:      -5.5      1.825      3.194
REMARK  8 active torsions:
REMARK  status: ('A' for Active; 'I' for Inactive)
REMARK    1  A    between atoms: C_3  and  O_8 
REMARK    2  A    between atoms: C_6  and  O_7 
REMARK    3  A    between atoms: O_8  and  C_9 
REMARK    4  A    between atoms: C_10  and  O_19 
REMARK    5  A    between atoms: C_11  and  O_18 
REMARK    6  A    between atoms: C_12  and  O_17 
REMARK    7  A    between atoms: C_13  and  C_15 
REMARK    8  A    between atoms: C_15  and  O_16 
ROOT
HETATM    1  C   UNL     1     -20.255  -3.894  -8.501  1.00  0.00     0.298 C 
HETATM    2  C   UNL     1     -19.974  -4.034 -10.013  1.00  0.00     0.205 C 
HETATM    3  C   UNL     1     -21.052  -3.192 -10.723  1.00  0.00     0.183 C 
HETATM    4  C   UNL     1     -22.491  -3.601 -10.315  1.00  0.00     0.180 C 
HETATM    5  C   UNL     1     -22.601  -3.696  -8.782  1.00  0.00     0.179 C 
HETATM    6  O   UNL     1     -21.533  -4.517  -8.270  1.00  0.00    -0.348 OA
ENDROOT
BRANCH   1   7
HETATM    7  O   UNL     1     -19.258  -4.490  -7.665  1.00  0.00    -0.318 OA
BRANCH   7   8
HETATM    8  C   UNL     1     -19.766  -5.224  -6.612  1.00  0.00     0.072 A 
HETATM    9  C   UNL     1     -19.701  -6.613  -6.748  1.00  0.00     0.039 A 
HETATM   10  C   UNL     1     -20.272  -7.444  -5.775  1.00  0.00     0.039 A 
HETATM   11  C   UNL     1     -20.902  -6.888  -4.669  1.00  0.00     0.065 A 
HETATM   12  C   UNL     1     -20.931  -5.514  -4.489  1.00  0.00     0.039 A 
HETATM   13  C   UNL     1     -20.354  -4.689  -5.457  1.00  0.00     0.039 A 
BRANCH  11  14
HETATM   14  O   UNL     1     -21.487  -7.725  -3.768  1.00  0.00    -0.361 OA
HETATM   15  H   UNL     1     -21.241  -8.643  -3.997  1.00  0.00     0.217 HD
ENDBRANCH  11  14
ENDBRANCH   7   8
ENDBRANCH   1   7
BRANCH   2  16
HETATM   16  O   UNL     1     -20.078  -5.404 -10.457  1.00  0.00    -0.388 OA
HETATM   17  H   UNL     1     -20.484  -5.390 -11.344  1.00  0.00     0.210 HD
ENDBRANCH   2  16
BRANCH   3  18
HETATM   18  O   UNL     1     -20.895  -3.260 -12.137  1.00  0.00    -0.390 OA
HETATM   19  H   UNL     1     -21.655  -2.777 -12.504  1.00  0.00     0.210 HD
ENDBRANCH   3  18
BRANCH   5  20
HETATM   20  C   UNL     1     -23.906  -4.317  -8.288  1.00  0.00     0.198 C 
BRANCH  20  21
HETATM   21  O   UNL     1     -24.973  -3.905  -9.153  1.00  0.00    -0.398 OA
HETATM   22  H   UNL     1     -25.002  -4.571  -9.867  1.00  0.00     0.209 HD
ENDBRANCH  20  21
ENDBRANCH   5  20
BRANCH   4  23
HETATM   23  O   UNL     1     -22.856  -4.844 -10.929  1.00  0.00    -0.390 OA
HETATM   24  H   UNL     1     -22.048  -5.377 -11.046  1.00  0.00     0.210 HD
ENDBRANCH   4  23
TORSDOF 8
ENDMDL
