MODEL 1
REMARK VINA RESULT:      -1.1      0.000      0.000
REMARK  5 active torsions:
REMARK  status: ('A' for Active; 'I' for Inactive)
REMARK    1  A    between atoms: N_2  and  C_5 
REMARK    2  A    between atoms: C_13  and  O_26 
REMARK    3  A    between atoms: C_14  and  N_15 
REMARK    4  A    between atoms: N_17  and  C_19 
REMARK    5  A    between atoms: C_22  and  N_25 
ROOT
HETATM    1 CL   UNL     2     -32.950  -3.304 -11.394  1.00  0.00     0.000 Cl
ENDROOT
TORSDOF 5
ENDMDL
MODEL 2
REMARK VINA RESULT:      -1.0      8.565      8.565
REMARK  5 active torsions:
REMARK  status: ('A' for Active; 'I' for Inactive)
REMARK    1  A    between atoms: N_2  and  C_5 
REMARK    2  A    between atoms: C_13  and  O_26 
REMARK    3  A    between atoms: C_14  and  N_15 
REMARK    4  A    between atoms: N_17  and  C_19 
REMARK    5  A    between atoms: C_22  and  N_25 
ROOT
HETATM    1 CL   UNL     2     -37.016   0.580  -4.933  1.00  0.00     0.000 Cl
ENDROOT
TORSDOF 5
ENDMDL
MODEL 3
REMARK VINA RESULT:      -1.0     10.562     10.562
REMARK  5 active torsions:
REMARK  status: ('A' for Active; 'I' for Inactive)
REMARK    1  A    between atoms: N_2  and  C_5 
REMARK    2  A    between atoms: C_13  and  O_26 
REMARK    3  A    between atoms: C_14  and  N_15 
REMARK    4  A    between atoms: N_17  and  C_19 
REMARK    5  A    between atoms: C_22  and  N_25 
ROOT
HETATM    1 CL   UNL     2     -34.319  -5.947  -1.261  1.00  0.00     0.000 Cl
ENDROOT
TORSDOF 5
ENDMDL
MODEL 4
REMARK VINA RESULT:      -1.0     11.260     11.260
REMARK  5 active torsions:
REMARK  status: ('A' for Active; 'I' for Inactive)
REMARK    1  A    between atoms: N_2  and  C_5 
REMARK    2  A    between atoms: C_13  and  O_26 
REMARK    3  A    between atoms: C_14  and  N_15 
REMARK    4  A    between atoms: N_17  and  C_19 
REMARK    5  A    between atoms: C_22  and  N_25 
ROOT
HETATM    1 CL   UNL     2     -29.825   7.428 -12.753  1.00  0.00     0.000 Cl
ENDROOT
TORSDOF 5
ENDMDL
MODEL 5
REMARK VINA RESULT:      -1.0      4.761      4.761
REMARK  5 active torsions:
REMARK  status: ('A' for Active; 'I' for Inactive)
REMARK    1  A    between atoms: N_2  and  C_5 
REMARK    2  A    between atoms: C_13  and  O_26 
REMARK    3  A    between atoms: C_14  and  N_15 
REMARK    4  A    between atoms: N_17  and  C_19 
REMARK    5  A    between atoms: C_22  and  N_25 
ROOT
HETATM    1 CL   UNL     2     -34.923  -7.293  -9.705  1.00  0.00     0.000 Cl
ENDROOT
TORSDOF 5
ENDMDL
MODEL 6
REMARK VINA RESULT:      -1.0     14.589     14.589
REMARK  5 active torsions:
REMARK  status: ('A' for Active; 'I' for Inactive)
REMARK    1  A    between atoms: N_2  and  C_5 
REMARK    2  A    between atoms: C_13  and  O_26 
REMARK    3  A    between atoms: C_14  and  N_15 
REMARK    4  A    between atoms: N_17  and  C_19 
REMARK    5  A    between atoms: C_22  and  N_25 
ROOT
HETATM    1 CL   UNL     2     -22.246  -6.121  -1.890  1.00  0.00     0.000 Cl
ENDROOT
TORSDOF 5
ENDMDL
MODEL 7
REMARK VINA RESULT:      -0.9      1.547      1.547
REMARK  5 active torsions:
REMARK  status: ('A' for Active; 'I' for Inactive)
REMARK    1  A    between atoms: N_2  and  C_5 
REMARK    2  A    between atoms: C_13  and  O_26 
REMARK    3  A    between atoms: C_14  and  N_15 
REMARK    4  A    between atoms: N_17  and  C_19 
REMARK    5  A    between atoms: C_22  and  N_25 
ROOT
HETATM    1 CL   UNL     2     -33.845  -4.203 -10.509  1.00  0.00     0.000 Cl
ENDROOT
TORSDOF 5
ENDMDL
MODEL 8
REMARK VINA RESULT:      -0.9     12.020     12.020
REMARK  5 active torsions:
REMARK  status: ('A' for Active; 'I' for Inactive)
REMARK    1  A    between atoms: N_2  and  C_5 
REMARK    2  A    between atoms: C_13  and  O_26 
REMARK    3  A    between atoms: C_14  and  N_15 
REMARK    4  A    between atoms: N_17  and  C_19 
REMARK    5  A    between atoms: C_22  and  N_25 
ROOT
HETATM    1 CL   UNL     2     -27.177   7.238 -11.186  1.00  0.00     0.000 Cl
ENDROOT
TORSDOF 5
ENDMDL
MODEL 9
REMARK VINA RESULT:      -0.9     16.134     16.134
REMARK  5 active torsions:
REMARK  status: ('A' for Active; 'I' for Inactive)
REMARK    1  A    between atoms: N_2  and  C_5 
REMARK    2  A    between atoms: C_13  and  O_26 
REMARK    3  A    between atoms: C_14  and  N_15 
REMARK    4  A    between atoms: N_17  and  C_19 
REMARK    5  A    between atoms: C_22  and  N_25 
ROOT
HETATM    1 CL   UNL     2     -23.253  -8.078   0.584  1.00  0.00     0.000 Cl
ENDROOT
TORSDOF 5
ENDMDL
