MODEL 1
REMARK VINA RESULT:      -7.3      0.000      0.000
REMARK  17 active torsions:
REMARK  status: ('A' for Active; 'I' for Inactive)
REMARK    1  A    between atoms: C_2  and  C_3 
REMARK    2  A    between atoms: C_3  and  C_4 
REMARK    3  A    between atoms: C_4  and  C_5 
REMARK    4  A    between atoms: C_5  and  C_6 
REMARK    5  A    between atoms: C_6  and  C_7 
REMARK    6  A    between atoms: C_7  and  C_8 
REMARK    7  A    between atoms: C_8  and  C_9 
REMARK    8  A    between atoms: C_9  and  C_10 
REMARK    9  A    between atoms: C_10  and  C_11 
REMARK   10  A    between atoms: C_11  and  C_12 
REMARK   11  A    between atoms: C_12  and  O_13 
REMARK   12  A    between atoms: O_13  and  C_14 
REMARK   13  A    between atoms: C_15  and  O_24 
REMARK   14  A    between atoms: C_16  and  O_23 
REMARK   15  A    between atoms: C_17  and  O_22 
REMARK   16  A    between atoms: C_18  and  C_20 
REMARK   17  A    between atoms: C_20  and  O_21 
ROOT
HETATM    1  C   UNL     1     -21.718  -3.454 -10.082  1.00  0.00     0.291 C 
HETATM    2  C   UNL     1     -22.963  -4.058  -9.390  1.00  0.00     0.204 C 
HETATM    3  C   UNL     1     -23.764  -4.894 -10.400  1.00  0.00     0.183 C 
HETATM    4  C   UNL     1     -24.063  -4.113 -11.687  1.00  0.00     0.180 C 
HETATM    5  C   UNL     1     -22.750  -3.553 -12.255  1.00  0.00     0.179 C 
HETATM    6  O   UNL     1     -22.121  -2.714 -11.261  1.00  0.00    -0.348 OA
ENDROOT
BRANCH   1   7
HETATM    7  O   UNL     1     -20.722  -4.424 -10.414  1.00  0.00    -0.359 OA
BRANCH   7   8
HETATM    8  C   UNL     1     -20.176  -5.072  -9.263  1.00  0.00     0.171 C 
BRANCH   8   9
HETATM    9  C   UNL     1     -19.785  -4.049  -8.196  1.00  0.00     0.026 C 
BRANCH   9  10
HETATM   10  C   UNL     1     -20.368  -4.332  -6.811  1.00  0.00     0.002 C 
BRANCH  10  11
HETATM   11  C   UNL     1     -20.999  -5.719  -6.728  1.00  0.00     0.000 C 
BRANCH  11  12
HETATM   12  C   UNL     1     -20.147  -6.682  -5.911  1.00  0.00     0.000 C 
BRANCH  12  13
HETATM   13  C   UNL     1     -21.060  -7.553  -5.055  1.00  0.00     0.000 C 
BRANCH  13  14
HETATM   14  C   UNL     1     -22.087  -6.713  -4.310  1.00  0.00     0.000 C 
BRANCH  14  15
HETATM   15  C   UNL     1     -21.433  -6.054  -3.101  1.00  0.00     0.000 C 
BRANCH  15  16
HETATM   16  C   UNL     1     -21.990  -6.622  -1.805  1.00  0.00     0.000 C 
BRANCH  16  17
HETATM   17  C   UNL     1     -21.183  -7.842  -1.368  1.00  0.00    -0.000 C 
BRANCH  17  18
HETATM   18  C   UNL     1     -21.676  -8.373  -0.024  1.00  0.00    -0.005 C 
HETATM   19  C   UNL     1     -23.042  -7.806   0.316  1.00  0.00     0.005 C 
ENDBRANCH  17  18
ENDBRANCH  16  17
ENDBRANCH  15  16
ENDBRANCH  14  15
ENDBRANCH  13  14
ENDBRANCH  12  13
ENDBRANCH  11  12
ENDBRANCH  10  11
ENDBRANCH   9  10
ENDBRANCH   8   9
ENDBRANCH   7   8
ENDBRANCH   1   7
BRANCH   2  20
HETATM   20  O   UNL     1     -23.776  -3.016  -8.815  1.00  0.00    -0.388 OA
HETATM   21  H   UNL     1     -23.263  -2.193  -8.843  1.00  0.00     0.210 HD
ENDBRANCH   2  20
BRANCH   3  22
HETATM   22  O   UNL     1     -24.994  -5.331  -9.805  1.00  0.00    -0.390 OA
HETATM   23  H   UNL     1     -24.720  -5.934  -9.077  1.00  0.00     0.210 HD
ENDBRANCH   3  22
BRANCH   5  24
HETATM   24  C   UNL     1     -22.996  -2.711 -13.520  1.00  0.00     0.198 C 
BRANCH  24  25
HETATM   25  O   UNL     1     -22.287  -3.259 -14.627  1.00  0.00    -0.398 OA
HETATM   26  H   UNL     1     -22.765  -4.073 -14.880  1.00  0.00     0.209 HD
ENDBRANCH  24  25
ENDBRANCH   5  24
BRANCH   4  27
HETATM   27  O   UNL     1     -25.005  -3.066 -11.389  1.00  0.00    -0.390 OA
HETATM   28  H   UNL     1     -25.223  -3.095 -10.437  1.00  0.00     0.210 HD
ENDBRANCH   4  27
TORSDOF 17
ENDMDL
MODEL 2
REMARK VINA RESULT:      -6.8      1.709      3.569
REMARK  17 active torsions:
REMARK  status: ('A' for Active; 'I' for Inactive)
REMARK    1  A    between atoms: C_2  and  C_3 
REMARK    2  A    between atoms: C_3  and  C_4 
REMARK    3  A    between atoms: C_4  and  C_5 
REMARK    4  A    between atoms: C_5  and  C_6 
REMARK    5  A    between atoms: C_6  and  C_7 
REMARK    6  A    between atoms: C_7  and  C_8 
REMARK    7  A    between atoms: C_8  and  C_9 
REMARK    8  A    between atoms: C_9  and  C_10 
REMARK    9  A    between atoms: C_10  and  C_11 
REMARK   10  A    between atoms: C_11  and  C_12 
REMARK   11  A    between atoms: C_12  and  O_13 
REMARK   12  A    between atoms: O_13  and  C_14 
REMARK   13  A    between atoms: C_15  and  O_24 
REMARK   14  A    between atoms: C_16  and  O_23 
REMARK   15  A    between atoms: C_17  and  O_22 
REMARK   16  A    between atoms: C_18  and  C_20 
REMARK   17  A    between atoms: C_20  and  O_21 
ROOT
HETATM    1  C   UNL     1     -21.029  -4.844  -8.690  1.00  0.00     0.291 C 
HETATM    2  C   UNL     1     -20.227  -4.246  -9.870  1.00  0.00     0.204 C 
HETATM    3  C   UNL     1     -20.993  -3.055 -10.467  1.00  0.00     0.183 C 
HETATM    4  C   UNL     1     -22.449  -3.413 -10.798  1.00  0.00     0.180 C 
HETATM    5  C   UNL     1     -23.118  -4.014  -9.553  1.00  0.00     0.179 C 
HETATM    6  O   UNL     1     -22.371  -5.175  -9.125  1.00  0.00    -0.348 OA
ENDROOT
BRANCH   1   7
HETATM    7  O   UNL     1     -21.068  -3.999  -7.538  1.00  0.00    -0.359 OA
BRANCH   7   8
HETATM    8  C   UNL     1     -21.149  -4.734  -6.315  1.00  0.00     0.171 C 
BRANCH   8   9
HETATM    9  C   UNL     1     -20.187  -5.922  -6.328  1.00  0.00     0.026 C 
BRANCH   9  10
HETATM   10  C   UNL     1     -20.494  -6.990  -5.278  1.00  0.00     0.002 C 
BRANCH  10  11
HETATM   11  C   UNL     1     -21.564  -6.534  -4.292  1.00  0.00     0.000 C 
BRANCH  11  12
HETATM   12  C   UNL     1     -21.232  -6.944  -2.863  1.00  0.00     0.000 C 
BRANCH  12  13
HETATM   13  C   UNL     1     -22.205  -6.260  -1.909  1.00  0.00     0.000 C 
BRANCH  13  14
HETATM   14  C   UNL     1     -22.386  -7.066  -0.631  1.00  0.00     0.000 C 
BRANCH  14  15
HETATM   15  C   UNL     1     -21.547  -8.336  -0.701  1.00  0.00     0.000 C 
BRANCH  15  16
HETATM   16  C   UNL     1     -22.086  -9.397   0.247  1.00  0.00     0.000 C 
BRANCH  16  17
HETATM   17  C   UNL     1     -23.565  -9.655  -0.030  1.00  0.00    -0.000 C 
BRANCH  17  18
HETATM   18  C   UNL     1     -23.769 -11.016  -0.693  1.00  0.00    -0.005 C 
HETATM   19  C   UNL     1     -23.515 -12.142   0.292  1.00  0.00     0.005 C 
ENDBRANCH  17  18
ENDBRANCH  16  17
ENDBRANCH  15  16
ENDBRANCH  14  15
ENDBRANCH  13  14
ENDBRANCH  12  13
ENDBRANCH  11  12
ENDBRANCH  10  11
ENDBRANCH   9  10
ENDBRANCH   8   9
ENDBRANCH   7   8
ENDBRANCH   1   7
BRANCH   2  20
HETATM   20  O   UNL     1     -19.969  -5.253 -10.867  1.00  0.00    -0.388 OA
HETATM   21  H   UNL     1     -19.209  -4.960 -11.392  1.00  0.00     0.210 HD
ENDBRANCH   2  20
BRANCH   3  22
HETATM   22  O   UNL     1     -20.329  -2.592 -11.651  1.00  0.00    -0.390 OA
HETATM   23  H   UNL     1     -20.172  -1.634 -11.492  1.00  0.00     0.210 HD
ENDBRANCH   3  22
BRANCH   5  24
HETATM   24  C   UNL     1     -24.567  -4.445  -9.843  1.00  0.00     0.198 C 
BRANCH  24  25
HETATM   25  O   UNL     1     -25.437  -3.318  -9.802  1.00  0.00    -0.398 OA
HETATM   26  H   UNL     1     -24.986  -2.646  -9.256  1.00  0.00     0.209 HD
ENDBRANCH  24  25
ENDBRANCH   5  24
BRANCH   4  27
HETATM   27  O   UNL     1     -22.461  -4.332 -11.907  1.00  0.00    -0.390 OA
HETATM   28  H   UNL     1     -22.597  -3.832 -12.735  1.00  0.00     0.210 HD
ENDBRANCH   4  27
TORSDOF 17
ENDMDL
MODEL 3
REMARK VINA RESULT:      -6.7      1.936      3.515
REMARK  17 active torsions:
REMARK  status: ('A' for Active; 'I' for Inactive)
REMARK    1  A    between atoms: C_2  and  C_3 
REMARK    2  A    between atoms: C_3  and  C_4 
REMARK    3  A    between atoms: C_4  and  C_5 
REMARK    4  A    between atoms: C_5  and  C_6 
REMARK    5  A    between atoms: C_6  and  C_7 
REMARK    6  A    between atoms: C_7  and  C_8 
REMARK    7  A    between atoms: C_8  and  C_9 
REMARK    8  A    between atoms: C_9  and  C_10 
REMARK    9  A    between atoms: C_10  and  C_11 
REMARK   10  A    between atoms: C_11  and  C_12 
REMARK   11  A    between atoms: C_12  and  O_13 
REMARK   12  A    between atoms: O_13  and  C_14 
REMARK   13  A    between atoms: C_15  and  O_24 
REMARK   14  A    between atoms: C_16  and  O_23 
REMARK   15  A    between atoms: C_17  and  O_22 
REMARK   16  A    between atoms: C_18  and  C_20 
REMARK   17  A    between atoms: C_20  and  O_21 
ROOT
HETATM    1  C   UNL     1     -20.264  -4.478  -7.725  1.00  0.00     0.291 C 
HETATM    2  C   UNL     1     -21.627  -4.039  -7.138  1.00  0.00     0.204 C 
HETATM    3  C   UNL     1     -22.769  -4.637  -7.975  1.00  0.00     0.183 C 
HETATM    4  C   UNL     1     -22.595  -4.354  -9.473  1.00  0.00     0.180 C 
HETATM    5  C   UNL     1     -21.199  -4.816  -9.918  1.00  0.00     0.179 C 
HETATM    6  O   UNL     1     -20.199  -4.131  -9.130  1.00  0.00    -0.348 OA
ENDROOT
BRANCH   1   7
HETATM    7  O   UNL     1     -19.980  -5.865  -7.535  1.00  0.00    -0.359 OA
BRANCH   7   8
HETATM    8  C   UNL     1     -19.807  -6.212  -6.159  1.00  0.00     0.171 C 
BRANCH   8   9
HETATM    9  C   UNL     1     -20.790  -7.307  -5.746  1.00  0.00     0.026 C 
BRANCH   9  10
HETATM   10  C   UNL     1     -22.005  -6.799  -4.968  1.00  0.00     0.002 C 
BRANCH  10  11
HETATM   11  C   UNL     1     -21.612  -6.189  -3.626  1.00  0.00     0.000 C 
BRANCH  11  12
HETATM   12  C   UNL     1     -21.467  -7.248  -2.541  1.00  0.00     0.000 C 
BRANCH  12  13
HETATM   13  C   UNL     1     -22.298  -6.839  -1.330  1.00  0.00     0.000 C 
BRANCH  13  14
HETATM   14  C   UNL     1     -21.895  -7.625  -0.091  1.00  0.00     0.000 C 
BRANCH  14  15
HETATM   15  C   UNL     1     -22.995  -8.618   0.268  1.00  0.00     0.000 C 
BRANCH  15  16
HETATM   16  C   UNL     1     -22.819  -9.922  -0.496  1.00  0.00     0.000 C 
BRANCH  16  17
HETATM   17  C   UNL     1     -24.018 -10.839  -0.267  1.00  0.00    -0.000 C 
BRANCH  17  18
HETATM   18  C   UNL     1     -23.597 -12.127   0.437  1.00  0.00    -0.005 C 
HETATM   19  C   UNL     1     -22.088 -12.202   0.573  1.00  0.00     0.005 C 
ENDBRANCH  17  18
ENDBRANCH  16  17
ENDBRANCH  15  16
ENDBRANCH  14  15
ENDBRANCH  13  14
ENDBRANCH  12  13
ENDBRANCH  11  12
ENDBRANCH  10  11
ENDBRANCH   9  10
ENDBRANCH   8   9
ENDBRANCH   7   8
ENDBRANCH   1   7
BRANCH   2  20
HETATM   20  O   UNL     1     -21.715  -2.602  -7.087  1.00  0.00    -0.388 OA
HETATM   21  H   UNL     1     -22.104  -2.300  -7.923  1.00  0.00     0.210 HD
ENDBRANCH   2  20
BRANCH   3  22
HETATM   22  O   UNL     1     -24.027  -4.114  -7.528  1.00  0.00    -0.390 OA
HETATM   23  H   UNL     1     -23.873  -3.148  -7.420  1.00  0.00     0.210 HD
ENDBRANCH   3  22
BRANCH   5  24
HETATM   24  C   UNL     1     -20.948  -4.504 -11.404  1.00  0.00     0.198 C 
BRANCH  24  25
HETATM   25  O   UNL     1     -20.557  -3.144 -11.567  1.00  0.00    -0.398 OA
HETATM   26  H   UNL     1     -21.291  -2.706 -12.040  1.00  0.00     0.209 HD
ENDBRANCH  24  25
ENDBRANCH   5  24
BRANCH   4  27
HETATM   27  O   UNL     1     -22.792  -2.946  -9.707  1.00  0.00    -0.390 OA
HETATM   28  H   UNL     1     -21.928  -2.492  -9.666  1.00  0.00     0.210 HD
ENDBRANCH   4  27
TORSDOF 17
ENDMDL
MODEL 4
REMARK VINA RESULT:      -6.6      1.339      2.667
REMARK  17 active torsions:
REMARK  status: ('A' for Active; 'I' for Inactive)
REMARK    1  A    between atoms: C_2  and  C_3 
REMARK    2  A    between atoms: C_3  and  C_4 
REMARK    3  A    between atoms: C_4  and  C_5 
REMARK    4  A    between atoms: C_5  and  C_6 
REMARK    5  A    between atoms: C_6  and  C_7 
REMARK    6  A    between atoms: C_7  and  C_8 
REMARK    7  A    between atoms: C_8  and  C_9 
REMARK    8  A    between atoms: C_9  and  C_10 
REMARK    9  A    between atoms: C_10  and  C_11 
REMARK   10  A    between atoms: C_11  and  C_12 
REMARK   11  A    between atoms: C_12  and  O_13 
REMARK   12  A    between atoms: O_13  and  C_14 
REMARK   13  A    between atoms: C_15  and  O_24 
REMARK   14  A    between atoms: C_16  and  O_23 
REMARK   15  A    between atoms: C_17  and  O_22 
REMARK   16  A    between atoms: C_18  and  C_20 
REMARK   17  A    between atoms: C_20  and  O_21 
ROOT
HETATM    1  C   UNL     1     -24.116  -2.989 -10.804  1.00  0.00     0.291 C 
HETATM    2  C   UNL     1     -24.670  -3.239 -12.227  1.00  0.00     0.204 C 
HETATM    3  C   UNL     1     -23.969  -4.455 -12.852  1.00  0.00     0.183 C 
HETATM    4  C   UNL     1     -22.440  -4.343 -12.770  1.00  0.00     0.180 C 
HETATM    5  C   UNL     1     -22.029  -4.075 -11.315  1.00  0.00     0.179 C 
HETATM    6  O   UNL     1     -22.673  -2.867 -10.853  1.00  0.00    -0.348 OA
ENDROOT
BRANCH   1   7
HETATM    7  O   UNL     1     -24.504  -3.986  -9.856  1.00  0.00    -0.359 OA
BRANCH   7   8
HETATM    8  C   UNL     1     -24.005  -3.725  -8.543  1.00  0.00     0.171 C 
BRANCH   8   9
HETATM    9  C   UNL     1     -22.954  -4.760  -8.144  1.00  0.00     0.026 C 
BRANCH   9  10
HETATM   10  C   UNL     1     -21.848  -4.216  -7.238  1.00  0.00     0.002 C 
BRANCH  10  11
HETATM   11  C   UNL     1     -20.495  -4.852  -7.541  1.00  0.00     0.000 C 
BRANCH  11  12
HETATM   12  C   UNL     1     -20.072  -5.832  -6.455  1.00  0.00     0.000 C 
BRANCH  12  13
HETATM   13  C   UNL     1     -20.962  -5.637  -5.233  1.00  0.00     0.000 C 
BRANCH  13  14
HETATM   14  C   UNL     1     -21.614  -6.945  -4.808  1.00  0.00     0.000 C 
BRANCH  14  15
HETATM   15  C   UNL     1     -21.262  -7.248  -3.356  1.00  0.00     0.000 C 
BRANCH  15  16
HETATM   16  C   UNL     1     -21.581  -6.060  -2.461  1.00  0.00     0.000 C 
BRANCH  16  17
HETATM   17  C   UNL     1     -22.375  -6.513  -1.239  1.00  0.00    -0.000 C 
BRANCH  17  18
HETATM   18  C   UNL     1     -21.822  -7.822  -0.679  1.00  0.00    -0.005 C 
HETATM   19  C   UNL     1     -22.860  -8.529   0.172  1.00  0.00     0.005 C 
ENDBRANCH  17  18
ENDBRANCH  16  17
ENDBRANCH  15  16
ENDBRANCH  14  15
ENDBRANCH  13  14
ENDBRANCH  12  13
ENDBRANCH  11  12
ENDBRANCH  10  11
ENDBRANCH   9  10
ENDBRANCH   8   9
ENDBRANCH   7   8
ENDBRANCH   1   7
BRANCH   2  20
HETATM   20  O   UNL     1     -24.506  -2.065 -13.046  1.00  0.00    -0.388 OA
HETATM   21  H   UNL     1     -25.389  -1.712 -13.235  1.00  0.00     0.210 HD
ENDBRANCH   2  20
BRANCH   3  22
HETATM   22  O   UNL     1     -24.370  -4.599 -14.221  1.00  0.00    -0.390 OA
HETATM   23  H   UNL     1     -24.665  -5.535 -14.298  1.00  0.00     0.210 HD
ENDBRANCH   3  22
BRANCH   5  24
HETATM   24  C   UNL     1     -20.506  -3.898 -11.182  1.00  0.00     0.198 C 
BRANCH  24  25
HETATM   25  O   UNL     1     -20.128  -2.571 -11.535  1.00  0.00    -0.398 OA
HETATM   26  H   UNL     1     -20.666  -1.978 -10.977  1.00  0.00     0.209 HD
ENDBRANCH  24  25
ENDBRANCH   5  24
BRANCH   4  27
HETATM   27  O   UNL     1     -22.003  -3.291 -13.651  1.00  0.00    -0.390 OA
HETATM   28  H   UNL     1     -22.268  -3.510 -14.566  1.00  0.00     0.210 HD
ENDBRANCH   4  27
TORSDOF 17
ENDMDL
MODEL 5
REMARK VINA RESULT:      -6.4      1.449      3.332
REMARK  17 active torsions:
REMARK  status: ('A' for Active; 'I' for Inactive)
REMARK    1  A    between atoms: C_2  and  C_3 
REMARK    2  A    between atoms: C_3  and  C_4 
REMARK    3  A    between atoms: C_4  and  C_5 
REMARK    4  A    between atoms: C_5  and  C_6 
REMARK    5  A    between atoms: C_6  and  C_7 
REMARK    6  A    between atoms: C_7  and  C_8 
REMARK    7  A    between atoms: C_8  and  C_9 
REMARK    8  A    between atoms: C_9  and  C_10 
REMARK    9  A    between atoms: C_10  and  C_11 
REMARK   10  A    between atoms: C_11  and  C_12 
REMARK   11  A    between atoms: C_12  and  O_13 
REMARK   12  A    between atoms: O_13  and  C_14 
REMARK   13  A    between atoms: C_15  and  O_24 
REMARK   14  A    between atoms: C_16  and  O_23 
REMARK   15  A    between atoms: C_17  and  O_22 
REMARK   16  A    between atoms: C_18  and  C_20 
REMARK   17  A    between atoms: C_20  and  O_21 
ROOT
HETATM    1  C   UNL     1     -24.541  -3.594 -11.560  1.00  0.00     0.291 C 
HETATM    2  C   UNL     1     -23.245  -4.396 -11.832  1.00  0.00     0.204 C 
HETATM    3  C   UNL     1     -22.171  -3.464 -12.414  1.00  0.00     0.183 C 
HETATM    4  C   UNL     1     -22.692  -2.662 -13.615  1.00  0.00     0.180 C 
HETATM    5  C   UNL     1     -23.986  -1.937 -13.216  1.00  0.00     0.179 C 
HETATM    6  O   UNL     1     -24.957  -2.909 -12.767  1.00  0.00    -0.348 OA
ENDROOT
BRANCH   1   7
HETATM    7  O   UNL     1     -24.426  -2.674 -10.473  1.00  0.00    -0.359 OA
BRANCH   7   8
HETATM    8  C   UNL     1     -24.705  -3.276  -9.207  1.00  0.00     0.171 C 
BRANCH   8   9
HETATM    9  C   UNL     1     -23.578  -4.222  -8.794  1.00  0.00     0.026 C 
BRANCH   9  10
HETATM   10  C   UNL     1     -22.316  -3.516  -8.297  1.00  0.00     0.002 C 
BRANCH  10  11
HETATM   11  C   UNL     1     -21.062  -4.015  -9.009  1.00  0.00     0.000 C 
BRANCH  11  12
HETATM   12  C   UNL     1     -20.399  -5.161  -8.256  1.00  0.00     0.000 C 
BRANCH  12  13
HETATM   13  C   UNL     1     -19.528  -4.589  -7.144  1.00  0.00     0.000 C 
BRANCH  13  14
HETATM   14  C   UNL     1     -20.115  -4.887  -5.772  1.00  0.00     0.000 C 
BRANCH  14  15
HETATM   15  C   UNL     1     -21.018  -6.112  -5.854  1.00  0.00     0.000 C 
BRANCH  15  16
HETATM   16  C   UNL     1     -20.821  -7.014  -4.645  1.00  0.00     0.000 C 
BRANCH  16  17
HETATM   17  C   UNL     1     -22.014  -6.903  -3.699  1.00  0.00    -0.000 C 
BRANCH  17  18
HETATM   18  C   UNL     1     -21.646  -6.121  -2.440  1.00  0.00    -0.005 C 
HETATM   19  C   UNL     1     -22.276  -6.745  -1.209  1.00  0.00     0.005 C 
ENDBRANCH  17  18
ENDBRANCH  16  17
ENDBRANCH  15  16
ENDBRANCH  14  15
ENDBRANCH  13  14
ENDBRANCH  12  13
ENDBRANCH  11  12
ENDBRANCH  10  11
ENDBRANCH   9  10
ENDBRANCH   8   9
ENDBRANCH   7   8
ENDBRANCH   1   7
BRANCH   2  20
HETATM   20  O   UNL     1     -23.512  -5.501 -12.717  1.00  0.00    -0.388 OA
HETATM   21  H   UNL     1     -23.447  -6.317 -12.197  1.00  0.00     0.210 HD
ENDBRANCH   2  20
BRANCH   3  22
HETATM   22  O   UNL     1     -21.023  -4.228 -12.806  1.00  0.00    -0.390 OA
HETATM   23  H   UNL     1     -20.266  -3.604 -12.724  1.00  0.00     0.210 HD
ENDBRANCH   3  22
BRANCH   5  24
HETATM   24  C   UNL     1     -24.586  -1.160 -14.402  1.00  0.00     0.198 C 
BRANCH  24  25
HETATM   25  O   UNL     1     -23.645  -1.076 -15.468  1.00  0.00    -0.398 OA
HETATM   26  H   UNL     1     -24.029  -0.460 -16.121  1.00  0.00     0.209 HD
ENDBRANCH  24  25
ENDBRANCH   5  24
BRANCH   4  27
HETATM   27  O   UNL     1     -22.903  -3.562 -14.720  1.00  0.00    -0.390 OA
HETATM   28  H   UNL     1     -23.593  -4.209 -14.476  1.00  0.00     0.210 HD
ENDBRANCH   4  27
TORSDOF 17
ENDMDL
MODEL 6
REMARK VINA RESULT:      -6.3      1.527      2.646
REMARK  17 active torsions:
REMARK  status: ('A' for Active; 'I' for Inactive)
REMARK    1  A    between atoms: C_2  and  C_3 
REMARK    2  A    between atoms: C_3  and  C_4 
REMARK    3  A    between atoms: C_4  and  C_5 
REMARK    4  A    between atoms: C_5  and  C_6 
REMARK    5  A    between atoms: C_6  and  C_7 
REMARK    6  A    between atoms: C_7  and  C_8 
REMARK    7  A    between atoms: C_8  and  C_9 
REMARK    8  A    between atoms: C_9  and  C_10 
REMARK    9  A    between atoms: C_10  and  C_11 
REMARK   10  A    between atoms: C_11  and  C_12 
REMARK   11  A    between atoms: C_12  and  O_13 
REMARK   12  A    between atoms: O_13  and  C_14 
REMARK   13  A    between atoms: C_15  and  O_24 
REMARK   14  A    between atoms: C_16  and  O_23 
REMARK   15  A    between atoms: C_17  and  O_22 
REMARK   16  A    between atoms: C_18  and  C_20 
REMARK   17  A    between atoms: C_20  and  O_21 
ROOT
HETATM    1  C   UNL     1     -22.191  -3.719  -8.424  1.00  0.00     0.291 C 
HETATM    2  C   UNL     1     -23.686  -4.100  -8.552  1.00  0.00     0.204 C 
HETATM    3  C   UNL     1     -23.876  -5.066  -9.731  1.00  0.00     0.183 C 
HETATM    4  C   UNL     1     -23.239  -4.532 -11.022  1.00  0.00     0.180 C 
HETATM    5  C   UNL     1     -21.770  -4.174 -10.750  1.00  0.00     0.179 C 
HETATM    6  O   UNL     1     -21.707  -3.198  -9.686  1.00  0.00    -0.348 OA
ENDROOT
BRANCH   1   7
HETATM    7  O   UNL     1     -21.364  -4.794  -7.973  1.00  0.00    -0.359 OA
BRANCH   7   8
HETATM    8  C   UNL     1     -21.174  -4.789  -6.556  1.00  0.00     0.171 C 
BRANCH   8   9
HETATM    9  C   UNL     1     -21.079  -6.215  -6.014  1.00  0.00     0.026 C 
BRANCH   9  10
HETATM   10  C   UNL     1     -22.128  -6.556  -4.955  1.00  0.00     0.002 C 
BRANCH  10  11
HETATM   11  C   UNL     1     -21.632  -7.618  -3.979  1.00  0.00     0.000 C 
BRANCH  11  12
HETATM   12  C   UNL     1     -21.203  -7.012  -2.649  1.00  0.00     0.000 C 
BRANCH  12  13
HETATM   13  C   UNL     1     -20.364  -8.029  -1.885  1.00  0.00     0.000 C 
BRANCH  13  14
HETATM   14  C   UNL     1     -20.940  -8.293  -0.501  1.00  0.00     0.000 C 
BRANCH  14  15
HETATM   15  C   UNL     1     -22.164  -7.414  -0.277  1.00  0.00     0.000 C 
BRANCH  15  16
HETATM   16  C   UNL     1     -23.348  -8.242   0.198  1.00  0.00     0.000 C 
BRANCH  16  17
HETATM   17  C   UNL     1     -22.936  -9.700   0.387  1.00  0.00    -0.000 C 
BRANCH  17  18
HETATM   18  C   UNL     1     -23.980 -10.646  -0.203  1.00  0.00    -0.005 C 
HETATM   19  C   UNL     1     -23.484 -11.259  -1.500  1.00  0.00     0.005 C 
ENDBRANCH  17  18
ENDBRANCH  16  17
ENDBRANCH  15  16
ENDBRANCH  14  15
ENDBRANCH  13  14
ENDBRANCH  12  13
ENDBRANCH  11  12
ENDBRANCH  10  11
ENDBRANCH   9  10
ENDBRANCH   8   9
ENDBRANCH   7   8
ENDBRANCH   1   7
BRANCH   2  20
HETATM   20  O   UNL     1     -24.496  -2.919  -8.708  1.00  0.00    -0.388 OA
HETATM   21  H   UNL     1     -24.019  -2.310  -9.294  1.00  0.00     0.210 HD
ENDBRANCH   2  20
BRANCH   3  22
HETATM   22  O   UNL     1     -25.274  -5.303  -9.946  1.00  0.00    -0.390 OA
HETATM   23  H   UNL     1     -25.720  -4.901  -9.166  1.00  0.00     0.210 HD
ENDBRANCH   3  22
BRANCH   5  24
HETATM   24  C   UNL     1     -21.094  -3.580 -11.999  1.00  0.00     0.198 C 
BRANCH  24  25
HETATM   25  O   UNL     1     -21.907  -3.787 -13.150  1.00  0.00    -0.398 OA
HETATM   26  H   UNL     1     -22.066  -2.902 -13.532  1.00  0.00     0.209 HD
ENDBRANCH  24  25
ENDBRANCH   5  24
BRANCH   4  27
HETATM   27  O   UNL     1     -23.992  -3.391 -11.476  1.00  0.00    -0.390 OA
HETATM   28  H   UNL     1     -24.939  -3.627 -11.507  1.00  0.00     0.210 HD
ENDBRANCH   4  27
TORSDOF 17
ENDMDL
MODEL 7
REMARK VINA RESULT:      -6.2      5.083      9.766
REMARK  17 active torsions:
REMARK  status: ('A' for Active; 'I' for Inactive)
REMARK    1  A    between atoms: C_2  and  C_3 
REMARK    2  A    between atoms: C_3  and  C_4 
REMARK    3  A    between atoms: C_4  and  C_5 
REMARK    4  A    between atoms: C_5  and  C_6 
REMARK    5  A    between atoms: C_6  and  C_7 
REMARK    6  A    between atoms: C_7  and  C_8 
REMARK    7  A    between atoms: C_8  and  C_9 
REMARK    8  A    between atoms: C_9  and  C_10 
REMARK    9  A    between atoms: C_10  and  C_11 
REMARK   10  A    between atoms: C_11  and  C_12 
REMARK   11  A    between atoms: C_12  and  O_13 
REMARK   12  A    between atoms: O_13  and  C_14 
REMARK   13  A    between atoms: C_15  and  O_24 
REMARK   14  A    between atoms: C_16  and  O_23 
REMARK   15  A    between atoms: C_17  and  O_22 
REMARK   16  A    between atoms: C_18  and  C_20 
REMARK   17  A    between atoms: C_20  and  O_21 
ROOT
HETATM    1  C   UNL     1     -20.004  -9.124  -2.967  1.00  0.00     0.291 C 
HETATM    2  C   UNL     1     -20.242 -10.502  -2.303  1.00  0.00     0.204 C 
HETATM    3  C   UNL     1     -21.714 -10.627  -1.881  1.00  0.00     0.183 C 
HETATM    4  C   UNL     1     -22.180  -9.425  -1.048  1.00  0.00     0.180 C 
HETATM    5  C   UNL     1     -21.865  -8.128  -1.810  1.00  0.00     0.179 C 
HETATM    6  O   UNL     1     -20.447  -8.068  -2.080  1.00  0.00    -0.348 OA
ENDROOT
BRANCH   1   7
HETATM    7  O   UNL     1     -20.619  -8.995  -4.251  1.00  0.00    -0.359 OA
BRANCH   7   8
HETATM    8  C   UNL     1     -19.899  -8.121  -5.123  1.00  0.00     0.171 C 
BRANCH   8   9
HETATM    9  C   UNL     1     -20.678  -6.827  -5.362  1.00  0.00     0.026 C 
BRANCH   9  10
HETATM   10  C   UNL     1     -20.111  -5.950  -6.478  1.00  0.00     0.002 C 
BRANCH  10  11
HETATM   11  C   UNL     1     -20.451  -4.477  -6.278  1.00  0.00     0.000 C 
BRANCH  11  12
HETATM   12  C   UNL     1     -20.450  -3.709  -7.594  1.00  0.00     0.000 C 
BRANCH  12  13
HETATM   13  C   UNL     1     -21.160  -4.540  -8.657  1.00  0.00     0.000 C 
BRANCH  13  14
HETATM   14  C   UNL     1     -20.289  -4.721  -9.891  1.00  0.00     0.000 C 
BRANCH  14  15
HETATM   15  C   UNL     1     -20.559  -3.594 -10.881  1.00  0.00     0.000 C 
BRANCH  15  16
HETATM   16  C   UNL     1     -21.678  -3.970 -11.840  1.00  0.00     0.000 C 
BRANCH  16  17
HETATM   17  C   UNL     1     -22.569  -2.761 -12.119  1.00  0.00    -0.000 C 
BRANCH  17  18
HETATM   18  C   UNL     1     -24.038  -3.094 -11.872  1.00  0.00    -0.005 C 
HETATM   19  C   UNL     1     -24.206  -3.887 -10.589  1.00  0.00     0.005 C 
ENDBRANCH  17  18
ENDBRANCH  16  17
ENDBRANCH  15  16
ENDBRANCH  14  15
ENDBRANCH  13  14
ENDBRANCH  12  13
ENDBRANCH  11  12
ENDBRANCH  10  11
ENDBRANCH   9  10
ENDBRANCH   8   9
ENDBRANCH   7   8
ENDBRANCH   1   7
BRANCH   2  20
HETATM   20  O   UNL     1     -19.360 -10.678  -1.177  1.00  0.00    -0.388 OA
HETATM   21  H   UNL     1     -18.858 -11.495  -1.322  1.00  0.00     0.210 HD
ENDBRANCH   2  20
BRANCH   3  22
HETATM   22  O   UNL     1     -21.906 -11.835  -1.134  1.00  0.00    -0.390 OA
HETATM   23  H   UNL     1     -22.518 -12.376  -1.684  1.00  0.00     0.210 HD
ENDBRANCH   3  22
BRANCH   5  24
HETATM   24  C   UNL     1     -22.261  -6.885  -0.994  1.00  0.00     0.198 C 
BRANCH  24  25
HETATM   25  O   UNL     1     -22.436  -5.762  -1.853  1.00  0.00    -0.398 OA
HETATM   26  H   UNL     1     -23.353  -5.816  -2.187  1.00  0.00     0.209 HD
ENDBRANCH  24  25
ENDBRANCH   5  24
BRANCH   4  27
HETATM   27  O   UNL     1     -21.522  -9.464   0.233  1.00  0.00    -0.390 OA
HETATM   28  H   UNL     1     -20.852  -8.755   0.270  1.00  0.00     0.210 HD
ENDBRANCH   4  27
TORSDOF 17
ENDMDL
MODEL 8
REMARK VINA RESULT:      -5.7      2.547      4.562
REMARK  17 active torsions:
REMARK  status: ('A' for Active; 'I' for Inactive)
REMARK    1  A    between atoms: C_2  and  C_3 
REMARK    2  A    between atoms: C_3  and  C_4 
REMARK    3  A    between atoms: C_4  and  C_5 
REMARK    4  A    between atoms: C_5  and  C_6 
REMARK    5  A    between atoms: C_6  and  C_7 
REMARK    6  A    between atoms: C_7  and  C_8 
REMARK    7  A    between atoms: C_8  and  C_9 
REMARK    8  A    between atoms: C_9  and  C_10 
REMARK    9  A    between atoms: C_10  and  C_11 
REMARK   10  A    between atoms: C_11  and  C_12 
REMARK   11  A    between atoms: C_12  and  O_13 
REMARK   12  A    between atoms: O_13  and  C_14 
REMARK   13  A    between atoms: C_15  and  O_24 
REMARK   14  A    between atoms: C_16  and  O_23 
REMARK   15  A    between atoms: C_17  and  O_22 
REMARK   16  A    between atoms: C_18  and  C_20 
REMARK   17  A    between atoms: C_20  and  O_21 
ROOT
HETATM    1  C   UNL     1     -22.832  -4.285  -7.237  1.00  0.00     0.291 C 
HETATM    2  C   UNL     1     -23.708  -4.280  -8.513  1.00  0.00     0.204 C 
HETATM    3  C   UNL     1     -22.966  -4.990  -9.655  1.00  0.00     0.183 C 
HETATM    4  C   UNL     1     -21.547  -4.439  -9.851  1.00  0.00     0.180 C 
HETATM    5  C   UNL     1     -20.798  -4.481  -8.511  1.00  0.00     0.179 C 
HETATM    6  O   UNL     1     -21.534  -3.713  -7.531  1.00  0.00    -0.348 OA
ENDROOT
BRANCH   1   7
HETATM    7  O   UNL     1     -22.691  -5.578  -6.646  1.00  0.00    -0.359 OA
BRANCH   7   8
HETATM    8  C   UNL     1     -21.610  -5.644  -5.712  1.00  0.00     0.171 C 
BRANCH   8   9
HETATM    9  C   UNL     1     -21.971  -6.536  -4.524  1.00  0.00     0.026 C 
BRANCH   9  10
HETATM   10  C   UNL     1     -21.538  -5.980  -3.167  1.00  0.00     0.002 C 
BRANCH  10  11
HETATM   11  C   UNL     1     -21.296  -7.086  -2.146  1.00  0.00     0.000 C 
BRANCH  11  12
HETATM   12  C   UNL     1     -22.332  -7.065  -1.029  1.00  0.00     0.000 C 
BRANCH  12  13
HETATM   13  C   UNL     1     -22.111  -8.270  -0.121  1.00  0.00     0.000 C 
BRANCH  13  14
HETATM   14  C   UNL     1     -22.359  -9.575  -0.863  1.00  0.00     0.000 C 
BRANCH  14  15
HETATM   15  C   UNL     1     -23.364 -10.422  -0.093  1.00  0.00     0.000 C 
BRANCH  15  16
HETATM   16  C   UNL     1     -24.054 -11.418  -1.013  1.00  0.00     0.000 C 
BRANCH  16  17
HETATM   17  C   UNL     1     -23.806 -12.846  -0.534  1.00  0.00    -0.000 C 
BRANCH  17  18
HETATM   18  C   UNL     1     -22.803 -12.872   0.617  1.00  0.00    -0.005 C 
HETATM   19  C   UNL     1     -23.389 -13.570   1.830  1.00  0.00     0.005 C 
ENDBRANCH  17  18
ENDBRANCH  16  17
ENDBRANCH  15  16
ENDBRANCH  14  15
ENDBRANCH  13  14
ENDBRANCH  12  13
ENDBRANCH  11  12
ENDBRANCH  10  11
ENDBRANCH   9  10
ENDBRANCH   8   9
ENDBRANCH   7   8
ENDBRANCH   1   7
BRANCH   2  20
HETATM   20  O   UNL     1     -24.060  -2.931  -8.878  1.00  0.00    -0.388 OA
HETATM   21  H   UNL     1     -24.584  -2.974  -9.693  1.00  0.00     0.210 HD
ENDBRANCH   2  20
BRANCH   3  22
HETATM   22  O   UNL     1     -23.708  -4.857 -10.875  1.00  0.00    -0.390 OA
HETATM   23  H   UNL     1     -23.041  -4.977 -11.589  1.00  0.00     0.210 HD
ENDBRANCH   3  22
BRANCH   5  24
HETATM   24  C   UNL     1     -19.384  -3.887  -8.636  1.00  0.00     0.198 C 
BRANCH  24  25
HETATM   25  O   UNL     1     -18.592  -4.247  -7.508  1.00  0.00    -0.398 OA
HETATM   26  H   UNL     1     -19.207  -4.645  -6.861  1.00  0.00     0.209 HD
ENDBRANCH  24  25
ENDBRANCH   5  24
BRANCH   4  27
HETATM   27  O   UNL     1     -21.636  -3.099 -10.372  1.00  0.00    -0.390 OA
HETATM   28  H   UNL     1     -22.543  -2.944 -10.698  1.00  0.00     0.210 HD
ENDBRANCH   4  27
TORSDOF 17
ENDMDL
MODEL 9
REMARK VINA RESULT:      -5.7      5.996     10.787
REMARK  17 active torsions:
REMARK  status: ('A' for Active; 'I' for Inactive)
REMARK    1  A    between atoms: C_2  and  C_3 
REMARK    2  A    between atoms: C_3  and  C_4 
REMARK    3  A    between atoms: C_4  and  C_5 
REMARK    4  A    between atoms: C_5  and  C_6 
REMARK    5  A    between atoms: C_6  and  C_7 
REMARK    6  A    between atoms: C_7  and  C_8 
REMARK    7  A    between atoms: C_8  and  C_9 
REMARK    8  A    between atoms: C_9  and  C_10 
REMARK    9  A    between atoms: C_10  and  C_11 
REMARK   10  A    between atoms: C_11  and  C_12 
REMARK   11  A    between atoms: C_12  and  O_13 
REMARK   12  A    between atoms: O_13  and  C_14 
REMARK   13  A    between atoms: C_15  and  O_24 
REMARK   14  A    between atoms: C_16  and  O_23 
REMARK   15  A    between atoms: C_17  and  O_22 
REMARK   16  A    between atoms: C_18  and  C_20 
REMARK   17  A    between atoms: C_20  and  O_21 
ROOT
HETATM    1  C   UNL     1     -21.877 -10.390  -2.343  1.00  0.00     0.291 C 
HETATM    2  C   UNL     1     -22.334  -9.546  -1.129  1.00  0.00     0.204 C 
HETATM    3  C   UNL     1     -21.134  -9.259  -0.214  1.00  0.00     0.183 C 
HETATM    4  C   UNL     1     -20.365 -10.537   0.148  1.00  0.00     0.180 C 
HETATM    5  C   UNL     1     -19.992 -11.286  -1.141  1.00  0.00     0.179 C 
HETATM    6  O   UNL     1     -21.197 -11.584  -1.883  1.00  0.00    -0.348 OA
ENDROOT
BRANCH   1   7
HETATM    7  O   UNL     1     -21.058  -9.668  -3.265  1.00  0.00    -0.359 OA
BRANCH   7   8
HETATM    8  C   UNL     1     -21.569  -8.366  -3.557  1.00  0.00     0.171 C 
BRANCH   8   9
HETATM    9  C   UNL     1     -21.269  -7.975  -5.004  1.00  0.00     0.026 C 
BRANCH   9  10
HETATM   10  C   UNL     1     -21.079  -6.474  -5.223  1.00  0.00     0.002 C 
BRANCH  10  11
HETATM   11  C   UNL     1     -20.302  -6.175  -6.501  1.00  0.00     0.000 C 
BRANCH  11  12
HETATM   12  C   UNL     1     -19.682  -4.784  -6.477  1.00  0.00     0.000 C 
BRANCH  12  13
HETATM   13  C   UNL     1     -20.033  -4.058  -7.771  1.00  0.00     0.000 C 
BRANCH  13  14
HETATM   14  C   UNL     1     -21.521  -3.751  -7.847  1.00  0.00     0.000 C 
BRANCH  14  15
HETATM   15  C   UNL     1     -22.069  -4.190  -9.200  1.00  0.00     0.000 C 
BRANCH  15  16
HETATM   16  C   UNL     1     -20.945  -4.359 -10.211  1.00  0.00     0.000 C 
BRANCH  16  17
HETATM   17  C   UNL     1     -20.963  -3.217 -11.224  1.00  0.00    -0.000 C 
BRANCH  17  18
HETATM   18  C   UNL     1     -22.394  -2.815 -11.572  1.00  0.00    -0.005 C 
HETATM   19  C   UNL     1     -22.685  -3.061 -13.041  1.00  0.00     0.005 C 
ENDBRANCH  17  18
ENDBRANCH  16  17
ENDBRANCH  15  16
ENDBRANCH  14  15
ENDBRANCH  13  14
ENDBRANCH  12  13
ENDBRANCH  11  12
ENDBRANCH  10  11
ENDBRANCH   9  10
ENDBRANCH   8   9
ENDBRANCH   7   8
ENDBRANCH   1   7
BRANCH   2  20
HETATM   20  O   UNL     1     -23.386 -10.222  -0.412  1.00  0.00    -0.388 OA
HETATM   21  H   UNL     1     -23.407  -9.862   0.488  1.00  0.00     0.210 HD
ENDBRANCH   2  20
BRANCH   3  22
HETATM   22  O   UNL     1     -21.578  -8.607   0.983  1.00  0.00    -0.390 OA
HETATM   23  H   UNL     1     -22.207  -7.916   0.675  1.00  0.00     0.210 HD
ENDBRANCH   3  22
BRANCH   5  24
HETATM   24  C   UNL     1     -19.267 -12.608  -0.835  1.00  0.00     0.198 C 
BRANCH  24  25
HETATM   25  O   UNL     1     -18.426 -12.462   0.305  1.00  0.00    -0.398 OA
HETATM   26  H   UNL     1     -18.435 -13.325   0.761  1.00  0.00     0.209 HD
ENDBRANCH  24  25
ENDBRANCH   5  24
BRANCH   4  27
HETATM   27  O   UNL     1     -21.185 -11.343   1.016  1.00  0.00    -0.390 OA
HETATM   28  H   UNL     1     -22.074 -11.434   0.620  1.00  0.00     0.210 HD
ENDBRANCH   4  27
TORSDOF 17
ENDMDL
