MODEL 1
REMARK VINA RESULT:      -6.6      0.000      0.000
REMARK  21 active torsions:
REMARK  status: ('A' for Active; 'I' for Inactive)
REMARK    1  A    between atoms: C_2  and  C_3 
REMARK    2  A    between atoms: C_3  and  C_4 
REMARK    3  A    between atoms: C_4  and  C_5 
REMARK    4  A    between atoms: C_5  and  C_6 
REMARK    5  A    between atoms: C_6  and  C_7 
REMARK    6  A    between atoms: C_7  and  C_8 
REMARK    7  A    between atoms: C_8  and  C_9 
REMARK    8  A    between atoms: C_10  and  C_11 
REMARK    9  A    between atoms: C_11  and  C_12 
REMARK   10  A    between atoms: C_12  and  C_13 
REMARK   11  A    between atoms: C_13  and  C_14 
REMARK   12  A    between atoms: C_14  and  C_15 
REMARK   13  A    between atoms: C_15  and  C_16 
REMARK   14  A    between atoms: C_16  and  C_17 
REMARK   15  A    between atoms: C_17  and  C_18 
REMARK       I    between atoms: C_18  and  N_20 
REMARK   16  A    between atoms: N_20  and  C_21 
REMARK   17  A    between atoms: C_21  and  C_22 
REMARK   18  A    between atoms: C_22  and  C_23 
REMARK   19  A    between atoms: C_23  and  N_24 
REMARK   20  A    between atoms: N_24  and  C_27 
REMARK   21  A    between atoms: C_27  and  C_28 
ROOT
HETATM    1  C   UNL     1     -21.897  -7.123  -5.058  1.00  0.00     0.009 C 
ENDROOT
BRANCH   1   2
HETATM    2  C   UNL     1     -21.692  -6.996  -3.560  1.00  0.00     0.000 C 
BRANCH   2   3
HETATM    3  C   UNL     1     -20.567  -7.922  -3.111  1.00  0.00     0.000 C 
BRANCH   3   4
HETATM    4  C   UNL     1     -20.518  -8.000  -1.593  1.00  0.00     0.000 C 
BRANCH   4   5
HETATM    5  C   UNL     1     -21.799  -7.445  -0.985  1.00  0.00     0.004 C 
BRANCH   5   6
HETATM    6  C   UNL     1     -21.864  -7.779   0.499  1.00  0.00     0.027 C 
BRANCH   6   7
HETATM    7  C   UNL     1     -22.587  -9.067   0.715  1.00  0.00    -0.031 C 
HETATM    8  C   UNL     1     -23.504  -9.530  -0.145  1.00  0.00    -0.031 C 
BRANCH   8   9
HETATM    9  C   UNL     1     -24.225 -10.816   0.071  1.00  0.00     0.027 C 
BRANCH   9  10
HETATM   10  C   UNL     1     -23.376 -11.987  -0.404  1.00  0.00     0.004 C 
BRANCH  10  11
HETATM   11  C   UNL     1     -23.102 -12.937   0.753  1.00  0.00     0.000 C 
BRANCH  11  12
HETATM   12  C   UNL     1     -21.611 -12.998   1.044  1.00  0.00     0.000 C 
BRANCH  12  13
HETATM   13  C   UNL     1     -20.814 -12.575  -0.181  1.00  0.00     0.000 C 
BRANCH  13  14
HETATM   14  C   UNL     1     -19.829 -11.473   0.183  1.00  0.00    -0.000 C 
BRANCH  14  15
HETATM   15  C   UNL     1     -18.412 -12.024   0.271  1.00  0.00    -0.005 C 
HETATM   16  C   UNL     1     -18.248 -13.228  -0.638  1.00  0.00     0.005 C 
ENDBRANCH  14  15
ENDBRANCH  13  14
ENDBRANCH  12  13
ENDBRANCH  11  12
ENDBRANCH  10  11
ENDBRANCH   9  10
ENDBRANCH   8   9
ENDBRANCH   6   7
ENDBRANCH   5   6
ENDBRANCH   4   5
ENDBRANCH   3   4
ENDBRANCH   2   3
ENDBRANCH   1   2
BRANCH   1  17
HETATM   17  C   UNL     1     -20.574  -7.169  -5.814  1.00  0.00     0.103 C 
BRANCH  17  18
HETATM   18  C   UNL     1     -20.341  -5.839  -6.463  1.00  0.00     0.217 C 
HETATM   19  O   UNL     1     -20.094  -4.818  -5.806  1.00  0.00    -0.274 OA
HETATM   20  N   UNL     1     -20.413  -5.852  -7.835  1.00  0.00    -0.361 N 
HETATM   21  H   UNL     1     -20.591  -6.723  -8.334  1.00  0.00     0.162 HD
BRANCH  20  22
HETATM   22  C   UNL     1     -20.143  -4.641  -8.580  1.00  0.00     0.124 C 
BRANCH  22  23
HETATM   23  C   UNL     1     -21.142  -4.421  -9.704  1.00  0.00     0.048 C 
BRANCH  23  24
HETATM   24  C   UNL     1     -22.395  -3.647  -9.258  1.00  0.00     0.238 C 
BRANCH  24  25
HETATM   25  N   UNL     1     -23.487  -3.732 -10.317  1.00  0.00    -0.065 N 
HETATM   26  C   UNL     1     -23.587  -5.142 -10.884  1.00  0.00     0.272 C 
HETATM   27  C   UNL     1     -24.819  -3.243  -9.756  1.00  0.00     0.272 C 
BRANCH  25  28
HETATM   28  C   UNL     1     -23.119  -2.753 -11.546  1.00  0.00     0.349 C 
BRANCH  28  29
HETATM   29  C   UNL     1     -23.733  -2.896 -12.978  1.00  0.00     0.199 C 
HETATM   30  O   UNL     1     -25.000  -2.923 -13.055  1.00  0.00    -0.647 OA
HETATM   31  O   UNL     1     -22.885  -2.907 -13.919  1.00  0.00    -0.647 OA
ENDBRANCH  28  29
ENDBRANCH  25  28
ENDBRANCH  24  25
ENDBRANCH  23  24
ENDBRANCH  22  23
ENDBRANCH  20  22
ENDBRANCH  17  18
ENDBRANCH   1  17
TORSDOF 21
ENDMDL
MODEL 2
REMARK VINA RESULT:      -6.4      1.956      2.536
REMARK  21 active torsions:
REMARK  status: ('A' for Active; 'I' for Inactive)
REMARK    1  A    between atoms: C_2  and  C_3 
REMARK    2  A    between atoms: C_3  and  C_4 
REMARK    3  A    between atoms: C_4  and  C_5 
REMARK    4  A    between atoms: C_5  and  C_6 
REMARK    5  A    between atoms: C_6  and  C_7 
REMARK    6  A    between atoms: C_7  and  C_8 
REMARK    7  A    between atoms: C_8  and  C_9 
REMARK    8  A    between atoms: C_10  and  C_11 
REMARK    9  A    between atoms: C_11  and  C_12 
REMARK   10  A    between atoms: C_12  and  C_13 
REMARK   11  A    between atoms: C_13  and  C_14 
REMARK   12  A    between atoms: C_14  and  C_15 
REMARK   13  A    between atoms: C_15  and  C_16 
REMARK   14  A    between atoms: C_16  and  C_17 
REMARK   15  A    between atoms: C_17  and  C_18 
REMARK       I    between atoms: C_18  and  N_20 
REMARK   16  A    between atoms: N_20  and  C_21 
REMARK   17  A    between atoms: C_21  and  C_22 
REMARK   18  A    between atoms: C_22  and  C_23 
REMARK   19  A    between atoms: C_23  and  N_24 
REMARK   20  A    between atoms: N_24  and  C_27 
REMARK   21  A    between atoms: C_27  and  C_28 
ROOT
HETATM    1  C   UNL     1     -21.855  -7.044  -3.756  1.00  0.00     0.009 C 
ENDROOT
BRANCH   1   2
HETATM    2  C   UNL     1     -21.443  -6.699  -2.337  1.00  0.00     0.000 C 
BRANCH   2   3
HETATM    3  C   UNL     1     -20.538  -7.793  -1.782  1.00  0.00     0.000 C 
BRANCH   3   4
HETATM    4  C   UNL     1     -21.076  -8.304  -0.454  1.00  0.00     0.000 C 
BRANCH   4   5
HETATM    5  C   UNL     1     -22.252  -7.455   0.012  1.00  0.00     0.004 C 
BRANCH   5   6
HETATM    6  C   UNL     1     -23.467  -8.336   0.268  1.00  0.00     0.027 C 
BRANCH   6   7
HETATM    7  C   UNL     1     -23.156  -9.762  -0.045  1.00  0.00    -0.031 C 
HETATM    8  C   UNL     1     -24.093 -10.718  -0.049  1.00  0.00    -0.031 C 
BRANCH   8   9
HETATM    9  C   UNL     1     -23.781 -12.142  -0.361  1.00  0.00     0.027 C 
BRANCH   9  10
HETATM   10  C   UNL     1     -22.304 -12.426  -0.125  1.00  0.00     0.004 C 
BRANCH  10  11
HETATM   11  C   UNL     1     -21.647 -12.887  -1.418  1.00  0.00     0.000 C 
BRANCH  11  12
HETATM   12  C   UNL     1     -20.552 -11.915  -1.829  1.00  0.00     0.000 C 
BRANCH  12  13
HETATM   13  C   UNL     1     -20.967 -11.146  -3.075  1.00  0.00     0.000 C 
BRANCH  13  14
HETATM   14  C   UNL     1     -22.155 -11.823  -3.743  1.00  0.00    -0.000 C 
BRANCH  14  15
HETATM   15  C   UNL     1     -21.793 -12.286  -5.148  1.00  0.00    -0.005 C 
HETATM   16  C   UNL     1     -23.016 -12.834  -5.862  1.00  0.00     0.005 C 
ENDBRANCH  14  15
ENDBRANCH  13  14
ENDBRANCH  12  13
ENDBRANCH  11  12
ENDBRANCH  10  11
ENDBRANCH   9  10
ENDBRANCH   8   9
ENDBRANCH   6   7
ENDBRANCH   5   6
ENDBRANCH   4   5
ENDBRANCH   3   4
ENDBRANCH   2   3
ENDBRANCH   1   2
BRANCH   1  17
HETATM   17  C   UNL     1     -20.981  -6.344  -4.791  1.00  0.00     0.103 C 
BRANCH  17  18
HETATM   18  C   UNL     1     -21.866  -5.660  -5.788  1.00  0.00     0.217 C 
HETATM   19  O   UNL     1     -23.092  -5.575  -5.633  1.00  0.00    -0.274 OA
HETATM   20  N   UNL     1     -21.206  -5.132  -6.871  1.00  0.00    -0.361 N 
HETATM   21  H   UNL     1     -20.191  -5.202  -6.941  1.00  0.00     0.162 HD
BRANCH  20  22
HETATM   22  C   UNL     1     -21.944  -4.390  -7.871  1.00  0.00     0.124 C 
BRANCH  22  23
HETATM   23  C   UNL     1     -21.608  -4.836  -9.284  1.00  0.00     0.048 C 
BRANCH  23  24
HETATM   24  C   UNL     1     -21.720  -3.703 -10.320  1.00  0.00     0.238 C 
BRANCH  24  25
HETATM   25  N   UNL     1     -23.102  -3.693 -10.961  1.00  0.00    -0.065 N 
HETATM   26  C   UNL     1     -23.427  -5.050 -11.573  1.00  0.00     0.272 C 
HETATM   27  C   UNL     1     -24.158  -3.249  -9.954  1.00  0.00     0.272 C 
BRANCH  25  28
HETATM   28  C   UNL     1     -23.128  -2.614 -12.161  1.00  0.00     0.349 C 
BRANCH  28  29
HETATM   29  C   UNL     1     -24.094  -2.711 -13.388  1.00  0.00     0.199 C 
HETATM   30  O   UNL     1     -23.569  -3.010 -14.505  1.00  0.00    -0.647 OA
HETATM   31  O   UNL     1     -25.319  -2.539 -13.114  1.00  0.00    -0.647 OA
ENDBRANCH  28  29
ENDBRANCH  25  28
ENDBRANCH  24  25
ENDBRANCH  23  24
ENDBRANCH  22  23
ENDBRANCH  20  22
ENDBRANCH  17  18
ENDBRANCH   1  17
TORSDOF 21
ENDMDL
MODEL 3
REMARK VINA RESULT:      -6.3      1.008      1.657
REMARK  21 active torsions:
REMARK  status: ('A' for Active; 'I' for Inactive)
REMARK    1  A    between atoms: C_2  and  C_3 
REMARK    2  A    between atoms: C_3  and  C_4 
REMARK    3  A    between atoms: C_4  and  C_5 
REMARK    4  A    between atoms: C_5  and  C_6 
REMARK    5  A    between atoms: C_6  and  C_7 
REMARK    6  A    between atoms: C_7  and  C_8 
REMARK    7  A    between atoms: C_8  and  C_9 
REMARK    8  A    between atoms: C_10  and  C_11 
REMARK    9  A    between atoms: C_11  and  C_12 
REMARK   10  A    between atoms: C_12  and  C_13 
REMARK   11  A    between atoms: C_13  and  C_14 
REMARK   12  A    between atoms: C_14  and  C_15 
REMARK   13  A    between atoms: C_15  and  C_16 
REMARK   14  A    between atoms: C_16  and  C_17 
REMARK   15  A    between atoms: C_17  and  C_18 
REMARK       I    between atoms: C_18  and  N_20 
REMARK   16  A    between atoms: N_20  and  C_21 
REMARK   17  A    between atoms: C_21  and  C_22 
REMARK   18  A    between atoms: C_22  and  C_23 
REMARK   19  A    between atoms: C_23  and  N_24 
REMARK   20  A    between atoms: N_24  and  C_27 
REMARK   21  A    between atoms: C_27  and  C_28 
ROOT
HETATM    1  C   UNL     1     -20.909  -7.403  -3.481  1.00  0.00     0.009 C 
ENDROOT
BRANCH   1   2
HETATM    2  C   UNL     1     -21.796  -6.275  -2.989  1.00  0.00     0.000 C 
BRANCH   2   3
HETATM    3  C   UNL     1     -22.187  -6.520  -1.535  1.00  0.00     0.000 C 
BRANCH   3   4
HETATM    4  C   UNL     1     -21.536  -7.795  -1.019  1.00  0.00     0.000 C 
BRANCH   4   5
HETATM    5  C   UNL     1     -21.820  -7.979   0.466  1.00  0.00     0.004 C 
BRANCH   5   6
HETATM    6  C   UNL     1     -23.132  -8.724   0.662  1.00  0.00     0.027 C 
BRANCH   6   7
HETATM    7  C   UNL     1     -23.291  -9.787  -0.374  1.00  0.00    -0.031 C 
HETATM    8  C   UNL     1     -23.957 -10.925  -0.140  1.00  0.00    -0.031 C 
BRANCH   8   9
HETATM    9  C   UNL     1     -24.115 -11.986  -1.175  1.00  0.00     0.027 C 
BRANCH   9  10
HETATM   10  C   UNL     1     -23.120 -13.113  -0.936  1.00  0.00     0.004 C 
BRANCH  10  11
HETATM   11  C   UNL     1     -23.089 -13.478   0.542  1.00  0.00     0.000 C 
BRANCH  11  12
HETATM   12  C   UNL     1     -21.823 -12.940   1.191  1.00  0.00     0.000 C 
BRANCH  12  13
HETATM   13  C   UNL     1     -20.640 -13.080   0.244  1.00  0.00     0.000 C 
BRANCH  13  14
HETATM   14  C   UNL     1     -19.796 -11.813   0.261  1.00  0.00    -0.000 C 
BRANCH  14  15
HETATM   15  C   UNL     1     -20.037 -10.988  -0.997  1.00  0.00    -0.005 C 
HETATM   16  C   UNL     1     -19.194 -11.508  -2.147  1.00  0.00     0.005 C 
ENDBRANCH  14  15
ENDBRANCH  13  14
ENDBRANCH  12  13
ENDBRANCH  11  12
ENDBRANCH  10  11
ENDBRANCH   9  10
ENDBRANCH   8   9
ENDBRANCH   6   7
ENDBRANCH   5   6
ENDBRANCH   4   5
ENDBRANCH   3   4
ENDBRANCH   2   3
ENDBRANCH   1   2
BRANCH   1  17
HETATM   17  C   UNL     1     -21.093  -7.666  -4.972  1.00  0.00     0.103 C 
BRANCH  17  18
HETATM   18  C   UNL     1     -20.682  -6.443  -5.732  1.00  0.00     0.217 C 
HETATM   19  O   UNL     1     -20.109  -5.489  -5.189  1.00  0.00    -0.274 OA
HETATM   20  N   UNL     1     -20.982  -6.476  -7.073  1.00  0.00    -0.361 N 
HETATM   21  H   UNL     1     -21.430  -7.296  -7.481  1.00  0.00     0.162 HD
BRANCH  20  22
HETATM   22  C   UNL     1     -20.578  -5.380  -7.927  1.00  0.00     0.124 C 
BRANCH  22  23
HETATM   23  C   UNL     1     -21.766  -4.660  -8.543  1.00  0.00     0.048 C 
BRANCH  23  24
HETATM   24  C   UNL     1     -21.894  -4.890 -10.059  1.00  0.00     0.238 C 
BRANCH  24  25
HETATM   25  N   UNL     1     -22.660  -3.748 -10.716  1.00  0.00    -0.065 N 
HETATM   26  C   UNL     1     -23.573  -3.057  -9.710  1.00  0.00     0.272 C 
HETATM   27  C   UNL     1     -21.700  -2.772 -11.386  1.00  0.00     0.272 C 
BRANCH  25  28
HETATM   28  C   UNL     1     -23.605  -4.339 -11.884  1.00  0.00     0.349 C 
BRANCH  28  29
HETATM   29  C   UNL     1     -24.282  -3.450 -12.979  1.00  0.00     0.199 C 
HETATM   30  O   UNL     1     -23.743  -3.450 -14.127  1.00  0.00    -0.647 OA
HETATM   31  O   UNL     1     -25.345  -2.869 -12.607  1.00  0.00    -0.647 OA
ENDBRANCH  28  29
ENDBRANCH  25  28
ENDBRANCH  24  25
ENDBRANCH  23  24
ENDBRANCH  22  23
ENDBRANCH  20  22
ENDBRANCH  17  18
ENDBRANCH   1  17
TORSDOF 21
ENDMDL
MODEL 4
REMARK VINA RESULT:      -6.3      1.214      2.578
REMARK  21 active torsions:
REMARK  status: ('A' for Active; 'I' for Inactive)
REMARK    1  A    between atoms: C_2  and  C_3 
REMARK    2  A    between atoms: C_3  and  C_4 
REMARK    3  A    between atoms: C_4  and  C_5 
REMARK    4  A    between atoms: C_5  and  C_6 
REMARK    5  A    between atoms: C_6  and  C_7 
REMARK    6  A    between atoms: C_7  and  C_8 
REMARK    7  A    between atoms: C_8  and  C_9 
REMARK    8  A    between atoms: C_10  and  C_11 
REMARK    9  A    between atoms: C_11  and  C_12 
REMARK   10  A    between atoms: C_12  and  C_13 
REMARK   11  A    between atoms: C_13  and  C_14 
REMARK   12  A    between atoms: C_14  and  C_15 
REMARK   13  A    between atoms: C_15  and  C_16 
REMARK   14  A    between atoms: C_16  and  C_17 
REMARK   15  A    between atoms: C_17  and  C_18 
REMARK       I    between atoms: C_18  and  N_20 
REMARK   16  A    between atoms: N_20  and  C_21 
REMARK   17  A    between atoms: C_21  and  C_22 
REMARK   18  A    between atoms: C_22  and  C_23 
REMARK   19  A    between atoms: C_23  and  N_24 
REMARK   20  A    between atoms: N_24  and  C_27 
REMARK   21  A    between atoms: C_27  and  C_28 
ROOT
HETATM    1  C   UNL     1     -19.896  -8.100  -4.747  1.00  0.00     0.009 C 
ENDROOT
BRANCH   1   2
HETATM    2  C   UNL     1     -20.060  -8.700  -3.363  1.00  0.00     0.000 C 
BRANCH   2   3
HETATM    3  C   UNL     1     -20.514  -7.623  -2.383  1.00  0.00     0.000 C 
BRANCH   3   4
HETATM    4  C   UNL     1     -21.938  -7.891  -1.921  1.00  0.00     0.000 C 
BRANCH   4   5
HETATM    5  C   UNL     1     -22.302  -6.990  -0.749  1.00  0.00     0.004 C 
BRANCH   5   6
HETATM    6  C   UNL     1     -21.842  -7.618   0.559  1.00  0.00     0.027 C 
BRANCH   6   7
HETATM    7  C   UNL     1     -21.706  -9.097   0.411  1.00  0.00    -0.031 C 
HETATM    8  C   UNL     1     -20.773  -9.803   1.062  1.00  0.00    -0.031 C 
BRANCH   8   9
HETATM    9  C   UNL     1     -20.638 -11.280   0.914  1.00  0.00     0.027 C 
BRANCH   9  10
HETATM   10  C   UNL     1     -19.541 -11.614  -0.087  1.00  0.00     0.004 C 
BRANCH  10  11
HETATM   11  C   UNL     1     -20.126 -11.723  -1.488  1.00  0.00     0.000 C 
BRANCH  11  12
HETATM   12  C   UNL     1     -21.200 -12.800  -1.529  1.00  0.00     0.000 C 
BRANCH  12  13
HETATM   13  C   UNL     1     -22.205 -12.504  -2.632  1.00  0.00     0.000 C 
BRANCH  13  14
HETATM   14  C   UNL     1     -23.052 -11.294  -2.266  1.00  0.00    -0.000 C 
BRANCH  14  15
HETATM   15  C   UNL     1     -24.250 -11.709  -1.422  1.00  0.00    -0.005 C 
HETATM   16  C   UNL     1     -24.157 -11.110  -0.030  1.00  0.00     0.005 C 
ENDBRANCH  14  15
ENDBRANCH  13  14
ENDBRANCH  12  13
ENDBRANCH  11  12
ENDBRANCH  10  11
ENDBRANCH   9  10
ENDBRANCH   8   9
ENDBRANCH   6   7
ENDBRANCH   5   6
ENDBRANCH   4   5
ENDBRANCH   3   4
ENDBRANCH   2   3
ENDBRANCH   1   2
BRANCH   1  17
HETATM   17  C   UNL     1     -21.236  -7.904  -5.448  1.00  0.00     0.103 C 
BRANCH  17  18
HETATM   18  C   UNL     1     -21.360  -6.470  -5.862  1.00  0.00     0.217 C 
HETATM   19  O   UNL     1     -21.624  -5.570  -5.053  1.00  0.00    -0.274 OA
HETATM   20  N   UNL     1     -21.146  -6.240  -7.199  1.00  0.00    -0.361 N 
HETATM   21  H   UNL     1     -20.902  -7.010  -7.822  1.00  0.00     0.162 HD
BRANCH  20  22
HETATM   22  C   UNL     1     -21.173  -4.887  -7.710  1.00  0.00     0.124 C 
BRANCH  22  23
HETATM   23  C   UNL     1     -21.786  -4.807  -9.099  1.00  0.00     0.048 C 
BRANCH  23  24
HETATM   24  C   UNL     1     -22.553  -3.496  -9.348  1.00  0.00     0.238 C 
BRANCH  24  25
HETATM   25  N   UNL     1     -23.767  -3.742 -10.235  1.00  0.00    -0.065 N 
HETATM   26  C   UNL     1     -23.799  -5.184 -10.726  1.00  0.00     0.272 C 
HETATM   27  C   UNL     1     -25.051  -3.354  -9.508  1.00  0.00     0.272 C 
BRANCH  25  28
HETATM   28  C   UNL     1     -23.675  -2.800 -11.542  1.00  0.00     0.349 C 
BRANCH  28  29
HETATM   29  C   UNL     1     -22.995  -3.243 -12.880  1.00  0.00     0.199 C 
HETATM   30  O   UNL     1     -21.766  -3.556 -12.818  1.00  0.00    -0.647 OA
HETATM   31  O   UNL     1     -23.774  -3.300 -13.877  1.00  0.00    -0.647 OA
ENDBRANCH  28  29
ENDBRANCH  25  28
ENDBRANCH  24  25
ENDBRANCH  23  24
ENDBRANCH  22  23
ENDBRANCH  20  22
ENDBRANCH  17  18
ENDBRANCH   1  17
TORSDOF 21
ENDMDL
MODEL 5
REMARK VINA RESULT:      -6.2      4.497      8.718
REMARK  21 active torsions:
REMARK  status: ('A' for Active; 'I' for Inactive)
REMARK    1  A    between atoms: C_2  and  C_3 
REMARK    2  A    between atoms: C_3  and  C_4 
REMARK    3  A    between atoms: C_4  and  C_5 
REMARK    4  A    between atoms: C_5  and  C_6 
REMARK    5  A    between atoms: C_6  and  C_7 
REMARK    6  A    between atoms: C_7  and  C_8 
REMARK    7  A    between atoms: C_8  and  C_9 
REMARK    8  A    between atoms: C_10  and  C_11 
REMARK    9  A    between atoms: C_11  and  C_12 
REMARK   10  A    between atoms: C_12  and  C_13 
REMARK   11  A    between atoms: C_13  and  C_14 
REMARK   12  A    between atoms: C_14  and  C_15 
REMARK   13  A    between atoms: C_15  and  C_16 
REMARK   14  A    between atoms: C_16  and  C_17 
REMARK   15  A    between atoms: C_17  and  C_18 
REMARK       I    between atoms: C_18  and  N_20 
REMARK   16  A    between atoms: N_20  and  C_21 
REMARK   17  A    between atoms: C_21  and  C_22 
REMARK   18  A    between atoms: C_22  and  C_23 
REMARK   19  A    between atoms: C_23  and  N_24 
REMARK   20  A    between atoms: N_24  and  C_27 
REMARK   21  A    between atoms: C_27  and  C_28 
ROOT
HETATM    1  C   UNL     1     -21.956 -11.873  -3.294  1.00  0.00     0.009 C 
ENDROOT
BRANCH   1   2
HETATM    2  C   UNL     1     -22.917 -10.847  -2.722  1.00  0.00     0.000 C 
BRANCH   2   3
HETATM    3  C   UNL     1     -23.565 -11.396  -1.456  1.00  0.00     0.000 C 
BRANCH   3   4
HETATM    4  C   UNL     1     -23.458 -10.386  -0.323  1.00  0.00     0.000 C 
BRANCH   4   5
HETATM    5  C   UNL     1     -22.061 -10.403   0.282  1.00  0.00     0.004 C 
BRANCH   5   6
HETATM    6  C   UNL     1     -21.593  -8.982   0.563  1.00  0.00     0.027 C 
BRANCH   6   7
HETATM    7  C   UNL     1     -21.581  -8.176  -0.693  1.00  0.00    -0.031 C 
HETATM    8  C   UNL     1     -22.254  -7.025  -0.816  1.00  0.00    -0.031 C 
BRANCH   8   9
HETATM    9  C   UNL     1     -22.241  -6.221  -2.071  1.00  0.00     0.027 C 
BRANCH   9  10
HETATM   10  C   UNL     1     -21.142  -6.711  -3.003  1.00  0.00     0.004 C 
BRANCH  10  11
HETATM   11  C   UNL     1     -21.753  -7.297  -4.268  1.00  0.00     0.000 C 
BRANCH  11  12
HETATM   12  C   UNL     1     -21.920  -6.216  -5.324  1.00  0.00     0.000 C 
BRANCH  12  13
HETATM   13  C   UNL     1     -20.688  -5.322  -5.367  1.00  0.00     0.000 C 
BRANCH  13  14
HETATM   14  C   UNL     1     -20.182  -5.187  -6.796  1.00  0.00    -0.000 C 
BRANCH  14  15
HETATM   15  C   UNL     1     -20.623  -3.861  -7.401  1.00  0.00    -0.005 C 
HETATM   16  C   UNL     1     -21.858  -4.050  -8.263  1.00  0.00     0.005 C 
ENDBRANCH  14  15
ENDBRANCH  13  14
ENDBRANCH  12  13
ENDBRANCH  11  12
ENDBRANCH  10  11
ENDBRANCH   9  10
ENDBRANCH   8   9
ENDBRANCH   6   7
ENDBRANCH   5   6
ENDBRANCH   4   5
ENDBRANCH   3   4
ENDBRANCH   2   3
ENDBRANCH   1   2
BRANCH   1  17
HETATM   17  C   UNL     1     -20.809 -11.219  -4.056  1.00  0.00     0.103 C 
BRANCH  17  18
HETATM   18  C   UNL     1     -19.753 -10.804  -3.078  1.00  0.00     0.217 C 
HETATM   19  O   UNL     1     -19.615 -11.362  -1.980  1.00  0.00    -0.274 OA
HETATM   20  N   UNL     1     -18.953  -9.771  -3.503  1.00  0.00    -0.361 N 
HETATM   21  H   UNL     1     -19.087  -9.362  -4.427  1.00  0.00     0.162 HD
BRANCH  20  22
HETATM   22  C   UNL     1     -17.855  -9.323  -2.673  1.00  0.00     0.124 C 
BRANCH  22  23
HETATM   23  C   UNL     1     -16.503  -9.580  -3.317  1.00  0.00     0.048 C 
BRANCH  23  24
HETATM   24  C   UNL     1     -16.226 -11.073  -3.567  1.00  0.00     0.238 C 
BRANCH  24  25
HETATM   25  N   UNL     1     -16.068 -11.351  -5.057  1.00  0.00    -0.065 N 
HETATM   26  C   UNL     1     -16.067 -10.053  -5.855  1.00  0.00     0.272 C 
HETATM   27  C   UNL     1     -14.820 -12.188  -5.319  1.00  0.00     0.272 C 
BRANCH  25  28
HETATM   28  C   UNL     1     -17.324 -12.223  -5.575  1.00  0.00     0.349 C 
BRANCH  28  29
HETATM   29  C   UNL     1     -17.885 -12.146  -7.034  1.00  0.00     0.199 C 
HETATM   30  O   UNL     1     -17.276 -12.824  -7.916  1.00  0.00    -0.647 OA
HETATM   31  O   UNL     1     -18.939 -11.452  -7.160  1.00  0.00    -0.647 OA
ENDBRANCH  28  29
ENDBRANCH  25  28
ENDBRANCH  24  25
ENDBRANCH  23  24
ENDBRANCH  22  23
ENDBRANCH  20  22
ENDBRANCH  17  18
ENDBRANCH   1  17
TORSDOF 21
ENDMDL
MODEL 6
REMARK VINA RESULT:      -6.2      4.154     10.230
REMARK  21 active torsions:
REMARK  status: ('A' for Active; 'I' for Inactive)
REMARK    1  A    between atoms: C_2  and  C_3 
REMARK    2  A    between atoms: C_3  and  C_4 
REMARK    3  A    between atoms: C_4  and  C_5 
REMARK    4  A    between atoms: C_5  and  C_6 
REMARK    5  A    between atoms: C_6  and  C_7 
REMARK    6  A    between atoms: C_7  and  C_8 
REMARK    7  A    between atoms: C_8  and  C_9 
REMARK    8  A    between atoms: C_10  and  C_11 
REMARK    9  A    between atoms: C_11  and  C_12 
REMARK   10  A    between atoms: C_12  and  C_13 
REMARK   11  A    between atoms: C_13  and  C_14 
REMARK   12  A    between atoms: C_14  and  C_15 
REMARK   13  A    between atoms: C_15  and  C_16 
REMARK   14  A    between atoms: C_16  and  C_17 
REMARK   15  A    between atoms: C_17  and  C_18 
REMARK       I    between atoms: C_18  and  N_20 
REMARK   16  A    between atoms: N_20  and  C_21 
REMARK   17  A    between atoms: C_21  and  C_22 
REMARK   18  A    between atoms: C_22  and  C_23 
REMARK   19  A    between atoms: C_23  and  N_24 
REMARK   20  A    between atoms: N_24  and  C_27 
REMARK   21  A    between atoms: C_27  and  C_28 
ROOT
HETATM    1  C   UNL     1     -21.999 -10.720  -2.551  1.00  0.00     0.009 C 
ENDROOT
BRANCH   1   2
HETATM    2  C   UNL     1     -21.513  -9.954  -1.335  1.00  0.00     0.000 C 
BRANCH   2   3
HETATM    3  C   UNL     1     -22.687  -9.656  -0.409  1.00  0.00     0.000 C 
BRANCH   3   4
HETATM    4  C   UNL     1     -22.772  -8.164  -0.123  1.00  0.00     0.000 C 
BRANCH   4   5
HETATM    5  C   UNL     1     -21.668  -7.413  -0.855  1.00  0.00     0.004 C 
BRANCH   5   6
HETATM    6  C   UNL     1     -22.269  -6.360  -1.775  1.00  0.00     0.027 C 
BRANCH   6   7
HETATM    7  C   UNL     1     -21.444  -6.210  -3.010  1.00  0.00    -0.031 C 
HETATM    8  C   UNL     1     -21.936  -6.430  -4.235  1.00  0.00    -0.031 C 
BRANCH   8   9
HETATM    9  C   UNL     1     -21.111  -6.279  -5.467  1.00  0.00     0.027 C 
BRANCH   9  10
HETATM   10  C   UNL     1     -20.369  -4.951  -5.449  1.00  0.00     0.004 C 
BRANCH  10  11
HETATM   11  C   UNL     1     -20.044  -4.514  -6.871  1.00  0.00     0.000 C 
BRANCH  11  12
HETATM   12  C   UNL     1     -21.210  -3.738  -7.464  1.00  0.00     0.000 C 
BRANCH  12  13
HETATM   13  C   UNL     1     -21.607  -4.326  -8.810  1.00  0.00     0.000 C 
BRANCH  13  14
HETATM   14  C   UNL     1     -20.377  -4.528  -9.682  1.00  0.00    -0.000 C 
BRANCH  14  15
HETATM   15  C   UNL     1     -20.509  -3.759 -10.990  1.00  0.00    -0.005 C 
HETATM   16  C   UNL     1     -21.967  -3.460 -11.289  1.00  0.00     0.005 C 
ENDBRANCH  14  15
ENDBRANCH  13  14
ENDBRANCH  12  13
ENDBRANCH  11  12
ENDBRANCH  10  11
ENDBRANCH   9  10
ENDBRANCH   8   9
ENDBRANCH   6   7
ENDBRANCH   5   6
ENDBRANCH   4   5
ENDBRANCH   3   4
ENDBRANCH   2   3
ENDBRANCH   1   2
BRANCH   1  17
HETATM   17  C   UNL     1     -21.947  -9.873  -3.818  1.00  0.00     0.103 C 
BRANCH  17  18
HETATM   18  C   UNL     1     -21.117 -10.586  -4.842  1.00  0.00     0.217 C 
HETATM   19  O   UNL     1     -21.211 -10.343  -6.053  1.00  0.00    -0.274 OA
HETATM   20  N   UNL     1     -20.246 -11.514  -4.326  1.00  0.00    -0.361 N 
HETATM   21  H   UNL     1     -20.184 -11.659  -3.318  1.00  0.00     0.162 HD
BRANCH  20  22
HETATM   22  C   UNL     1     -19.343 -12.222  -5.209  1.00  0.00     0.124 C 
BRANCH  22  23
HETATM   23  C   UNL     1     -17.968 -11.578  -5.265  1.00  0.00     0.048 C 
BRANCH  23  24
HETATM   24  C   UNL     1     -17.789 -10.442  -4.242  1.00  0.00     0.238 C 
BRANCH  24  25
HETATM   25  N   UNL     1     -16.895 -10.888  -3.092  1.00  0.00    -0.065 N 
HETATM   26  C   UNL     1     -16.199 -12.202  -3.422  1.00  0.00     0.272 C 
HETATM   27  C   UNL     1     -15.903  -9.789  -2.725  1.00  0.00     0.272 C 
BRANCH  25  28
HETATM   28  C   UNL     1     -17.799 -11.148  -1.781  1.00  0.00     0.349 C 
BRANCH  28  29
HETATM   29  C   UNL     1     -18.240 -12.572  -1.305  1.00  0.00     0.199 C 
HETATM   30  O   UNL     1     -17.484 -13.153  -0.468  1.00  0.00    -0.647 OA
HETATM   31  O   UNL     1     -19.352 -12.965  -1.769  1.00  0.00    -0.647 OA
ENDBRANCH  28  29
ENDBRANCH  25  28
ENDBRANCH  24  25
ENDBRANCH  23  24
ENDBRANCH  22  23
ENDBRANCH  20  22
ENDBRANCH  17  18
ENDBRANCH   1  17
TORSDOF 21
ENDMDL
MODEL 7
REMARK VINA RESULT:      -6.2      4.278      9.983
REMARK  21 active torsions:
REMARK  status: ('A' for Active; 'I' for Inactive)
REMARK    1  A    between atoms: C_2  and  C_3 
REMARK    2  A    between atoms: C_3  and  C_4 
REMARK    3  A    between atoms: C_4  and  C_5 
REMARK    4  A    between atoms: C_5  and  C_6 
REMARK    5  A    between atoms: C_6  and  C_7 
REMARK    6  A    between atoms: C_7  and  C_8 
REMARK    7  A    between atoms: C_8  and  C_9 
REMARK    8  A    between atoms: C_10  and  C_11 
REMARK    9  A    between atoms: C_11  and  C_12 
REMARK   10  A    between atoms: C_12  and  C_13 
REMARK   11  A    between atoms: C_13  and  C_14 
REMARK   12  A    between atoms: C_14  and  C_15 
REMARK   13  A    between atoms: C_15  and  C_16 
REMARK   14  A    between atoms: C_16  and  C_17 
REMARK   15  A    between atoms: C_17  and  C_18 
REMARK       I    between atoms: C_18  and  N_20 
REMARK   16  A    between atoms: N_20  and  C_21 
REMARK   17  A    between atoms: C_21  and  C_22 
REMARK   18  A    between atoms: C_22  and  C_23 
REMARK   19  A    between atoms: C_23  and  N_24 
REMARK   20  A    between atoms: N_24  and  C_27 
REMARK   21  A    between atoms: C_27  and  C_28 
ROOT
HETATM    1  C   UNL     1     -20.221 -10.243  -2.308  1.00  0.00     0.009 C 
ENDROOT
BRANCH   1   2
HETATM    2  C   UNL     1     -19.771 -10.821  -0.979  1.00  0.00     0.000 C 
BRANCH   2   3
HETATM    3  C   UNL     1     -20.971 -10.978  -0.051  1.00  0.00     0.000 C 
BRANCH   3   4
HETATM    4  C   UNL     1     -21.336  -9.641   0.576  1.00  0.00     0.000 C 
BRANCH   4   5
HETATM    5  C   UNL     1     -22.724  -9.199   0.130  1.00  0.00     0.004 C 
BRANCH   5   6
HETATM    6  C   UNL     1     -22.784  -7.682   0.024  1.00  0.00     0.027 C 
BRANCH   6   7
HETATM    7  C   UNL     1     -21.827  -7.191  -1.011  1.00  0.00    -0.031 C 
HETATM    8  C   UNL     1     -22.229  -6.548  -2.115  1.00  0.00    -0.031 C 
BRANCH   8   9
HETATM    9  C   UNL     1     -21.272  -6.058  -3.148  1.00  0.00     0.027 C 
BRANCH   9  10
HETATM   10  C   UNL     1     -21.758  -6.433  -4.541  1.00  0.00     0.004 C 
BRANCH  10  11
HETATM   11  C   UNL     1     -20.586  -6.467  -5.511  1.00  0.00     0.000 C 
BRANCH  11  12
HETATM   12  C   UNL     1     -20.141  -5.053  -5.853  1.00  0.00     0.000 C 
BRANCH  12  13
HETATM   13  C   UNL     1     -21.113  -4.415  -6.835  1.00  0.00     0.000 C 
BRANCH  13  14
HETATM   14  C   UNL     1     -20.382  -3.984  -8.098  1.00  0.00    -0.000 C 
BRANCH  14  15
HETATM   15  C   UNL     1     -21.136  -4.440  -9.340  1.00  0.00    -0.005 C 
HETATM   16  C   UNL     1     -20.473  -3.902 -10.596  1.00  0.00     0.005 C 
ENDBRANCH  14  15
ENDBRANCH  13  14
ENDBRANCH  12  13
ENDBRANCH  11  12
ENDBRANCH  10  11
ENDBRANCH   9  10
ENDBRANCH   8   9
ENDBRANCH   6   7
ENDBRANCH   5   6
ENDBRANCH   4   5
ENDBRANCH   3   4
ENDBRANCH   2   3
ENDBRANCH   1   2
BRANCH   1  17
HETATM   17  C   UNL     1     -19.222  -9.231  -2.859  1.00  0.00     0.103 C 
BRANCH  17  18
HETATM   18  C   UNL     1     -18.872  -9.613  -4.264  1.00  0.00     0.217 C 
HETATM   19  O   UNL     1     -19.735  -9.899  -5.106  1.00  0.00    -0.274 OA
HETATM   20  N   UNL     1     -17.526  -9.609  -4.539  1.00  0.00    -0.361 N 
HETATM   21  H   UNL     1     -16.853  -9.340  -3.821  1.00  0.00     0.162 HD
BRANCH  20  22
HETATM   22  C   UNL     1     -17.064  -9.899  -5.880  1.00  0.00     0.124 C 
BRANCH  22  23
HETATM   23  C   UNL     1     -16.452 -11.285  -5.992  1.00  0.00     0.048 C 
BRANCH  23  24
HETATM   24  C   UNL     1     -15.043 -11.377  -5.381  1.00  0.00     0.238 C 
BRANCH  24  25
HETATM   25  N   UNL     1     -14.914 -12.617  -4.506  1.00  0.00    -0.065 N 
HETATM   26  C   UNL     1     -15.171 -13.882  -5.316  1.00  0.00     0.272 C 
HETATM   27  C   UNL     1     -13.556 -12.646  -3.812  1.00  0.00     0.272 C 
BRANCH  25  28
HETATM   28  C   UNL     1     -16.027 -12.569  -3.339  1.00  0.00     0.349 C 
BRANCH  28  29
HETATM   29  C   UNL     1     -15.846 -11.769  -2.006  1.00  0.00     0.199 C 
HETATM   30  O   UNL     1     -15.621 -12.450  -0.959  1.00  0.00    -0.647 OA
HETATM   31  O   UNL     1     -15.883 -10.509  -2.134  1.00  0.00    -0.647 OA
ENDBRANCH  28  29
ENDBRANCH  25  28
ENDBRANCH  24  25
ENDBRANCH  23  24
ENDBRANCH  22  23
ENDBRANCH  20  22
ENDBRANCH  17  18
ENDBRANCH   1  17
TORSDOF 21
ENDMDL
MODEL 8
REMARK VINA RESULT:      -6.2      5.132     11.546
REMARK  21 active torsions:
REMARK  status: ('A' for Active; 'I' for Inactive)
REMARK    1  A    between atoms: C_2  and  C_3 
REMARK    2  A    between atoms: C_3  and  C_4 
REMARK    3  A    between atoms: C_4  and  C_5 
REMARK    4  A    between atoms: C_5  and  C_6 
REMARK    5  A    between atoms: C_6  and  C_7 
REMARK    6  A    between atoms: C_7  and  C_8 
REMARK    7  A    between atoms: C_8  and  C_9 
REMARK    8  A    between atoms: C_10  and  C_11 
REMARK    9  A    between atoms: C_11  and  C_12 
REMARK   10  A    between atoms: C_12  and  C_13 
REMARK   11  A    between atoms: C_13  and  C_14 
REMARK   12  A    between atoms: C_14  and  C_15 
REMARK   13  A    between atoms: C_15  and  C_16 
REMARK   14  A    between atoms: C_16  and  C_17 
REMARK   15  A    between atoms: C_17  and  C_18 
REMARK       I    between atoms: C_18  and  N_20 
REMARK   16  A    between atoms: N_20  and  C_21 
REMARK   17  A    between atoms: C_21  and  C_22 
REMARK   18  A    between atoms: C_22  and  C_23 
REMARK   19  A    between atoms: C_23  and  N_24 
REMARK   20  A    between atoms: N_24  and  C_27 
REMARK   21  A    between atoms: C_27  and  C_28 
ROOT
HETATM    1  C   UNL     1     -21.523  -7.858  -0.377  1.00  0.00     0.009 C 
ENDROOT
BRANCH   1   2
HETATM    2  C   UNL     1     -22.354  -6.716  -0.931  1.00  0.00     0.000 C 
BRANCH   2   3
HETATM    3  C   UNL     1     -21.855  -6.339  -2.322  1.00  0.00     0.000 C 
BRANCH   3   4
HETATM    4  C   UNL     1     -20.998  -7.456  -2.899  1.00  0.00     0.000 C 
BRANCH   4   5
HETATM    5  C   UNL     1     -21.679  -8.086  -4.107  1.00  0.00     0.004 C 
BRANCH   5   6
HETATM    6  C   UNL     1     -20.767  -8.010  -5.323  1.00  0.00     0.027 C 
BRANCH   6   7
HETATM    7  C   UNL     1     -20.289  -6.612  -5.533  1.00  0.00    -0.031 C 
HETATM    8  C   UNL     1     -20.388  -5.988  -6.714  1.00  0.00    -0.031 C 
BRANCH   8   9
HETATM    9  C   UNL     1     -19.911  -4.591  -6.923  1.00  0.00     0.027 C 
BRANCH   9  10
HETATM   10  C   UNL     1     -21.052  -3.707  -7.404  1.00  0.00     0.004 C 
BRANCH  10  11
HETATM   11  C   UNL     1     -22.111  -4.552  -8.098  1.00  0.00     0.000 C 
BRANCH  11  12
HETATM   12  C   UNL     1     -22.416  -3.988  -9.477  1.00  0.00     0.000 C 
BRANCH  12  13
HETATM   13  C   UNL     1     -21.230  -4.195 -10.408  1.00  0.00     0.000 C 
BRANCH  13  14
HETATM   14  C   UNL     1     -21.336  -3.271 -11.613  1.00  0.00    -0.000 C 
BRANCH  14  15
HETATM   15  C   UNL     1     -22.784  -2.867 -11.858  1.00  0.00    -0.005 C 
HETATM   16  C   UNL     1     -23.080  -2.817 -13.346  1.00  0.00     0.005 C 
ENDBRANCH  14  15
ENDBRANCH  13  14
ENDBRANCH  12  13
ENDBRANCH  11  12
ENDBRANCH  10  11
ENDBRANCH   9  10
ENDBRANCH   8   9
ENDBRANCH   6   7
ENDBRANCH   5   6
ENDBRANCH   4   5
ENDBRANCH   3   4
ENDBRANCH   2   3
ENDBRANCH   1   2
BRANCH   1  17
HETATM   17  C   UNL     1     -22.372  -9.086  -0.069  1.00  0.00     0.103 C 
BRANCH  17  18
HETATM   18  C   UNL     1     -21.483 -10.291  -0.037  1.00  0.00     0.217 C 
HETATM   19  O   UNL     1     -21.030 -10.749   1.022  1.00  0.00    -0.274 OA
HETATM   20  N   UNL     1     -21.227 -10.846  -1.267  1.00  0.00    -0.361 N 
HETATM   21  H   UNL     1     -21.645 -10.450  -2.109  1.00  0.00     0.162 HD
BRANCH  20  22
HETATM   22  C   UNL     1     -20.434 -12.053  -1.361  1.00  0.00     0.124 C 
BRANCH  22  23
HETATM   23  C   UNL     1     -18.970 -11.761  -1.649  1.00  0.00     0.048 C 
BRANCH  23  24
HETATM   24  C   UNL     1     -18.088 -11.790  -0.388  1.00  0.00     0.238 C 
BRANCH  24  25
HETATM   25  N   UNL     1     -16.671 -12.232  -0.731  1.00  0.00    -0.065 N 
HETATM   26  C   UNL     1     -15.740 -12.045   0.460  1.00  0.00     0.272 C 
HETATM   27  C   UNL     1     -16.665 -13.667  -1.246  1.00  0.00     0.272 C 
BRANCH  25  28
HETATM   28  C   UNL     1     -16.097 -11.311  -1.927  1.00  0.00     0.349 C 
BRANCH  28  29
HETATM   29  C   UNL     1     -15.598 -11.885  -3.295  1.00  0.00     0.199 C 
HETATM   30  O   UNL     1     -16.466 -12.010  -4.212  1.00  0.00    -0.647 OA
HETATM   31  O   UNL     1     -14.351 -12.105  -3.353  1.00  0.00    -0.647 OA
ENDBRANCH  28  29
ENDBRANCH  25  28
ENDBRANCH  24  25
ENDBRANCH  23  24
ENDBRANCH  22  23
ENDBRANCH  20  22
ENDBRANCH  17  18
ENDBRANCH   1  17
TORSDOF 21
ENDMDL
MODEL 9
REMARK VINA RESULT:      -6.0      4.179      9.684
REMARK  21 active torsions:
REMARK  status: ('A' for Active; 'I' for Inactive)
REMARK    1  A    between atoms: C_2  and  C_3 
REMARK    2  A    between atoms: C_3  and  C_4 
REMARK    3  A    between atoms: C_4  and  C_5 
REMARK    4  A    between atoms: C_5  and  C_6 
REMARK    5  A    between atoms: C_6  and  C_7 
REMARK    6  A    between atoms: C_7  and  C_8 
REMARK    7  A    between atoms: C_8  and  C_9 
REMARK    8  A    between atoms: C_10  and  C_11 
REMARK    9  A    between atoms: C_11  and  C_12 
REMARK   10  A    between atoms: C_12  and  C_13 
REMARK   11  A    between atoms: C_13  and  C_14 
REMARK   12  A    between atoms: C_14  and  C_15 
REMARK   13  A    between atoms: C_15  and  C_16 
REMARK   14  A    between atoms: C_16  and  C_17 
REMARK   15  A    between atoms: C_17  and  C_18 
REMARK       I    between atoms: C_18  and  N_20 
REMARK   16  A    between atoms: N_20  and  C_21 
REMARK   17  A    between atoms: C_21  and  C_22 
REMARK   18  A    between atoms: C_22  and  C_23 
REMARK   19  A    between atoms: C_23  and  N_24 
REMARK   20  A    between atoms: N_24  and  C_27 
REMARK   21  A    between atoms: C_27  and  C_28 
ROOT
HETATM    1  C   UNL     1     -23.595 -10.992  -1.176  1.00  0.00     0.009 C 
ENDROOT
BRANCH   1   2
HETATM    2  C   UNL     1     -23.072 -10.414   0.125  1.00  0.00     0.000 C 
BRANCH   2   3
HETATM    3  C   UNL     1     -23.602  -8.996   0.311  1.00  0.00     0.000 C 
BRANCH   3   4
HETATM    4  C   UNL     1     -22.452  -8.023   0.527  1.00  0.00     0.000 C 
BRANCH   4   5
HETATM    5  C   UNL     1     -22.098  -7.314  -0.774  1.00  0.00     0.004 C 
BRANCH   5   6
HETATM    6  C   UNL     1     -20.760  -7.817  -1.298  1.00  0.00     0.027 C 
BRANCH   6   7
HETATM    7  C   UNL     1     -20.776  -7.889  -2.789  1.00  0.00    -0.031 C 
HETATM    8  C   UNL     1     -21.298  -6.920  -3.551  1.00  0.00    -0.031 C 
BRANCH   8   9
HETATM    9  C   UNL     1     -21.312  -6.993  -5.040  1.00  0.00     0.027 C 
BRANCH   9  10
HETATM   10  C   UNL     1     -21.476  -5.603  -5.638  1.00  0.00     0.004 C 
BRANCH  10  11
HETATM   11  C   UNL     1     -20.216  -5.207  -6.394  1.00  0.00     0.000 C 
BRANCH  11  12
HETATM   12  C   UNL     1     -20.533  -4.132  -7.422  1.00  0.00     0.000 C 
BRANCH  12  13
HETATM   13  C   UNL     1     -22.019  -4.138  -7.754  1.00  0.00     0.000 C 
BRANCH  13  14
HETATM   14  C   UNL     1     -22.231  -3.859  -9.235  1.00  0.00    -0.000 C 
BRANCH  14  15
HETATM   15  C   UNL     1     -20.991  -4.231 -10.037  1.00  0.00    -0.005 C 
HETATM   16  C   UNL     1     -21.016  -3.565 -11.401  1.00  0.00     0.005 C 
ENDBRANCH  14  15
ENDBRANCH  13  14
ENDBRANCH  12  13
ENDBRANCH  11  12
ENDBRANCH  10  11
ENDBRANCH   9  10
ENDBRANCH   8   9
ENDBRANCH   6   7
ENDBRANCH   5   6
ENDBRANCH   4   5
ENDBRANCH   3   4
ENDBRANCH   2   3
ENDBRANCH   1   2
BRANCH   1  17
HETATM   17  C   UNL     1     -22.512 -11.064  -2.247  1.00  0.00     0.103 C 
BRANCH  17  18
HETATM   18  C   UNL     1     -21.419 -11.969  -1.769  1.00  0.00     0.217 C 
HETATM   19  O   UNL     1     -21.587 -13.188  -1.624  1.00  0.00    -0.274 OA
HETATM   20  N   UNL     1     -20.224 -11.340  -1.518  1.00  0.00    -0.361 N 
HETATM   21  H   UNL     1     -20.125 -10.337  -1.679  1.00  0.00     0.162 HD
BRANCH  20  22
HETATM   22  C   UNL     1     -19.072 -12.117  -1.113  1.00  0.00     0.124 C 
BRANCH  22  23
HETATM   23  C   UNL     1     -18.117 -12.377  -2.267  1.00  0.00     0.048 C 
BRANCH  23  24
HETATM   24  C   UNL     1     -18.088 -11.235  -3.297  1.00  0.00     0.238 C 
BRANCH  24  25
HETATM   25  N   UNL     1     -16.712 -11.123  -3.941  1.00  0.00    -0.065 N 
HETATM   26  C   UNL     1     -15.700 -10.538  -2.963  1.00  0.00     0.272 C 
HETATM   27  C   UNL     1     -16.264 -12.474  -4.491  1.00  0.00     0.272 C 
BRANCH  25  28
HETATM   28  C   UNL     1     -16.789 -10.116  -5.200  1.00  0.00     0.349 C 
BRANCH  28  29
HETATM   29  C   UNL     1     -18.058  -9.956  -6.101  1.00  0.00     0.199 C 
HETATM   30  O   UNL     1     -18.358 -10.939  -6.845  1.00  0.00    -0.647 OA
HETATM   31  O   UNL     1     -18.689  -8.869  -5.938  1.00  0.00    -0.647 OA
ENDBRANCH  28  29
ENDBRANCH  25  28
ENDBRANCH  24  25
ENDBRANCH  23  24
ENDBRANCH  22  23
ENDBRANCH  20  22
ENDBRANCH  17  18
ENDBRANCH   1  17
TORSDOF 21
ENDMDL
