MODEL 1
REMARK VINA RESULT:      -6.8      0.000      0.000
REMARK  16 active torsions:
REMARK  status: ('A' for Active; 'I' for Inactive)
REMARK    1  A    between atoms: C_2  and  C_3 
REMARK    2  A    between atoms: C_3  and  C_4 
REMARK    3  A    between atoms: C_4  and  C_5 
REMARK    4  A    between atoms: C_5  and  C_6 
REMARK    5  A    between atoms: C_6  and  C_7 
REMARK    6  A    between atoms: C_7  and  C_8 
REMARK    7  A    between atoms: C_8  and  C_9 
REMARK    8  A    between atoms: C_9  and  C_10 
REMARK    9  A    between atoms: C_10  and  C_11 
REMARK   10  A    between atoms: C_11  and  C_12 
REMARK   11  A    between atoms: C_12  and  C_13 
REMARK   12  A    between atoms: C_13  and  C_14 
REMARK   13  A    between atoms: C_14  and  C_15 
REMARK   14  A    between atoms: C_15  and  C_16 
REMARK   15  A    between atoms: C_16  and  O_18 
REMARK   16  A    between atoms: O_18  and  C_19 
ROOT
HETATM    1  C   UNL     1     -20.173  -5.455  -7.033  1.00  0.00     0.000 C 
ENDROOT
BRANCH   1   2
HETATM    2  C   UNL     1     -20.362  -5.360  -5.523  1.00  0.00     0.000 C 
BRANCH   2   3
HETATM    3  C   UNL     1     -21.646  -6.063  -5.102  1.00  0.00     0.000 C 
BRANCH   3   4
HETATM    4  C   UNL     1     -21.362  -7.104  -4.028  1.00  0.00     0.000 C 
BRANCH   4   5
HETATM    5  C   UNL     1     -21.801  -6.592  -2.662  1.00  0.00     0.000 C 
BRANCH   5   6
HETATM    6  C   UNL     1     -21.920  -7.741  -1.669  1.00  0.00     0.000 C 
BRANCH   6   7
HETATM    7  C   UNL     1     -22.316  -7.223  -0.292  1.00  0.00     0.000 C 
BRANCH   7   8
HETATM    8  C   UNL     1     -23.046  -8.302   0.500  1.00  0.00     0.000 C 
BRANCH   8   9
HETATM    9  C   UNL     1     -22.733  -9.686  -0.062  1.00  0.00    -0.000 C 
BRANCH   9  10
HETATM   10  C   UNL     1     -24.002 -10.526  -0.189  1.00  0.00    -0.005 C 
HETATM   11  C   UNL     1     -23.752 -11.764  -1.031  1.00  0.00     0.005 C 
ENDBRANCH   9  10
ENDBRANCH   8   9
ENDBRANCH   7   8
ENDBRANCH   6   7
ENDBRANCH   5   6
ENDBRANCH   4   5
ENDBRANCH   3   4
ENDBRANCH   2   3
ENDBRANCH   1   2
BRANCH   1  12
HETATM   12  C   UNL     1     -20.111  -4.067  -7.654  1.00  0.00     0.000 C 
BRANCH  12  13
HETATM   13  C   UNL     1     -21.502  -3.447  -7.763  1.00  0.00     0.000 C 
BRANCH  13  14
HETATM   14  C   UNL     1     -22.325  -4.210  -8.792  1.00  0.00     0.010 C 
BRANCH  14  15
HETATM   15  C   UNL     1     -23.827  -4.077  -8.558  1.00  0.00     0.111 C 
BRANCH  15  16
HETATM   16  C   UNL     1     -24.472  -3.391  -9.740  1.00  0.00     0.259 C 
HETATM   17  O   UNL     1     -25.675  -3.240  -9.887  1.00  0.00    -0.265 OA
BRANCH  16  18
HETATM   18  O   UNL     1     -23.519  -2.974 -10.619  1.00  0.00    -0.317 OA
BRANCH  18  19
HETATM   19  C   UNL     1     -23.550  -3.631 -11.900  1.00  0.00     0.123 C 
HETATM   20  C   UNL     1     -24.278  -2.757 -12.916  1.00  0.00     0.040 C 
HETATM   21  C   UNL     1     -22.110  -3.864 -12.340  1.00  0.00     0.040 C 
ENDBRANCH  18  19
ENDBRANCH  16  18
ENDBRANCH  15  16
ENDBRANCH  14  15
ENDBRANCH  13  14
ENDBRANCH  12  13
ENDBRANCH   1  12
TORSDOF 16
ENDMDL
MODEL 2
REMARK VINA RESULT:      -6.8      1.378      2.619
REMARK  16 active torsions:
REMARK  status: ('A' for Active; 'I' for Inactive)
REMARK    1  A    between atoms: C_2  and  C_3 
REMARK    2  A    between atoms: C_3  and  C_4 
REMARK    3  A    between atoms: C_4  and  C_5 
REMARK    4  A    between atoms: C_5  and  C_6 
REMARK    5  A    between atoms: C_6  and  C_7 
REMARK    6  A    between atoms: C_7  and  C_8 
REMARK    7  A    between atoms: C_8  and  C_9 
REMARK    8  A    between atoms: C_9  and  C_10 
REMARK    9  A    between atoms: C_10  and  C_11 
REMARK   10  A    between atoms: C_11  and  C_12 
REMARK   11  A    between atoms: C_12  and  C_13 
REMARK   12  A    between atoms: C_13  and  C_14 
REMARK   13  A    between atoms: C_14  and  C_15 
REMARK   14  A    between atoms: C_15  and  C_16 
REMARK   15  A    between atoms: C_16  and  O_18 
REMARK   16  A    between atoms: O_18  and  C_19 
ROOT
HETATM    1  C   UNL     1     -21.721  -7.050  -4.798  1.00  0.00     0.000 C 
ENDROOT
BRANCH   1   2
HETATM    2  C   UNL     1     -21.382  -6.020  -3.726  1.00  0.00     0.000 C 
BRANCH   2   3
HETATM    3  C   UNL     1     -21.724  -6.560  -2.343  1.00  0.00     0.000 C 
BRANCH   3   4
HETATM    4  C   UNL     1     -20.736  -7.641  -1.927  1.00  0.00     0.000 C 
BRANCH   4   5
HETATM    5  C   UNL     1     -21.081  -8.173  -0.542  1.00  0.00     0.000 C 
BRANCH   5   6
HETATM    6  C   UNL     1     -22.383  -7.561  -0.040  1.00  0.00     0.000 C 
BRANCH   6   7
HETATM    7  C   UNL     1     -23.355  -8.650   0.399  1.00  0.00     0.000 C 
BRANCH   7   8
HETATM    8  C   UNL     1     -22.810 -10.030   0.051  1.00  0.00     0.000 C 
BRANCH   8   9
HETATM    9  C   UNL     1     -23.949 -11.028  -0.132  1.00  0.00    -0.000 C 
BRANCH   9  10
HETATM   10  C   UNL     1     -24.071 -11.460  -1.591  1.00  0.00    -0.005 C 
HETATM   11  C   UNL     1     -22.814 -11.113  -2.367  1.00  0.00     0.005 C 
ENDBRANCH   9  10
ENDBRANCH   8   9
ENDBRANCH   7   8
ENDBRANCH   6   7
ENDBRANCH   5   6
ENDBRANCH   4   5
ENDBRANCH   3   4
ENDBRANCH   2   3
ENDBRANCH   1   2
BRANCH   1  12
HETATM   12  C   UNL     1     -20.729  -6.969  -5.950  1.00  0.00     0.000 C 
BRANCH  12  13
HETATM   13  C   UNL     1     -20.070  -5.594  -6.017  1.00  0.00     0.000 C 
BRANCH  13  14
HETATM   14  C   UNL     1     -20.041  -5.107  -7.460  1.00  0.00     0.010 C 
BRANCH  14  15
HETATM   15  C   UNL     1     -20.947  -3.902  -7.691  1.00  0.00     0.111 C 
BRANCH  15  16
HETATM   16  C   UNL     1     -22.356  -4.366  -7.979  1.00  0.00     0.259 C 
HETATM   17  O   UNL     1     -23.256  -4.417  -7.154  1.00  0.00    -0.265 OA
BRANCH  16  18
HETATM   18  O   UNL     1     -22.474  -4.729  -9.287  1.00  0.00    -0.317 OA
BRANCH  18  19
HETATM   19  C   UNL     1     -22.278  -3.659 -10.230  1.00  0.00     0.123 C 
HETATM   20  C   UNL     1     -21.293  -4.091 -11.312  1.00  0.00     0.040 C 
HETATM   21  C   UNL     1     -23.631  -3.330 -10.849  1.00  0.00     0.040 C 
ENDBRANCH  18  19
ENDBRANCH  16  18
ENDBRANCH  15  16
ENDBRANCH  14  15
ENDBRANCH  13  14
ENDBRANCH  12  13
ENDBRANCH   1  12
TORSDOF 16
ENDMDL
MODEL 3
REMARK VINA RESULT:      -6.7      1.495      2.358
REMARK  16 active torsions:
REMARK  status: ('A' for Active; 'I' for Inactive)
REMARK    1  A    between atoms: C_2  and  C_3 
REMARK    2  A    between atoms: C_3  and  C_4 
REMARK    3  A    between atoms: C_4  and  C_5 
REMARK    4  A    between atoms: C_5  and  C_6 
REMARK    5  A    between atoms: C_6  and  C_7 
REMARK    6  A    between atoms: C_7  and  C_8 
REMARK    7  A    between atoms: C_8  and  C_9 
REMARK    8  A    between atoms: C_9  and  C_10 
REMARK    9  A    between atoms: C_10  and  C_11 
REMARK   10  A    between atoms: C_11  and  C_12 
REMARK   11  A    between atoms: C_12  and  C_13 
REMARK   12  A    between atoms: C_13  and  C_14 
REMARK   13  A    between atoms: C_14  and  C_15 
REMARK   14  A    between atoms: C_15  and  C_16 
REMARK   15  A    between atoms: C_16  and  O_18 
REMARK   16  A    between atoms: O_18  and  C_19 
ROOT
HETATM    1  C   UNL     1     -20.985  -7.151  -5.296  1.00  0.00     0.000 C 
ENDROOT
BRANCH   1   2
HETATM    2  C   UNL     1     -21.888  -6.493  -4.259  1.00  0.00     0.000 C 
BRANCH   2   3
HETATM    3  C   UNL     1     -21.190  -6.435  -2.906  1.00  0.00     0.000 C 
BRANCH   3   4
HETATM    4  C   UNL     1     -22.209  -6.412  -1.775  1.00  0.00     0.000 C 
BRANCH   4   5
HETATM    5  C   UNL     1     -21.844  -7.438  -0.710  1.00  0.00     0.000 C 
BRANCH   5   6
HETATM    6  C   UNL     1     -23.082  -7.870   0.066  1.00  0.00     0.000 C 
BRANCH   6   7
HETATM    7  C   UNL     1     -23.238  -9.386   0.028  1.00  0.00     0.000 C 
BRANCH   7   8
HETATM    8  C   UNL     1     -22.141 -10.018  -0.820  1.00  0.00     0.000 C 
BRANCH   8   9
HETATM    9  C   UNL     1     -22.735 -10.701  -2.048  1.00  0.00    -0.000 C 
BRANCH   9  10
HETATM   10  C   UNL     1     -22.035 -10.239  -3.325  1.00  0.00    -0.005 C 
HETATM   11  C   UNL     1     -20.539 -10.108  -3.106  1.00  0.00     0.005 C 
ENDBRANCH   9  10
ENDBRANCH   8   9
ENDBRANCH   7   8
ENDBRANCH   6   7
ENDBRANCH   5   6
ENDBRANCH   4   5
ENDBRANCH   3   4
ENDBRANCH   2   3
ENDBRANCH   1   2
BRANCH   1  12
HETATM   12  C   UNL     1     -20.187  -6.101  -6.054  1.00  0.00     0.000 C 
BRANCH  12  13
HETATM   13  C   UNL     1     -20.885  -4.744  -6.020  1.00  0.00     0.000 C 
BRANCH  13  14
HETATM   14  C   UNL     1     -21.350  -4.369  -7.422  1.00  0.00     0.010 C 
BRANCH  14  15
HETATM   15  C   UNL     1     -22.868  -4.397  -7.563  1.00  0.00     0.111 C 
BRANCH  15  16
HETATM   16  C   UNL     1     -23.253  -4.162  -9.006  1.00  0.00     0.259 C 
HETATM   17  O   UNL     1     -24.273  -4.581  -9.533  1.00  0.00    -0.265 OA
BRANCH  16  18
HETATM   18  O   UNL     1     -22.296  -3.424  -9.634  1.00  0.00    -0.317 OA
BRANCH  18  19
HETATM   19  C   UNL     1     -22.007  -3.833 -10.984  1.00  0.00     0.123 C 
HETATM   20  C   UNL     1     -22.485  -2.766 -11.965  1.00  0.00     0.040 C 
HETATM   21  C   UNL     1     -20.500  -4.022 -11.102  1.00  0.00     0.040 C 
ENDBRANCH  18  19
ENDBRANCH  16  18
ENDBRANCH  15  16
ENDBRANCH  14  15
ENDBRANCH  13  14
ENDBRANCH  12  13
ENDBRANCH   1  12
TORSDOF 16
ENDMDL
MODEL 4
REMARK VINA RESULT:      -6.6      4.017      9.982
REMARK  16 active torsions:
REMARK  status: ('A' for Active; 'I' for Inactive)
REMARK    1  A    between atoms: C_2  and  C_3 
REMARK    2  A    between atoms: C_3  and  C_4 
REMARK    3  A    between atoms: C_4  and  C_5 
REMARK    4  A    between atoms: C_5  and  C_6 
REMARK    5  A    between atoms: C_6  and  C_7 
REMARK    6  A    between atoms: C_7  and  C_8 
REMARK    7  A    between atoms: C_8  and  C_9 
REMARK    8  A    between atoms: C_9  and  C_10 
REMARK    9  A    between atoms: C_10  and  C_11 
REMARK   10  A    between atoms: C_11  and  C_12 
REMARK   11  A    between atoms: C_12  and  C_13 
REMARK   12  A    between atoms: C_13  and  C_14 
REMARK   13  A    between atoms: C_14  and  C_15 
REMARK   14  A    between atoms: C_15  and  C_16 
REMARK   15  A    between atoms: C_16  and  O_18 
REMARK   16  A    between atoms: O_18  and  C_19 
ROOT
HETATM    1  C   UNL     1     -21.812  -6.430  -5.212  1.00  0.00     0.000 C 
ENDROOT
BRANCH   1   2
HETATM    2  C   UNL     1     -20.633  -6.782  -6.112  1.00  0.00     0.000 C 
BRANCH   2   3
HETATM    3  C   UNL     1     -20.060  -5.525  -6.754  1.00  0.00     0.000 C 
BRANCH   3   4
HETATM    4  C   UNL     1     -20.839  -4.293  -6.316  1.00  0.00     0.000 C 
BRANCH   4   5
HETATM    5  C   UNL     1     -21.450  -3.593  -7.523  1.00  0.00     0.000 C 
BRANCH   5   6
HETATM    6  C   UNL     1     -22.765  -4.253  -7.919  1.00  0.00     0.000 C 
BRANCH   6   7
HETATM    7  C   UNL     1     -23.284  -3.674  -9.229  1.00  0.00     0.000 C 
BRANCH   7   8
HETATM    8  C   UNL     1     -23.516  -4.779 -10.252  1.00  0.00     0.000 C 
BRANCH   8   9
HETATM    9  C   UNL     1     -22.723  -4.507 -11.528  1.00  0.00    -0.000 C 
BRANCH   9  10
HETATM   10  C   UNL     1     -21.624  -3.477 -11.281  1.00  0.00    -0.005 C 
HETATM   11  C   UNL     1     -20.277  -4.153 -11.098  1.00  0.00     0.005 C 
ENDBRANCH   9  10
ENDBRANCH   8   9
ENDBRANCH   7   8
ENDBRANCH   6   7
ENDBRANCH   5   6
ENDBRANCH   4   5
ENDBRANCH   3   4
ENDBRANCH   2   3
ENDBRANCH   1   2
BRANCH   1  12
HETATM   12  C   UNL     1     -21.780  -7.263  -3.938  1.00  0.00     0.000 C 
BRANCH  12  13
HETATM   13  C   UNL     1     -21.907  -6.382  -2.698  1.00  0.00     0.000 C 
BRANCH  13  14
HETATM   14  C   UNL     1     -21.375  -7.127  -1.481  1.00  0.00     0.010 C 
BRANCH  14  15
HETATM   15  C   UNL     1     -22.395  -7.206  -0.349  1.00  0.00     0.111 C 
BRANCH  15  16
HETATM   16  C   UNL     1     -22.239  -8.514   0.392  1.00  0.00     0.259 C 
HETATM   17  O   UNL     1     -21.347  -8.761   1.190  1.00  0.00    -0.265 OA
BRANCH  16  18
HETATM   18  O   UNL     1     -23.229  -9.378   0.034  1.00  0.00    -0.317 OA
BRANCH  18  19
HETATM   19  C   UNL     1     -22.773 -10.676  -0.389  1.00  0.00     0.123 C 
HETATM   20  C   UNL     1     -23.789 -11.742   0.014  1.00  0.00     0.040 C 
HETATM   21  C   UNL     1     -22.616 -10.644  -1.905  1.00  0.00     0.040 C 
ENDBRANCH  18  19
ENDBRANCH  16  18
ENDBRANCH  15  16
ENDBRANCH  14  15
ENDBRANCH  13  14
ENDBRANCH  12  13
ENDBRANCH   1  12
TORSDOF 16
ENDMDL
MODEL 5
REMARK VINA RESULT:      -6.6      1.520      2.562
REMARK  16 active torsions:
REMARK  status: ('A' for Active; 'I' for Inactive)
REMARK    1  A    between atoms: C_2  and  C_3 
REMARK    2  A    between atoms: C_3  and  C_4 
REMARK    3  A    between atoms: C_4  and  C_5 
REMARK    4  A    between atoms: C_5  and  C_6 
REMARK    5  A    between atoms: C_6  and  C_7 
REMARK    6  A    between atoms: C_7  and  C_8 
REMARK    7  A    between atoms: C_8  and  C_9 
REMARK    8  A    between atoms: C_9  and  C_10 
REMARK    9  A    between atoms: C_10  and  C_11 
REMARK   10  A    between atoms: C_11  and  C_12 
REMARK   11  A    between atoms: C_12  and  C_13 
REMARK   12  A    between atoms: C_13  and  C_14 
REMARK   13  A    between atoms: C_14  and  C_15 
REMARK   14  A    between atoms: C_15  and  C_16 
REMARK   15  A    between atoms: C_16  and  O_18 
REMARK   16  A    between atoms: O_18  and  C_19 
ROOT
HETATM    1  C   UNL     1     -20.971  -3.781  -7.941  1.00  0.00     0.000 C 
ENDROOT
BRANCH   1   2
HETATM    2  C   UNL     1     -20.585  -4.496  -6.652  1.00  0.00     0.000 C 
BRANCH   2   3
HETATM    3  C   UNL     1     -21.035  -5.951  -6.695  1.00  0.00     0.000 C 
BRANCH   3   4
HETATM    4  C   UNL     1     -20.279  -6.779  -5.665  1.00  0.00     0.000 C 
BRANCH   4   5
HETATM    5  C   UNL     1     -21.253  -7.502  -4.744  1.00  0.00     0.000 C 
BRANCH   5   6
HETATM    6  C   UNL     1     -22.132  -6.503  -4.002  1.00  0.00     0.000 C 
BRANCH   6   7
HETATM    7  C   UNL     1     -21.595  -6.254  -2.598  1.00  0.00     0.000 C 
BRANCH   7   8
HETATM    8  C   UNL     1     -20.923  -7.507  -2.049  1.00  0.00     0.000 C 
BRANCH   8   9
HETATM    9  C   UNL     1     -21.728  -8.085  -0.888  1.00  0.00    -0.000 C 
BRANCH   9  10
HETATM   10  C   UNL     1     -22.287  -9.462  -1.240  1.00  0.00    -0.005 C 
HETATM   11  C   UNL     1     -23.243  -9.950  -0.167  1.00  0.00     0.005 C 
ENDBRANCH   9  10
ENDBRANCH   8   9
ENDBRANCH   7   8
ENDBRANCH   6   7
ENDBRANCH   5   6
ENDBRANCH   4   5
ENDBRANCH   3   4
ENDBRANCH   2   3
ENDBRANCH   1   2
BRANCH   1  12
HETATM   12  C   UNL     1     -20.933  -4.744  -9.120  1.00  0.00     0.000 C 
BRANCH  12  13
HETATM   13  C   UNL     1     -20.782  -3.995 -10.441  1.00  0.00     0.000 C 
BRANCH  13  14
HETATM   14  C   UNL     1     -22.045  -4.164 -11.276  1.00  0.00     0.010 C 
BRANCH  14  15
HETATM   15  C   UNL     1     -22.635  -2.831 -11.723  1.00  0.00     0.111 C 
BRANCH  15  16
HETATM   16  C   UNL     1     -24.107  -2.997 -12.024  1.00  0.00     0.259 C 
HETATM   17  O   UNL     1     -24.973  -3.189 -11.183  1.00  0.00    -0.265 OA
BRANCH  16  18
HETATM   18  O   UNL     1     -24.326  -2.910 -13.365  1.00  0.00    -0.317 OA
BRANCH  18  19
HETATM   19  C   UNL     1     -23.420  -2.041 -14.070  1.00  0.00     0.123 C 
HETATM   20  C   UNL     1     -22.620  -2.843 -15.093  1.00  0.00     0.040 C 
HETATM   21  C   UNL     1     -24.250  -0.971 -14.769  1.00  0.00     0.040 C 
ENDBRANCH  18  19
ENDBRANCH  16  18
ENDBRANCH  15  16
ENDBRANCH  14  15
ENDBRANCH  13  14
ENDBRANCH  12  13
ENDBRANCH   1  12
TORSDOF 16
ENDMDL
MODEL 6
REMARK VINA RESULT:      -6.5      1.219      1.938
REMARK  16 active torsions:
REMARK  status: ('A' for Active; 'I' for Inactive)
REMARK    1  A    between atoms: C_2  and  C_3 
REMARK    2  A    between atoms: C_3  and  C_4 
REMARK    3  A    between atoms: C_4  and  C_5 
REMARK    4  A    between atoms: C_5  and  C_6 
REMARK    5  A    between atoms: C_6  and  C_7 
REMARK    6  A    between atoms: C_7  and  C_8 
REMARK    7  A    between atoms: C_8  and  C_9 
REMARK    8  A    between atoms: C_9  and  C_10 
REMARK    9  A    between atoms: C_10  and  C_11 
REMARK   10  A    between atoms: C_11  and  C_12 
REMARK   11  A    between atoms: C_12  and  C_13 
REMARK   12  A    between atoms: C_13  and  C_14 
REMARK   13  A    between atoms: C_14  and  C_15 
REMARK   14  A    between atoms: C_15  and  C_16 
REMARK   15  A    between atoms: C_16  and  O_18 
REMARK   16  A    between atoms: O_18  and  C_19 
ROOT
HETATM    1  C   UNL     1     -19.826  -5.815  -7.163  1.00  0.00     0.000 C 
ENDROOT
BRANCH   1   2
HETATM    2  C   UNL     1     -21.037  -6.388  -6.436  1.00  0.00     0.000 C 
BRANCH   2   3
HETATM    3  C   UNL     1     -20.603  -7.106  -5.164  1.00  0.00     0.000 C 
BRANCH   3   4
HETATM    4  C   UNL     1     -21.388  -6.596  -3.963  1.00  0.00     0.000 C 
BRANCH   4   5
HETATM    5  C   UNL     1     -21.374  -7.626  -2.842  1.00  0.00     0.000 C 
BRANCH   5   6
HETATM    6  C   UNL     1     -20.044  -8.369  -2.811  1.00  0.00     0.000 C 
BRANCH   6   7
HETATM    7  C   UNL     1     -20.136  -9.597  -1.913  1.00  0.00     0.000 C 
BRANCH   7   8
HETATM    8  C   UNL     1     -21.548  -9.758  -1.364  1.00  0.00     0.000 C 
BRANCH   8   9
HETATM    9  C   UNL     1     -21.529  -9.833   0.160  1.00  0.00    -0.000 C 
BRANCH   9  10
HETATM   10  C   UNL     1     -21.706  -8.449   0.779  1.00  0.00    -0.005 C 
HETATM   11  C   UNL     1     -23.102  -7.911   0.517  1.00  0.00     0.005 C 
ENDBRANCH   9  10
ENDBRANCH   8   9
ENDBRANCH   7   8
ENDBRANCH   6   7
ENDBRANCH   5   6
ENDBRANCH   4   5
ENDBRANCH   3   4
ENDBRANCH   2   3
ENDBRANCH   1   2
BRANCH   1  12
HETATM   12  C   UNL     1     -20.119  -4.407  -7.662  1.00  0.00     0.000 C 
BRANCH  12  13
HETATM   13  C   UNL     1     -21.484  -3.922  -7.180  1.00  0.00     0.000 C 
BRANCH  13  14
HETATM   14  C   UNL     1     -22.284  -3.382  -8.359  1.00  0.00     0.010 C 
BRANCH  14  15
HETATM   15  C   UNL     1     -23.475  -4.266  -8.714  1.00  0.00     0.111 C 
BRANCH  15  16
HETATM   16  C   UNL     1     -24.333  -3.579  -9.751  1.00  0.00     0.259 C 
HETATM   17  O   UNL     1     -25.225  -2.782  -9.502  1.00  0.00    -0.265 OA
BRANCH  16  18
HETATM   18  O   UNL     1     -23.974  -3.984 -11.001  1.00  0.00    -0.317 OA
BRANCH  18  19
HETATM   19  C   UNL     1     -23.284  -2.991 -11.782  1.00  0.00     0.123 C 
HETATM   20  C   UNL     1     -21.862  -3.459 -12.081  1.00  0.00     0.040 C 
HETATM   21  C   UNL     1     -24.058  -2.797 -13.080  1.00  0.00     0.040 C 
ENDBRANCH  18  19
ENDBRANCH  16  18
ENDBRANCH  15  16
ENDBRANCH  14  15
ENDBRANCH  13  14
ENDBRANCH  12  13
ENDBRANCH   1  12
TORSDOF 16
ENDMDL
MODEL 7
REMARK VINA RESULT:      -6.3     12.583     14.877
REMARK  16 active torsions:
REMARK  status: ('A' for Active; 'I' for Inactive)
REMARK    1  A    between atoms: C_2  and  C_3 
REMARK    2  A    between atoms: C_3  and  C_4 
REMARK    3  A    between atoms: C_4  and  C_5 
REMARK    4  A    between atoms: C_5  and  C_6 
REMARK    5  A    between atoms: C_6  and  C_7 
REMARK    6  A    between atoms: C_7  and  C_8 
REMARK    7  A    between atoms: C_8  and  C_9 
REMARK    8  A    between atoms: C_9  and  C_10 
REMARK    9  A    between atoms: C_10  and  C_11 
REMARK   10  A    between atoms: C_11  and  C_12 
REMARK   11  A    between atoms: C_12  and  C_13 
REMARK   12  A    between atoms: C_13  and  C_14 
REMARK   13  A    between atoms: C_14  and  C_15 
REMARK   14  A    between atoms: C_15  and  C_16 
REMARK   15  A    between atoms: C_16  and  O_18 
REMARK   16  A    between atoms: O_18  and  C_19 
ROOT
HETATM    1  C   UNL     1     -36.030   0.098 -15.301  1.00  0.00     0.000 C 
ENDROOT
BRANCH   1   2
HETATM    2  C   UNL     1     -34.838   0.649 -14.527  1.00  0.00     0.000 C 
BRANCH   2   3
HETATM    3  C   UNL     1     -34.948   0.288 -13.051  1.00  0.00     0.000 C 
BRANCH   3   4
HETATM    4  C   UNL     1     -35.994  -0.797 -12.839  1.00  0.00     0.000 C 
BRANCH   4   5
HETATM    5  C   UNL     1     -35.520  -1.796 -11.791  1.00  0.00     0.000 C 
BRANCH   5   6
HETATM    6  C   UNL     1     -34.038  -1.604 -11.497  1.00  0.00     0.000 C 
BRANCH   6   7
HETATM    7  C   UNL     1     -33.442  -2.868 -10.889  1.00  0.00     0.000 C 
BRANCH   7   8
HETATM    8  C   UNL     1     -33.253  -3.940 -11.955  1.00  0.00     0.000 C 
BRANCH   8   9
HETATM    9  C   UNL     1     -33.303  -5.333 -11.333  1.00  0.00    -0.000 C 
BRANCH   9  10
HETATM   10  C   UNL     1     -34.677  -5.617 -10.732  1.00  0.00    -0.005 C 
HETATM   11  C   UNL     1     -34.657  -6.895  -9.913  1.00  0.00     0.005 C 
ENDBRANCH   9  10
ENDBRANCH   8   9
ENDBRANCH   7   8
ENDBRANCH   6   7
ENDBRANCH   5   6
ENDBRANCH   4   5
ENDBRANCH   3   4
ENDBRANCH   2   3
ENDBRANCH   1   2
BRANCH   1  12
HETATM   12  C   UNL     1     -35.560  -0.699 -16.510  1.00  0.00     0.000 C 
BRANCH  12  13
HETATM   13  C   UNL     1     -35.260  -2.148 -16.135  1.00  0.00     0.000 C 
BRANCH  13  14
HETATM   14  C   UNL     1     -34.091  -2.662 -16.965  1.00  0.00     0.010 C 
BRANCH  14  15
HETATM   15  C   UNL     1     -33.600  -4.030 -16.503  1.00  0.00     0.111 C 
BRANCH  15  16
HETATM   16  C   UNL     1     -32.185  -4.256 -16.984  1.00  0.00     0.259 C 
HETATM   17  O   UNL     1     -31.458  -3.388 -17.443  1.00  0.00    -0.265 OA
BRANCH  16  18
HETATM   18  O   UNL     1     -31.844  -5.567 -16.841  1.00  0.00    -0.317 OA
BRANCH  18  19
HETATM   19  C   UNL     1     -30.508  -5.893 -17.269  1.00  0.00     0.123 C 
HETATM   20  C   UNL     1     -29.599  -6.063 -16.055  1.00  0.00     0.040 C 
HETATM   21  C   UNL     1     -30.577  -7.192 -18.063  1.00  0.00     0.040 C 
ENDBRANCH  18  19
ENDBRANCH  16  18
ENDBRANCH  15  16
ENDBRANCH  14  15
ENDBRANCH  13  14
ENDBRANCH  12  13
ENDBRANCH   1  12
TORSDOF 16
ENDMDL
MODEL 8
REMARK VINA RESULT:      -6.1      3.710     10.061
REMARK  16 active torsions:
REMARK  status: ('A' for Active; 'I' for Inactive)
REMARK    1  A    between atoms: C_2  and  C_3 
REMARK    2  A    between atoms: C_3  and  C_4 
REMARK    3  A    between atoms: C_4  and  C_5 
REMARK    4  A    between atoms: C_5  and  C_6 
REMARK    5  A    between atoms: C_6  and  C_7 
REMARK    6  A    between atoms: C_7  and  C_8 
REMARK    7  A    between atoms: C_8  and  C_9 
REMARK    8  A    between atoms: C_9  and  C_10 
REMARK    9  A    between atoms: C_10  and  C_11 
REMARK   10  A    between atoms: C_11  and  C_12 
REMARK   11  A    between atoms: C_12  and  C_13 
REMARK   12  A    between atoms: C_13  and  C_14 
REMARK   13  A    between atoms: C_14  and  C_15 
REMARK   14  A    between atoms: C_15  and  C_16 
REMARK   15  A    between atoms: C_16  and  O_18 
REMARK   16  A    between atoms: O_18  and  C_19 
ROOT
HETATM    1  C   UNL     1     -21.288  -6.664  -4.672  1.00  0.00     0.000 C 
ENDROOT
BRANCH   1   2
HETATM    2  C   UNL     1     -21.657  -6.164  -6.064  1.00  0.00     0.000 C 
BRANCH   2   3
HETATM    3  C   UNL     1     -21.162  -4.737  -6.265  1.00  0.00     0.000 C 
BRANCH   3   4
HETATM    4  C   UNL     1     -19.747  -4.732  -6.827  1.00  0.00     0.000 C 
BRANCH   4   5
HETATM    5  C   UNL     1     -19.766  -5.046  -8.318  1.00  0.00     0.000 C 
BRANCH   5   6
HETATM    6  C   UNL     1     -20.711  -4.104  -9.053  1.00  0.00     0.000 C 
BRANCH   6   7
HETATM    7  C   UNL     1     -20.525  -4.227 -10.561  1.00  0.00     0.000 C 
BRANCH   7   8
HETATM    8  C   UNL     1     -21.865  -4.450 -11.252  1.00  0.00     0.000 C 
BRANCH   8   9
HETATM    9  C   UNL     1     -22.530  -3.116 -11.581  1.00  0.00    -0.000 C 
BRANCH   9  10
HETATM   10  C   UNL     1     -24.037  -3.182 -11.349  1.00  0.00    -0.005 C 
HETATM   11  C   UNL     1     -24.352  -3.383  -9.877  1.00  0.00     0.005 C 
ENDBRANCH   9  10
ENDBRANCH   8   9
ENDBRANCH   7   8
ENDBRANCH   6   7
ENDBRANCH   5   6
ENDBRANCH   4   5
ENDBRANCH   3   4
ENDBRANCH   2   3
ENDBRANCH   1   2
BRANCH   1  12
HETATM   12  C   UNL     1     -20.452  -7.933  -4.764  1.00  0.00     0.000 C 
BRANCH  12  13
HETATM   13  C   UNL     1     -20.126  -8.482  -3.377  1.00  0.00     0.000 C 
BRANCH  13  14
HETATM   14  C   UNL     1     -20.788  -7.617  -2.313  1.00  0.00     0.010 C 
BRANCH  14  15
HETATM   15  C   UNL     1     -20.938  -8.340  -0.978  1.00  0.00     0.111 C 
BRANCH  15  16
HETATM   16  C   UNL     1     -22.308  -8.070  -0.399  1.00  0.00     0.259 C 
HETATM   17  O   UNL     1     -22.889  -6.997  -0.456  1.00  0.00    -0.265 OA
BRANCH  16  18
HETATM   18  O   UNL     1     -22.794  -9.192   0.201  1.00  0.00    -0.317 OA
BRANCH  18  19
HETATM   19  C   UNL     1     -22.481 -10.423  -0.476  1.00  0.00     0.123 C 
HETATM   20  C   UNL     1     -21.778 -11.380   0.483  1.00  0.00     0.040 C 
HETATM   21  C   UNL     1     -23.790 -11.032  -0.964  1.00  0.00     0.040 C 
ENDBRANCH  18  19
ENDBRANCH  16  18
ENDBRANCH  15  16
ENDBRANCH  14  15
ENDBRANCH  13  14
ENDBRANCH  12  13
ENDBRANCH   1  12
TORSDOF 16
ENDMDL
MODEL 9
REMARK VINA RESULT:      -6.0      3.170      6.012
REMARK  16 active torsions:
REMARK  status: ('A' for Active; 'I' for Inactive)
REMARK    1  A    between atoms: C_2  and  C_3 
REMARK    2  A    between atoms: C_3  and  C_4 
REMARK    3  A    between atoms: C_4  and  C_5 
REMARK    4  A    between atoms: C_5  and  C_6 
REMARK    5  A    between atoms: C_6  and  C_7 
REMARK    6  A    between atoms: C_7  and  C_8 
REMARK    7  A    between atoms: C_8  and  C_9 
REMARK    8  A    between atoms: C_9  and  C_10 
REMARK    9  A    between atoms: C_10  and  C_11 
REMARK   10  A    between atoms: C_11  and  C_12 
REMARK   11  A    between atoms: C_12  and  C_13 
REMARK   12  A    between atoms: C_13  and  C_14 
REMARK   13  A    between atoms: C_14  and  C_15 
REMARK   14  A    between atoms: C_15  and  C_16 
REMARK   15  A    between atoms: C_16  and  O_18 
REMARK   16  A    between atoms: O_18  and  C_19 
ROOT
HETATM    1  C   UNL     1     -22.319  -7.136  -0.837  1.00  0.00     0.000 C 
ENDROOT
BRANCH   1   2
HETATM    2  C   UNL     1     -23.010  -7.851   0.318  1.00  0.00     0.000 C 
BRANCH   2   3
HETATM    3  C   UNL     1     -22.632  -9.326   0.333  1.00  0.00     0.000 C 
BRANCH   3   4
HETATM    4  C   UNL     1     -23.819 -10.191  -0.068  1.00  0.00     0.000 C 
BRANCH   4   5
HETATM    5  C   UNL     1     -23.488 -11.667   0.112  1.00  0.00     0.000 C 
BRANCH   5   6
HETATM    6  C   UNL     1     -23.469 -12.382  -1.233  1.00  0.00     0.000 C 
BRANCH   6   7
HETATM    7  C   UNL     1     -23.369 -11.377  -2.375  1.00  0.00     0.000 C 
BRANCH   7   8
HETATM    8  C   UNL     1     -22.008 -11.469  -3.055  1.00  0.00     0.000 C 
BRANCH   8   9
HETATM    9  C   UNL     1     -21.866 -10.389  -4.124  1.00  0.00    -0.000 C 
BRANCH   9  10
HETATM   10  C   UNL     1     -20.878 -10.816  -5.207  1.00  0.00    -0.005 C 
HETATM   11  C   UNL     1     -19.469 -10.366  -4.863  1.00  0.00     0.005 C 
ENDBRANCH   9  10
ENDBRANCH   8   9
ENDBRANCH   7   8
ENDBRANCH   6   7
ENDBRANCH   5   6
ENDBRANCH   4   5
ENDBRANCH   3   4
ENDBRANCH   2   3
ENDBRANCH   1   2
BRANCH   1  12
HETATM   12  C   UNL     1     -21.125  -7.942  -1.328  1.00  0.00     0.000 C 
BRANCH  12  13
HETATM   13  C   UNL     1     -20.617  -7.417  -2.669  1.00  0.00     0.000 C 
BRANCH  13  14
HETATM   14  C   UNL     1     -21.553  -6.332  -3.184  1.00  0.00     0.010 C 
BRANCH  14  15
HETATM   15  C   UNL     1     -22.162  -6.677  -4.539  1.00  0.00     0.111 C 
BRANCH  15  16
HETATM   16  C   UNL     1     -21.116  -6.544  -5.621  1.00  0.00     0.259 C 
HETATM   17  O   UNL     1     -20.670  -7.472  -6.279  1.00  0.00    -0.265 OA
BRANCH  16  18
HETATM   18  O   UNL     1     -20.736  -5.242  -5.750  1.00  0.00    -0.317 OA
BRANCH  18  19
HETATM   19  C   UNL     1     -20.617  -4.779  -7.107  1.00  0.00     0.123 C 
HETATM   20  C   UNL     1     -21.382  -3.469  -7.279  1.00  0.00     0.040 C 
HETATM   21  C   UNL     1     -19.137  -4.568  -7.401  1.00  0.00     0.040 C 
ENDBRANCH  18  19
ENDBRANCH  16  18
ENDBRANCH  15  16
ENDBRANCH  14  15
ENDBRANCH  13  14
ENDBRANCH  12  13
ENDBRANCH   1  12
TORSDOF 16
ENDMDL
