MODEL 1
REMARK VINA RESULT:      -6.0      0.000      0.000
REMARK  3 active torsions:
REMARK  status: ('A' for Active; 'I' for Inactive)
REMARK    1  A    between atoms: C_2  and  C_9 
REMARK    2  A    between atoms: C_5  and  O_8 
REMARK    3  A    between atoms: C_9  and  O_10 
ROOT
HETATM    1  C   UNL     1     -24.366  -3.077 -12.013  1.00  0.00     0.092 A 
HETATM    2  C   UNL     1     -23.154  -3.103 -12.591  1.00  0.00     0.080 A 
HETATM    3  O   UNL     1     -21.987  -3.336 -11.875  1.00  0.00    -0.322 OA
HETATM    4  C   UNL     1     -22.080  -3.539 -10.516  1.00  0.00     0.182 A 
HETATM    5  C   UNL     1     -23.217  -3.537  -9.811  1.00  0.00     0.138 A 
HETATM    6  C   UNL     1     -24.489  -3.302 -10.557  1.00  0.00     0.209 A 
HETATM    7  O   UNL     1     -25.591  -3.281 -10.018  1.00  0.00    -0.285 OA
ENDROOT
BRANCH   2   8
HETATM    8  C   UNL     1     -22.951  -2.859 -14.056  1.00  0.00     0.229 C 
BRANCH   8   9
HETATM    9  O   UNL     1     -23.766  -3.741 -14.816  1.00  0.00    -0.394 OA
HETATM   10  H   UNL     1     -23.879  -3.332 -15.690  1.00  0.00     0.209 HD
ENDBRANCH   8   9
ENDBRANCH   2   8
BRANCH   5  11
HETATM   11  O   UNL     1     -23.264  -3.735  -8.446  1.00  0.00    -0.355 OA
HETATM   12  H   UNL     1     -24.150  -3.505  -8.122  1.00  0.00     0.218 HD
ENDBRANCH   5  11
TORSDOF 3
ENDMDL
MODEL 2
REMARK VINA RESULT:      -5.9      1.427      2.303
REMARK  3 active torsions:
REMARK  status: ('A' for Active; 'I' for Inactive)
REMARK    1  A    between atoms: C_2  and  C_9 
REMARK    2  A    between atoms: C_5  and  O_8 
REMARK    3  A    between atoms: C_9  and  O_10 
ROOT
HETATM    1  C   UNL     1     -22.268  -3.330 -11.200  1.00  0.00     0.092 A 
HETATM    2  C   UNL     1     -23.385  -3.010 -11.874  1.00  0.00     0.080 A 
HETATM    3  O   UNL     1     -24.644  -3.025 -11.289  1.00  0.00    -0.322 OA
HETATM    4  C   UNL     1     -24.748  -3.393  -9.966  1.00  0.00     0.182 A 
HETATM    5  C   UNL     1     -23.724  -3.739  -9.177  1.00  0.00     0.138 A 
HETATM    6  C   UNL     1     -22.357  -3.718  -9.777  1.00  0.00     0.209 A 
HETATM    7  O   UNL     1     -21.343  -4.012  -9.151  1.00  0.00    -0.285 OA
ENDROOT
BRANCH   2   8
HETATM    8  C   UNL     1     -23.375  -2.631 -13.324  1.00  0.00     0.229 C 
BRANCH   8   9
HETATM    9  O   UNL     1     -24.543  -1.887 -13.642  1.00  0.00    -0.394 OA
HETATM   10  H   UNL     1     -24.336  -0.953 -13.466  1.00  0.00     0.209 HD
ENDBRANCH   8   9
ENDBRANCH   2   8
BRANCH   5  11
HETATM   11  O   UNL     1     -23.875  -4.111  -7.857  1.00  0.00    -0.355 OA
HETATM   12  H   UNL     1     -23.018  -4.034  -7.405  1.00  0.00     0.218 HD
ENDBRANCH   5  11
TORSDOF 3
ENDMDL
MODEL 3
REMARK VINA RESULT:      -5.9      1.592      2.902
REMARK  3 active torsions:
REMARK  status: ('A' for Active; 'I' for Inactive)
REMARK    1  A    between atoms: C_2  and  C_9 
REMARK    2  A    between atoms: C_5  and  O_8 
REMARK    3  A    between atoms: C_9  and  O_10 
ROOT
HETATM    1  C   UNL     1     -22.703  -3.593 -11.539  1.00  0.00     0.092 A 
HETATM    2  C   UNL     1     -21.956  -4.042 -10.517  1.00  0.00     0.080 A 
HETATM    3  O   UNL     1     -22.470  -4.237  -9.242  1.00  0.00    -0.322 OA
HETATM    4  C   UNL     1     -23.799  -3.950  -9.019  1.00  0.00     0.182 A 
HETATM    5  C   UNL     1     -24.655  -3.494  -9.940  1.00  0.00     0.138 A 
HETATM    6  C   UNL     1     -24.133  -3.288 -11.324  1.00  0.00     0.209 A 
HETATM    7  O   UNL     1     -24.825  -2.877 -12.250  1.00  0.00    -0.285 OA
ENDROOT
BRANCH   2   8
HETATM    8  C   UNL     1     -20.495  -4.348 -10.655  1.00  0.00     0.229 C 
BRANCH   8   9
HETATM    9  O   UNL     1     -19.966  -3.695 -11.802  1.00  0.00    -0.394 OA
HETATM   10  H   UNL     1     -20.620  -3.027 -12.068  1.00  0.00     0.209 HD
ENDBRANCH   8   9
ENDBRANCH   2   8
BRANCH   5  11
HETATM   11  O   UNL     1     -25.979  -3.209  -9.671  1.00  0.00    -0.355 OA
HETATM   12  H   UNL     1     -26.396  -2.850 -10.471  1.00  0.00     0.218 HD
ENDBRANCH   5  11
TORSDOF 3
ENDMDL
MODEL 4
REMARK VINA RESULT:      -5.8      1.401      4.132
REMARK  3 active torsions:
REMARK  status: ('A' for Active; 'I' for Inactive)
REMARK    1  A    between atoms: C_2  and  C_9 
REMARK    2  A    between atoms: C_5  and  O_8 
REMARK    3  A    between atoms: C_9  and  O_10 
ROOT
HETATM    1  C   UNL     1     -22.783  -3.594 -10.688  1.00  0.00     0.092 A 
HETATM    2  C   UNL     1     -24.105  -3.357 -10.646  1.00  0.00     0.080 A 
HETATM    3  O   UNL     1     -24.847  -3.044 -11.778  1.00  0.00    -0.322 OA
HETATM    4  C   UNL     1     -24.195  -2.965 -12.988  1.00  0.00     0.182 A 
HETATM    5  C   UNL     1     -22.887  -3.172 -13.176  1.00  0.00     0.138 A 
HETATM    6  C   UNL     1     -22.067  -3.524 -11.979  1.00  0.00     0.209 A 
HETATM    7  O   UNL     1     -20.860  -3.739 -12.029  1.00  0.00    -0.285 OA
ENDROOT
BRANCH   2   8
HETATM    8  C   UNL     1     -24.892  -3.385  -9.371  1.00  0.00     0.229 C 
BRANCH   8   9
HETATM    9  O   UNL     1     -26.281  -3.279  -9.653  1.00  0.00    -0.394 OA
HETATM   10  H   UNL     1     -26.376  -3.354 -10.618  1.00  0.00     0.209 HD
ENDBRANCH   8   9
ENDBRANCH   2   8
BRANCH   5  11
HETATM   11  O   UNL     1     -22.271  -3.073 -14.408  1.00  0.00    -0.355 OA
HETATM   12  H   UNL     1     -21.548  -3.719 -14.454  1.00  0.00     0.218 HD
ENDBRANCH   5  11
TORSDOF 3
ENDMDL
MODEL 5
REMARK VINA RESULT:      -5.6      1.545      3.985
REMARK  3 active torsions:
REMARK  status: ('A' for Active; 'I' for Inactive)
REMARK    1  A    between atoms: C_2  and  C_9 
REMARK    2  A    between atoms: C_5  and  O_8 
REMARK    3  A    between atoms: C_9  and  O_10 
ROOT
HETATM    1  C   UNL     1     -23.697  -3.540  -9.969  1.00  0.00     0.092 A 
HETATM    2  C   UNL     1     -22.613  -3.981  -9.310  1.00  0.00     0.080 A 
HETATM    3  O   UNL     1     -21.398  -4.219  -9.939  1.00  0.00    -0.322 OA
HETATM    4  C   UNL     1     -21.307  -3.999 -11.295  1.00  0.00     0.182 A 
HETATM    5  C   UNL     1     -22.303  -3.565 -12.076  1.00  0.00     0.138 A 
HETATM    6  C   UNL     1     -23.618  -3.289 -11.424  1.00  0.00     0.209 A 
HETATM    7  O   UNL     1     -24.601  -2.885 -12.036  1.00  0.00    -0.285 OA
ENDROOT
BRANCH   2   8
HETATM    8  C   UNL     1     -22.626  -4.281  -7.841  1.00  0.00     0.229 C 
BRANCH   8   9
HETATM    9  O   UNL     1     -23.949  -4.180  -7.334  1.00  0.00    -0.394 OA
HETATM   10  H   UNL     1     -23.966  -4.675  -6.497  1.00  0.00     0.209 HD
ENDBRANCH   8   9
ENDBRANCH   2   8
BRANCH   5  11
HETATM   11  O   UNL     1     -22.171  -3.368 -13.436  1.00  0.00    -0.355 OA
HETATM   12  H   UNL     1     -21.229  -3.274 -13.653  1.00  0.00     0.218 HD
ENDBRANCH   5  11
TORSDOF 3
ENDMDL
MODEL 6
REMARK VINA RESULT:      -5.5      1.401      3.331
REMARK  3 active torsions:
REMARK  status: ('A' for Active; 'I' for Inactive)
REMARK    1  A    between atoms: C_2  and  C_9 
REMARK    2  A    between atoms: C_5  and  O_8 
REMARK    3  A    between atoms: C_9  and  O_10 
ROOT
HETATM    1  C   UNL     1     -23.105  -3.730  -9.939  1.00  0.00     0.092 A 
HETATM    2  C   UNL     1     -21.871  -3.742 -10.470  1.00  0.00     0.080 A 
HETATM    3  O   UNL     1     -21.613  -3.348 -11.776  1.00  0.00    -0.322 OA
HETATM    4  C   UNL     1     -22.669  -2.937 -12.558  1.00  0.00     0.182 A 
HETATM    5  C   UNL     1     -23.946  -2.878 -12.163  1.00  0.00     0.138 A 
HETATM    6  C   UNL     1     -24.251  -3.283 -10.758  1.00  0.00     0.209 A 
HETATM    7  O   UNL     1     -25.382  -3.268 -10.284  1.00  0.00    -0.285 OA
ENDROOT
BRANCH   2   8
HETATM    8  C   UNL     1     -20.666  -4.206  -9.708  1.00  0.00     0.229 C 
BRANCH   8   9
HETATM    9  O   UNL     1     -19.806  -4.949 -10.561  1.00  0.00    -0.394 OA
HETATM   10  H   UNL     1     -20.194  -5.836 -10.644  1.00  0.00     0.209 HD
ENDBRANCH   8   9
ENDBRANCH   2   8
BRANCH   5  11
HETATM   11  O   UNL     1     -24.977  -2.469 -12.984  1.00  0.00    -0.355 OA
HETATM   12  H   UNL     1     -24.717  -1.648 -13.436  1.00  0.00     0.218 HD
ENDBRANCH   5  11
TORSDOF 3
ENDMDL
MODEL 7
REMARK VINA RESULT:      -5.2      1.499      4.532
REMARK  3 active torsions:
REMARK  status: ('A' for Active; 'I' for Inactive)
REMARK    1  A    between atoms: C_2  and  C_9 
REMARK    2  A    between atoms: C_5  and  O_8 
REMARK    3  A    between atoms: C_9  and  O_10 
ROOT
HETATM    1  C   UNL     1     -22.128  -4.057  -9.888  1.00  0.00     0.092 A 
HETATM    2  C   UNL     1     -23.030  -4.023  -8.894  1.00  0.00     0.080 A 
HETATM    3  O   UNL     1     -24.352  -3.646  -9.093  1.00  0.00    -0.322 OA
HETATM    4  C   UNL     1     -24.747  -3.285 -10.362  1.00  0.00     0.182 A 
HETATM    5  C   UNL     1     -23.958  -3.269 -11.441  1.00  0.00     0.138 A 
HETATM    6  C   UNL     1     -22.534  -3.683 -11.259  1.00  0.00     0.209 A 
HETATM    7  O   UNL     1     -21.719  -3.710 -12.176  1.00  0.00    -0.285 OA
ENDROOT
BRANCH   2   8
HETATM    8  C   UNL     1     -22.685  -4.364  -7.476  1.00  0.00     0.229 C 
BRANCH   8   9
HETATM    9  O   UNL     1     -23.867  -4.443  -6.691  1.00  0.00    -0.394 OA
HETATM   10  H   UNL     1     -24.616  -4.390  -7.309  1.00  0.00     0.209 HD
ENDBRANCH   8   9
ENDBRANCH   2   8
BRANCH   5  11
HETATM   11  O   UNL     1     -24.393  -2.890 -12.695  1.00  0.00    -0.355 OA
HETATM   12  H   UNL     1     -23.921  -3.409 -13.366  1.00  0.00     0.218 HD
ENDBRANCH   5  11
TORSDOF 3
ENDMDL
MODEL 8
REMARK VINA RESULT:      -5.1      6.627      8.092
REMARK  3 active torsions:
REMARK  status: ('A' for Active; 'I' for Inactive)
REMARK    1  A    between atoms: C_2  and  C_9 
REMARK    2  A    between atoms: C_5  and  O_8 
REMARK    3  A    between atoms: C_9  and  O_10 
ROOT
HETATM    1  C   UNL     1     -27.886  -6.936 -15.866  1.00  0.00     0.092 A 
HETATM    2  C   UNL     1     -28.668  -6.521 -16.876  1.00  0.00     0.080 A 
HETATM    3  O   UNL     1     -28.159  -6.125 -18.106  1.00  0.00    -0.322 OA
HETATM    4  C   UNL     1     -26.794  -6.151 -18.289  1.00  0.00     0.182 A 
HETATM    5  C   UNL     1     -25.899  -6.537 -17.373  1.00  0.00     0.138 A 
HETATM    6  C   UNL     1     -26.420  -6.981 -16.046  1.00  0.00     0.209 A 
HETATM    7  O   UNL     1     -25.695  -7.359 -15.130  1.00  0.00    -0.285 OA
ENDROOT
BRANCH   2   8
HETATM    8  C   UNL     1     -30.160  -6.425 -16.758  1.00  0.00     0.229 C 
BRANCH   8   9
HETATM    9  O   UNL     1     -30.514  -5.331 -15.922  1.00  0.00    -0.394 OA
HETATM   10  H   UNL     1     -29.684  -4.982 -15.554  1.00  0.00     0.209 HD
ENDBRANCH   8   9
ENDBRANCH   2   8
BRANCH   5  11
HETATM   11  O   UNL     1     -24.536  -6.539 -17.596  1.00  0.00    -0.355 OA
HETATM   12  H   UNL     1     -24.370  -6.663 -18.545  1.00  0.00     0.218 HD
ENDBRANCH   5  11
TORSDOF 3
ENDMDL
MODEL 9
REMARK VINA RESULT:      -5.0     10.797     11.431
REMARK  3 active torsions:
REMARK  status: ('A' for Active; 'I' for Inactive)
REMARK    1  A    between atoms: C_2  and  C_9 
REMARK    2  A    between atoms: C_5  and  O_8 
REMARK    3  A    between atoms: C_9  and  O_10 
ROOT
HETATM    1  C   UNL     1     -34.089  -3.714 -10.646  1.00  0.00     0.092 A 
HETATM    2  C   UNL     1     -34.505  -4.379 -11.735  1.00  0.00     0.080 A 
HETATM    3  O   UNL     1     -34.913  -3.736 -12.897  1.00  0.00    -0.322 OA
HETATM    4  C   UNL     1     -34.898  -2.359 -12.924  1.00  0.00     0.182 A 
HETATM    5  C   UNL     1     -34.512  -1.571 -11.914  1.00  0.00     0.138 A 
HETATM    6  C   UNL     1     -34.055  -2.236 -10.658  1.00  0.00     0.209 A 
HETATM    7  O   UNL     1     -33.677  -1.618  -9.668  1.00  0.00    -0.285 OA
ENDROOT
BRANCH   2   8
HETATM    8  C   UNL     1     -34.590  -5.875 -11.788  1.00  0.00     0.229 C 
BRANCH   8   9
HETATM    9  O   UNL     1     -35.200  -6.287 -13.003  1.00  0.00    -0.394 OA
HETATM   10  H   UNL     1     -35.906  -5.646 -13.192  1.00  0.00     0.209 HD
ENDBRANCH   8   9
ENDBRANCH   2   8
BRANCH   5  11
HETATM   11  O   UNL     1     -34.522  -0.192 -11.981  1.00  0.00    -0.355 OA
HETATM   12  H   UNL     1     -33.900   0.162 -11.324  1.00  0.00     0.218 HD
ENDBRANCH   5  11
TORSDOF 3
ENDMDL
