MODEL 1
REMARK VINA RESULT:      -5.9      0.000      0.000
REMARK  19 active torsions:
REMARK  status: ('A' for Active; 'I' for Inactive)
REMARK    1  A    between atoms: C_2  and  C_3 
REMARK    2  A    between atoms: C_3  and  C_4 
REMARK    3  A    between atoms: C_4  and  O_5 
REMARK    4  A    between atoms: O_5  and  C_6 
REMARK    5  A    between atoms: C_6  and  C_8 
REMARK    6  A    between atoms: C_8  and  C_9 
REMARK    7  A    between atoms: C_9  and  C_10 
REMARK    8  A    between atoms: C_9  and  C_18 
REMARK    9  A    between atoms: C_9  and  O_25 
REMARK   10  A    between atoms: C_10  and  C_11 
REMARK   11  A    between atoms: C_11  and  O_13 
REMARK   12  A    between atoms: O_13  and  C_14 
REMARK   13  A    between atoms: C_14  and  C_15 
REMARK   14  A    between atoms: C_15  and  C_16 
REMARK   15  A    between atoms: C_18  and  O_20 
REMARK   16  A    between atoms: O_20  and  C_21 
REMARK   17  A    between atoms: C_21  and  C_22 
REMARK   18  A    between atoms: C_22  and  C_23 
REMARK   19  A    between atoms: O_25  and  C_26 
ROOT
HETATM    1  C   UNL     1     -21.012  -8.368  -4.522  1.00  0.00     0.175 C 
ENDROOT
BRANCH   1   2
HETATM    2  C   UNL     1     -20.429  -7.423  -3.467  1.00  0.00     0.161 C 
BRANCH   2   3
HETATM    3  C   UNL     1     -21.476  -6.845  -2.552  1.00  0.00     0.262 C 
HETATM    4  O   UNL     1     -22.308  -6.013  -2.865  1.00  0.00    -0.265 OA
BRANCH   3   5
HETATM    5  O   UNL     1     -21.323  -7.350  -1.297  1.00  0.00    -0.321 OA
BRANCH   5   6
HETATM    6  C   UNL     1     -22.517  -7.271  -0.515  1.00  0.00     0.178 C 
BRANCH   6   7
HETATM    7  C   UNL     1     -22.590  -8.352   0.555  1.00  0.00     0.026 C 
BRANCH   7   8
HETATM    8  C   UNL     1     -21.245  -8.591   1.239  1.00  0.00    -0.002 C 
HETATM    9  C   UNL     1     -20.798 -10.036   1.090  1.00  0.00     0.005 C 
ENDBRANCH   7   8
ENDBRANCH   6   7
ENDBRANCH   5   6
ENDBRANCH   3   5
ENDBRANCH   2   3
ENDBRANCH   1   2
BRANCH   1  10
HETATM   10  C   UNL     1     -21.615  -7.605  -5.714  1.00  0.00     0.161 C 
BRANCH  10  11
HETATM   11  C   UNL     1     -20.774  -6.463  -6.256  1.00  0.00     0.262 C 
HETATM   12  O   UNL     1     -19.681  -6.584  -6.780  1.00  0.00    -0.265 OA
BRANCH  11  13
HETATM   13  O   UNL     1     -21.325  -5.268  -5.895  1.00  0.00    -0.321 OA
BRANCH  13  14
HETATM   14  C   UNL     1     -22.242  -4.747  -6.866  1.00  0.00     0.178 C 
BRANCH  14  15
HETATM   15  C   UNL     1     -21.627  -3.666  -7.745  1.00  0.00     0.026 C 
BRANCH  15  16
HETATM   16  C   UNL     1     -21.719  -4.075  -9.218  1.00  0.00    -0.002 C 
HETATM   17  C   UNL     1     -20.371  -4.475  -9.789  1.00  0.00     0.005 C 
ENDBRANCH  15  16
ENDBRANCH  14  15
ENDBRANCH  13  14
ENDBRANCH  11  13
ENDBRANCH  10  11
ENDBRANCH   1  10
BRANCH   1  18
HETATM   18  C   UNL     1     -19.900  -9.279  -5.092  1.00  0.00     0.295 C 
HETATM   19  O   UNL     1     -20.075 -10.101  -5.981  1.00  0.00    -0.262 OA
BRANCH  18  20
HETATM   20  O   UNL     1     -18.733  -9.121  -4.393  1.00  0.00    -0.319 OA
BRANCH  20  21
HETATM   21  C   UNL     1     -17.854 -10.255  -4.380  1.00  0.00     0.178 C 
BRANCH  21  22
HETATM   22  C   UNL     1     -16.381  -9.861  -4.292  1.00  0.00     0.026 C 
BRANCH  22  23
HETATM   23  C   UNL     1     -16.015  -9.557  -2.835  1.00  0.00    -0.002 C 
HETATM   24  C   UNL     1     -15.843 -10.812  -1.997  1.00  0.00     0.005 C 
ENDBRANCH  22  23
ENDBRANCH  21  22
ENDBRANCH  20  21
ENDBRANCH  18  20
ENDBRANCH   1  18
BRANCH   1  25
HETATM   25  O   UNL     1     -22.092  -9.167  -3.946  1.00  0.00    -0.299 OA
BRANCH  25  26
HETATM   26  C   UNL     1     -21.739 -10.323  -3.319  1.00  0.00     0.256 C 
HETATM   27  O   UNL     1     -20.973 -10.396  -2.367  1.00  0.00    -0.266 OA
HETATM   28  C   UNL     1     -22.393 -11.527  -3.919  1.00  0.00     0.126 C 
ENDBRANCH  25  26
ENDBRANCH   1  25
TORSDOF 19
ENDMDL
MODEL 2
REMARK VINA RESULT:      -5.7      2.337      4.031
REMARK  19 active torsions:
REMARK  status: ('A' for Active; 'I' for Inactive)
REMARK    1  A    between atoms: C_2  and  C_3 
REMARK    2  A    between atoms: C_3  and  C_4 
REMARK    3  A    between atoms: C_4  and  O_5 
REMARK    4  A    between atoms: O_5  and  C_6 
REMARK    5  A    between atoms: C_6  and  C_8 
REMARK    6  A    between atoms: C_8  and  C_9 
REMARK    7  A    between atoms: C_9  and  C_10 
REMARK    8  A    between atoms: C_9  and  C_18 
REMARK    9  A    between atoms: C_9  and  O_25 
REMARK   10  A    between atoms: C_10  and  C_11 
REMARK   11  A    between atoms: C_11  and  O_13 
REMARK   12  A    between atoms: O_13  and  C_14 
REMARK   13  A    between atoms: C_14  and  C_15 
REMARK   14  A    between atoms: C_15  and  C_16 
REMARK   15  A    between atoms: C_18  and  O_20 
REMARK   16  A    between atoms: O_20  and  C_21 
REMARK   17  A    between atoms: C_21  and  C_22 
REMARK   18  A    between atoms: C_22  and  C_23 
REMARK   19  A    between atoms: O_25  and  C_26 
ROOT
HETATM    1  C   UNL     1     -19.828  -9.839  -4.910  1.00  0.00     0.175 C 
ENDROOT
BRANCH   1   2
HETATM    2  C   UNL     1     -19.893 -10.788  -3.708  1.00  0.00     0.161 C 
BRANCH   2   3
HETATM    3  C   UNL     1     -20.435 -10.129  -2.468  1.00  0.00     0.262 C 
HETATM    4  O   UNL     1     -19.766  -9.646  -1.573  1.00  0.00    -0.265 OA
BRANCH   3   5
HETATM    5  O   UNL     1     -21.795 -10.199  -2.462  1.00  0.00    -0.321 OA
BRANCH   5   6
HETATM    6  C   UNL     1     -22.286 -11.440  -1.951  1.00  0.00     0.178 C 
BRANCH   6   7
HETATM    7  C   UNL     1     -23.764 -11.379  -1.585  1.00  0.00     0.026 C 
BRANCH   7   8
HETATM    8  C   UNL     1     -23.992 -11.316  -0.076  1.00  0.00    -0.002 C 
HETATM    9  C   UNL     1     -23.362 -12.507   0.628  1.00  0.00     0.005 C 
ENDBRANCH   7   8
ENDBRANCH   6   7
ENDBRANCH   5   6
ENDBRANCH   3   5
ENDBRANCH   2   3
ENDBRANCH   1   2
BRANCH   1  10
HETATM   10  C   UNL     1     -19.946  -8.364  -4.490  1.00  0.00     0.161 C 
BRANCH  10  11
HETATM   11  C   UNL     1     -21.024  -7.563  -5.198  1.00  0.00     0.262 C 
HETATM   12  O   UNL     1     -20.991  -7.222  -6.367  1.00  0.00    -0.265 OA
BRANCH  11  13
HETATM   13  O   UNL     1     -21.939  -7.113  -4.292  1.00  0.00    -0.321 OA
BRANCH  13  14
HETATM   14  C   UNL     1     -21.349  -6.630  -3.078  1.00  0.00     0.178 C 
BRANCH  14  15
HETATM   15  C   UNL     1     -22.370  -6.404  -1.970  1.00  0.00     0.026 C 
BRANCH  15  16
HETATM   16  C   UNL     1     -21.888  -7.065  -0.674  1.00  0.00    -0.002 C 
HETATM   17  C   UNL     1     -22.976  -7.893  -0.012  1.00  0.00     0.005 C 
ENDBRANCH  15  16
ENDBRANCH  14  15
ENDBRANCH  13  14
ENDBRANCH  11  13
ENDBRANCH  10  11
ENDBRANCH   1  10
BRANCH   1  18
HETATM   18  C   UNL     1     -18.470  -9.991  -5.633  1.00  0.00     0.295 C 
HETATM   19  O   UNL     1     -18.163  -9.385  -6.650  1.00  0.00    -0.262 OA
BRANCH  18  20
HETATM   20  O   UNL     1     -17.712 -10.970  -5.048  1.00  0.00    -0.319 OA
BRANCH  20  21
HETATM   21  C   UNL     1     -16.294 -10.749  -5.054  1.00  0.00     0.178 C 
BRANCH  21  22
HETATM   22  C   UNL     1     -15.872  -9.593  -4.151  1.00  0.00     0.026 C 
BRANCH  22  23
HETATM   23  C   UNL     1     -16.376  -9.842  -2.724  1.00  0.00    -0.002 C 
HETATM   24  C   UNL     1     -15.751 -11.070  -2.085  1.00  0.00     0.005 C 
ENDBRANCH  22  23
ENDBRANCH  21  22
ENDBRANCH  20  21
ENDBRANCH  18  20
ENDBRANCH   1  18
BRANCH   1  25
HETATM   25  O   UNL     1     -20.936 -10.104  -5.826  1.00  0.00    -0.299 OA
BRANCH  25  26
HETATM   26  C   UNL     1     -21.081 -11.384  -6.266  1.00  0.00     0.256 C 
HETATM   27  O   UNL     1     -20.390 -11.909  -7.129  1.00  0.00    -0.266 OA
HETATM   28  C   UNL     1     -22.192 -12.109  -5.575  1.00  0.00     0.126 C 
ENDBRANCH  25  26
ENDBRANCH   1  25
TORSDOF 19
ENDMDL
MODEL 3
REMARK VINA RESULT:      -5.7      1.365      2.108
REMARK  19 active torsions:
REMARK  status: ('A' for Active; 'I' for Inactive)
REMARK    1  A    between atoms: C_2  and  C_3 
REMARK    2  A    between atoms: C_3  and  C_4 
REMARK    3  A    between atoms: C_4  and  O_5 
REMARK    4  A    between atoms: O_5  and  C_6 
REMARK    5  A    between atoms: C_6  and  C_8 
REMARK    6  A    between atoms: C_8  and  C_9 
REMARK    7  A    between atoms: C_9  and  C_10 
REMARK    8  A    between atoms: C_9  and  C_18 
REMARK    9  A    between atoms: C_9  and  O_25 
REMARK   10  A    between atoms: C_10  and  C_11 
REMARK   11  A    between atoms: C_11  and  O_13 
REMARK   12  A    between atoms: O_13  and  C_14 
REMARK   13  A    between atoms: C_14  and  C_15 
REMARK   14  A    between atoms: C_15  and  C_16 
REMARK   15  A    between atoms: C_18  and  O_20 
REMARK   16  A    between atoms: O_20  and  C_21 
REMARK   17  A    between atoms: C_21  and  C_22 
REMARK   18  A    between atoms: C_22  and  C_23 
REMARK   19  A    between atoms: O_25  and  C_26 
ROOT
HETATM    1  C   UNL     1     -20.995  -8.374  -3.352  1.00  0.00     0.175 C 
ENDROOT
BRANCH   1   2
HETATM    2  C   UNL     1     -20.998  -7.190  -2.380  1.00  0.00     0.161 C 
BRANCH   2   3
HETATM    3  C   UNL     1     -21.737  -7.481  -1.101  1.00  0.00     0.262 C 
HETATM    4  O   UNL     1     -22.841  -7.057  -0.809  1.00  0.00    -0.265 OA
BRANCH   3   5
HETATM    5  O   UNL     1     -20.965  -8.249  -0.284  1.00  0.00    -0.321 OA
BRANCH   5   6
HETATM    6  C   UNL     1     -21.732  -9.042   0.624  1.00  0.00     0.178 C 
BRANCH   6   7
HETATM    7  C   UNL     1     -21.375 -10.521   0.558  1.00  0.00     0.026 C 
BRANCH   7   8
HETATM    8  C   UNL     1     -22.590 -11.405   0.282  1.00  0.00    -0.002 C 
HETATM    9  C   UNL     1     -23.782 -10.579  -0.172  1.00  0.00     0.005 C 
ENDBRANCH   7   8
ENDBRANCH   6   7
ENDBRANCH   5   6
ENDBRANCH   3   5
ENDBRANCH   2   3
ENDBRANCH   1   2
BRANCH   1  10
HETATM   10  C   UNL     1     -21.523  -7.983  -4.743  1.00  0.00     0.161 C 
BRANCH  10  11
HETATM   11  C   UNL     1     -21.888  -6.520  -4.919  1.00  0.00     0.262 C 
HETATM   12  O   UNL     1     -23.024  -6.082  -4.974  1.00  0.00    -0.265 OA
BRANCH  11  13
HETATM   13  O   UNL     1     -20.769  -5.793  -5.203  1.00  0.00    -0.321 OA
BRANCH  13  14
HETATM   14  C   UNL     1     -20.102  -6.217  -6.400  1.00  0.00     0.178 C 
BRANCH  14  15
HETATM   15  C   UNL     1     -19.889  -5.083  -7.394  1.00  0.00     0.026 C 
BRANCH  15  16
HETATM   16  C   UNL     1     -21.110  -4.954  -8.309  1.00  0.00    -0.002 C 
HETATM   17  C   UNL     1     -21.995  -3.781  -7.926  1.00  0.00     0.005 C 
ENDBRANCH  15  16
ENDBRANCH  14  15
ENDBRANCH  13  14
ENDBRANCH  11  13
ENDBRANCH  10  11
ENDBRANCH   1  10
BRANCH   1  18
HETATM   18  C   UNL     1     -19.552  -8.893  -3.552  1.00  0.00     0.295 C 
HETATM   19  O   UNL     1     -18.710  -8.940  -2.665  1.00  0.00    -0.262 OA
BRANCH  18  20
HETATM   20  O   UNL     1     -19.316  -9.183  -4.869  1.00  0.00    -0.319 OA
BRANCH  20  21
HETATM   21  C   UNL     1     -18.292 -10.157  -5.120  1.00  0.00     0.178 C 
BRANCH  21  22
HETATM   22  C   UNL     1     -17.265  -9.684  -6.146  1.00  0.00     0.026 C 
BRANCH  22  23
HETATM   23  C   UNL     1     -15.849  -9.933  -5.611  1.00  0.00    -0.002 C 
HETATM   24  C   UNL     1     -15.818 -10.147  -4.108  1.00  0.00     0.005 C 
ENDBRANCH  22  23
ENDBRANCH  21  22
ENDBRANCH  20  21
ENDBRANCH  18  20
ENDBRANCH   1  18
BRANCH   1  25
HETATM   25  O   UNL     1     -21.865  -9.439  -2.857  1.00  0.00    -0.299 OA
BRANCH  25  26
HETATM   26  C   UNL     1     -21.540 -10.714  -3.206  1.00  0.00     0.256 C 
HETATM   27  O   UNL     1     -20.674 -11.388  -2.662  1.00  0.00    -0.266 OA
HETATM   28  C   UNL     1     -22.362 -11.229  -4.344  1.00  0.00     0.126 C 
ENDBRANCH  25  26
ENDBRANCH   1  25
TORSDOF 19
ENDMDL
MODEL 4
REMARK VINA RESULT:      -5.6      1.689      5.044
REMARK  19 active torsions:
REMARK  status: ('A' for Active; 'I' for Inactive)
REMARK    1  A    between atoms: C_2  and  C_3 
REMARK    2  A    between atoms: C_3  and  C_4 
REMARK    3  A    between atoms: C_4  and  O_5 
REMARK    4  A    between atoms: O_5  and  C_6 
REMARK    5  A    between atoms: C_6  and  C_8 
REMARK    6  A    between atoms: C_8  and  C_9 
REMARK    7  A    between atoms: C_9  and  C_10 
REMARK    8  A    between atoms: C_9  and  C_18 
REMARK    9  A    between atoms: C_9  and  O_25 
REMARK   10  A    between atoms: C_10  and  C_11 
REMARK   11  A    between atoms: C_11  and  O_13 
REMARK   12  A    between atoms: O_13  and  C_14 
REMARK   13  A    between atoms: C_14  and  C_15 
REMARK   14  A    between atoms: C_15  and  C_16 
REMARK   15  A    between atoms: C_18  and  O_20 
REMARK   16  A    between atoms: O_20  and  C_21 
REMARK   17  A    between atoms: C_21  and  C_22 
REMARK   18  A    between atoms: C_22  and  C_23 
REMARK   19  A    between atoms: O_25  and  C_26 
ROOT
HETATM    1  C   UNL     1     -20.624  -8.706  -2.240  1.00  0.00     0.175 C 
ENDROOT
BRANCH   1   2
HETATM    2  C   UNL     1     -19.293  -8.514  -2.974  1.00  0.00     0.161 C 
BRANCH   2   3
HETATM    3  C   UNL     1     -19.244  -9.229  -4.298  1.00  0.00     0.262 C 
HETATM    4  O   UNL     1     -19.976  -9.013  -5.246  1.00  0.00    -0.265 OA
BRANCH   3   5
HETATM    5  O   UNL     1     -18.290 -10.199  -4.264  1.00  0.00    -0.321 OA
BRANCH   5   6
HETATM    6  C   UNL     1     -17.185  -9.925  -5.128  1.00  0.00     0.178 C 
BRANCH   6   7
HETATM    7  C   UNL     1     -15.841 -10.086  -4.429  1.00  0.00     0.026 C 
BRANCH   7   8
HETATM    8  C   UNL     1     -15.886  -9.652  -2.965  1.00  0.00    -0.002 C 
HETATM    9  C   UNL     1     -15.757 -10.845  -2.031  1.00  0.00     0.005 C 
ENDBRANCH   7   8
ENDBRANCH   6   7
ENDBRANCH   5   6
ENDBRANCH   3   5
ENDBRANCH   2   3
ENDBRANCH   1   2
BRANCH   1  10
HETATM   10  C   UNL     1     -21.801  -8.063  -2.995  1.00  0.00     0.161 C 
BRANCH  10  11
HETATM   11  C   UNL     1     -21.798  -6.545  -3.045  1.00  0.00     0.262 C 
HETATM   12  O   UNL     1     -22.417  -5.817  -2.289  1.00  0.00    -0.265 OA
BRANCH  11  13
HETATM   13  O   UNL     1     -21.163  -6.119  -4.174  1.00  0.00    -0.321 OA
BRANCH  13  14
HETATM   14  C   UNL     1     -21.984  -6.181  -5.348  1.00  0.00     0.178 C 
BRANCH  14  15
HETATM   15  C   UNL     1     -21.307  -5.590  -6.578  1.00  0.00     0.026 C 
BRANCH  15  16
HETATM   16  C   UNL     1     -20.062  -4.801  -6.161  1.00  0.00    -0.002 C 
HETATM   17  C   UNL     1     -19.122  -4.551  -7.326  1.00  0.00     0.005 C 
ENDBRANCH  15  16
ENDBRANCH  14  15
ENDBRANCH  13  14
ENDBRANCH  11  13
ENDBRANCH  10  11
ENDBRANCH   1  10
BRANCH   1  18
HETATM   18  C   UNL     1     -20.947 -10.213  -2.111  1.00  0.00     0.295 C 
HETATM   19  O   UNL     1     -20.159 -11.051  -1.694  1.00  0.00    -0.262 OA
BRANCH  18  20
HETATM   20  O   UNL     1     -22.184 -10.493  -2.630  1.00  0.00    -0.319 OA
BRANCH  20  21
HETATM   21  C   UNL     1     -22.862 -11.618  -2.052  1.00  0.00     0.178 C 
BRANCH  21  22
HETATM   22  C   UNL     1     -24.013 -11.208  -1.136  1.00  0.00     0.026 C 
BRANCH  22  23
HETATM   23  C   UNL     1     -23.783 -11.780   0.268  1.00  0.00    -0.002 C 
HETATM   24  C   UNL     1     -22.463 -12.522   0.392  1.00  0.00     0.005 C 
ENDBRANCH  22  23
ENDBRANCH  21  22
ENDBRANCH  20  21
ENDBRANCH  18  20
ENDBRANCH   1  18
BRANCH   1  25
HETATM   25  O   UNL     1     -20.575  -8.072  -0.924  1.00  0.00    -0.299 OA
BRANCH  25  26
HETATM   26  C   UNL     1     -21.524  -8.446  -0.022  1.00  0.00     0.256 C 
HETATM   27  O   UNL     1     -22.722  -8.223  -0.136  1.00  0.00    -0.266 OA
HETATM   28  C   UNL     1     -20.949  -9.176   1.151  1.00  0.00     0.126 C 
ENDBRANCH  25  26
ENDBRANCH   1  25
TORSDOF 19
ENDMDL
MODEL 5
REMARK VINA RESULT:      -5.5      1.552      6.659
REMARK  19 active torsions:
REMARK  status: ('A' for Active; 'I' for Inactive)
REMARK    1  A    between atoms: C_2  and  C_3 
REMARK    2  A    between atoms: C_3  and  C_4 
REMARK    3  A    between atoms: C_4  and  O_5 
REMARK    4  A    between atoms: O_5  and  C_6 
REMARK    5  A    between atoms: C_6  and  C_8 
REMARK    6  A    between atoms: C_8  and  C_9 
REMARK    7  A    between atoms: C_9  and  C_10 
REMARK    8  A    between atoms: C_9  and  C_18 
REMARK    9  A    between atoms: C_9  and  O_25 
REMARK   10  A    between atoms: C_10  and  C_11 
REMARK   11  A    between atoms: C_11  and  O_13 
REMARK   12  A    between atoms: O_13  and  C_14 
REMARK   13  A    between atoms: C_14  and  C_15 
REMARK   14  A    between atoms: C_15  and  C_16 
REMARK   15  A    between atoms: C_18  and  O_20 
REMARK   16  A    between atoms: O_20  and  C_21 
REMARK   17  A    between atoms: C_21  and  C_22 
REMARK   18  A    between atoms: C_22  and  C_23 
REMARK   19  A    between atoms: O_25  and  C_26 
ROOT
HETATM    1  C   UNL     1     -20.472  -9.859  -3.913  1.00  0.00     0.175 C 
ENDROOT
BRANCH   1   2
HETATM    2  C   UNL     1     -21.681  -9.169  -4.553  1.00  0.00     0.161 C 
BRANCH   2   3
HETATM    3  C   UNL     1     -21.458  -7.701  -4.801  1.00  0.00     0.262 C 
HETATM    4  O   UNL     1     -21.568  -6.819  -3.969  1.00  0.00    -0.265 OA
BRANCH   3   5
HETATM    5  O   UNL     1     -21.166  -7.492  -6.114  1.00  0.00    -0.321 OA
BRANCH   5   6
HETATM    6  C   UNL     1     -21.053  -6.107  -6.446  1.00  0.00     0.178 C 
BRANCH   6   7
HETATM    7  C   UNL     1     -19.748  -5.780  -7.158  1.00  0.00     0.026 C 
BRANCH   7   8
HETATM    8  C   UNL     1     -19.761  -4.392  -7.798  1.00  0.00    -0.002 C 
HETATM    9  C   UNL     1     -20.242  -4.453  -9.239  1.00  0.00     0.005 C 
ENDBRANCH   7   8
ENDBRANCH   6   7
ENDBRANCH   5   6
ENDBRANCH   3   5
ENDBRANCH   2   3
ENDBRANCH   1   2
BRANCH   1  10
HETATM   10  C   UNL     1     -19.202  -8.994  -3.994  1.00  0.00     0.161 C 
BRANCH  10  11
HETATM   11  C   UNL     1     -18.184  -9.418  -5.037  1.00  0.00     0.262 C 
HETATM   12  O   UNL     1     -18.339  -9.337  -6.242  1.00  0.00    -0.265 OA
BRANCH  11  13
HETATM   13  O   UNL     1     -17.154 -10.082  -4.437  1.00  0.00    -0.321 OA
BRANCH  13  14
HETATM   14  C   UNL     1     -16.793  -9.541  -3.159  1.00  0.00     0.178 C 
BRANCH  14  15
HETATM   15  C   UNL     1     -15.765 -10.390  -2.423  1.00  0.00     0.026 C 
BRANCH  15  16
HETATM   16  C   UNL     1     -16.468 -11.525  -1.671  1.00  0.00    -0.002 C 
HETATM   17  C   UNL     1     -15.873 -11.757  -0.294  1.00  0.00     0.005 C 
ENDBRANCH  15  16
ENDBRANCH  14  15
ENDBRANCH  13  14
ENDBRANCH  11  13
ENDBRANCH  10  11
ENDBRANCH   1  10
BRANCH   1  18
HETATM   18  C   UNL     1     -20.741 -10.118  -2.412  1.00  0.00     0.295 C 
HETATM   19  O   UNL     1     -19.866 -10.347  -1.588  1.00  0.00    -0.262 OA
BRANCH  18  20
HETATM   20  O   UNL     1     -22.086 -10.169  -2.159  1.00  0.00    -0.319 OA
BRANCH  20  21
HETATM   21  C   UNL     1     -22.456 -10.579  -0.834  1.00  0.00     0.178 C 
BRANCH  21  22
HETATM   22  C   UNL     1     -23.291  -9.531  -0.102  1.00  0.00     0.026 C 
BRANCH  22  23
HETATM   23  C   UNL     1     -22.380  -8.399   0.391  1.00  0.00    -0.002 C 
HETATM   24  C   UNL     1     -22.390  -7.192  -0.531  1.00  0.00     0.005 C 
ENDBRANCH  22  23
ENDBRANCH  21  22
ENDBRANCH  20  21
ENDBRANCH  18  20
ENDBRANCH   1  18
BRANCH   1  25
HETATM   25  O   UNL     1     -20.173 -11.109  -4.609  1.00  0.00    -0.299 OA
BRANCH  25  26
HETATM   26  C   UNL     1     -21.083 -11.538  -5.527  1.00  0.00     0.256 C 
HETATM   27  O   UNL     1     -21.119 -11.177  -6.696  1.00  0.00    -0.266 OA
HETATM   28  C   UNL     1     -22.058 -12.518  -4.956  1.00  0.00     0.126 C 
ENDBRANCH  25  26
ENDBRANCH   1  25
TORSDOF 19
ENDMDL
MODEL 6
REMARK VINA RESULT:      -5.5      1.974      6.267
REMARK  19 active torsions:
REMARK  status: ('A' for Active; 'I' for Inactive)
REMARK    1  A    between atoms: C_2  and  C_3 
REMARK    2  A    between atoms: C_3  and  C_4 
REMARK    3  A    between atoms: C_4  and  O_5 
REMARK    4  A    between atoms: O_5  and  C_6 
REMARK    5  A    between atoms: C_6  and  C_8 
REMARK    6  A    between atoms: C_8  and  C_9 
REMARK    7  A    between atoms: C_9  and  C_10 
REMARK    8  A    between atoms: C_9  and  C_18 
REMARK    9  A    between atoms: C_9  and  O_25 
REMARK   10  A    between atoms: C_10  and  C_11 
REMARK   11  A    between atoms: C_11  and  O_13 
REMARK   12  A    between atoms: O_13  and  C_14 
REMARK   13  A    between atoms: C_14  and  C_15 
REMARK   14  A    between atoms: C_15  and  C_16 
REMARK   15  A    between atoms: C_18  and  O_20 
REMARK   16  A    between atoms: O_20  and  C_21 
REMARK   17  A    between atoms: C_21  and  C_22 
REMARK   18  A    between atoms: C_22  and  C_23 
REMARK   19  A    between atoms: O_25  and  C_26 
ROOT
HETATM    1  C   UNL     1     -20.283  -9.907  -3.720  1.00  0.00     0.175 C 
ENDROOT
BRANCH   1   2
HETATM    2  C   UNL     1     -21.552  -9.084  -3.965  1.00  0.00     0.161 C 
BRANCH   2   3
HETATM    3  C   UNL     1     -21.379  -8.045  -5.041  1.00  0.00     0.262 C 
HETATM    4  O   UNL     1     -21.256  -8.271  -6.230  1.00  0.00    -0.265 OA
BRANCH   3   5
HETATM    5  O   UNL     1     -21.325  -6.805  -4.482  1.00  0.00    -0.321 OA
BRANCH   5   6
HETATM    6  C   UNL     1     -21.468  -5.754  -5.440  1.00  0.00     0.178 C 
BRANCH   6   7
HETATM    7  C   UNL     1     -20.272  -4.811  -5.458  1.00  0.00     0.026 C 
BRANCH   7   8
HETATM    8  C   UNL     1     -19.568  -4.783  -6.814  1.00  0.00    -0.002 C 
HETATM    9  C   UNL     1     -20.493  -5.251  -7.926  1.00  0.00     0.005 C 
ENDBRANCH   7   8
ENDBRANCH   6   7
ENDBRANCH   5   6
ENDBRANCH   3   5
ENDBRANCH   2   3
ENDBRANCH   1   2
BRANCH   1  10
HETATM   10  C   UNL     1     -19.004  -9.088  -3.969  1.00  0.00     0.161 C 
BRANCH  10  11
HETATM   11  C   UNL     1     -18.076  -9.629  -5.042  1.00  0.00     0.262 C 
HETATM   12  O   UNL     1     -18.249  -9.517  -6.242  1.00  0.00    -0.265 OA
BRANCH  11  13
HETATM   13  O   UNL     1     -17.125 -10.426  -4.474  1.00  0.00    -0.321 OA
BRANCH  13  14
HETATM   14  C   UNL     1     -16.617 -11.430  -5.362  1.00  0.00     0.178 C 
BRANCH  14  15
HETATM   15  C   UNL     1     -15.260 -11.070  -5.952  1.00  0.00     0.026 C 
BRANCH  15  16
HETATM   16  C   UNL     1     -14.170 -11.948  -5.329  1.00  0.00    -0.002 C 
HETATM   17  C   UNL     1     -13.409 -12.747  -6.372  1.00  0.00     0.005 C 
ENDBRANCH  15  16
ENDBRANCH  14  15
ENDBRANCH  13  14
ENDBRANCH  11  13
ENDBRANCH  10  11
ENDBRANCH   1  10
BRANCH   1  18
HETATM   18  C   UNL     1     -20.231 -10.379  -2.248  1.00  0.00     0.295 C 
HETATM   19  O   UNL     1     -19.346 -11.084  -1.784  1.00  0.00    -0.262 OA
BRANCH  18  20
HETATM   20  O   UNL     1     -21.359  -9.996  -1.573  1.00  0.00    -0.319 OA
BRANCH  20  21
HETATM   21  C   UNL     1     -21.232  -9.902  -0.147  1.00  0.00     0.178 C 
BRANCH  21  22
HETATM   22  C   UNL     1     -21.325  -8.465   0.362  1.00  0.00     0.026 C 
BRANCH  22  23
HETATM   23  C   UNL     1     -22.588  -7.800  -0.198  1.00  0.00    -0.002 C 
HETATM   24  C   UNL     1     -22.278  -6.652  -1.144  1.00  0.00     0.005 C 
ENDBRANCH  22  23
ENDBRANCH  21  22
ENDBRANCH  20  21
ENDBRANCH  18  20
ENDBRANCH   1  18
BRANCH   1  25
HETATM   25  O   UNL     1     -20.233 -11.048  -4.632  1.00  0.00    -0.299 OA
BRANCH  25  26
HETATM   26  C   UNL     1     -21.417 -11.652  -4.930  1.00  0.00     0.256 C 
HETATM   27  O   UNL     1     -22.203 -12.095  -4.102  1.00  0.00    -0.266 OA
HETATM   28  C   UNL     1     -21.673 -11.725  -6.402  1.00  0.00     0.126 C 
ENDBRANCH  25  26
ENDBRANCH   1  25
TORSDOF 19
ENDMDL
MODEL 7
REMARK VINA RESULT:      -5.5      2.083      5.081
REMARK  19 active torsions:
REMARK  status: ('A' for Active; 'I' for Inactive)
REMARK    1  A    between atoms: C_2  and  C_3 
REMARK    2  A    between atoms: C_3  and  C_4 
REMARK    3  A    between atoms: C_4  and  O_5 
REMARK    4  A    between atoms: O_5  and  C_6 
REMARK    5  A    between atoms: C_6  and  C_8 
REMARK    6  A    between atoms: C_8  and  C_9 
REMARK    7  A    between atoms: C_9  and  C_10 
REMARK    8  A    between atoms: C_9  and  C_18 
REMARK    9  A    between atoms: C_9  and  O_25 
REMARK   10  A    between atoms: C_10  and  C_11 
REMARK   11  A    between atoms: C_11  and  O_13 
REMARK   12  A    between atoms: O_13  and  C_14 
REMARK   13  A    between atoms: C_14  and  C_15 
REMARK   14  A    between atoms: C_15  and  C_16 
REMARK   15  A    between atoms: C_18  and  O_20 
REMARK   16  A    between atoms: O_20  and  C_21 
REMARK   17  A    between atoms: C_21  and  C_22 
REMARK   18  A    between atoms: C_22  and  C_23 
REMARK   19  A    between atoms: O_25  and  C_26 
ROOT
HETATM    1  C   UNL     1     -21.207  -9.023  -2.481  1.00  0.00     0.175 C 
ENDROOT
BRANCH   1   2
HETATM    2  C   UNL     1     -20.676  -7.590  -2.370  1.00  0.00     0.161 C 
BRANCH   2   3
HETATM    3  C   UNL     1     -21.575  -6.578  -3.028  1.00  0.00     0.262 C 
HETATM    4  O   UNL     1     -22.639  -6.183  -2.586  1.00  0.00    -0.265 OA
BRANCH   3   5
HETATM    5  O   UNL     1     -21.052  -6.204  -4.227  1.00  0.00    -0.321 OA
BRANCH   5   6
HETATM    6  C   UNL     1     -22.040  -6.080  -5.252  1.00  0.00     0.178 C 
BRANCH   6   7
HETATM    7  C   UNL     1     -21.506  -5.388  -6.500  1.00  0.00     0.026 C 
BRANCH   7   8
HETATM    8  C   UNL     1     -20.243  -4.575  -6.225  1.00  0.00    -0.002 C 
HETATM    9  C   UNL     1     -19.275  -4.644  -7.395  1.00  0.00     0.005 C 
ENDBRANCH   7   8
ENDBRANCH   6   7
ENDBRANCH   5   6
ENDBRANCH   3   5
ENDBRANCH   2   3
ENDBRANCH   1   2
BRANCH   1  10
HETATM   10  C   UNL     1     -21.890  -9.284  -3.834  1.00  0.00     0.161 C 
BRANCH  10  11
HETATM   11  C   UNL     1     -20.981  -9.783  -4.943  1.00  0.00     0.262 C 
HETATM   12  O   UNL     1     -20.206  -9.092  -5.580  1.00  0.00    -0.265 OA
BRANCH  11  13
HETATM   13  O   UNL     1     -21.298 -11.072  -5.258  1.00  0.00    -0.321 OA
BRANCH  13  14
HETATM   14  C   UNL     1     -20.350 -11.694  -6.137  1.00  0.00     0.178 C 
BRANCH  14  15
HETATM   15  C   UNL     1     -21.010 -12.508  -7.242  1.00  0.00     0.026 C 
BRANCH  15  16
HETATM   16  C   UNL     1     -19.958 -13.354  -7.967  1.00  0.00    -0.002 C 
HETATM   17  C   UNL     1     -18.756 -12.531  -8.396  1.00  0.00     0.005 C 
ENDBRANCH  15  16
ENDBRANCH  14  15
ENDBRANCH  13  14
ENDBRANCH  11  13
ENDBRANCH  10  11
ENDBRANCH   1  10
BRANCH   1  18
HETATM   18  C   UNL     1     -20.040 -10.032  -2.368  1.00  0.00     0.295 C 
HETATM   19  O   UNL     1     -20.186 -11.230  -2.167  1.00  0.00    -0.262 OA
BRANCH  18  20
HETATM   20  O   UNL     1     -18.832  -9.388  -2.409  1.00  0.00    -0.319 OA
BRANCH  20  21
HETATM   21  C   UNL     1     -17.816 -10.018  -3.203  1.00  0.00     0.178 C 
BRANCH  21  22
HETATM   22  C   UNL     1     -16.408  -9.552  -2.840  1.00  0.00     0.026 C 
BRANCH  22  23
HETATM   23  C   UNL     1     -15.585 -10.743  -2.334  1.00  0.00    -0.002 C 
HETATM   24  C   UNL     1     -16.275 -11.502  -1.214  1.00  0.00     0.005 C 
ENDBRANCH  22  23
ENDBRANCH  21  22
ENDBRANCH  20  21
ENDBRANCH  18  20
ENDBRANCH   1  18
BRANCH   1  25
HETATM   25  O   UNL     1     -22.211  -9.274  -1.448  1.00  0.00    -0.299 OA
BRANCH  25  26
HETATM   26  C   UNL     1     -21.907  -8.876  -0.182  1.00  0.00     0.256 C 
HETATM   27  O   UNL     1     -20.915  -9.230   0.442  1.00  0.00    -0.266 OA
HETATM   28  C   UNL     1     -22.925  -7.941   0.388  1.00  0.00     0.126 C 
ENDBRANCH  25  26
ENDBRANCH   1  25
TORSDOF 19
ENDMDL
MODEL 8
REMARK VINA RESULT:      -5.4      1.668      6.253
REMARK  19 active torsions:
REMARK  status: ('A' for Active; 'I' for Inactive)
REMARK    1  A    between atoms: C_2  and  C_3 
REMARK    2  A    between atoms: C_3  and  C_4 
REMARK    3  A    between atoms: C_4  and  O_5 
REMARK    4  A    between atoms: O_5  and  C_6 
REMARK    5  A    between atoms: C_6  and  C_8 
REMARK    6  A    between atoms: C_8  and  C_9 
REMARK    7  A    between atoms: C_9  and  C_10 
REMARK    8  A    between atoms: C_9  and  C_18 
REMARK    9  A    between atoms: C_9  and  O_25 
REMARK   10  A    between atoms: C_10  and  C_11 
REMARK   11  A    between atoms: C_11  and  O_13 
REMARK   12  A    between atoms: O_13  and  C_14 
REMARK   13  A    between atoms: C_14  and  C_15 
REMARK   14  A    between atoms: C_15  and  C_16 
REMARK   15  A    between atoms: C_18  and  O_20 
REMARK   16  A    between atoms: O_20  and  C_21 
REMARK   17  A    between atoms: C_21  and  C_22 
REMARK   18  A    between atoms: C_22  and  C_23 
REMARK   19  A    between atoms: O_25  and  C_26 
ROOT
HETATM    1  C   UNL     1     -20.783  -8.636  -3.732  1.00  0.00     0.175 C 
ENDROOT
BRANCH   1   2
HETATM    2  C   UNL     1     -21.377  -8.246  -5.090  1.00  0.00     0.161 C 
BRANCH   2   3
HETATM    3  C   UNL     1     -21.471  -6.756  -5.284  1.00  0.00     0.262 C 
HETATM    4  O   UNL     1     -22.442  -6.069  -5.026  1.00  0.00    -0.265 OA
BRANCH   3   5
HETATM    5  O   UNL     1     -20.323  -6.289  -5.847  1.00  0.00    -0.321 OA
BRANCH   5   6
HETATM    6  C   UNL     1     -20.208  -4.866  -5.779  1.00  0.00     0.178 C 
BRANCH   6   7
HETATM    7  C   UNL     1     -20.258  -4.208  -7.152  1.00  0.00     0.026 C 
BRANCH   7   8
HETATM    8  C   UNL     1     -21.654  -3.698  -7.506  1.00  0.00    -0.002 C 
HETATM    9  C   UNL     1     -22.032  -4.068  -8.932  1.00  0.00     0.005 C 
ENDBRANCH   7   8
ENDBRANCH   6   7
ENDBRANCH   5   6
ENDBRANCH   3   5
ENDBRANCH   2   3
ENDBRANCH   1   2
BRANCH   1  10
HETATM   10  C   UNL     1     -21.681  -9.628  -2.971  1.00  0.00     0.161 C 
BRANCH  10  11
HETATM   11  C   UNL     1     -21.697 -11.047  -3.511  1.00  0.00     0.262 C 
HETATM   12  O   UNL     1     -22.227 -11.396  -4.551  1.00  0.00    -0.265 OA
BRANCH  11  13
HETATM   13  O   UNL     1     -21.205 -11.906  -2.572  1.00  0.00    -0.321 OA
BRANCH  13  14
HETATM   14  C   UNL     1     -21.676 -11.632  -1.246  1.00  0.00     0.178 C 
BRANCH  14  15
HETATM   15  C   UNL     1     -22.922 -12.429  -0.882  1.00  0.00     0.026 C 
BRANCH  15  16
HETATM   16  C   UNL     1     -24.106 -11.479  -0.674  1.00  0.00    -0.002 C 
HETATM   17  C   UNL     1     -23.689 -10.174  -0.019  1.00  0.00     0.005 C 
ENDBRANCH  15  16
ENDBRANCH  14  15
ENDBRANCH  13  14
ENDBRANCH  11  13
ENDBRANCH  10  11
ENDBRANCH   1  10
BRANCH   1  18
HETATM   18  C   UNL     1     -19.417  -9.333  -3.930  1.00  0.00     0.295 C 
HETATM   19  O   UNL     1     -18.577  -9.459  -3.050  1.00  0.00    -0.262 OA
BRANCH  18  20
HETATM   20  O   UNL     1     -19.233  -9.684  -5.241  1.00  0.00    -0.319 OA
BRANCH  20  21
HETATM   21  C   UNL     1     -17.936  -9.402  -5.787  1.00  0.00     0.178 C 
BRANCH  21  22
HETATM   22  C   UNL     1     -17.112 -10.664  -6.034  1.00  0.00     0.026 C 
BRANCH  22  23
HETATM   23  C   UNL     1     -15.696 -10.473  -5.476  1.00  0.00    -0.002 C 
HETATM   24  C   UNL     1     -15.564 -10.937  -4.035  1.00  0.00     0.005 C 
ENDBRANCH  22  23
ENDBRANCH  21  22
ENDBRANCH  20  21
ENDBRANCH  18  20
ENDBRANCH   1  18
BRANCH   1  25
HETATM   25  O   UNL     1     -20.645  -7.456  -2.881  1.00  0.00    -0.299 OA
BRANCH  25  26
HETATM   26  C   UNL     1     -21.150  -7.543  -1.619  1.00  0.00     0.256 C 
HETATM   27  O   UNL     1     -20.697  -8.256  -0.733  1.00  0.00    -0.266 OA
HETATM   28  C   UNL     1     -22.339  -6.660  -1.412  1.00  0.00     0.126 C 
ENDBRANCH  25  26
ENDBRANCH   1  25
TORSDOF 19
ENDMDL
MODEL 9
REMARK VINA RESULT:      -5.4      1.747      2.843
REMARK  19 active torsions:
REMARK  status: ('A' for Active; 'I' for Inactive)
REMARK    1  A    between atoms: C_2  and  C_3 
REMARK    2  A    between atoms: C_3  and  C_4 
REMARK    3  A    between atoms: C_4  and  O_5 
REMARK    4  A    between atoms: O_5  and  C_6 
REMARK    5  A    between atoms: C_6  and  C_8 
REMARK    6  A    between atoms: C_8  and  C_9 
REMARK    7  A    between atoms: C_9  and  C_10 
REMARK    8  A    between atoms: C_9  and  C_18 
REMARK    9  A    between atoms: C_9  and  O_25 
REMARK   10  A    between atoms: C_10  and  C_11 
REMARK   11  A    between atoms: C_11  and  O_13 
REMARK   12  A    between atoms: O_13  and  C_14 
REMARK   13  A    between atoms: C_14  and  C_15 
REMARK   14  A    between atoms: C_15  and  C_16 
REMARK   15  A    between atoms: C_18  and  O_20 
REMARK   16  A    between atoms: O_20  and  C_21 
REMARK   17  A    between atoms: C_21  and  C_22 
REMARK   18  A    between atoms: C_22  and  C_23 
REMARK   19  A    between atoms: O_25  and  C_26 
ROOT
HETATM    1  C   UNL     1     -19.646  -9.640  -5.015  1.00  0.00     0.175 C 
ENDROOT
BRANCH   1   2
HETATM    2  C   UNL     1     -19.633 -10.561  -3.791  1.00  0.00     0.161 C 
BRANCH   2   3
HETATM    3  C   UNL     1     -20.759 -10.279  -2.832  1.00  0.00     0.262 C 
HETATM    4  O   UNL     1     -21.946 -10.329  -3.099  1.00  0.00    -0.265 OA
BRANCH   3   5
HETATM    5  O   UNL     1     -20.256  -9.903  -1.624  1.00  0.00    -0.321 OA
BRANCH   5   6
HETATM    6  C   UNL     1     -20.579  -8.554  -1.282  1.00  0.00     0.178 C 
BRANCH   6   7
HETATM    7  C   UNL     1     -21.817  -8.453  -0.401  1.00  0.00     0.026 C 
BRANCH   7   8
HETATM    8  C   UNL     1     -22.442  -7.059  -0.425  1.00  0.00    -0.002 C 
HETATM    9  C   UNL     1     -22.214  -6.375  -1.763  1.00  0.00     0.005 C 
ENDBRANCH   7   8
ENDBRANCH   6   7
ENDBRANCH   5   6
ENDBRANCH   3   5
ENDBRANCH   2   3
ENDBRANCH   1   2
BRANCH   1  10
HETATM   10  C   UNL     1     -19.952  -8.180  -4.638  1.00  0.00     0.161 C 
BRANCH  10  11
HETATM   11  C   UNL     1     -21.149  -7.558  -5.336  1.00  0.00     0.262 C 
HETATM   12  O   UNL     1     -22.305  -7.649  -4.961  1.00  0.00    -0.265 OA
BRANCH  11  13
HETATM   13  O   UNL     1     -20.771  -7.053  -6.545  1.00  0.00    -0.321 OA
BRANCH  13  14
HETATM   14  C   UNL     1     -19.824  -5.981  -6.444  1.00  0.00     0.178 C 
BRANCH  14  15
HETATM   15  C   UNL     1     -20.401  -4.636  -6.867  1.00  0.00     0.026 C 
BRANCH  15  16
HETATM   16  C   UNL     1     -19.660  -4.116  -8.103  1.00  0.00    -0.002 C 
HETATM   17  C   UNL     1     -20.405  -4.420  -9.391  1.00  0.00     0.005 C 
ENDBRANCH  15  16
ENDBRANCH  14  15
ENDBRANCH  13  14
ENDBRANCH  11  13
ENDBRANCH  10  11
ENDBRANCH   1  10
BRANCH   1  18
HETATM   18  C   UNL     1     -18.259  -9.644  -5.698  1.00  0.00     0.295 C 
HETATM   19  O   UNL     1     -17.994  -9.025  -6.720  1.00  0.00    -0.262 OA
BRANCH  18  20
HETATM   20  O   UNL     1     -17.409 -10.516  -5.071  1.00  0.00    -0.319 OA
BRANCH  20  21
HETATM   21  C   UNL     1     -16.009 -10.296  -5.299  1.00  0.00     0.178 C 
BRANCH  21  22
HETATM   22  C   UNL     1     -15.362 -11.408  -6.122  1.00  0.00     0.026 C 
BRANCH  22  23
HETATM   23  C   UNL     1     -14.118 -11.931  -5.393  1.00  0.00    -0.002 C 
HETATM   24  C   UNL     1     -14.387 -12.266  -3.936  1.00  0.00     0.005 C 
ENDBRANCH  22  23
ENDBRANCH  21  22
ENDBRANCH  20  21
ENDBRANCH  18  20
ENDBRANCH   1  18
BRANCH   1  25
HETATM   25  O   UNL     1     -20.687 -10.057  -5.954  1.00  0.00    -0.299 OA
BRANCH  25  26
HETATM   26  C   UNL     1     -20.641 -11.345  -6.394  1.00  0.00     0.256 C 
HETATM   27  O   UNL     1     -19.743 -11.817  -7.080  1.00  0.00    -0.266 OA
HETATM   28  C   UNL     1     -21.820 -12.149  -5.948  1.00  0.00     0.126 C 
ENDBRANCH  25  26
ENDBRANCH   1  25
TORSDOF 19
ENDMDL
