MODEL 1
REMARK VINA RESULT:      -3.3      0.000      0.000
REMARK  0 active torsions:
REMARK  status: ('A' for Active; 'I' for Inactive)
ROOT
HETATM    1  C   UNL     1     -27.917  -7.109 -15.660  1.00  0.00     0.129 C 
HETATM    2  C   UNL     1     -26.494  -6.684 -15.898  1.00  0.00     0.168 C 
HETATM    3  O   UNL     1     -25.593  -7.429 -15.455  1.00  0.00    -0.648 OA
HETATM    4  O   UNL     1     -26.339  -5.794 -16.795  1.00  0.00    -0.648 OA
ENDROOT
TORSDOF 0
ENDMDL
MODEL 2
REMARK VINA RESULT:      -3.3      8.656      8.743
REMARK  0 active torsions:
REMARK  status: ('A' for Active; 'I' for Inactive)
ROOT
HETATM    1  C   UNL     1     -28.942 -14.757 -18.187  1.00  0.00     0.129 C 
HETATM    2  C   UNL     1     -29.725 -14.108 -19.295  1.00  0.00     0.168 C 
HETATM    3  O   UNL     1     -30.877 -13.707 -19.023  1.00  0.00    -0.648 OA
HETATM    4  O   UNL     1     -29.034 -13.739 -20.300  1.00  0.00    -0.648 OA
ENDROOT
TORSDOF 0
ENDMDL
MODEL 3
REMARK VINA RESULT:      -3.1      5.874      6.162
REMARK  0 active torsions:
REMARK  status: ('A' for Active; 'I' for Inactive)
ROOT
HETATM    1  C   UNL     1     -22.881  -2.879 -11.937  1.00  0.00     0.129 C 
HETATM    2  C   UNL     1     -24.366  -3.101 -12.030  1.00  0.00     0.168 C 
HETATM    3  O   UNL     1     -25.000  -3.191 -10.956  1.00  0.00    -0.648 OA
HETATM    4  O   UNL     1     -24.878  -2.855 -13.170  1.00  0.00    -0.648 OA
ENDROOT
TORSDOF 0
ENDMDL
MODEL 4
REMARK VINA RESULT:      -3.0      6.535      6.810
REMARK  0 active torsions:
REMARK  status: ('A' for Active; 'I' for Inactive)
ROOT
HETATM    1  C   UNL     1     -23.904  -4.718 -10.302  1.00  0.00     0.129 C 
HETATM    2  C   UNL     1     -24.584  -3.407 -10.591  1.00  0.00     0.168 C 
HETATM    3  O   UNL     1     -24.314  -2.849 -11.677  1.00  0.00    -0.648 OA
HETATM    4  O   UNL     1     -25.599  -3.154  -9.865  1.00  0.00    -0.648 OA
ENDROOT
TORSDOF 0
ENDMDL
MODEL 5
REMARK VINA RESULT:      -3.0      9.984     10.256
REMARK  0 active torsions:
REMARK  status: ('A' for Active; 'I' for Inactive)
ROOT
HETATM    1  C   UNL     1     -30.194 -16.002 -20.587  1.00  0.00     0.129 C 
HETATM    2  C   UNL     1     -30.671 -14.576 -20.628  1.00  0.00     0.168 C 
HETATM    3  O   UNL     1     -31.280 -14.206 -21.655  1.00  0.00    -0.648 OA
HETATM    4  O   UNL     1     -30.698 -13.983 -19.501  1.00  0.00    -0.648 OA
ENDROOT
TORSDOF 0
ENDMDL
MODEL 6
REMARK VINA RESULT:      -2.9      5.332      5.754
REMARK  0 active torsions:
REMARK  status: ('A' for Active; 'I' for Inactive)
ROOT
HETATM    1  C   UNL     1     -22.492  -3.138 -12.663  1.00  0.00     0.129 C 
HETATM    2  C   UNL     1     -23.637  -2.852 -13.596  1.00  0.00     0.168 C 
HETATM    3  O   UNL     1     -23.429  -3.001 -14.820  1.00  0.00    -0.648 OA
HETATM    4  O   UNL     1     -24.783  -2.802 -13.044  1.00  0.00    -0.648 OA
ENDROOT
TORSDOF 0
ENDMDL
MODEL 7
REMARK VINA RESULT:      -2.7     14.783     15.266
REMARK  0 active torsions:
REMARK  status: ('A' for Active; 'I' for Inactive)
ROOT
HETATM    1  C   UNL     1     -21.026  -7.682  -1.726  1.00  0.00     0.129 C 
HETATM    2  C   UNL     1     -22.160  -6.731  -1.456  1.00  0.00     0.168 C 
HETATM    3  O   UNL     1     -22.447  -5.913  -2.358  1.00  0.00    -0.648 OA
HETATM    4  O   UNL     1     -22.920  -7.056  -0.488  1.00  0.00    -0.648 OA
ENDROOT
TORSDOF 0
ENDMDL
MODEL 8
REMARK VINA RESULT:      -2.6     20.107     20.624
REMARK  0 active torsions:
REMARK  status: ('A' for Active; 'I' for Inactive)
ROOT
HETATM    1  C   UNL     1     -10.065   5.793 -20.678  1.00  0.00     0.129 C 
HETATM    2  C   UNL     1     -10.543   5.532 -19.275  1.00  0.00     0.168 C 
HETATM    3  O   UNL     1      -9.750   5.789 -18.344  1.00  0.00    -0.648 OA
HETATM    4  O   UNL     1     -11.802   5.386 -19.152  1.00  0.00    -0.648 OA
ENDROOT
TORSDOF 0
ENDMDL
MODEL 9
REMARK VINA RESULT:      -2.6     15.791     16.163
REMARK  0 active torsions:
REMARK  status: ('A' for Active; 'I' for Inactive)
ROOT
HETATM    1  C   UNL     1     -23.131  -8.101   0.504  1.00  0.00     0.129 C 
HETATM    2  C   UNL     1     -22.149  -7.422  -0.411  1.00  0.00     0.168 C 
HETATM    3  O   UNL     1     -21.042  -7.980  -0.579  1.00  0.00    -0.648 OA
HETATM    4  O   UNL     1     -22.646  -6.530  -1.171  1.00  0.00    -0.648 OA
ENDROOT
TORSDOF 0
ENDMDL
