MODEL 1
REMARK VINA RESULT:      -6.4      0.000      0.000
REMARK  17 active torsions:
REMARK  status: ('A' for Active; 'I' for Inactive)
REMARK    1  A    between atoms: C_2  and  C_3 
REMARK    2  A    between atoms: C_3  and  C_4 
REMARK    3  A    between atoms: C_4  and  C_5 
REMARK    4  A    between atoms: C_5  and  C_6 
REMARK    5  A    between atoms: C_6  and  C_7 
REMARK    6  A    between atoms: C_7  and  C_8 
REMARK    7  A    between atoms: C_8  and  C_9 
REMARK    8  A    between atoms: C_9  and  C_10 
REMARK    9  A    between atoms: C_10  and  C_11 
REMARK   10  A    between atoms: C_11  and  C_12 
REMARK   11  A    between atoms: C_12  and  C_13 
REMARK   12  A    between atoms: C_13  and  C_14 
REMARK   13  A    between atoms: C_14  and  C_15 
REMARK   14  A    between atoms: C_15  and  C_16 
REMARK   15  A    between atoms: C_16  and  C_17 
REMARK   16  A    between atoms: C_17  and  C_18 
REMARK   17  A    between atoms: C_18  and  O_19 
ROOT
HETATM    1  C   UNL     1     -20.249  -6.175  -5.777  1.00  0.00     0.000 C 
ENDROOT
BRANCH   1   2
HETATM    2  C   UNL     1     -21.429  -7.114  -5.611  1.00  0.00     0.000 C 
BRANCH   2   3
HETATM    3  C   UNL     1     -22.250  -6.700  -4.404  1.00  0.00     0.000 C 
BRANCH   3   4
HETATM    4  C   UNL     1     -21.383  -6.723  -3.160  1.00  0.00     0.000 C 
BRANCH   4   5
HETATM    5  C   UNL     1     -22.094  -6.012  -2.023  1.00  0.00     0.000 C 
BRANCH   5   6
HETATM    6  C   UNL     1     -22.392  -6.994  -0.905  1.00  0.00     0.000 C 
BRANCH   6   7
HETATM    7  C   UNL     1     -21.464  -8.193  -1.007  1.00  0.00     0.000 C 
BRANCH   7   8
HETATM    8  C   UNL     1     -21.868  -9.249   0.007  1.00  0.00    -0.000 C 
BRANCH   8   9
HETATM    9  C   UNL     1     -23.358  -9.545  -0.097  1.00  0.00    -0.005 C 
HETATM   10  C   UNL     1     -23.595 -11.040  -0.146  1.00  0.00     0.005 C 
ENDBRANCH   8   9
ENDBRANCH   7   8
ENDBRANCH   6   7
ENDBRANCH   5   6
ENDBRANCH   4   5
ENDBRANCH   3   4
ENDBRANCH   2   3
ENDBRANCH   1   2
BRANCH   1  11
HETATM   11  C   UNL     1     -20.213  -5.637  -7.195  1.00  0.00     0.000 C 
BRANCH  11  12
HETATM   12  C   UNL     1     -21.090  -4.405  -7.301  1.00  0.00     0.000 C 
BRANCH  12  13
HETATM   13  C   UNL     1     -21.536  -4.210  -8.739  1.00  0.00     0.000 C 
BRANCH  13  14
HETATM   14  C   UNL     1     -20.363  -4.420  -9.677  1.00  0.00     0.000 C 
BRANCH  14  15
HETATM   15  C   UNL     1     -20.647  -3.768 -11.020  1.00  0.00     0.000 C 
BRANCH  15  16
HETATM   16  C   UNL     1     -22.084  -4.026 -11.432  1.00  0.00     0.002 C 
BRANCH  16  17
HETATM   17  C   UNL     1     -22.769  -2.725 -11.820  1.00  0.00     0.026 C 
BRANCH  17  18
HETATM   18  C   UNL     1     -23.351  -2.825 -13.218  1.00  0.00     0.164 C 
BRANCH  18  19
HETATM   19  O   UNL     1     -22.334  -3.197 -14.139  1.00  0.00    -0.401 OA
HETATM   20  H   UNL     1     -21.953  -2.383 -14.496  1.00  0.00     0.209 HD
ENDBRANCH  18  19
ENDBRANCH  17  18
ENDBRANCH  16  17
ENDBRANCH  15  16
ENDBRANCH  14  15
ENDBRANCH  13  14
ENDBRANCH  12  13
ENDBRANCH  11  12
ENDBRANCH   1  11
TORSDOF 17
ENDMDL
MODEL 2
REMARK VINA RESULT:      -6.2      1.570      2.776
REMARK  17 active torsions:
REMARK  status: ('A' for Active; 'I' for Inactive)
REMARK    1  A    between atoms: C_2  and  C_3 
REMARK    2  A    between atoms: C_3  and  C_4 
REMARK    3  A    between atoms: C_4  and  C_5 
REMARK    4  A    between atoms: C_5  and  C_6 
REMARK    5  A    between atoms: C_6  and  C_7 
REMARK    6  A    between atoms: C_7  and  C_8 
REMARK    7  A    between atoms: C_8  and  C_9 
REMARK    8  A    between atoms: C_9  and  C_10 
REMARK    9  A    between atoms: C_10  and  C_11 
REMARK   10  A    between atoms: C_11  and  C_12 
REMARK   11  A    between atoms: C_12  and  C_13 
REMARK   12  A    between atoms: C_13  and  C_14 
REMARK   13  A    between atoms: C_14  and  C_15 
REMARK   14  A    between atoms: C_15  and  C_16 
REMARK   15  A    between atoms: C_16  and  C_17 
REMARK   16  A    between atoms: C_17  and  C_18 
REMARK   17  A    between atoms: C_18  and  O_19 
ROOT
HETATM    1  C   UNL     1     -20.706  -4.722  -8.361  1.00  0.00     0.000 C 
ENDROOT
BRANCH   1   2
HETATM    2  C   UNL     1     -20.373  -5.625  -7.189  1.00  0.00     0.000 C 
BRANCH   2   3
HETATM    3  C   UNL     1     -19.858  -4.794  -6.028  1.00  0.00     0.000 C 
BRANCH   3   4
HETATM    4  C   UNL     1     -20.467  -5.291  -4.730  1.00  0.00     0.000 C 
BRANCH   4   5
HETATM    5  C   UNL     1     -21.520  -6.343  -5.025  1.00  0.00     0.000 C 
BRANCH   5   6
HETATM    6  C   UNL     1     -22.163  -6.807  -3.731  1.00  0.00     0.000 C 
BRANCH   6   7
HETATM    7  C   UNL     1     -21.108  -6.934  -2.645  1.00  0.00     0.000 C 
BRANCH   7   8
HETATM    8  C   UNL     1     -21.560  -7.938  -1.598  1.00  0.00    -0.000 C 
BRANCH   8   9
HETATM    9  C   UNL     1     -22.455  -7.264  -0.566  1.00  0.00    -0.005 C 
HETATM   10  C   UNL     1     -22.290  -7.926   0.786  1.00  0.00     0.005 C 
ENDBRANCH   8   9
ENDBRANCH   7   8
ENDBRANCH   6   7
ENDBRANCH   5   6
ENDBRANCH   4   5
ENDBRANCH   3   4
ENDBRANCH   2   3
ENDBRANCH   1   2
BRANCH   1  11
HETATM   11  C   UNL     1     -21.686  -3.651  -7.925  1.00  0.00     0.000 C 
BRANCH  11  12
HETATM   12  C   UNL     1     -23.064  -4.257  -7.740  1.00  0.00     0.000 C 
BRANCH  12  13
HETATM   13  C   UNL     1     -23.688  -4.546  -9.093  1.00  0.00     0.000 C 
BRANCH  13  14
HETATM   14  C   UNL     1     -24.430  -3.322  -9.592  1.00  0.00     0.000 C 
BRANCH  14  15
HETATM   15  C   UNL     1     -24.475  -3.324 -11.112  1.00  0.00     0.000 C 
BRANCH  15  16
HETATM   16  C   UNL     1     -23.352  -4.180 -11.666  1.00  0.00     0.002 C 
BRANCH  16  17
HETATM   17  C   UNL     1     -22.345  -3.320 -12.413  1.00  0.00     0.026 C 
BRANCH  17  18
HETATM   18  C   UNL     1     -21.205  -2.917 -11.496  1.00  0.00     0.164 C 
BRANCH  18  19
HETATM   19  O   UNL     1     -20.064  -3.722 -11.763  1.00  0.00    -0.401 OA
HETATM   20  H   UNL     1     -19.551  -3.278 -12.451  1.00  0.00     0.209 HD
ENDBRANCH  18  19
ENDBRANCH  17  18
ENDBRANCH  16  17
ENDBRANCH  15  16
ENDBRANCH  14  15
ENDBRANCH  13  14
ENDBRANCH  12  13
ENDBRANCH  11  12
ENDBRANCH   1  11
TORSDOF 17
ENDMDL
MODEL 3
REMARK VINA RESULT:      -6.1      3.687     10.042
REMARK  17 active torsions:
REMARK  status: ('A' for Active; 'I' for Inactive)
REMARK    1  A    between atoms: C_2  and  C_3 
REMARK    2  A    between atoms: C_3  and  C_4 
REMARK    3  A    between atoms: C_4  and  C_5 
REMARK    4  A    between atoms: C_5  and  C_6 
REMARK    5  A    between atoms: C_6  and  C_7 
REMARK    6  A    between atoms: C_7  and  C_8 
REMARK    7  A    between atoms: C_8  and  C_9 
REMARK    8  A    between atoms: C_9  and  C_10 
REMARK    9  A    between atoms: C_10  and  C_11 
REMARK   10  A    between atoms: C_11  and  C_12 
REMARK   11  A    between atoms: C_12  and  C_13 
REMARK   12  A    between atoms: C_13  and  C_14 
REMARK   13  A    between atoms: C_14  and  C_15 
REMARK   14  A    between atoms: C_15  and  C_16 
REMARK   15  A    between atoms: C_16  and  C_17 
REMARK   16  A    between atoms: C_17  and  C_18 
REMARK   17  A    between atoms: C_18  and  O_19 
ROOT
HETATM    1  C   UNL     1     -20.286  -5.211  -5.285  1.00  0.00     0.000 C 
ENDROOT
BRANCH   1   2
HETATM    2  C   UNL     1     -20.409  -4.425  -6.576  1.00  0.00     0.000 C 
BRANCH   2   3
HETATM    3  C   UNL     1     -21.797  -4.607  -7.160  1.00  0.00     0.000 C 
BRANCH   3   4
HETATM    4  C   UNL     1     -21.736  -4.516  -8.673  1.00  0.00     0.000 C 
BRANCH   4   5
HETATM    5  C   UNL     1     -20.292  -4.392  -9.123  1.00  0.00     0.000 C 
BRANCH   5   6
HETATM    6  C   UNL     1     -20.211  -4.490 -10.635  1.00  0.00     0.000 C 
BRANCH   6   7
HETATM    7  C   UNL     1     -20.963  -3.332 -11.270  1.00  0.00     0.000 C 
BRANCH   7   8
HETATM    8  C   UNL     1     -22.208  -3.845 -11.973  1.00  0.00    -0.000 C 
BRANCH   8   9
HETATM    9  C   UNL     1     -23.031  -2.683 -12.513  1.00  0.00    -0.005 C 
HETATM   10  C   UNL     1     -24.506  -3.024 -12.480  1.00  0.00     0.005 C 
ENDBRANCH   8   9
ENDBRANCH   7   8
ENDBRANCH   6   7
ENDBRANCH   5   6
ENDBRANCH   4   5
ENDBRANCH   3   4
ENDBRANCH   2   3
ENDBRANCH   1   2
BRANCH   1  11
HETATM   11  C   UNL     1     -20.370  -6.697  -5.575  1.00  0.00     0.000 C 
BRANCH  11  12
HETATM   12  C   UNL     1     -21.158  -7.392  -4.482  1.00  0.00     0.000 C 
BRANCH  12  13
HETATM   13  C   UNL     1     -22.088  -6.401  -3.805  1.00  0.00     0.000 C 
BRANCH  13  14
HETATM   14  C   UNL     1     -21.809  -6.364  -2.315  1.00  0.00     0.000 C 
BRANCH  14  15
HETATM   15  C   UNL     1     -20.949  -7.552  -1.917  1.00  0.00     0.000 C 
BRANCH  15  16
HETATM   16  C   UNL     1     -21.377  -8.075  -0.558  1.00  0.00     0.002 C 
BRANCH  16  17
HETATM   17  C   UNL     1     -22.129  -9.388  -0.706  1.00  0.00     0.026 C 
BRANCH  17  18
HETATM   18  C   UNL     1     -23.403  -9.368   0.120  1.00  0.00     0.164 C 
BRANCH  18  19
HETATM   19  O   UNL     1     -23.615  -8.066   0.648  1.00  0.00    -0.401 OA
HETATM   20  H   UNL     1     -24.020  -7.532  -0.049  1.00  0.00     0.209 HD
ENDBRANCH  18  19
ENDBRANCH  17  18
ENDBRANCH  16  17
ENDBRANCH  15  16
ENDBRANCH  14  15
ENDBRANCH  13  14
ENDBRANCH  12  13
ENDBRANCH  11  12
ENDBRANCH   1  11
TORSDOF 17
ENDMDL
MODEL 4
REMARK VINA RESULT:      -6.0     13.511     15.837
REMARK  17 active torsions:
REMARK  status: ('A' for Active; 'I' for Inactive)
REMARK    1  A    between atoms: C_2  and  C_3 
REMARK    2  A    between atoms: C_3  and  C_4 
REMARK    3  A    between atoms: C_4  and  C_5 
REMARK    4  A    between atoms: C_5  and  C_6 
REMARK    5  A    between atoms: C_6  and  C_7 
REMARK    6  A    between atoms: C_7  and  C_8 
REMARK    7  A    between atoms: C_8  and  C_9 
REMARK    8  A    between atoms: C_9  and  C_10 
REMARK    9  A    between atoms: C_10  and  C_11 
REMARK   10  A    between atoms: C_11  and  C_12 
REMARK   11  A    between atoms: C_12  and  C_13 
REMARK   12  A    between atoms: C_13  and  C_14 
REMARK   13  A    between atoms: C_14  and  C_15 
REMARK   14  A    between atoms: C_15  and  C_16 
REMARK   15  A    between atoms: C_16  and  C_17 
REMARK   16  A    between atoms: C_17  and  C_18 
REMARK   17  A    between atoms: C_18  and  O_19 
ROOT
HETATM    1  C   UNL     1     -36.243  -1.017  -9.958  1.00  0.00     0.000 C 
ENDROOT
BRANCH   1   2
HETATM    2  C   UNL     1     -35.646  -2.298 -10.507  1.00  0.00     0.000 C 
BRANCH   2   3
HETATM    3  C   UNL     1     -34.170  -2.367 -10.164  1.00  0.00     0.000 C 
BRANCH   3   4
HETATM    4  C   UNL     1     -33.357  -2.562 -11.430  1.00  0.00     0.000 C 
BRANCH   4   5
HETATM    5  C   UNL     1     -32.953  -4.019 -11.564  1.00  0.00     0.000 C 
BRANCH   5   6
HETATM    6  C   UNL     1     -33.880  -4.725 -12.536  1.00  0.00     0.000 C 
BRANCH   6   7
HETATM    7  C   UNL     1     -34.812  -5.657 -11.779  1.00  0.00     0.000 C 
BRANCH   7   8
HETATM    8  C   UNL     1     -34.130  -6.160 -10.518  1.00  0.00    -0.000 C 
BRANCH   8   9
HETATM    9  C   UNL     1     -34.887  -7.350  -9.943  1.00  0.00    -0.005 C 
HETATM   10  C   UNL     1     -33.981  -8.560  -9.862  1.00  0.00     0.005 C 
ENDBRANCH   8   9
ENDBRANCH   7   8
ENDBRANCH   6   7
ENDBRANCH   5   6
ENDBRANCH   4   5
ENDBRANCH   3   4
ENDBRANCH   2   3
ENDBRANCH   1   2
BRANCH   1  11
HETATM   11  C   UNL     1     -37.429  -0.596 -10.804  1.00  0.00     0.000 C 
BRANCH  11  12
HETATM   12  C   UNL     1     -36.979  -0.327 -12.226  1.00  0.00     0.000 C 
BRANCH  12  13
HETATM   13  C   UNL     1     -35.733   0.541 -12.219  1.00  0.00     0.000 C 
BRANCH  13  14
HETATM   14  C   UNL     1     -34.802   0.117 -13.337  1.00  0.00     0.000 C 
BRANCH  14  15
HETATM   15  C   UNL     1     -35.374   0.541 -14.680  1.00  0.00     0.000 C 
BRANCH  15  16
HETATM   16  C   UNL     1     -35.608  -0.675 -15.556  1.00  0.00     0.002 C 
BRANCH  16  17
HETATM   17  C   UNL     1     -36.873  -0.502 -16.381  1.00  0.00     0.026 C 
BRANCH  17  18
HETATM   18  C   UNL     1     -37.931   0.242 -15.585  1.00  0.00     0.164 C 
BRANCH  18  19
HETATM   19  O   UNL     1     -38.071   1.564 -16.088  1.00  0.00    -0.401 OA
HETATM   20  H   UNL     1     -37.339   2.087 -15.736  1.00  0.00     0.209 HD
ENDBRANCH  18  19
ENDBRANCH  17  18
ENDBRANCH  16  17
ENDBRANCH  15  16
ENDBRANCH  14  15
ENDBRANCH  13  14
ENDBRANCH  12  13
ENDBRANCH  11  12
ENDBRANCH   1  11
TORSDOF 17
ENDMDL
MODEL 5
REMARK VINA RESULT:      -6.0     13.639     16.175
REMARK  17 active torsions:
REMARK  status: ('A' for Active; 'I' for Inactive)
REMARK    1  A    between atoms: C_2  and  C_3 
REMARK    2  A    between atoms: C_3  and  C_4 
REMARK    3  A    between atoms: C_4  and  C_5 
REMARK    4  A    between atoms: C_5  and  C_6 
REMARK    5  A    between atoms: C_6  and  C_7 
REMARK    6  A    between atoms: C_7  and  C_8 
REMARK    7  A    between atoms: C_8  and  C_9 
REMARK    8  A    between atoms: C_9  and  C_10 
REMARK    9  A    between atoms: C_10  and  C_11 
REMARK   10  A    between atoms: C_11  and  C_12 
REMARK   11  A    between atoms: C_12  and  C_13 
REMARK   12  A    between atoms: C_13  and  C_14 
REMARK   13  A    between atoms: C_14  and  C_15 
REMARK   14  A    between atoms: C_15  and  C_16 
REMARK   15  A    between atoms: C_16  and  C_17 
REMARK   16  A    between atoms: C_17  and  C_18 
REMARK   17  A    between atoms: C_18  and  O_19 
ROOT
HETATM    1  C   UNL     1     -34.999  -1.330 -13.717  1.00  0.00     0.000 C 
ENDROOT
BRANCH   1   2
HETATM    2  C   UNL     1     -36.315  -0.616 -13.471  1.00  0.00     0.000 C 
BRANCH   2   3
HETATM    3  C   UNL     1     -36.199   0.271 -12.246  1.00  0.00     0.000 C 
BRANCH   3   4
HETATM    4  C   UNL     1     -37.265  -0.106 -11.235  1.00  0.00     0.000 C 
BRANCH   4   5
HETATM    5  C   UNL     1     -36.619  -0.433  -9.902  1.00  0.00     0.000 C 
BRANCH   5   6
HETATM    6  C   UNL     1     -37.398   0.219  -8.775  1.00  0.00     0.000 C 
BRANCH   6   7
HETATM    7  C   UNL     1     -36.510   0.373  -7.551  1.00  0.00     0.000 C 
BRANCH   7   8
HETATM    8  C   UNL     1     -37.341   0.820  -6.361  1.00  0.00    -0.000 C 
BRANCH   8   9
HETATM    9  C   UNL     1     -37.981  -0.381  -5.678  1.00  0.00    -0.005 C 
HETATM   10  C   UNL     1     -37.879  -0.246  -4.173  1.00  0.00     0.005 C 
ENDBRANCH   8   9
ENDBRANCH   7   8
ENDBRANCH   6   7
ENDBRANCH   5   6
ENDBRANCH   4   5
ENDBRANCH   3   4
ENDBRANCH   2   3
ENDBRANCH   1   2
BRANCH   1  11
HETATM   11  C   UNL     1     -34.846  -2.480 -12.741  1.00  0.00     0.000 C 
BRANCH  11  12
HETATM   12  C   UNL     1     -33.994  -3.571 -13.359  1.00  0.00     0.000 C 
BRANCH  12  13
HETATM   13  C   UNL     1     -33.142  -4.231 -12.289  1.00  0.00     0.000 C 
BRANCH  13  14
HETATM   14  C   UNL     1     -33.513  -3.685 -10.924  1.00  0.00     0.000 C 
BRANCH  14  15
HETATM   15  C   UNL     1     -34.219  -4.756 -10.109  1.00  0.00     0.000 C 
BRANCH  15  16
HETATM   16  C   UNL     1     -33.967  -6.124 -10.714  1.00  0.00     0.002 C 
BRANCH  16  17
HETATM   17  C   UNL     1     -34.790  -7.183  -9.997  1.00  0.00     0.026 C 
BRANCH  17  18
HETATM   18  C   UNL     1     -34.153  -8.551 -10.156  1.00  0.00     0.164 C 
BRANCH  18  19
HETATM   19  O   UNL     1     -34.120  -9.217  -8.900  1.00  0.00    -0.401 OA
HETATM   20  H   UNL     1     -34.715  -8.743  -8.305  1.00  0.00     0.209 HD
ENDBRANCH  18  19
ENDBRANCH  17  18
ENDBRANCH  16  17
ENDBRANCH  15  16
ENDBRANCH  14  15
ENDBRANCH  13  14
ENDBRANCH  12  13
ENDBRANCH  11  12
ENDBRANCH   1  11
TORSDOF 17
ENDMDL
MODEL 6
REMARK VINA RESULT:      -6.0      2.178      3.849
REMARK  17 active torsions:
REMARK  status: ('A' for Active; 'I' for Inactive)
REMARK    1  A    between atoms: C_2  and  C_3 
REMARK    2  A    between atoms: C_3  and  C_4 
REMARK    3  A    between atoms: C_4  and  C_5 
REMARK    4  A    between atoms: C_5  and  C_6 
REMARK    5  A    between atoms: C_6  and  C_7 
REMARK    6  A    between atoms: C_7  and  C_8 
REMARK    7  A    between atoms: C_8  and  C_9 
REMARK    8  A    between atoms: C_9  and  C_10 
REMARK    9  A    between atoms: C_10  and  C_11 
REMARK   10  A    between atoms: C_11  and  C_12 
REMARK   11  A    between atoms: C_12  and  C_13 
REMARK   12  A    between atoms: C_13  and  C_14 
REMARK   13  A    between atoms: C_14  and  C_15 
REMARK   14  A    between atoms: C_15  and  C_16 
REMARK   15  A    between atoms: C_16  and  C_17 
REMARK   16  A    between atoms: C_17  and  C_18 
REMARK   17  A    between atoms: C_18  and  O_19 
ROOT
HETATM    1  C   UNL     1     -21.361  -6.323  -2.869  1.00  0.00     0.000 C 
ENDROOT
BRANCH   1   2
HETATM    2  C   UNL     1     -22.480  -6.530  -1.867  1.00  0.00     0.000 C 
BRANCH   2   3
HETATM    3  C   UNL     1     -21.917  -7.085  -0.572  1.00  0.00     0.000 C 
BRANCH   3   4
HETATM    4  C   UNL     1     -22.921  -8.027   0.064  1.00  0.00     0.000 C 
BRANCH   4   5
HETATM    5  C   UNL     1     -22.338  -9.426   0.139  1.00  0.00     0.000 C 
BRANCH   5   6
HETATM    6  C   UNL     1     -23.163 -10.377  -0.708  1.00  0.00     0.000 C 
BRANCH   6   7
HETATM    7  C   UNL     1     -22.566 -10.480  -2.102  1.00  0.00     0.000 C 
BRANCH   7   8
HETATM    8  C   UNL     1     -21.077 -10.767  -2.008  1.00  0.00    -0.000 C 
BRANCH   8   9
HETATM    9  C   UNL     1     -20.325 -10.040  -3.116  1.00  0.00    -0.005 C 
HETATM   10  C   UNL     1     -19.247  -9.156  -2.527  1.00  0.00     0.005 C 
ENDBRANCH   8   9
ENDBRANCH   7   8
ENDBRANCH   6   7
ENDBRANCH   5   6
ENDBRANCH   4   5
ENDBRANCH   3   4
ENDBRANCH   2   3
ENDBRANCH   1   2
BRANCH   1  11
HETATM   11  C   UNL     1     -21.799  -6.802  -4.239  1.00  0.00     0.000 C 
BRANCH  11  12
HETATM   12  C   UNL     1     -20.625  -6.769  -5.197  1.00  0.00     0.000 C 
BRANCH  12  13
HETATM   13  C   UNL     1     -21.093  -6.334  -6.574  1.00  0.00     0.000 C 
BRANCH  13  14
HETATM   14  C   UNL     1     -19.942  -5.709  -7.338  1.00  0.00     0.000 C 
BRANCH  14  15
HETATM   15  C   UNL     1     -20.106  -4.199  -7.384  1.00  0.00     0.000 C 
BRANCH  15  16
HETATM   16  C   UNL     1     -21.567  -3.838  -7.576  1.00  0.00     0.002 C 
BRANCH  16  17
HETATM   17  C   UNL     1     -21.935  -3.872  -9.050  1.00  0.00     0.026 C 
BRANCH  17  18
HETATM   18  C   UNL     1     -23.443  -3.897  -9.223  1.00  0.00     0.164 C 
BRANCH  18  19
HETATM   19  O   UNL     1     -24.071  -4.067  -7.959  1.00  0.00    -0.401 OA
HETATM   20  H   UNL     1     -23.931  -4.984  -7.687  1.00  0.00     0.209 HD
ENDBRANCH  18  19
ENDBRANCH  17  18
ENDBRANCH  16  17
ENDBRANCH  15  16
ENDBRANCH  14  15
ENDBRANCH  13  14
ENDBRANCH  12  13
ENDBRANCH  11  12
ENDBRANCH   1  11
TORSDOF 17
ENDMDL
MODEL 7
REMARK VINA RESULT:      -5.9      3.607      9.685
REMARK  17 active torsions:
REMARK  status: ('A' for Active; 'I' for Inactive)
REMARK    1  A    between atoms: C_2  and  C_3 
REMARK    2  A    between atoms: C_3  and  C_4 
REMARK    3  A    between atoms: C_4  and  C_5 
REMARK    4  A    between atoms: C_5  and  C_6 
REMARK    5  A    between atoms: C_6  and  C_7 
REMARK    6  A    between atoms: C_7  and  C_8 
REMARK    7  A    between atoms: C_8  and  C_9 
REMARK    8  A    between atoms: C_9  and  C_10 
REMARK    9  A    between atoms: C_10  and  C_11 
REMARK   10  A    between atoms: C_11  and  C_12 
REMARK   11  A    between atoms: C_12  and  C_13 
REMARK   12  A    between atoms: C_13  and  C_14 
REMARK   13  A    between atoms: C_14  and  C_15 
REMARK   14  A    between atoms: C_15  and  C_16 
REMARK   15  A    between atoms: C_16  and  C_17 
REMARK   16  A    between atoms: C_17  and  C_18 
REMARK   17  A    between atoms: C_18  and  O_19 
ROOT
HETATM    1  C   UNL     1     -20.476  -7.543  -4.880  1.00  0.00     0.000 C 
ENDROOT
BRANCH   1   2
HETATM    2  C   UNL     1     -20.958  -6.922  -6.177  1.00  0.00     0.000 C 
BRANCH   2   3
HETATM    3  C   UNL     1     -21.882  -5.756  -5.877  1.00  0.00     0.000 C 
BRANCH   3   4
HETATM    4  C   UNL     1     -21.613  -4.623  -6.849  1.00  0.00     0.000 C 
BRANCH   4   5
HETATM    5  C   UNL     1     -20.126  -4.322  -6.891  1.00  0.00     0.000 C 
BRANCH   5   6
HETATM    6  C   UNL     1     -19.698  -4.024  -8.316  1.00  0.00     0.000 C 
BRANCH   6   7
HETATM    7  C   UNL     1     -20.694  -4.626  -9.293  1.00  0.00     0.000 C 
BRANCH   7   8
HETATM    8  C   UNL     1     -20.407  -4.128 -10.699  1.00  0.00    -0.000 C 
BRANCH   8   9
HETATM    9  C   UNL     1     -21.624  -3.411 -11.268  1.00  0.00    -0.005 C 
HETATM   10  C   UNL     1     -22.829  -3.634 -10.378  1.00  0.00     0.005 C 
ENDBRANCH   8   9
ENDBRANCH   7   8
ENDBRANCH   6   7
ENDBRANCH   5   6
ENDBRANCH   4   5
ENDBRANCH   3   4
ENDBRANCH   2   3
ENDBRANCH   1   2
BRANCH   1  11
HETATM   11  C   UNL     1     -21.604  -7.564  -3.867  1.00  0.00     0.000 C 
BRANCH  11  12
HETATM   12  C   UNL     1     -21.102  -7.066  -2.526  1.00  0.00     0.000 C 
BRANCH  12  13
HETATM   13  C   UNL     1     -22.236  -6.410  -1.760  1.00  0.00     0.000 C 
BRANCH  13  14
HETATM   14  C   UNL     1     -22.459  -7.133  -0.445  1.00  0.00     0.000 C 
BRANCH  14  15
HETATM   15  C   UNL     1     -21.308  -8.088  -0.175  1.00  0.00     0.000 C 
BRANCH  15  16
HETATM   16  C   UNL     1     -21.834  -9.391   0.395  1.00  0.00     0.002 C 
BRANCH  16  17
HETATM   17  C   UNL     1     -23.055  -9.857  -0.381  1.00  0.00     0.026 C 
BRANCH  17  18
HETATM   18  C   UNL     1     -22.637 -10.600  -1.638  1.00  0.00     0.164 C 
BRANCH  18  19
HETATM   19  O   UNL     1     -23.467 -11.739  -1.824  1.00  0.00    -0.401 OA
HETATM   20  H   UNL     1     -24.269 -11.443  -2.275  1.00  0.00     0.209 HD
ENDBRANCH  18  19
ENDBRANCH  17  18
ENDBRANCH  16  17
ENDBRANCH  15  16
ENDBRANCH  14  15
ENDBRANCH  13  14
ENDBRANCH  12  13
ENDBRANCH  11  12
ENDBRANCH   1  11
TORSDOF 17
ENDMDL
MODEL 8
REMARK VINA RESULT:      -5.9     13.769     17.163
REMARK  17 active torsions:
REMARK  status: ('A' for Active; 'I' for Inactive)
REMARK    1  A    between atoms: C_2  and  C_3 
REMARK    2  A    between atoms: C_3  and  C_4 
REMARK    3  A    between atoms: C_4  and  C_5 
REMARK    4  A    between atoms: C_5  and  C_6 
REMARK    5  A    between atoms: C_6  and  C_7 
REMARK    6  A    between atoms: C_7  and  C_8 
REMARK    7  A    between atoms: C_8  and  C_9 
REMARK    8  A    between atoms: C_9  and  C_10 
REMARK    9  A    between atoms: C_10  and  C_11 
REMARK   10  A    between atoms: C_11  and  C_12 
REMARK   11  A    between atoms: C_12  and  C_13 
REMARK   12  A    between atoms: C_13  and  C_14 
REMARK   13  A    between atoms: C_14  and  C_15 
REMARK   14  A    between atoms: C_15  and  C_16 
REMARK   15  A    between atoms: C_16  and  C_17 
REMARK   16  A    between atoms: C_17  and  C_18 
REMARK   17  A    between atoms: C_18  and  O_19 
ROOT
HETATM    1  C   UNL     1     -34.242  -1.807 -10.168  1.00  0.00     0.000 C 
ENDROOT
BRANCH   1   2
HETATM    2  C   UNL     1     -35.728  -2.011 -10.394  1.00  0.00     0.000 C 
BRANCH   2   3
HETATM    3  C   UNL     1     -36.494  -0.792  -9.913  1.00  0.00     0.000 C 
BRANCH   3   4
HETATM    4  C   UNL     1     -37.579  -0.439 -10.912  1.00  0.00     0.000 C 
BRANCH   4   5
HETATM    5  C   UNL     1     -36.974  -0.272 -12.293  1.00  0.00     0.000 C 
BRANCH   5   6
HETATM    6  C   UNL     1     -38.074  -0.097 -13.323  1.00  0.00     0.000 C 
BRANCH   6   7
HETATM    7  C   UNL     1     -37.467   0.111 -14.700  1.00  0.00     0.000 C 
BRANCH   7   8
HETATM    8  C   UNL     1     -35.982   0.408 -14.573  1.00  0.00    -0.000 C 
BRANCH   8   9
HETATM    9  C   UNL     1     -35.184  -0.443 -15.551  1.00  0.00    -0.005 C 
HETATM   10  C   UNL     1     -36.081  -0.951 -16.660  1.00  0.00     0.005 C 
ENDBRANCH   8   9
ENDBRANCH   7   8
ENDBRANCH   6   7
ENDBRANCH   5   6
ENDBRANCH   4   5
ENDBRANCH   3   4
ENDBRANCH   2   3
ENDBRANCH   1   2
BRANCH   1  11
HETATM   11  C   UNL     1     -33.454  -2.525 -11.247  1.00  0.00     0.000 C 
BRANCH  11  12
HETATM   12  C   UNL     1     -34.316  -2.709 -12.480  1.00  0.00     0.000 C 
BRANCH  12  13
HETATM   13  C   UNL     1     -34.030  -4.058 -13.114  1.00  0.00     0.000 C 
BRANCH  13  14
HETATM   14  C   UNL     1     -34.703  -5.158 -12.317  1.00  0.00     0.000 C 
BRANCH  14  15
HETATM   15  C   UNL     1     -33.740  -5.714 -11.280  1.00  0.00     0.000 C 
BRANCH  15  16
HETATM   16  C   UNL     1     -34.437  -5.850  -9.940  1.00  0.00     0.002 C 
BRANCH  16  17
HETATM   17  C   UNL     1     -35.166  -7.181  -9.852  1.00  0.00     0.026 C 
BRANCH  17  18
HETATM   18  C   UNL     1     -34.228  -8.326 -10.185  1.00  0.00     0.164 C 
BRANCH  18  19
HETATM   19  O   UNL     1     -34.064  -9.163  -9.048  1.00  0.00    -0.401 OA
HETATM   20  H   UNL     1     -34.820  -9.764  -9.018  1.00  0.00     0.209 HD
ENDBRANCH  18  19
ENDBRANCH  17  18
ENDBRANCH  16  17
ENDBRANCH  15  16
ENDBRANCH  14  15
ENDBRANCH  13  14
ENDBRANCH  12  13
ENDBRANCH  11  12
ENDBRANCH   1  11
TORSDOF 17
ENDMDL
MODEL 9
REMARK VINA RESULT:      -5.9      1.925      2.175
REMARK  17 active torsions:
REMARK  status: ('A' for Active; 'I' for Inactive)
REMARK    1  A    between atoms: C_2  and  C_3 
REMARK    2  A    between atoms: C_3  and  C_4 
REMARK    3  A    between atoms: C_4  and  C_5 
REMARK    4  A    between atoms: C_5  and  C_6 
REMARK    5  A    between atoms: C_6  and  C_7 
REMARK    6  A    between atoms: C_7  and  C_8 
REMARK    7  A    between atoms: C_8  and  C_9 
REMARK    8  A    between atoms: C_9  and  C_10 
REMARK    9  A    between atoms: C_10  and  C_11 
REMARK   10  A    between atoms: C_11  and  C_12 
REMARK   11  A    between atoms: C_12  and  C_13 
REMARK   12  A    between atoms: C_13  and  C_14 
REMARK   13  A    between atoms: C_14  and  C_15 
REMARK   14  A    between atoms: C_15  and  C_16 
REMARK   15  A    between atoms: C_16  and  C_17 
REMARK   16  A    between atoms: C_17  and  C_18 
REMARK   17  A    between atoms: C_18  and  O_19 
ROOT
HETATM    1  C   UNL     1     -20.300  -4.888  -5.504  1.00  0.00     0.000 C 
ENDROOT
BRANCH   1   2
HETATM    2  C   UNL     1     -20.854  -6.286  -5.302  1.00  0.00     0.000 C 
BRANCH   2   3
HETATM    3  C   UNL     1     -21.612  -6.355  -3.990  1.00  0.00     0.000 C 
BRANCH   3   4
HETATM    4  C   UNL     1     -21.180  -7.582  -3.210  1.00  0.00     0.000 C 
BRANCH   4   5
HETATM    5  C   UNL     1     -21.135  -7.261  -1.728  1.00  0.00     0.000 C 
BRANCH   5   6
HETATM    6  C   UNL     1     -22.243  -8.002  -1.004  1.00  0.00     0.000 C 
BRANCH   6   7
HETATM    7  C   UNL     1     -22.074  -7.850   0.498  1.00  0.00     0.000 C 
BRANCH   7   8
HETATM    8  C   UNL     1     -21.085  -8.880   1.016  1.00  0.00    -0.000 C 
BRANCH   8   9
HETATM    9  C   UNL     1     -21.476 -10.275   0.549  1.00  0.00    -0.005 C 
HETATM   10  C   UNL     1     -20.247 -11.055   0.134  1.00  0.00     0.005 C 
ENDBRANCH   8   9
ENDBRANCH   7   8
ENDBRANCH   6   7
ENDBRANCH   5   6
ENDBRANCH   4   5
ENDBRANCH   3   4
ENDBRANCH   2   3
ENDBRANCH   1   2
BRANCH   1  11
HETATM   11  C   UNL     1     -20.884  -4.279  -6.764  1.00  0.00     0.000 C 
BRANCH  11  12
HETATM   12  C   UNL     1     -19.789  -4.068  -7.791  1.00  0.00     0.000 C 
BRANCH  12  13
HETATM   13  C   UNL     1     -20.164  -4.752  -9.093  1.00  0.00     0.000 C 
BRANCH  13  14
HETATM   14  C   UNL     1     -20.747  -3.740 -10.060  1.00  0.00     0.000 C 
BRANCH  14  15
HETATM   15  C   UNL     1     -21.129  -4.423 -11.362  1.00  0.00     0.000 C 
BRANCH  15  16
HETATM   16  C   UNL     1     -22.638  -4.436 -11.523  1.00  0.00     0.002 C 
BRANCH  16  17
HETATM   17  C   UNL     1     -23.278  -3.395 -10.617  1.00  0.00     0.026 C 
BRANCH  17  18
HETATM   18  C   UNL     1     -24.403  -4.014  -9.807  1.00  0.00     0.164 C 
BRANCH  18  19
HETATM   19  O   UNL     1     -24.189  -3.774  -8.422  1.00  0.00    -0.401 OA
HETATM   20  H   UNL     1     -24.171  -2.816  -8.293  1.00  0.00     0.209 HD
ENDBRANCH  18  19
ENDBRANCH  17  18
ENDBRANCH  16  17
ENDBRANCH  15  16
ENDBRANCH  14  15
ENDBRANCH  13  14
ENDBRANCH  12  13
ENDBRANCH  11  12
ENDBRANCH   1  11
TORSDOF 17
ENDMDL
