MODEL 1
REMARK VINA RESULT:      -4.2      0.000      0.000
REMARK  22 active torsions:
REMARK  status: ('A' for Active; 'I' for Inactive)
REMARK    1  A    between atoms: C_2  and  C_3 
REMARK    2  A    between atoms: C_3  and  C_4 
REMARK    3  A    between atoms: C_4  and  C_5 
REMARK    4  A    between atoms: C_5  and  C_6 
REMARK    5  A    between atoms: C_6  and  C_7 
REMARK    6  A    between atoms: C_7  and  C_8 
REMARK    7  A    between atoms: C_8  and  C_9 
REMARK    8  A    between atoms: C_9  and  C_10 
REMARK    9  A    between atoms: C_10  and  C_11 
REMARK   10  A    between atoms: C_11  and  C_12 
REMARK   11  A    between atoms: C_12  and  C_13 
REMARK   12  A    between atoms: C_13  and  C_14 
REMARK   13  A    between atoms: C_14  and  C_15 
REMARK   14  A    between atoms: C_15  and  C_16 
REMARK   15  A    between atoms: C_16  and  C_17 
REMARK   16  A    between atoms: C_17  and  C_18 
REMARK   17  A    between atoms: C_18  and  C_19 
REMARK   18  A    between atoms: C_19  and  C_20 
REMARK   19  A    between atoms: C_20  and  C_21 
REMARK   20  A    between atoms: C_21  and  C_22 
REMARK   21  A    between atoms: C_22  and  N_23 
REMARK   22  A    between atoms: O_28  and  S_29 
ROOT
HETATM    1  S   UNL     2     -25.393  -6.762 -16.114  1.00  0.00     0.251 S 
HETATM    2  O   UNL     2     -25.854  -6.369 -17.469  1.00  0.00    -0.572 OA
HETATM    3  O   UNL     2     -25.021  -5.653 -15.260  1.00  0.00    -0.572 OA
HETATM    4  O   UNL     2     -24.453  -7.824 -16.120  1.00  0.00    -0.572 OA
ENDROOT
BRANCH   1   5
HETATM    5  O   UNL     2     -26.757  -7.393 -15.383  1.00  0.00    -0.262 OA
HETATM    6  C   UNL     2     -28.097  -7.026 -15.690  1.00  0.00     0.228 C 
ENDBRANCH   1   5
TORSDOF 22
ENDMDL
MODEL 2
REMARK VINA RESULT:      -4.1      1.061      2.024
REMARK  22 active torsions:
REMARK  status: ('A' for Active; 'I' for Inactive)
REMARK    1  A    between atoms: C_2  and  C_3 
REMARK    2  A    between atoms: C_3  and  C_4 
REMARK    3  A    between atoms: C_4  and  C_5 
REMARK    4  A    between atoms: C_5  and  C_6 
REMARK    5  A    between atoms: C_6  and  C_7 
REMARK    6  A    between atoms: C_7  and  C_8 
REMARK    7  A    between atoms: C_8  and  C_9 
REMARK    8  A    between atoms: C_9  and  C_10 
REMARK    9  A    between atoms: C_10  and  C_11 
REMARK   10  A    between atoms: C_11  and  C_12 
REMARK   11  A    between atoms: C_12  and  C_13 
REMARK   12  A    between atoms: C_13  and  C_14 
REMARK   13  A    between atoms: C_14  and  C_15 
REMARK   14  A    between atoms: C_15  and  C_16 
REMARK   15  A    between atoms: C_16  and  C_17 
REMARK   16  A    between atoms: C_17  and  C_18 
REMARK   17  A    between atoms: C_18  and  C_19 
REMARK   18  A    between atoms: C_19  and  C_20 
REMARK   19  A    between atoms: C_20  and  C_21 
REMARK   20  A    between atoms: C_21  and  C_22 
REMARK   21  A    between atoms: C_22  and  N_23 
REMARK   22  A    between atoms: O_28  and  S_29 
ROOT
HETATM    1  S   UNL     2     -25.489  -6.820 -15.955  1.00  0.00     0.251 S 
HETATM    2  O   UNL     2     -24.435  -7.838 -16.189  1.00  0.00    -0.572 OA
HETATM    3  O   UNL     2     -25.027  -5.618 -15.291  1.00  0.00    -0.572 OA
HETATM    4  O   UNL     2     -26.683  -7.355 -15.409  1.00  0.00    -0.572 OA
ENDROOT
BRANCH   1   5
HETATM    5  O   UNL     2     -25.907  -6.299 -17.487  1.00  0.00    -0.262 OA
HETATM    6  C   UNL     2     -27.234  -6.215 -17.991  1.00  0.00     0.228 C 
ENDBRANCH   1   5
TORSDOF 22
ENDMDL
MODEL 3
REMARK VINA RESULT:      -4.1      9.866     10.375
REMARK  22 active torsions:
REMARK  status: ('A' for Active; 'I' for Inactive)
REMARK    1  A    between atoms: C_2  and  C_3 
REMARK    2  A    between atoms: C_3  and  C_4 
REMARK    3  A    between atoms: C_4  and  C_5 
REMARK    4  A    between atoms: C_5  and  C_6 
REMARK    5  A    between atoms: C_6  and  C_7 
REMARK    6  A    between atoms: C_7  and  C_8 
REMARK    7  A    between atoms: C_8  and  C_9 
REMARK    8  A    between atoms: C_9  and  C_10 
REMARK    9  A    between atoms: C_10  and  C_11 
REMARK   10  A    between atoms: C_11  and  C_12 
REMARK   11  A    between atoms: C_12  and  C_13 
REMARK   12  A    between atoms: C_13  and  C_14 
REMARK   13  A    between atoms: C_14  and  C_15 
REMARK   14  A    between atoms: C_15  and  C_16 
REMARK   15  A    between atoms: C_16  and  C_17 
REMARK   16  A    between atoms: C_17  and  C_18 
REMARK   17  A    between atoms: C_18  and  C_19 
REMARK   18  A    between atoms: C_19  and  C_20 
REMARK   19  A    between atoms: C_20  and  C_21 
REMARK   20  A    between atoms: C_21  and  C_22 
REMARK   21  A    between atoms: C_22  and  N_23 
REMARK   22  A    between atoms: O_28  and  S_29 
ROOT
HETATM    1  S   UNL     2     -30.177 -14.431 -20.361  1.00  0.00     0.251 S 
HETATM    2  O   UNL     2     -30.717 -13.763 -19.150  1.00  0.00    -0.572 OA
HETATM    3  O   UNL     2     -30.082 -15.872 -20.259  1.00  0.00    -0.572 OA
HETATM    4  O   UNL     2     -29.012 -13.812 -20.878  1.00  0.00    -0.572 OA
ENDROOT
BRANCH   1   5
HETATM    5  O   UNL     2     -31.353 -14.185 -21.523  1.00  0.00    -0.262 OA
HETATM    6  C   UNL     2     -31.915 -15.199 -22.348  1.00  0.00     0.228 C 
ENDBRANCH   1   5
TORSDOF 22
ENDMDL
MODEL 4
REMARK VINA RESULT:      -3.9      9.514     10.015
REMARK  22 active torsions:
REMARK  status: ('A' for Active; 'I' for Inactive)
REMARK    1  A    between atoms: C_2  and  C_3 
REMARK    2  A    between atoms: C_3  and  C_4 
REMARK    3  A    between atoms: C_4  and  C_5 
REMARK    4  A    between atoms: C_5  and  C_6 
REMARK    5  A    between atoms: C_6  and  C_7 
REMARK    6  A    between atoms: C_7  and  C_8 
REMARK    7  A    between atoms: C_8  and  C_9 
REMARK    8  A    between atoms: C_9  and  C_10 
REMARK    9  A    between atoms: C_10  and  C_11 
REMARK   10  A    between atoms: C_11  and  C_12 
REMARK   11  A    between atoms: C_12  and  C_13 
REMARK   12  A    between atoms: C_13  and  C_14 
REMARK   13  A    between atoms: C_14  and  C_15 
REMARK   14  A    between atoms: C_15  and  C_16 
REMARK   15  A    between atoms: C_16  and  C_17 
REMARK   16  A    between atoms: C_17  and  C_18 
REMARK   17  A    between atoms: C_18  and  C_19 
REMARK   18  A    between atoms: C_19  and  C_20 
REMARK   19  A    between atoms: C_20  and  C_21 
REMARK   20  A    between atoms: C_21  and  C_22 
REMARK   21  A    between atoms: C_22  and  N_23 
REMARK   22  A    between atoms: O_28  and  S_29 
ROOT
HETATM    1  S   UNL     2     -30.263 -14.559 -20.813  1.00  0.00     0.251 S 
HETATM    2  O   UNL     2     -30.163 -16.017 -20.553  1.00  0.00    -0.572 OA
HETATM    3  O   UNL     2     -31.418 -14.165 -21.592  1.00  0.00    -0.572 OA
HETATM    4  O   UNL     2     -29.047 -13.977 -21.253  1.00  0.00    -0.572 OA
ENDROOT
BRANCH   1   5
HETATM    5  O   UNL     2     -30.545 -13.891 -19.308  1.00  0.00    -0.262 OA
HETATM    6  C   UNL     2     -30.002 -14.371 -18.083  1.00  0.00     0.228 C 
ENDBRANCH   1   5
TORSDOF 22
ENDMDL
MODEL 5
REMARK VINA RESULT:      -3.9      9.480      9.963
REMARK  22 active torsions:
REMARK  status: ('A' for Active; 'I' for Inactive)
REMARK    1  A    between atoms: C_2  and  C_3 
REMARK    2  A    between atoms: C_3  and  C_4 
REMARK    3  A    between atoms: C_4  and  C_5 
REMARK    4  A    between atoms: C_5  and  C_6 
REMARK    5  A    between atoms: C_6  and  C_7 
REMARK    6  A    between atoms: C_7  and  C_8 
REMARK    7  A    between atoms: C_8  and  C_9 
REMARK    8  A    between atoms: C_9  and  C_10 
REMARK    9  A    between atoms: C_10  and  C_11 
REMARK   10  A    between atoms: C_11  and  C_12 
REMARK   11  A    between atoms: C_12  and  C_13 
REMARK   12  A    between atoms: C_13  and  C_14 
REMARK   13  A    between atoms: C_14  and  C_15 
REMARK   14  A    between atoms: C_15  and  C_16 
REMARK   15  A    between atoms: C_16  and  C_17 
REMARK   16  A    between atoms: C_17  and  C_18 
REMARK   17  A    between atoms: C_18  and  C_19 
REMARK   18  A    between atoms: C_19  and  C_20 
REMARK   19  A    between atoms: C_20  and  C_21 
REMARK   20  A    between atoms: C_21  and  C_22 
REMARK   21  A    between atoms: C_22  and  N_23 
REMARK   22  A    between atoms: O_28  and  S_29 
ROOT
HETATM    1  S   UNL     2     -29.765 -14.386 -19.505  1.00  0.00     0.251 S 
HETATM    2  O   UNL     2     -28.911 -14.896 -18.404  1.00  0.00    -0.572 OA
HETATM    3  O   UNL     2     -29.046 -13.689 -20.551  1.00  0.00    -0.572 OA
HETATM    4  O   UNL     2     -30.926 -13.707 -19.054  1.00  0.00    -0.572 OA
ENDROOT
BRANCH   1   5
HETATM    5  O   UNL     2     -30.334 -15.766 -20.257  1.00  0.00    -0.262 OA
HETATM    6  C   UNL     2     -29.586 -16.579 -21.154  1.00  0.00     0.228 C 
ENDBRANCH   1   5
TORSDOF 22
ENDMDL
MODEL 6
REMARK VINA RESULT:      -3.8      2.547      3.409
REMARK  22 active torsions:
REMARK  status: ('A' for Active; 'I' for Inactive)
REMARK    1  A    between atoms: C_2  and  C_3 
REMARK    2  A    between atoms: C_3  and  C_4 
REMARK    3  A    between atoms: C_4  and  C_5 
REMARK    4  A    between atoms: C_5  and  C_6 
REMARK    5  A    between atoms: C_6  and  C_7 
REMARK    6  A    between atoms: C_7  and  C_8 
REMARK    7  A    between atoms: C_8  and  C_9 
REMARK    8  A    between atoms: C_9  and  C_10 
REMARK    9  A    between atoms: C_10  and  C_11 
REMARK   10  A    between atoms: C_11  and  C_12 
REMARK   11  A    between atoms: C_12  and  C_13 
REMARK   12  A    between atoms: C_13  and  C_14 
REMARK   13  A    between atoms: C_14  and  C_15 
REMARK   14  A    between atoms: C_15  and  C_16 
REMARK   15  A    between atoms: C_16  and  C_17 
REMARK   16  A    between atoms: C_17  and  C_18 
REMARK   17  A    between atoms: C_18  and  C_19 
REMARK   18  A    between atoms: C_19  and  C_20 
REMARK   19  A    between atoms: C_20  and  C_21 
REMARK   20  A    between atoms: C_21  and  C_22 
REMARK   21  A    between atoms: C_22  and  N_23 
REMARK   22  A    between atoms: O_28  and  S_29 
ROOT
HETATM    1  S   UNL     2     -28.207  -6.640 -15.861  1.00  0.00     0.251 S 
HETATM    2  O   UNL     2     -27.642  -7.695 -14.984  1.00  0.00    -0.572 OA
HETATM    3  O   UNL     2     -27.243  -6.001 -16.732  1.00  0.00    -0.572 OA
HETATM    4  O   UNL     2     -29.057  -5.732 -15.180  1.00  0.00    -0.572 OA
ENDROOT
BRANCH   1   5
HETATM    5  O   UNL     2     -29.210  -7.470 -16.909  1.00  0.00    -0.262 OA
HETATM    6  C   UNL     2     -30.364  -6.930 -17.541  1.00  0.00     0.228 C 
ENDBRANCH   1   5
TORSDOF 22
ENDMDL
MODEL 7
REMARK VINA RESULT:      -3.8      5.595      6.210
REMARK  22 active torsions:
REMARK  status: ('A' for Active; 'I' for Inactive)
REMARK    1  A    between atoms: C_2  and  C_3 
REMARK    2  A    between atoms: C_3  and  C_4 
REMARK    3  A    between atoms: C_4  and  C_5 
REMARK    4  A    between atoms: C_5  and  C_6 
REMARK    5  A    between atoms: C_6  and  C_7 
REMARK    6  A    between atoms: C_7  and  C_8 
REMARK    7  A    between atoms: C_8  and  C_9 
REMARK    8  A    between atoms: C_9  and  C_10 
REMARK    9  A    between atoms: C_10  and  C_11 
REMARK   10  A    between atoms: C_11  and  C_12 
REMARK   11  A    between atoms: C_12  and  C_13 
REMARK   12  A    between atoms: C_13  and  C_14 
REMARK   13  A    between atoms: C_14  and  C_15 
REMARK   14  A    between atoms: C_15  and  C_16 
REMARK   15  A    between atoms: C_16  and  C_17 
REMARK   16  A    between atoms: C_17  and  C_18 
REMARK   17  A    between atoms: C_18  and  C_19 
REMARK   18  A    between atoms: C_19  and  C_20 
REMARK   19  A    between atoms: C_20  and  C_21 
REMARK   20  A    between atoms: C_21  and  C_22 
REMARK   21  A    between atoms: C_22  and  N_23 
REMARK   22  A    between atoms: O_28  and  S_29 
ROOT
HETATM    1  S   UNL     2     -24.057  -3.233 -12.193  1.00  0.00     0.251 S 
HETATM    2  O   UNL     2     -23.743  -4.679 -12.307  1.00  0.00    -0.572 OA
HETATM    3  O   UNL     2     -24.890  -2.712 -13.256  1.00  0.00    -0.572 OA
HETATM    4  O   UNL     2     -22.926  -2.429 -11.902  1.00  0.00    -0.572 OA
ENDROOT
BRANCH   1   5
HETATM    5  O   UNL     2     -25.024  -3.129 -10.834  1.00  0.00    -0.262 OA
HETATM    6  C   UNL     2     -24.592  -3.365  -9.499  1.00  0.00     0.228 C 
ENDBRANCH   1   5
TORSDOF 22
ENDMDL
MODEL 8
REMARK VINA RESULT:      -3.8      8.840      9.354
REMARK  22 active torsions:
REMARK  status: ('A' for Active; 'I' for Inactive)
REMARK    1  A    between atoms: C_2  and  C_3 
REMARK    2  A    between atoms: C_3  and  C_4 
REMARK    3  A    between atoms: C_4  and  C_5 
REMARK    4  A    between atoms: C_5  and  C_6 
REMARK    5  A    between atoms: C_6  and  C_7 
REMARK    6  A    between atoms: C_7  and  C_8 
REMARK    7  A    between atoms: C_8  and  C_9 
REMARK    8  A    between atoms: C_9  and  C_10 
REMARK    9  A    between atoms: C_10  and  C_11 
REMARK   10  A    between atoms: C_11  and  C_12 
REMARK   11  A    between atoms: C_12  and  C_13 
REMARK   12  A    between atoms: C_13  and  C_14 
REMARK   13  A    between atoms: C_14  and  C_15 
REMARK   14  A    between atoms: C_15  and  C_16 
REMARK   15  A    between atoms: C_16  and  C_17 
REMARK   16  A    between atoms: C_17  and  C_18 
REMARK   17  A    between atoms: C_18  and  C_19 
REMARK   18  A    between atoms: C_19  and  C_20 
REMARK   19  A    between atoms: C_20  and  C_21 
REMARK   20  A    between atoms: C_21  and  C_22 
REMARK   21  A    between atoms: C_22  and  N_23 
REMARK   22  A    between atoms: O_28  and  S_29 
ROOT
HETATM    1  S   UNL     2     -29.632 -14.007 -19.263  1.00  0.00     0.251 S 
HETATM    2  O   UNL     2     -28.806 -12.831 -18.893  1.00  0.00    -0.572 OA
HETATM    3  O   UNL     2     -31.058 -13.814 -19.102  1.00  0.00    -0.572 OA
HETATM    4  O   UNL     2     -29.152 -15.229 -18.728  1.00  0.00    -0.572 OA
ENDROOT
BRANCH   1   5
HETATM    5  O   UNL     2     -29.429 -14.148 -20.916  1.00  0.00    -0.262 OA
HETATM    6  C   UNL     2     -29.622 -15.340 -21.668  1.00  0.00     0.228 C 
ENDBRANCH   1   5
TORSDOF 22
ENDMDL
MODEL 9
REMARK VINA RESULT:      -3.8      2.363      3.284
REMARK  22 active torsions:
REMARK  status: ('A' for Active; 'I' for Inactive)
REMARK    1  A    between atoms: C_2  and  C_3 
REMARK    2  A    between atoms: C_3  and  C_4 
REMARK    3  A    between atoms: C_4  and  C_5 
REMARK    4  A    between atoms: C_5  and  C_6 
REMARK    5  A    between atoms: C_6  and  C_7 
REMARK    6  A    between atoms: C_7  and  C_8 
REMARK    7  A    between atoms: C_8  and  C_9 
REMARK    8  A    between atoms: C_9  and  C_10 
REMARK    9  A    between atoms: C_10  and  C_11 
REMARK   10  A    between atoms: C_11  and  C_12 
REMARK   11  A    between atoms: C_12  and  C_13 
REMARK   12  A    between atoms: C_13  and  C_14 
REMARK   13  A    between atoms: C_14  and  C_15 
REMARK   14  A    between atoms: C_15  and  C_16 
REMARK   15  A    between atoms: C_16  and  C_17 
REMARK   16  A    between atoms: C_17  and  C_18 
REMARK   17  A    between atoms: C_18  and  C_19 
REMARK   18  A    between atoms: C_19  and  C_20 
REMARK   19  A    between atoms: C_20  and  C_21 
REMARK   20  A    between atoms: C_21  and  C_22 
REMARK   21  A    between atoms: C_22  and  N_23 
REMARK   22  A    between atoms: O_28  and  S_29 
ROOT
HETATM    1  S   UNL     2     -28.162  -6.638 -15.820  1.00  0.00     0.251 S 
HETATM    2  O   UNL     2     -28.890  -7.064 -17.041  1.00  0.00    -0.572 OA
HETATM    3  O   UNL     2     -27.764  -7.723 -14.948  1.00  0.00    -0.572 OA
HETATM    4  O   UNL     2     -28.775  -5.552 -15.145  1.00  0.00    -0.572 OA
ENDROOT
BRANCH   1   5
HETATM    5  O   UNL     2     -26.715  -6.031 -16.396  1.00  0.00    -0.262 OA
HETATM    6  C   UNL     2     -25.437  -6.617 -16.182  1.00  0.00     0.228 C 
ENDBRANCH   1   5
TORSDOF 22
ENDMDL
