MODEL 1
REMARK VINA RESULT:      -6.6      0.000      0.000
REMARK  13 active torsions:
REMARK  status: ('A' for Active; 'I' for Inactive)
REMARK    1  A    between atoms: C_2  and  C_3 
REMARK    2  A    between atoms: C_3  and  C_4 
REMARK    3  A    between atoms: C_4  and  C_5 
REMARK    4  A    between atoms: C_5  and  C_6 
REMARK    5  A    between atoms: C_6  and  C_7 
REMARK    6  A    between atoms: C_7  and  C_8 
REMARK    7  A    between atoms: C_8  and  C_9 
REMARK    8  A    between atoms: C_9  and  C_10 
REMARK    9  A    between atoms: C_10  and  C_11 
REMARK   10  A    between atoms: C_11  and  C_12 
REMARK   11  A    between atoms: C_12  and  N_13 
REMARK   12  A    between atoms: N_13  and  C_16 
REMARK   13  A    between atoms: C_16  and  C_17 
ROOT
HETATM    1  C   UNL     1     -21.510  -3.884  -7.428  1.00  0.00     0.002 C 
ENDROOT
BRANCH   1   2
HETATM    2  C   UNL     1     -20.232  -4.496  -6.852  1.00  0.00     0.000 C 
BRANCH   2   3
HETATM    3  C   UNL     1     -20.460  -5.086  -5.464  1.00  0.00     0.000 C 
BRANCH   3   4
HETATM    4  C   UNL     1     -20.906  -6.537  -5.536  1.00  0.00     0.000 C 
BRANCH   4   5
HETATM    5  C   UNL     1     -21.893  -6.827  -4.411  1.00  0.00     0.000 C 
BRANCH   5   6
HETATM    6  C   UNL     1     -21.223  -6.664  -3.056  1.00  0.00     0.000 C 
BRANCH   6   7
HETATM    7  C   UNL     1     -22.206  -6.101  -2.037  1.00  0.00     0.000 C 
BRANCH   7   8
HETATM    8  C   UNL     1     -22.269  -6.996  -0.806  1.00  0.00    -0.000 C 
BRANCH   8   9
HETATM    9  C   UNL     1     -21.498  -8.290  -1.033  1.00  0.00    -0.005 C 
HETATM   10  C   UNL     1     -22.418  -9.494  -0.940  1.00  0.00     0.005 C 
ENDBRANCH   8   9
ENDBRANCH   7   8
ENDBRANCH   6   7
ENDBRANCH   5   6
ENDBRANCH   4   5
ENDBRANCH   3   4
ENDBRANCH   2   3
ENDBRANCH   1   2
BRANCH   1  11
HETATM   11  C   UNL     1     -22.058  -4.607  -8.665  1.00  0.00     0.028 C 
BRANCH  11  12
HETATM   12  C   UNL     1     -21.912  -3.779  -9.947  1.00  0.00     0.237 C 
BRANCH  12  13
HETATM   13  N   UNL     1     -23.211  -3.724 -10.763  1.00  0.00    -0.065 N 
HETATM   14  C   UNL     1     -23.430  -5.024 -11.520  1.00  0.00     0.272 C 
HETATM   15  C   UNL     1     -24.409  -3.350  -9.932  1.00  0.00     0.272 C 
BRANCH  13  16
HETATM   16  C   UNL     1     -23.014  -2.576 -11.859  1.00  0.00     0.349 C 
BRANCH  16  17
HETATM   17  C   UNL     1     -23.759  -2.753 -13.212  1.00  0.00     0.199 C 
HETATM   18  O   UNL     1     -23.005  -2.975 -14.194  1.00  0.00    -0.647 OA
HETATM   19  O   UNL     1     -25.018  -2.775 -13.103  1.00  0.00    -0.647 OA
ENDBRANCH  16  17
ENDBRANCH  13  16
ENDBRANCH  12  13
ENDBRANCH  11  12
ENDBRANCH   1  11
TORSDOF 13
ENDMDL
MODEL 2
REMARK VINA RESULT:      -6.0      1.754      2.277
REMARK  13 active torsions:
REMARK  status: ('A' for Active; 'I' for Inactive)
REMARK    1  A    between atoms: C_2  and  C_3 
REMARK    2  A    between atoms: C_3  and  C_4 
REMARK    3  A    between atoms: C_4  and  C_5 
REMARK    4  A    between atoms: C_5  and  C_6 
REMARK    5  A    between atoms: C_6  and  C_7 
REMARK    6  A    between atoms: C_7  and  C_8 
REMARK    7  A    between atoms: C_8  and  C_9 
REMARK    8  A    between atoms: C_9  and  C_10 
REMARK    9  A    between atoms: C_10  and  C_11 
REMARK   10  A    between atoms: C_11  and  C_12 
REMARK   11  A    between atoms: C_12  and  N_13 
REMARK   12  A    between atoms: N_13  and  C_16 
REMARK   13  A    between atoms: C_16  and  C_17 
ROOT
HETATM    1  C   UNL     1     -19.814  -4.555  -8.271  1.00  0.00     0.002 C 
ENDROOT
BRANCH   1   2
HETATM    2  C   UNL     1     -20.645  -4.034  -7.097  1.00  0.00     0.000 C 
BRANCH   2   3
HETATM    3  C   UNL     1     -20.450  -4.880  -5.843  1.00  0.00     0.000 C 
BRANCH   3   4
HETATM    4  C   UNL     1     -20.889  -6.319  -6.062  1.00  0.00     0.000 C 
BRANCH   4   5
HETATM    5  C   UNL     1     -21.592  -6.836  -4.812  1.00  0.00     0.000 C 
BRANCH   5   6
HETATM    6  C   UNL     1     -21.270  -5.957  -3.614  1.00  0.00     0.000 C 
BRANCH   6   7
HETATM    7  C   UNL     1     -21.926  -6.509  -2.354  1.00  0.00     0.000 C 
BRANCH   7   8
HETATM    8  C   UNL     1     -21.311  -7.851  -1.977  1.00  0.00    -0.000 C 
BRANCH   8   9
HETATM    9  C   UNL     1     -21.343  -8.062  -0.469  1.00  0.00    -0.005 C 
HETATM   10  C   UNL     1     -22.721  -7.760   0.092  1.00  0.00     0.005 C 
ENDBRANCH   8   9
ENDBRANCH   7   8
ENDBRANCH   6   7
ENDBRANCH   5   6
ENDBRANCH   4   5
ENDBRANCH   3   4
ENDBRANCH   2   3
ENDBRANCH   1   2
BRANCH   1  11
HETATM   11  C   UNL     1     -20.386  -4.215  -9.653  1.00  0.00     0.028 C 
BRANCH  11  12
HETATM   12  C   UNL     1     -21.793  -4.787  -9.868  1.00  0.00     0.237 C 
BRANCH  12  13
HETATM   13  N   UNL     1     -22.548  -4.082 -11.003  1.00  0.00    -0.065 N 
HETATM   14  C   UNL     1     -21.582  -3.371 -11.936  1.00  0.00     0.272 C 
HETATM   15  C   UNL     1     -23.473  -5.005 -11.751  1.00  0.00     0.272 C 
BRANCH  13  16
HETATM   16  C   UNL     1     -23.451  -2.953 -10.321  1.00  0.00     0.349 C 
BRANCH  16  17
HETATM   17  C   UNL     1     -24.648  -3.431  -9.453  1.00  0.00     0.199 C 
HETATM   18  O   UNL     1     -24.318  -3.950  -8.354  1.00  0.00    -0.647 OA
HETATM   19  O   UNL     1     -25.778  -3.113  -9.921  1.00  0.00    -0.647 OA
ENDBRANCH  16  17
ENDBRANCH  13  16
ENDBRANCH  12  13
ENDBRANCH  11  12
ENDBRANCH   1  11
TORSDOF 13
ENDMDL
MODEL 3
REMARK VINA RESULT:      -5.9      5.375      9.463
REMARK  13 active torsions:
REMARK  status: ('A' for Active; 'I' for Inactive)
REMARK    1  A    between atoms: C_2  and  C_3 
REMARK    2  A    between atoms: C_3  and  C_4 
REMARK    3  A    between atoms: C_4  and  C_5 
REMARK    4  A    between atoms: C_5  and  C_6 
REMARK    5  A    between atoms: C_6  and  C_7 
REMARK    6  A    between atoms: C_7  and  C_8 
REMARK    7  A    between atoms: C_8  and  C_9 
REMARK    8  A    between atoms: C_9  and  C_10 
REMARK    9  A    between atoms: C_10  and  C_11 
REMARK   10  A    between atoms: C_11  and  C_12 
REMARK   11  A    between atoms: C_12  and  N_13 
REMARK   12  A    between atoms: N_13  and  C_16 
REMARK   13  A    between atoms: C_16  and  C_17 
ROOT
HETATM    1  C   UNL     1     -20.880  -5.652  -4.763  1.00  0.00     0.002 C 
ENDROOT
BRANCH   1   2
HETATM    2  C   UNL     1     -20.689  -6.534  -5.998  1.00  0.00     0.000 C 
BRANCH   2   3
HETATM    3  C   UNL     1     -21.023  -5.789  -7.286  1.00  0.00     0.000 C 
BRANCH   3   4
HETATM    4  C   UNL     1     -20.597  -4.332  -7.219  1.00  0.00     0.000 C 
BRANCH   4   5
HETATM    5  C   UNL     1     -19.756  -3.987  -8.442  1.00  0.00     0.000 C 
BRANCH   5   6
HETATM    6  C   UNL     1     -20.304  -4.676  -9.681  1.00  0.00     0.000 C 
BRANCH   6   7
HETATM    7  C   UNL     1     -20.529  -3.666 -10.800  1.00  0.00     0.000 C 
BRANCH   7   8
HETATM    8  C   UNL     1     -22.013  -3.543 -11.116  1.00  0.00    -0.000 C 
BRANCH   8   9
HETATM    9  C   UNL     1     -22.832  -4.516 -10.278  1.00  0.00    -0.005 C 
HETATM   10  C   UNL     1     -23.853  -3.778  -9.431  1.00  0.00     0.005 C 
ENDBRANCH   8   9
ENDBRANCH   7   8
ENDBRANCH   6   7
ENDBRANCH   5   6
ENDBRANCH   4   5
ENDBRANCH   3   4
ENDBRANCH   2   3
ENDBRANCH   1   2
BRANCH   1  11
HETATM   11  C   UNL     1     -21.387  -6.398  -3.523  1.00  0.00     0.028 C 
BRANCH  11  12
HETATM   12  C   UNL     1     -21.503  -7.911  -3.749  1.00  0.00     0.237 C 
BRANCH  12  13
HETATM   13  N   UNL     1     -20.923  -8.727  -2.586  1.00  0.00    -0.065 N 
HETATM   14  C   UNL     1     -21.878  -9.835  -2.173  1.00  0.00     0.272 C 
HETATM   15  C   UNL     1     -19.543  -9.255  -2.874  1.00  0.00     0.272 C 
BRANCH  13  16
HETATM   16  C   UNL     1     -20.802  -7.730  -1.342  1.00  0.00     0.349 C 
BRANCH  16  17
HETATM   17  C   UNL     1     -21.888  -7.843  -0.236  1.00  0.00     0.199 C 
HETATM   18  O   UNL     1     -21.537  -8.511   0.770  1.00  0.00    -0.647 OA
HETATM   19  O   UNL     1     -22.916  -7.140  -0.455  1.00  0.00    -0.647 OA
ENDBRANCH  16  17
ENDBRANCH  13  16
ENDBRANCH  12  13
ENDBRANCH  11  12
ENDBRANCH   1  11
TORSDOF 13
ENDMDL
MODEL 4
REMARK VINA RESULT:      -5.9      1.425      2.273
REMARK  13 active torsions:
REMARK  status: ('A' for Active; 'I' for Inactive)
REMARK    1  A    between atoms: C_2  and  C_3 
REMARK    2  A    between atoms: C_3  and  C_4 
REMARK    3  A    between atoms: C_4  and  C_5 
REMARK    4  A    between atoms: C_5  and  C_6 
REMARK    5  A    between atoms: C_6  and  C_7 
REMARK    6  A    between atoms: C_7  and  C_8 
REMARK    7  A    between atoms: C_8  and  C_9 
REMARK    8  A    between atoms: C_9  and  C_10 
REMARK    9  A    between atoms: C_10  and  C_11 
REMARK   10  A    between atoms: C_11  and  C_12 
REMARK   11  A    between atoms: C_12  and  N_13 
REMARK   12  A    between atoms: N_13  and  C_16 
REMARK   13  A    between atoms: C_16  and  C_17 
ROOT
HETATM    1  C   UNL     1     -20.303  -3.661 -10.186  1.00  0.00     0.002 C 
ENDROOT
BRANCH   1   2
HETATM    2  C   UNL     1     -20.030  -4.840  -9.250  1.00  0.00     0.000 C 
BRANCH   2   3
HETATM    3  C   UNL     1     -20.174  -4.446  -7.783  1.00  0.00     0.000 C 
BRANCH   3   4
HETATM    4  C   UNL     1     -20.067  -5.653  -6.865  1.00  0.00     0.000 C 
BRANCH   4   5
HETATM    5  C   UNL     1     -20.594  -5.292  -5.481  1.00  0.00     0.000 C 
BRANCH   5   6
HETATM    6  C   UNL     1     -21.784  -6.165  -5.117  1.00  0.00     0.000 C 
BRANCH   6   7
HETATM    7  C   UNL     1     -21.413  -7.640  -5.204  1.00  0.00     0.000 C 
BRANCH   7   8
HETATM    8  C   UNL     1     -20.522  -8.036  -4.034  1.00  0.00    -0.000 C 
BRANCH   8   9
HETATM    9  C   UNL     1     -21.353  -8.546  -2.864  1.00  0.00    -0.005 C 
HETATM   10  C   UNL     1     -21.050  -7.761  -1.600  1.00  0.00     0.005 C 
ENDBRANCH   8   9
ENDBRANCH   7   8
ENDBRANCH   6   7
ENDBRANCH   5   6
ENDBRANCH   4   5
ENDBRANCH   3   4
ENDBRANCH   2   3
ENDBRANCH   1   2
BRANCH   1  11
HETATM   11  C   UNL     1     -21.000  -4.041 -11.498  1.00  0.00     0.028 C 
BRANCH  11  12
HETATM   12  C   UNL     1     -22.141  -3.083 -11.860  1.00  0.00     0.237 C 
BRANCH  12  13
HETATM   13  N   UNL     1     -23.505  -3.785 -11.917  1.00  0.00    -0.065 N 
HETATM   14  C   UNL     1     -23.382  -5.241 -11.499  1.00  0.00     0.272 C 
HETATM   15  C   UNL     1     -24.568  -3.063 -11.132  1.00  0.00     0.272 C 
BRANCH  13  16
HETATM   16  C   UNL     1     -23.958  -3.779 -13.451  1.00  0.00     0.349 C 
BRANCH  16  17
HETATM   17  C   UNL     1     -23.443  -2.612 -14.337  1.00  0.00     0.199 C 
HETATM   18  O   UNL     1     -22.555  -2.941 -15.165  1.00  0.00    -0.647 OA
HETATM   19  O   UNL     1     -24.084  -1.532 -14.184  1.00  0.00    -0.647 OA
ENDBRANCH  16  17
ENDBRANCH  13  16
ENDBRANCH  12  13
ENDBRANCH  11  12
ENDBRANCH   1  11
TORSDOF 13
ENDMDL
MODEL 5
REMARK VINA RESULT:      -5.9      1.303      1.929
REMARK  13 active torsions:
REMARK  status: ('A' for Active; 'I' for Inactive)
REMARK    1  A    between atoms: C_2  and  C_3 
REMARK    2  A    between atoms: C_3  and  C_4 
REMARK    3  A    between atoms: C_4  and  C_5 
REMARK    4  A    between atoms: C_5  and  C_6 
REMARK    5  A    between atoms: C_6  and  C_7 
REMARK    6  A    between atoms: C_7  and  C_8 
REMARK    7  A    between atoms: C_8  and  C_9 
REMARK    8  A    between atoms: C_9  and  C_10 
REMARK    9  A    between atoms: C_10  and  C_11 
REMARK   10  A    between atoms: C_11  and  C_12 
REMARK   11  A    between atoms: C_12  and  N_13 
REMARK   12  A    between atoms: N_13  and  C_16 
REMARK   13  A    between atoms: C_16  and  C_17 
ROOT
HETATM    1  C   UNL     1     -21.508  -5.177  -6.490  1.00  0.00     0.002 C 
ENDROOT
BRANCH   1   2
HETATM    2  C   UNL     1     -20.693  -6.469  -6.420  1.00  0.00     0.000 C 
BRANCH   2   3
HETATM    3  C   UNL     1     -21.040  -7.295  -5.185  1.00  0.00     0.000 C 
BRANCH   3   4
HETATM    4  C   UNL     1     -22.074  -6.597  -4.317  1.00  0.00     0.000 C 
BRANCH   4   5
HETATM    5  C   UNL     1     -21.432  -6.162  -3.004  1.00  0.00     0.000 C 
BRANCH   5   6
HETATM    6  C   UNL     1     -21.451  -7.299  -1.996  1.00  0.00     0.000 C 
BRANCH   6   7
HETATM    7  C   UNL     1     -22.364  -6.959  -0.824  1.00  0.00     0.000 C 
BRANCH   7   8
HETATM    8  C   UNL     1     -22.248  -8.017   0.266  1.00  0.00    -0.000 C 
BRANCH   8   9
HETATM    9  C   UNL     1     -23.187  -9.185  -0.004  1.00  0.00    -0.005 C 
HETATM   10  C   UNL     1     -22.407 -10.463  -0.252  1.00  0.00     0.005 C 
ENDBRANCH   8   9
ENDBRANCH   7   8
ENDBRANCH   6   7
ENDBRANCH   5   6
ENDBRANCH   4   5
ENDBRANCH   3   4
ENDBRANCH   2   3
ENDBRANCH   1   2
BRANCH   1  11
HETATM   11  C   UNL     1     -21.834  -4.710  -7.914  1.00  0.00     0.028 C 
BRANCH  11  12
HETATM   12  C   UNL     1     -23.332  -4.461  -8.126  1.00  0.00     0.237 C 
BRANCH  12  13
HETATM   13  N   UNL     1     -23.665  -4.057  -9.569  1.00  0.00    -0.065 N 
HETATM   14  C   UNL     1     -23.894  -5.285 -10.435  1.00  0.00     0.272 C 
HETATM   15  C   UNL     1     -24.813  -3.087  -9.656  1.00  0.00     0.272 C 
BRANCH  13  16
HETATM   16  C   UNL     1     -22.370  -3.317 -10.147  1.00  0.00     0.349 C 
BRANCH  16  17
HETATM   17  C   UNL     1     -22.113  -3.430 -11.675  1.00  0.00     0.199 C 
HETATM   18  O   UNL     1     -22.785  -2.629 -12.375  1.00  0.00    -0.647 OA
HETATM   19  O   UNL     1     -21.173  -4.219 -11.979  1.00  0.00    -0.647 OA
ENDBRANCH  16  17
ENDBRANCH  13  16
ENDBRANCH  12  13
ENDBRANCH  11  12
ENDBRANCH   1  11
TORSDOF 13
ENDMDL
MODEL 6
REMARK VINA RESULT:      -5.8      5.138      9.512
REMARK  13 active torsions:
REMARK  status: ('A' for Active; 'I' for Inactive)
REMARK    1  A    between atoms: C_2  and  C_3 
REMARK    2  A    between atoms: C_3  and  C_4 
REMARK    3  A    between atoms: C_4  and  C_5 
REMARK    4  A    between atoms: C_5  and  C_6 
REMARK    5  A    between atoms: C_6  and  C_7 
REMARK    6  A    between atoms: C_7  and  C_8 
REMARK    7  A    between atoms: C_8  and  C_9 
REMARK    8  A    between atoms: C_9  and  C_10 
REMARK    9  A    between atoms: C_10  and  C_11 
REMARK   10  A    between atoms: C_11  and  C_12 
REMARK   11  A    between atoms: C_12  and  N_13 
REMARK   12  A    between atoms: N_13  and  C_16 
REMARK   13  A    between atoms: C_16  and  C_17 
ROOT
HETATM    1  C   UNL     1     -21.184  -8.030  -5.369  1.00  0.00     0.002 C 
ENDROOT
BRANCH   1   2
HETATM    2  C   UNL     1     -21.861  -6.662  -5.268  1.00  0.00     0.000 C 
BRANCH   2   3
HETATM    3  C   UNL     1     -20.902  -5.588  -4.765  1.00  0.00     0.000 C 
BRANCH   3   4
HETATM    4  C   UNL     1     -20.132  -4.944  -5.907  1.00  0.00     0.000 C 
BRANCH   4   5
HETATM    5  C   UNL     1     -20.993  -4.934  -7.164  1.00  0.00     0.000 C 
BRANCH   5   6
HETATM    6  C   UNL     1     -20.130  -5.091  -8.406  1.00  0.00     0.000 C 
BRANCH   6   7
HETATM    7  C   UNL     1     -20.375  -3.942  -9.377  1.00  0.00     0.000 C 
BRANCH   7   8
HETATM    8  C   UNL     1     -20.342  -4.444 -10.814  1.00  0.00    -0.000 C 
BRANCH   8   9
HETATM    9  C   UNL     1     -21.528  -3.908 -11.606  1.00  0.00    -0.005 C 
HETATM   10  C   UNL     1     -22.834  -4.468 -11.072  1.00  0.00     0.005 C 
ENDBRANCH   8   9
ENDBRANCH   7   8
ENDBRANCH   6   7
ENDBRANCH   5   6
ENDBRANCH   4   5
ENDBRANCH   3   4
ENDBRANCH   2   3
ENDBRANCH   1   2
BRANCH   1  11
HETATM   11  C   UNL     1     -20.642  -8.569  -4.039  1.00  0.00     0.028 C 
BRANCH  11  12
HETATM   12  C   UNL     1     -21.756  -9.014  -3.084  1.00  0.00     0.237 C 
BRANCH  12  13
HETATM   13  N   UNL     1     -21.219  -9.440  -1.710  1.00  0.00    -0.065 N 
HETATM   14  C   UNL     1     -22.197 -10.369  -1.011  1.00  0.00     0.272 C 
HETATM   15  C   UNL     1     -19.836 -10.031  -1.781  1.00  0.00     0.272 C 
BRANCH  13  16
HETATM   16  C   UNL     1     -21.126  -8.112  -0.824  1.00  0.00     0.349 C 
BRANCH  16  17
HETATM   17  C   UNL     1     -22.354  -7.160  -0.844  1.00  0.00     0.199 C 
HETATM   18  O   UNL     1     -23.216  -7.407   0.039  1.00  0.00    -0.647 OA
HETATM   19  O   UNL     1     -22.244  -6.201  -1.660  1.00  0.00    -0.647 OA
ENDBRANCH  16  17
ENDBRANCH  13  16
ENDBRANCH  12  13
ENDBRANCH  11  12
ENDBRANCH   1  11
TORSDOF 13
ENDMDL
MODEL 7
REMARK VINA RESULT:      -5.5      5.566      9.630
REMARK  13 active torsions:
REMARK  status: ('A' for Active; 'I' for Inactive)
REMARK    1  A    between atoms: C_2  and  C_3 
REMARK    2  A    between atoms: C_3  and  C_4 
REMARK    3  A    between atoms: C_4  and  C_5 
REMARK    4  A    between atoms: C_5  and  C_6 
REMARK    5  A    between atoms: C_6  and  C_7 
REMARK    6  A    between atoms: C_7  and  C_8 
REMARK    7  A    between atoms: C_8  and  C_9 
REMARK    8  A    between atoms: C_9  and  C_10 
REMARK    9  A    between atoms: C_10  and  C_11 
REMARK   10  A    between atoms: C_11  and  C_12 
REMARK   11  A    between atoms: C_12  and  N_13 
REMARK   12  A    between atoms: N_13  and  C_16 
REMARK   13  A    between atoms: C_16  and  C_17 
ROOT
HETATM    1  C   UNL     1     -20.491  -7.272  -5.639  1.00  0.00     0.002 C 
ENDROOT
BRANCH   1   2
HETATM    2  C   UNL     1     -21.586  -6.213  -5.495  1.00  0.00     0.000 C 
BRANCH   2   3
HETATM    3  C   UNL     1     -21.399  -5.064  -6.480  1.00  0.00     0.000 C 
BRANCH   3   4
HETATM    4  C   UNL     1     -20.081  -5.176  -7.229  1.00  0.00     0.000 C 
BRANCH   4   5
HETATM    5  C   UNL     1     -19.979  -4.053  -8.256  1.00  0.00     0.000 C 
BRANCH   5   6
HETATM    6  C   UNL     1     -20.056  -4.610  -9.668  1.00  0.00     0.000 C 
BRANCH   6   7
HETATM    7  C   UNL     1     -21.050  -3.812 -10.504  1.00  0.00     0.000 C 
BRANCH   7   8
HETATM    8  C   UNL     1     -22.380  -3.684  -9.772  1.00  0.00    -0.000 C 
BRANCH   8   9
HETATM    9  C   UNL     1     -23.327  -4.813 -10.160  1.00  0.00    -0.005 C 
HETATM   10  C   UNL     1     -23.572  -4.824 -11.658  1.00  0.00     0.005 C 
ENDBRANCH   8   9
ENDBRANCH   7   8
ENDBRANCH   6   7
ENDBRANCH   5   6
ENDBRANCH   4   5
ENDBRANCH   3   4
ENDBRANCH   2   3
ENDBRANCH   1   2
BRANCH   1  11
HETATM   11  C   UNL     1     -20.401  -8.255  -4.465  1.00  0.00     0.028 C 
BRANCH  11  12
HETATM   12  C   UNL     1     -21.680  -8.284  -3.619  1.00  0.00     0.237 C 
BRANCH  12  13
HETATM   13  N   UNL     1     -21.432  -7.872  -2.161  1.00  0.00    -0.065 N 
HETATM   14  C   UNL     1     -19.951  -7.939  -1.825  1.00  0.00     0.272 C 
HETATM   15  C   UNL     1     -22.023  -6.529  -1.825  1.00  0.00     0.272 C 
BRANCH  13  16
HETATM   16  C   UNL     1     -22.165  -8.959  -1.247  1.00  0.00     0.349 C 
BRANCH  16  17
HETATM   17  C   UNL     1     -22.355  -8.610   0.255  1.00  0.00     0.199 C 
HETATM   18  O   UNL     1     -23.516  -8.230   0.557  1.00  0.00    -0.647 OA
HETATM   19  O   UNL     1     -21.351  -8.882   0.974  1.00  0.00    -0.647 OA
ENDBRANCH  16  17
ENDBRANCH  13  16
ENDBRANCH  12  13
ENDBRANCH  11  12
ENDBRANCH   1  11
TORSDOF 13
ENDMDL
MODEL 8
REMARK VINA RESULT:      -5.3      1.575      2.150
REMARK  13 active torsions:
REMARK  status: ('A' for Active; 'I' for Inactive)
REMARK    1  A    between atoms: C_2  and  C_3 
REMARK    2  A    between atoms: C_3  and  C_4 
REMARK    3  A    between atoms: C_4  and  C_5 
REMARK    4  A    between atoms: C_5  and  C_6 
REMARK    5  A    between atoms: C_6  and  C_7 
REMARK    6  A    between atoms: C_7  and  C_8 
REMARK    7  A    between atoms: C_8  and  C_9 
REMARK    8  A    between atoms: C_9  and  C_10 
REMARK    9  A    between atoms: C_10  and  C_11 
REMARK   10  A    between atoms: C_11  and  C_12 
REMARK   11  A    between atoms: C_12  and  N_13 
REMARK   12  A    between atoms: N_13  and  C_16 
REMARK   13  A    between atoms: C_16  and  C_17 
ROOT
HETATM    1  C   UNL     1     -21.482  -4.825  -7.669  1.00  0.00     0.002 C 
ENDROOT
BRANCH   1   2
HETATM    2  C   UNL     1     -20.653  -4.413  -6.451  1.00  0.00     0.000 C 
BRANCH   2   3
HETATM    3  C   UNL     1     -20.555  -5.537  -5.423  1.00  0.00     0.000 C 
BRANCH   3   4
HETATM    4  C   UNL     1     -21.410  -6.731  -5.815  1.00  0.00     0.000 C 
BRANCH   4   5
HETATM    5  C   UNL     1     -21.894  -7.448  -4.559  1.00  0.00     0.000 C 
BRANCH   5   6
HETATM    6  C   UNL     1     -21.326  -8.856  -4.493  1.00  0.00     0.000 C 
BRANCH   6   7
HETATM    7  C   UNL     1     -21.736  -9.538  -3.194  1.00  0.00     0.000 C 
BRANCH   7   8
HETATM    8  C   UNL     1     -22.479 -10.836  -3.485  1.00  0.00    -0.000 C 
BRANCH   8   9
HETATM    9  C   UNL     1     -22.850 -11.554  -2.194  1.00  0.00    -0.005 C 
HETATM   10  C   UNL     1     -22.818 -13.060  -2.383  1.00  0.00     0.005 C 
ENDBRANCH   8   9
ENDBRANCH   7   8
ENDBRANCH   6   7
ENDBRANCH   5   6
ENDBRANCH   4   5
ENDBRANCH   3   4
ENDBRANCH   2   3
ENDBRANCH   1   2
BRANCH   1  11
HETATM   11  C   UNL     1     -21.515  -3.784  -8.794  1.00  0.00     0.028 C 
BRANCH  11  12
HETATM   12  C   UNL     1     -22.843  -3.786  -9.562  1.00  0.00     0.237 C 
BRANCH  12  13
HETATM   13  N   UNL     1     -22.651  -4.003 -11.069  1.00  0.00    -0.065 N 
HETATM   14  C   UNL     1     -21.199  -4.318 -11.390  1.00  0.00     0.272 C 
HETATM   15  C   UNL     1     -23.588  -5.038 -11.634  1.00  0.00     0.272 C 
BRANCH  13  16
HETATM   16  C   UNL     1     -22.992  -2.612 -11.780  1.00  0.00     0.349 C 
BRANCH  16  17
HETATM   17  C   UNL     1     -23.596  -2.677 -13.210  1.00  0.00     0.199 C 
HETATM   18  O   UNL     1     -22.750  -2.863 -14.123  1.00  0.00    -0.647 OA
HETATM   19  O   UNL     1     -24.860  -2.660 -13.233  1.00  0.00    -0.647 OA
ENDBRANCH  16  17
ENDBRANCH  13  16
ENDBRANCH  12  13
ENDBRANCH  11  12
ENDBRANCH   1  11
TORSDOF 13
ENDMDL
MODEL 9
REMARK VINA RESULT:      -5.3      5.746      9.486
REMARK  13 active torsions:
REMARK  status: ('A' for Active; 'I' for Inactive)
REMARK    1  A    between atoms: C_2  and  C_3 
REMARK    2  A    between atoms: C_3  and  C_4 
REMARK    3  A    between atoms: C_4  and  C_5 
REMARK    4  A    between atoms: C_5  and  C_6 
REMARK    5  A    between atoms: C_6  and  C_7 
REMARK    6  A    between atoms: C_7  and  C_8 
REMARK    7  A    between atoms: C_8  and  C_9 
REMARK    8  A    between atoms: C_9  and  C_10 
REMARK    9  A    between atoms: C_10  and  C_11 
REMARK   10  A    between atoms: C_11  and  C_12 
REMARK   11  A    between atoms: C_12  and  N_13 
REMARK   12  A    between atoms: N_13  and  C_16 
REMARK   13  A    between atoms: C_16  and  C_17 
ROOT
HETATM    1  C   UNL     1     -20.139  -6.861  -5.691  1.00  0.00     0.002 C 
ENDROOT
BRANCH   1   2
HETATM    2  C   UNL     1     -20.311  -5.977  -6.926  1.00  0.00     0.000 C 
BRANCH   2   3
HETATM    3  C   UNL     1     -20.210  -4.494  -6.583  1.00  0.00     0.000 C 
BRANCH   3   4
HETATM    4  C   UNL     1     -21.314  -3.687  -7.246  1.00  0.00     0.000 C 
BRANCH   4   5
HETATM    5  C   UNL     1     -22.614  -4.483  -7.225  1.00  0.00     0.000 C 
BRANCH   5   6
HETATM    6  C   UNL     1     -23.431  -4.209  -8.477  1.00  0.00     0.000 C 
BRANCH   6   7
HETATM    7  C   UNL     1     -22.559  -3.584  -9.559  1.00  0.00     0.000 C 
BRANCH   7   8
HETATM    8  C   UNL     1     -22.751  -4.311 -10.884  1.00  0.00    -0.000 C 
BRANCH   8   9
HETATM    9  C   UNL     1     -21.454  -4.341 -11.683  1.00  0.00    -0.005 C 
HETATM   10  C   UNL     1     -20.250  -4.406 -10.761  1.00  0.00     0.005 C 
ENDBRANCH   8   9
ENDBRANCH   7   8
ENDBRANCH   6   7
ENDBRANCH   5   6
ENDBRANCH   4   5
ENDBRANCH   3   4
ENDBRANCH   2   3
ENDBRANCH   1   2
BRANCH   1  11
HETATM   11  C   UNL     1     -21.257  -7.891  -5.487  1.00  0.00     0.028 C 
BRANCH  11  12
HETATM   12  C   UNL     1     -21.590  -8.117  -4.008  1.00  0.00     0.237 C 
BRANCH  12  13
HETATM   13  N   UNL     1     -20.883  -9.349  -3.426  1.00  0.00    -0.065 N 
HETATM   14  C   UNL     1     -20.467 -10.306  -4.531  1.00  0.00     0.272 C 
HETATM   15  C   UNL     1     -19.728  -8.992  -2.529  1.00  0.00     0.272 C 
BRANCH  13  16
HETATM   16  C   UNL     1     -21.963 -10.117  -2.531  1.00  0.00     0.349 C 
BRANCH  16  17
HETATM   17  C   UNL     1     -21.441 -10.848  -1.263  1.00  0.00     0.199 C 
HETATM   18  O   UNL     1     -20.816 -11.914  -1.499  1.00  0.00    -0.647 OA
HETATM   19  O   UNL     1     -21.611 -10.199  -0.192  1.00  0.00    -0.647 OA
ENDBRANCH  16  17
ENDBRANCH  13  16
ENDBRANCH  12  13
ENDBRANCH  11  12
ENDBRANCH   1  11
TORSDOF 13
ENDMDL
