MODEL 1
REMARK VINA RESULT:      -8.6      0.000      0.000
REMARK  3 active torsions:
REMARK  status: ('A' for Active; 'I' for Inactive)
REMARK    1  A    between atoms: C_5  and  N_8 
REMARK    2  A    between atoms: N_8  and  C_9 
REMARK    3  A    between atoms: C_12  and  O_15 
ROOT
HETATM    1  C   UNL     1     -18.041 -10.907  -1.950  1.00  0.00     0.048 C 
HETATM    2  C   UNL     1     -19.335 -10.365  -1.913  1.00  0.00     0.059 C 
HETATM    3  C   UNL     1     -20.249 -10.773  -0.937  1.00  0.00     0.064 C 
HETATM    4  C   UNL     1     -19.973 -11.886  -0.144  1.00  0.00     0.081 C 
HETATM    5  C   UNL     1     -18.732 -12.501  -0.229  1.00  0.00     0.040 C 
HETATM    6  C   UNL     1     -17.754 -11.971  -1.076  1.00  0.00     0.033 C 
HETATM    7  C   UNL     1     -21.404  -9.901  -0.645  1.00  0.00     0.197 C 
HETATM    8  O   UNL     1     -22.259 -10.254   0.158  1.00  0.00    -0.286 OA
HETATM    9  C   UNL     1     -21.468  -8.581  -1.296  1.00  0.00     0.029 C 
HETATM   10  C   UNL     1     -22.187  -7.532  -0.725  1.00  0.00     0.016 C 
HETATM   11  C   UNL     1     -22.272  -6.311  -1.399  1.00  0.00     0.001 C 
HETATM   12  C   UNL     1     -21.704  -6.166  -2.667  1.00  0.00     0.001 C 
HETATM   13  C   UNL     1     -20.961  -7.204  -3.223  1.00  0.00     0.016 C 
HETATM   14  C   UNL     1     -20.789  -8.383  -2.496  1.00  0.00     0.029 C 
HETATM   15  C   UNL     1     -19.768  -9.357  -2.903  1.00  0.00     0.196 C 
HETATM   16  O   UNL     1     -19.248  -9.305  -4.013  1.00  0.00    -0.286 OA
ENDROOT
BRANCH   1  17
HETATM   17  N   UNL     1     -16.997 -10.234  -2.650  1.00  0.00    -0.355 N 
HETATM   18  H   UNL     1     -17.338  -9.338  -3.024  1.00  0.00     0.166 HD
BRANCH  17  19
HETATM   19  C   UNL     1     -16.107 -10.827  -3.576  1.00  0.00     0.032 A 
HETATM   20  C   UNL     1     -16.138 -10.468  -4.925  1.00  0.00     0.030 A 
HETATM   21  C   UNL     1     -15.258 -11.047  -5.830  1.00  0.00     0.009 A 
HETATM   22  C   UNL     1     -14.311 -11.978  -5.394  1.00  0.00    -0.062 A 
HETATM   23  C   UNL     1     -13.398 -12.654  -6.373  1.00  0.00     0.048 C 
HETATM   24  C   UNL     1     -14.229 -12.279  -4.027  1.00  0.00     0.009 A 
HETATM   25  C   UNL     1     -15.115 -11.694  -3.124  1.00  0.00     0.030 A 
ENDBRANCH  17  19
ENDBRANCH   1  17
BRANCH   4  26
HETATM   26  O   UNL     1     -20.859 -12.397   0.761  1.00  0.00    -0.360 OA
HETATM   27  H   UNL     1     -20.557 -13.298   1.016  1.00  0.00     0.217 HD
ENDBRANCH   4  26
TORSDOF 3
ENDMDL
MODEL 2
REMARK VINA RESULT:      -8.4      4.037      6.241
REMARK  3 active torsions:
REMARK  status: ('A' for Active; 'I' for Inactive)
REMARK    1  A    between atoms: C_5  and  N_8 
REMARK    2  A    between atoms: N_8  and  C_9 
REMARK    3  A    between atoms: C_12  and  O_15 
ROOT
HETATM    1  C   UNL     1     -21.122  -7.654  -2.861  1.00  0.00     0.048 C 
HETATM    2  C   UNL     1     -21.441  -8.823  -2.153  1.00  0.00     0.059 C 
HETATM    3  C   UNL     1     -22.320  -8.778  -1.067  1.00  0.00     0.064 C 
HETATM    4  C   UNL     1     -22.700  -7.550  -0.527  1.00  0.00     0.081 C 
HETATM    5  C   UNL     1     -22.317  -6.374  -1.155  1.00  0.00     0.040 C 
HETATM    6  C   UNL     1     -21.594  -6.432  -2.350  1.00  0.00     0.033 C 
HETATM    7  C   UNL     1     -22.971 -10.031  -0.635  1.00  0.00     0.197 C 
HETATM    8  O   UNL     1     -23.697 -10.043   0.351  1.00  0.00    -0.286 OA
HETATM    9  C   UNL     1     -22.770 -11.242  -1.450  1.00  0.00     0.029 C 
HETATM   10  C   UNL     1     -23.701 -12.280  -1.436  1.00  0.00     0.016 C 
HETATM   11  C   UNL     1     -23.450 -13.437  -2.177  1.00  0.00     0.001 C 
HETATM   12  C   UNL     1     -22.244 -13.583  -2.867  1.00  0.00     0.001 C 
HETATM   13  C   UNL     1     -21.328 -12.534  -2.905  1.00  0.00     0.016 C 
HETATM   14  C   UNL     1     -21.635 -11.340  -2.251  1.00  0.00     0.029 C 
HETATM   15  C   UNL     1     -20.857 -10.126  -2.530  1.00  0.00     0.196 C 
HETATM   16  O   UNL     1     -19.776 -10.185  -3.108  1.00  0.00    -0.286 OA
ENDROOT
BRANCH   1  17
HETATM   17  N   UNL     1     -20.576  -7.734  -4.176  1.00  0.00    -0.355 N 
HETATM   18  H   UNL     1     -19.567  -7.930  -4.132  1.00  0.00     0.166 HD
BRANCH  17  19
HETATM   19  C   UNL     1     -20.839  -6.835  -5.236  1.00  0.00     0.032 A 
HETATM   20  C   UNL     1     -22.098  -6.247  -5.375  1.00  0.00     0.030 A 
HETATM   21  C   UNL     1     -22.352  -5.359  -6.412  1.00  0.00     0.009 A 
HETATM   22  C   UNL     1     -21.339  -5.023  -7.315  1.00  0.00    -0.062 A 
HETATM   23  C   UNL     1     -21.620  -4.114  -8.474  1.00  0.00     0.048 C 
HETATM   24  C   UNL     1     -20.055  -5.554  -7.129  1.00  0.00     0.009 A 
HETATM   25  C   UNL     1     -19.807  -6.444  -6.085  1.00  0.00     0.030 A 
ENDBRANCH  17  19
ENDBRANCH   1  17
BRANCH   4  26
HETATM   26  O   UNL     1     -23.478  -7.434   0.590  1.00  0.00    -0.360 OA
HETATM   27  H   UNL     1     -24.349  -7.851   0.405  1.00  0.00     0.217 HD
ENDBRANCH   4  26
TORSDOF 3
ENDMDL
MODEL 3
REMARK VINA RESULT:      -8.4      2.261      4.284
REMARK  3 active torsions:
REMARK  status: ('A' for Active; 'I' for Inactive)
REMARK    1  A    between atoms: C_5  and  N_8 
REMARK    2  A    between atoms: N_8  and  C_9 
REMARK    3  A    between atoms: C_12  and  O_15 
ROOT
HETATM    1  C   UNL     1     -20.515  -8.742  -4.162  1.00  0.00     0.048 C 
HETATM    2  C   UNL     1     -20.953  -8.932  -2.843  1.00  0.00     0.059 C 
HETATM    3  C   UNL     1     -21.604  -7.905  -2.155  1.00  0.00     0.064 C 
HETATM    4  C   UNL     1     -21.613  -6.612  -2.677  1.00  0.00     0.081 C 
HETATM    5  C   UNL     1     -21.098  -6.378  -3.944  1.00  0.00     0.040 C 
HETATM    6  C   UNL     1     -20.618  -7.448  -4.704  1.00  0.00     0.033 C 
HETATM    7  C   UNL     1     -22.427  -8.253  -0.980  1.00  0.00     0.197 C 
HETATM    8  O   UNL     1     -22.960  -7.374  -0.314  1.00  0.00    -0.286 OA
HETATM    9  C   UNL     1     -22.633  -9.678  -0.667  1.00  0.00     0.029 C 
HETATM   10  C   UNL     1     -23.749 -10.102   0.053  1.00  0.00     0.016 C 
HETATM   11  C   UNL     1     -23.884 -11.453   0.380  1.00  0.00     0.001 C 
HETATM   12  C   UNL     1     -22.873 -12.360   0.053  1.00  0.00     0.001 C 
HETATM   13  C   UNL     1     -21.773 -11.942  -0.693  1.00  0.00     0.016 C 
HETATM   14  C   UNL     1     -21.700 -10.612  -1.109  1.00  0.00     0.029 C 
HETATM   15  C   UNL     1     -20.736 -10.216  -2.145  1.00  0.00     0.196 C 
HETATM   16  O   UNL     1     -19.808 -10.953  -2.462  1.00  0.00    -0.286 OA
ENDROOT
BRANCH   1  17
HETATM   17  N   UNL     1     -20.230  -9.863  -4.996  1.00  0.00    -0.355 N 
HETATM   18  H   UNL     1     -20.788 -10.677  -4.704  1.00  0.00     0.166 HD
BRANCH  17  19
HETATM   19  C   UNL     1     -18.941 -10.290  -5.394  1.00  0.00     0.032 A 
HETATM   20  C   UNL     1     -17.797  -9.670  -4.888  1.00  0.00     0.030 A 
HETATM   21  C   UNL     1     -16.533 -10.095  -5.274  1.00  0.00     0.009 A 
HETATM   22  C   UNL     1     -16.391 -11.171  -6.156  1.00  0.00    -0.062 A 
HETATM   23  C   UNL     1     -15.034 -11.599  -6.627  1.00  0.00     0.048 C 
HETATM   24  C   UNL     1     -17.538 -11.843  -6.602  1.00  0.00     0.009 A 
HETATM   25  C   UNL     1     -18.804 -11.411  -6.209  1.00  0.00     0.030 A 
ENDBRANCH  17  19
ENDBRANCH   1  17
BRANCH   4  26
HETATM   26  O   UNL     1     -22.146  -5.542  -2.015  1.00  0.00    -0.360 OA
HETATM   27  H   UNL     1     -21.951  -4.729  -2.534  1.00  0.00     0.217 HD
ENDBRANCH   4  26
TORSDOF 3
ENDMDL
MODEL 4
REMARK VINA RESULT:      -8.4      4.042      7.125
REMARK  3 active torsions:
REMARK  status: ('A' for Active; 'I' for Inactive)
REMARK    1  A    between atoms: C_5  and  N_8 
REMARK    2  A    between atoms: N_8  and  C_9 
REMARK    3  A    between atoms: C_12  and  O_15 
ROOT
HETATM    1  C   UNL     1     -20.453  -6.794  -4.867  1.00  0.00     0.048 C 
HETATM    2  C   UNL     1     -20.600  -8.120  -4.434  1.00  0.00     0.059 C 
HETATM    3  C   UNL     1     -21.306  -8.411  -3.263  1.00  0.00     0.064 C 
HETATM    4  C   UNL     1     -21.663  -7.385  -2.390  1.00  0.00     0.081 C 
HETATM    5  C   UNL     1     -21.441  -6.064  -2.753  1.00  0.00     0.040 C 
HETATM    6  C   UNL     1     -20.905  -5.773  -4.011  1.00  0.00     0.033 C 
HETATM    7  C   UNL     1     -21.818  -9.783  -3.071  1.00  0.00     0.197 C 
HETATM    8  O   UNL     1     -22.385 -10.092  -2.030  1.00  0.00    -0.286 OA
HETATM    9  C   UNL     1     -21.680 -10.744  -4.179  1.00  0.00     0.029 C 
HETATM   10  C   UNL     1     -22.543 -11.833  -4.298  1.00  0.00     0.016 C 
HETATM   11  C   UNL     1     -22.347 -12.754  -5.329  1.00  0.00     0.001 C 
HETATM   12  C   UNL     1     -21.254 -12.627  -6.189  1.00  0.00     0.001 C 
HETATM   13  C   UNL     1     -20.410 -11.523  -6.088  1.00  0.00     0.016 C 
HETATM   14  C   UNL     1     -20.677 -10.550  -5.125  1.00  0.00     0.029 C 
HETATM   15  C   UNL     1     -20.013  -9.241  -5.196  1.00  0.00     0.196 C 
HETATM   16  O   UNL     1     -19.030  -9.067  -5.910  1.00  0.00    -0.286 OA
ENDROOT
BRANCH   1  17
HETATM   17  N   UNL     1     -20.108  -6.512  -6.222  1.00  0.00    -0.355 N 
HETATM   18  H   UNL     1     -19.112  -6.268  -6.293  1.00  0.00     0.166 HD
BRANCH  17  19
HETATM   19  C   UNL     1     -20.858  -5.712  -7.115  1.00  0.00     0.032 A 
HETATM   20  C   UNL     1     -22.126  -5.246  -6.762  1.00  0.00     0.030 A 
HETATM   21  C   UNL     1     -22.857  -4.454  -7.638  1.00  0.00     0.009 A 
HETATM   22  C   UNL     1     -22.319  -4.092  -8.876  1.00  0.00    -0.062 A 
HETATM   23  C   UNL     1     -23.124  -3.289  -9.854  1.00  0.00     0.048 C 
HETATM   24  C   UNL     1     -21.015  -4.495  -9.197  1.00  0.00     0.009 A 
HETATM   25  C   UNL     1     -20.287  -5.288  -8.312  1.00  0.00     0.030 A 
ENDBRANCH  17  19
ENDBRANCH   1  17
BRANCH   4  26
HETATM   26  O   UNL     1     -22.268  -7.605  -1.185  1.00  0.00    -0.360 OA
HETATM   27  H   UNL     1     -21.846  -7.019  -0.516  1.00  0.00     0.217 HD
ENDBRANCH   4  26
TORSDOF 3
ENDMDL
MODEL 5
REMARK VINA RESULT:      -8.3      2.029      3.106
REMARK  3 active torsions:
REMARK  status: ('A' for Active; 'I' for Inactive)
REMARK    1  A    between atoms: C_5  and  N_8 
REMARK    2  A    between atoms: N_8  and  C_9 
REMARK    3  A    between atoms: C_12  and  O_15 
ROOT
HETATM    1  C   UNL     1     -20.607 -10.802  -1.330  1.00  0.00     0.048 C 
HETATM    2  C   UNL     1     -21.248  -9.681  -1.880  1.00  0.00     0.059 C 
HETATM    3  C   UNL     1     -21.648  -8.620  -1.065  1.00  0.00     0.064 C 
HETATM    4  C   UNL     1     -21.635  -8.761   0.322  1.00  0.00     0.081 C 
HETATM    5  C   UNL     1     -21.092  -9.904   0.892  1.00  0.00     0.040 C 
HETATM    6  C   UNL     1     -20.522 -10.882   0.072  1.00  0.00     0.033 C 
HETATM    7  C   UNL     1     -21.901  -7.307  -1.690  1.00  0.00     0.197 C 
HETATM    8  O   UNL     1     -22.315  -6.370  -1.018  1.00  0.00    -0.286 OA
HETATM    9  C   UNL     1     -21.590  -7.140  -3.121  1.00  0.00     0.029 C 
HETATM   10  C   UNL     1     -21.307  -5.884  -3.654  1.00  0.00     0.016 C 
HETATM   11  C   UNL     1     -21.073  -5.756  -5.024  1.00  0.00     0.001 C 
HETATM   12  C   UNL     1     -21.193  -6.865  -5.866  1.00  0.00     0.001 C 
HETATM   13  C   UNL     1     -21.446  -8.126  -5.329  1.00  0.00     0.016 C 
HETATM   14  C   UNL     1     -21.571  -8.262  -3.946  1.00  0.00     0.029 C 
HETATM   15  C   UNL     1     -21.521  -9.595  -3.329  1.00  0.00     0.196 C 
HETATM   16  O   UNL     1     -21.647 -10.611  -4.006  1.00  0.00    -0.286 OA
ENDROOT
BRANCH   1  17
HETATM   17  N   UNL     1     -19.847 -11.678  -2.159  1.00  0.00    -0.355 N 
HETATM   18  H   UNL     1     -19.658 -12.562  -1.668  1.00  0.00     0.166 HD
BRANCH  17  19
HETATM   19  C   UNL     1     -18.718 -11.313  -2.930  1.00  0.00     0.032 A 
HETATM   20  C   UNL     1     -17.850 -10.311  -2.492  1.00  0.00     0.030 A 
HETATM   21  C   UNL     1     -16.739  -9.960  -3.247  1.00  0.00     0.009 A 
HETATM   22  C   UNL     1     -16.461 -10.626  -4.444  1.00  0.00    -0.062 A 
HETATM   23  C   UNL     1     -15.299 -10.213  -5.297  1.00  0.00     0.048 C 
HETATM   24  C   UNL     1     -17.290 -11.684  -4.843  1.00  0.00     0.009 A 
HETATM   25  C   UNL     1     -18.403 -12.032  -4.080  1.00  0.00     0.030 A 
ENDBRANCH  17  19
ENDBRANCH   1  17
BRANCH   4  26
HETATM   26  O   UNL     1     -22.101  -7.802   1.176  1.00  0.00    -0.360 OA
HETATM   27  H   UNL     1     -21.356  -7.508   1.748  1.00  0.00     0.217 HD
ENDBRANCH   4  26
TORSDOF 3
ENDMDL
MODEL 6
REMARK VINA RESULT:      -8.2      2.714      6.375
REMARK  3 active torsions:
REMARK  status: ('A' for Active; 'I' for Inactive)
REMARK    1  A    between atoms: C_5  and  N_8 
REMARK    2  A    between atoms: N_8  and  C_9 
REMARK    3  A    between atoms: C_12  and  O_15 
ROOT
HETATM    1  C   UNL     1     -20.970  -7.482  -2.900  1.00  0.00     0.048 C 
HETATM    2  C   UNL     1     -20.463  -8.488  -2.064  1.00  0.00     0.059 C 
HETATM    3  C   UNL     1     -20.993  -8.685  -0.786  1.00  0.00     0.064 C 
HETATM    4  C   UNL     1     -21.860  -7.740  -0.238  1.00  0.00     0.081 C 
HETATM    5  C   UNL     1     -22.303  -6.680  -1.014  1.00  0.00     0.040 C 
HETATM    6  C   UNL     1     -21.914  -6.594  -2.354  1.00  0.00     0.033 C 
HETATM    7  C   UNL     1     -20.767  -9.983  -0.121  1.00  0.00     0.197 C 
HETATM    8  O   UNL     1     -21.162 -10.170   1.023  1.00  0.00    -0.286 OA
HETATM    9  C   UNL     1     -20.111 -11.058  -0.887  1.00  0.00     0.029 C 
HETATM   10  C   UNL     1     -20.312 -12.398  -0.561  1.00  0.00     0.016 C 
HETATM   11  C   UNL     1     -19.629 -13.387  -1.272  1.00  0.00     0.001 C 
HETATM   12  C   UNL     1     -18.698 -13.034  -2.252  1.00  0.00     0.001 C 
HETATM   13  C   UNL     1     -18.520 -11.696  -2.597  1.00  0.00     0.016 C 
HETATM   14  C   UNL     1     -19.286 -10.722  -1.957  1.00  0.00     0.029 C 
HETATM   15  C   UNL     1     -19.356  -9.361  -2.506  1.00  0.00     0.196 C 
HETATM   16  O   UNL     1     -18.552  -8.976  -3.350  1.00  0.00    -0.286 OA
ENDROOT
BRANCH   1  17
HETATM   17  N   UNL     1     -20.737  -7.527  -4.306  1.00  0.00    -0.355 N 
HETATM   18  H   UNL     1     -19.803  -7.911  -4.502  1.00  0.00     0.166 HD
BRANCH  17  19
HETATM   19  C   UNL     1     -21.026  -6.491  -5.225  1.00  0.00     0.032 A 
HETATM   20  C   UNL     1     -22.332  -6.279  -5.672  1.00  0.00     0.030 A 
HETATM   21  C   UNL     1     -22.615  -5.256  -6.568  1.00  0.00     0.009 A 
HETATM   22  C   UNL     1     -21.596  -4.409  -7.013  1.00  0.00    -0.062 A 
HETATM   23  C   UNL     1     -21.879  -3.341  -8.027  1.00  0.00     0.048 C 
HETATM   24  C   UNL     1     -20.300  -4.574  -6.504  1.00  0.00     0.009 A 
HETATM   25  C   UNL     1     -20.024  -5.602  -5.604  1.00  0.00     0.030 A 
ENDBRANCH  17  19
ENDBRANCH   1  17
BRANCH   4  26
HETATM   26  O   UNL     1     -22.340  -7.819   1.039  1.00  0.00    -0.360 OA
HETATM   27  H   UNL     1     -21.579  -7.951   1.648  1.00  0.00     0.217 HD
ENDBRANCH   4  26
TORSDOF 3
ENDMDL
MODEL 7
REMARK VINA RESULT:      -8.2      4.061      5.853
REMARK  3 active torsions:
REMARK  status: ('A' for Active; 'I' for Inactive)
REMARK    1  A    between atoms: C_5  and  N_8 
REMARK    2  A    between atoms: N_8  and  C_9 
REMARK    3  A    between atoms: C_12  and  O_15 
ROOT
HETATM    1  C   UNL     1     -21.034  -9.148  -4.394  1.00  0.00     0.048 C 
HETATM    2  C   UNL     1     -21.462  -9.595  -3.135  1.00  0.00     0.059 C 
HETATM    3  C   UNL     1     -21.704 -10.952  -2.907  1.00  0.00     0.064 C 
HETATM    4  C   UNL     1     -21.757 -11.841  -3.979  1.00  0.00     0.081 C 
HETATM    5  C   UNL     1     -21.431 -11.402  -5.254  1.00  0.00     0.040 C 
HETATM    6  C   UNL     1     -21.007 -10.084  -5.444  1.00  0.00     0.033 C 
HETATM    7  C   UNL     1     -21.714 -11.443  -1.514  1.00  0.00     0.197 C 
HETATM    8  O   UNL     1     -21.986 -12.612  -1.271  1.00  0.00    -0.286 OA
HETATM    9  C   UNL     1     -21.336 -10.508  -0.439  1.00  0.00     0.029 C 
HETATM   10  C   UNL     1     -20.831 -10.975   0.773  1.00  0.00     0.016 C 
HETATM   11  C   UNL     1     -20.536 -10.063   1.790  1.00  0.00     0.001 C 
HETATM   12  C   UNL     1     -20.815  -8.705   1.620  1.00  0.00     0.001 C 
HETATM   13  C   UNL     1     -21.291  -8.236   0.397  1.00  0.00     0.016 C 
HETATM   14  C   UNL     1     -21.480  -9.139  -0.649  1.00  0.00     0.029 C 
HETATM   15  C   UNL     1     -21.672  -8.648  -2.021  1.00  0.00     0.196 C 
HETATM   16  O   UNL     1     -21.946  -7.472  -2.240  1.00  0.00    -0.286 OA
ENDROOT
BRANCH   1  17
HETATM   17  N   UNL     1     -20.407  -7.875  -4.533  1.00  0.00    -0.355 N 
HETATM   18  H   UNL     1     -20.311  -7.422  -3.614  1.00  0.00     0.166 HD
BRANCH  17  19
HETATM   19  C   UNL     1     -20.719  -6.903  -5.512  1.00  0.00     0.032 A 
HETATM   20  C   UNL     1     -21.945  -6.235  -5.488  1.00  0.00     0.030 A 
HETATM   21  C   UNL     1     -22.246  -5.276  -6.446  1.00  0.00     0.009 A 
HETATM   22  C   UNL     1     -21.310  -4.948  -7.431  1.00  0.00    -0.062 A 
HETATM   23  C   UNL     1     -21.648  -3.958  -8.506  1.00  0.00     0.048 C 
HETATM   24  C   UNL     1     -20.050  -5.561  -7.407  1.00  0.00     0.009 A 
HETATM   25  C   UNL     1     -19.755  -6.523  -6.442  1.00  0.00     0.030 A 
ENDBRANCH  17  19
ENDBRANCH   1  17
BRANCH   4  26
HETATM   26  O   UNL     1     -22.082 -13.161  -3.841  1.00  0.00    -0.360 OA
HETATM   27  H   UNL     1     -22.922 -13.221  -3.331  1.00  0.00     0.217 HD
ENDBRANCH   4  26
TORSDOF 3
ENDMDL
MODEL 8
REMARK VINA RESULT:      -8.2      2.947      5.097
REMARK  3 active torsions:
REMARK  status: ('A' for Active; 'I' for Inactive)
REMARK    1  A    between atoms: C_5  and  N_8 
REMARK    2  A    between atoms: N_8  and  C_9 
REMARK    3  A    between atoms: C_12  and  O_15 
ROOT
HETATM    1  C   UNL     1     -19.973  -8.239  -4.424  1.00  0.00     0.048 C 
HETATM    2  C   UNL     1     -20.215  -8.472  -3.061  1.00  0.00     0.059 C 
HETATM    3  C   UNL     1     -21.189  -7.740  -2.377  1.00  0.00     0.064 C 
HETATM    4  C   UNL     1     -21.760  -6.615  -2.969  1.00  0.00     0.081 C 
HETATM    5  C   UNL     1     -21.464  -6.306  -4.288  1.00  0.00     0.040 C 
HETATM    6  C   UNL     1     -20.632  -7.153  -5.027  1.00  0.00     0.033 C 
HETATM    7  C   UNL     1     -21.723  -8.286  -1.113  1.00  0.00     0.197 C 
HETATM    8  O   UNL     1     -22.530  -7.644  -0.453  1.00  0.00    -0.286 OA
HETATM    9  C   UNL     1     -21.305  -9.638  -0.702  1.00  0.00     0.029 C 
HETATM   10  C   UNL     1     -22.103 -10.412   0.140  1.00  0.00     0.016 C 
HETATM   11  C   UNL     1     -21.648 -11.666   0.554  1.00  0.00     0.001 C 
HETATM   12  C   UNL     1     -20.375 -12.110   0.188  1.00  0.00     0.001 C 
HETATM   13  C   UNL     1     -19.592 -11.350  -0.677  1.00  0.00     0.016 C 
HETATM   14  C   UNL     1     -20.098 -10.148  -1.173  1.00  0.00     0.029 C 
HETATM   15  C   UNL     1     -19.447  -9.489  -2.314  1.00  0.00     0.196 C 
HETATM   16  O   UNL     1     -18.318  -9.811  -2.672  1.00  0.00    -0.286 OA
ENDROOT
BRANCH   1  17
HETATM   17  N   UNL     1     -19.302  -9.218  -5.215  1.00  0.00    -0.355 N 
HETATM   18  H   UNL     1     -18.801  -8.767  -5.992  1.00  0.00     0.166 HD
BRANCH  17  19
HETATM   19  C   UNL     1     -19.854 -10.444  -5.654  1.00  0.00     0.032 A 
HETATM   20  C   UNL     1     -21.227 -10.680  -5.566  1.00  0.00     0.030 A 
HETATM   21  C   UNL     1     -21.767 -11.882  -6.004  1.00  0.00     0.009 A 
HETATM   22  C   UNL     1     -20.943 -12.861  -6.565  1.00  0.00    -0.062 A 
HETATM   23  C   UNL     1     -21.506 -14.186  -6.985  1.00  0.00     0.048 C 
HETATM   24  C   UNL     1     -19.576 -12.592  -6.725  1.00  0.00     0.009 A 
HETATM   25  C   UNL     1     -19.041 -11.383  -6.283  1.00  0.00     0.030 A 
ENDBRANCH  17  19
ENDBRANCH   1  17
BRANCH   4  26
HETATM   26  O   UNL     1     -22.646  -5.799  -2.323  1.00  0.00    -0.360 OA
HETATM   27  H   UNL     1     -22.256  -5.544  -1.456  1.00  0.00     0.217 HD
ENDBRANCH   4  26
TORSDOF 3
ENDMDL
MODEL 9
REMARK VINA RESULT:      -8.1      3.255      5.012
REMARK  3 active torsions:
REMARK  status: ('A' for Active; 'I' for Inactive)
REMARK    1  A    between atoms: C_5  and  N_8 
REMARK    2  A    between atoms: N_8  and  C_9 
REMARK    3  A    between atoms: C_12  and  O_15 
ROOT
HETATM    1  C   UNL     1     -20.712  -9.339  -4.939  1.00  0.00     0.048 C 
HETATM    2  C   UNL     1     -20.718  -8.617  -3.736  1.00  0.00     0.059 C 
HETATM    3  C   UNL     1     -21.177  -7.298  -3.701  1.00  0.00     0.064 C 
HETATM    4  C   UNL     1     -21.405  -6.607  -4.891  1.00  0.00     0.081 C 
HETATM    5  C   UNL     1     -21.312  -7.274  -6.103  1.00  0.00     0.040 C 
HETATM    6  C   UNL     1     -21.035  -8.645  -6.119  1.00  0.00     0.033 C 
HETATM    7  C   UNL     1     -21.585  -6.727  -2.403  1.00  0.00     0.197 C 
HETATM    8  O   UNL     1     -21.931  -5.555  -2.322  1.00  0.00    -0.286 OA
HETATM    9  C   UNL     1     -21.619  -7.614  -1.227  1.00  0.00     0.029 C 
HETATM   10  C   UNL     1     -22.442  -7.332  -0.137  1.00  0.00     0.016 C 
HETATM   11  C   UNL     1     -22.406  -8.165   0.983  1.00  0.00     0.001 C 
HETATM   12  C   UNL     1     -21.501  -9.228   1.042  1.00  0.00     0.001 C 
HETATM   13  C   UNL     1     -20.701  -9.527  -0.059  1.00  0.00     0.016 C 
HETATM   14  C   UNL     1     -20.821  -8.756  -1.215  1.00  0.00     0.029 C 
HETATM   15  C   UNL     1     -20.239  -9.227  -2.479  1.00  0.00     0.196 C 
HETATM   16  O   UNL     1     -19.417 -10.138  -2.497  1.00  0.00    -0.286 OA
ENDROOT
BRANCH   1  17
HETATM   17  N   UNL     1     -20.641 -10.763  -4.925  1.00  0.00    -0.355 N 
HETATM   18  H   UNL     1     -20.248 -11.093  -4.034  1.00  0.00     0.166 HD
BRANCH  17  19
HETATM   19  C   UNL     1     -20.169 -11.577  -5.982  1.00  0.00     0.032 A 
HETATM   20  C   UNL     1     -21.053 -12.356  -6.731  1.00  0.00     0.030 A 
HETATM   21  C   UNL     1     -20.588 -13.148  -7.773  1.00  0.00     0.009 A 
HETATM   22  C   UNL     1     -19.230 -13.154  -8.100  1.00  0.00    -0.062 A 
HETATM   23  C   UNL     1     -18.708 -14.052  -9.183  1.00  0.00     0.048 C 
HETATM   24  C   UNL     1     -18.355 -12.312  -7.399  1.00  0.00     0.009 A 
HETATM   25  C   UNL     1     -18.829 -11.519  -6.355  1.00  0.00     0.030 A 
ENDBRANCH  17  19
ENDBRANCH   1  17
BRANCH   4  26
HETATM   26  O   UNL     1     -21.761  -5.288  -4.933  1.00  0.00    -0.360 OA
HETATM   27  H   UNL     1     -21.043  -4.788  -5.383  1.00  0.00     0.217 HD
ENDBRANCH   4  26
TORSDOF 3
ENDMDL
