MODEL 1
REMARK VINA RESULT:      -8.6      0.000      0.000
REMARK  4 active torsions:
REMARK  status: ('A' for Active; 'I' for Inactive)
REMARK    1  A    between atoms: O_2  and  C_3 
REMARK    2  A    between atoms: C_5  and  O_17 
REMARK    3  A    between atoms: C_6  and  C_9 
REMARK    4  A    between atoms: C_9  and  C_11 
ROOT
HETATM    1  C   UNL     1     -23.040  -3.095 -13.054  1.00  0.00     0.070 A 
HETATM    2  C   UNL     1     -24.212  -2.953 -12.309  1.00  0.00     0.074 A 
HETATM    3  C   UNL     1     -24.227  -3.309 -10.954  1.00  0.00     0.082 A 
HETATM    4  C   UNL     1     -23.070  -3.788 -10.324  1.00  0.00     0.048 A 
HETATM    5  C   UNL     1     -21.892  -3.899 -11.072  1.00  0.00     0.021 A 
HETATM    6  C   UNL     1     -21.886  -3.572 -12.432  1.00  0.00     0.038 A 
ENDROOT
BRANCH   4   7
HETATM    7  C   UNL     1     -23.049  -4.109  -8.870  1.00  0.00     0.195 C 
HETATM    8  O   UNL     1     -24.097  -4.121  -8.230  1.00  0.00    -0.287 OA
BRANCH   7   9
HETATM    9  C   UNL     1     -21.762  -4.333  -8.144  1.00  0.00     0.015 A 
HETATM   10  C   UNL     1     -20.514  -4.075  -8.721  1.00  0.00     0.015 A 
HETATM   11  C   UNL     1     -19.345  -4.274  -7.980  1.00  0.00     0.001 A 
HETATM   12  C   UNL     1     -19.416  -4.753  -6.672  1.00  0.00     0.000 A 
HETATM   13  C   UNL     1     -20.655  -5.040  -6.102  1.00  0.00     0.001 A 
HETATM   14  C   UNL     1     -21.825  -4.834  -6.835  1.00  0.00     0.015 A 
ENDBRANCH   7   9
ENDBRANCH   4   7
BRANCH   3  15
HETATM   15  O   UNL     1     -25.405  -3.219 -10.261  1.00  0.00    -0.360 OA
HETATM   16  H   UNL     1     -25.228  -3.144  -9.310  1.00  0.00     0.217 HD
ENDBRANCH   3  15
BRANCH   1  17
HETATM   17  O   UNL     1     -22.890  -2.808 -14.383  1.00  0.00    -0.356 OA
HETATM   18  C   UNL     1     -23.494  -1.612 -14.863  1.00  0.00     0.210 C 
ENDBRANCH   1  17
TORSDOF 4
ENDMDL
MODEL 2
REMARK VINA RESULT:      -8.3      2.087      3.336
REMARK  4 active torsions:
REMARK  status: ('A' for Active; 'I' for Inactive)
REMARK    1  A    between atoms: O_2  and  C_3 
REMARK    2  A    between atoms: C_5  and  O_17 
REMARK    3  A    between atoms: C_6  and  C_9 
REMARK    4  A    between atoms: C_9  and  C_11 
ROOT
HETATM    1  C   UNL     1     -23.670  -3.544 -10.547  1.00  0.00     0.070 A 
HETATM    2  C   UNL     1     -22.421  -3.866 -11.083  1.00  0.00     0.074 A 
HETATM    3  C   UNL     1     -21.360  -4.201 -10.232  1.00  0.00     0.082 A 
HETATM    4  C   UNL     1     -21.538  -4.238  -8.842  1.00  0.00     0.048 A 
HETATM    5  C   UNL     1     -22.802  -3.942  -8.316  1.00  0.00     0.021 A 
HETATM    6  C   UNL     1     -23.852  -3.579  -9.165  1.00  0.00     0.038 A 
ENDROOT
BRANCH   4   7
HETATM    7  C   UNL     1     -20.441  -4.655  -7.925  1.00  0.00     0.195 C 
HETATM    8  O   UNL     1     -19.273  -4.408  -8.214  1.00  0.00    -0.287 OA
BRANCH   7   9
HETATM    9  C   UNL     1     -20.722  -5.452  -6.692  1.00  0.00     0.015 A 
HETATM   10  C   UNL     1     -21.205  -6.764  -6.734  1.00  0.00     0.015 A 
HETATM   11  C   UNL     1     -21.418  -7.471  -5.546  1.00  0.00     0.001 A 
HETATM   12  C   UNL     1     -21.172  -6.864  -4.316  1.00  0.00     0.000 A 
HETATM   13  C   UNL     1     -20.718  -5.547  -4.266  1.00  0.00     0.001 A 
HETATM   14  C   UNL     1     -20.496  -4.841  -5.450  1.00  0.00     0.015 A 
ENDBRANCH   7   9
ENDBRANCH   4   7
BRANCH   3  15
HETATM   15  O   UNL     1     -20.130  -4.452 -10.778  1.00  0.00    -0.360 OA
HETATM   16  H   UNL     1     -19.508  -4.728 -10.086  1.00  0.00     0.217 HD
ENDBRANCH   3  15
BRANCH   1  17
HETATM   17  O   UNL     1     -24.781  -3.179 -11.257  1.00  0.00    -0.356 OA
HETATM   18  C   UNL     1     -24.635  -3.032 -12.665  1.00  0.00     0.210 C 
ENDBRANCH   1  17
TORSDOF 4
ENDMDL
MODEL 3
REMARK VINA RESULT:      -8.2     11.381     14.183
REMARK  4 active torsions:
REMARK  status: ('A' for Active; 'I' for Inactive)
REMARK    1  A    between atoms: O_2  and  C_3 
REMARK    2  A    between atoms: C_5  and  O_17 
REMARK    3  A    between atoms: C_6  and  C_9 
REMARK    4  A    between atoms: C_9  and  C_11 
ROOT
HETATM    1  C   UNL     1     -33.957  -4.629 -11.036  1.00  0.00     0.070 A 
HETATM    2  C   UNL     1     -35.283  -4.357 -10.695  1.00  0.00     0.074 A 
HETATM    3  C   UNL     1     -35.783  -3.053 -10.816  1.00  0.00     0.082 A 
HETATM    4  C   UNL     1     -34.973  -2.015 -11.297  1.00  0.00     0.048 A 
HETATM    5  C   UNL     1     -33.654  -2.304 -11.665  1.00  0.00     0.021 A 
HETATM    6  C   UNL     1     -33.147  -3.598 -11.515  1.00  0.00     0.038 A 
ENDROOT
BRANCH   4   7
HETATM    7  C   UNL     1     -35.506  -0.638 -11.495  1.00  0.00     0.195 C 
HETATM    8  O   UNL     1     -35.867   0.024 -10.526  1.00  0.00    -0.287 OA
BRANCH   7   9
HETATM    9  C   UNL     1     -35.694  -0.069 -12.863  1.00  0.00     0.015 A 
HETATM   10  C   UNL     1     -34.742   0.752 -13.479  1.00  0.00     0.015 A 
HETATM   11  C   UNL     1     -34.961   1.229 -14.775  1.00  0.00     0.001 A 
HETATM   12  C   UNL     1     -36.137   0.908 -15.451  1.00  0.00     0.000 A 
HETATM   13  C   UNL     1     -37.103   0.114 -14.833  1.00  0.00     0.001 A 
HETATM   14  C   UNL     1     -36.884  -0.370 -13.543  1.00  0.00     0.015 A 
ENDBRANCH   7   9
ENDBRANCH   4   7
BRANCH   3  15
HETATM   15  O   UNL     1     -37.068  -2.800 -10.416  1.00  0.00    -0.360 OA
HETATM   16  H   UNL     1     -37.068  -2.368  -9.547  1.00  0.00     0.217 HD
ENDBRANCH   3  15
BRANCH   1  17
HETATM   17  O   UNL     1     -33.334  -5.844 -10.947  1.00  0.00    -0.356 OA
HETATM   18  C   UNL     1     -34.126  -6.950 -10.528  1.00  0.00     0.210 C 
ENDBRANCH   1  17
TORSDOF 4
ENDMDL
MODEL 4
REMARK VINA RESULT:      -8.1      1.649      2.675
REMARK  4 active torsions:
REMARK  status: ('A' for Active; 'I' for Inactive)
REMARK    1  A    between atoms: O_2  and  C_3 
REMARK    2  A    between atoms: C_5  and  O_17 
REMARK    3  A    between atoms: C_6  and  C_9 
REMARK    4  A    between atoms: C_9  and  C_11 
ROOT
HETATM    1  C   UNL     1     -22.561  -3.964 -11.426  1.00  0.00     0.070 A 
HETATM    2  C   UNL     1     -23.552  -3.894 -10.444  1.00  0.00     0.074 A 
HETATM    3  C   UNL     1     -23.199  -3.960  -9.089  1.00  0.00     0.082 A 
HETATM    4  C   UNL     1     -21.857  -4.074  -8.701  1.00  0.00     0.048 A 
HETATM    5  C   UNL     1     -20.869  -4.112  -9.692  1.00  0.00     0.021 A 
HETATM    6  C   UNL     1     -21.224  -4.077 -11.044  1.00  0.00     0.038 A 
ENDROOT
BRANCH   4   7
HETATM    7  C   UNL     1     -21.457  -4.079  -7.266  1.00  0.00     0.195 C 
HETATM    8  O   UNL     1     -21.191  -3.021  -6.700  1.00  0.00    -0.287 OA
BRANCH   7   9
HETATM    9  C   UNL     1     -21.286  -5.358  -6.513  1.00  0.00     0.015 A 
HETATM   10  C   UNL     1     -22.290  -5.900  -5.703  1.00  0.00     0.015 A 
HETATM   11  C   UNL     1     -22.082  -7.118  -5.048  1.00  0.00     0.001 A 
HETATM   12  C   UNL     1     -20.866  -7.786  -5.181  1.00  0.00     0.000 A 
HETATM   13  C   UNL     1     -19.851  -7.238  -5.963  1.00  0.00     0.001 A 
HETATM   14  C   UNL     1     -20.058  -6.027  -6.625  1.00  0.00     0.015 A 
ENDBRANCH   7   9
ENDBRANCH   4   7
BRANCH   3  15
HETATM   15  O   UNL     1     -24.193  -3.953  -8.147  1.00  0.00    -0.360 OA
HETATM   16  H   UNL     1     -23.827  -4.164  -7.274  1.00  0.00     0.217 HD
ENDBRANCH   3  15
BRANCH   1  17
HETATM   17  O   UNL     1     -22.764  -3.934 -12.778  1.00  0.00    -0.356 OA
HETATM   18  C   UNL     1     -23.338  -2.751 -13.324  1.00  0.00     0.210 C 
ENDBRANCH   1  17
TORSDOF 4
ENDMDL
MODEL 5
REMARK VINA RESULT:      -7.9      6.808      9.845
REMARK  4 active torsions:
REMARK  status: ('A' for Active; 'I' for Inactive)
REMARK    1  A    between atoms: O_2  and  C_3 
REMARK    2  A    between atoms: C_5  and  O_17 
REMARK    3  A    between atoms: C_6  and  C_9 
REMARK    4  A    between atoms: C_9  and  C_11 
ROOT
HETATM    1  C   UNL     1     -20.664  -7.370  -4.654  1.00  0.00     0.070 A 
HETATM    2  C   UNL     1     -21.368  -6.423  -3.907  1.00  0.00     0.074 A 
HETATM    3  C   UNL     1     -21.801  -6.736  -2.611  1.00  0.00     0.082 A 
HETATM    4  C   UNL     1     -21.519  -7.985  -2.041  1.00  0.00     0.048 A 
HETATM    5  C   UNL     1     -20.787  -8.917  -2.787  1.00  0.00     0.021 A 
HETATM    6  C   UNL     1     -20.382  -8.615  -4.091  1.00  0.00     0.038 A 
ENDROOT
BRANCH   4   7
HETATM    7  C   UNL     1     -21.913  -8.312  -0.642  1.00  0.00     0.195 C 
HETATM    8  O   UNL     1     -21.947  -7.426   0.208  1.00  0.00    -0.287 OA
BRANCH   7   9
HETATM    9  C   UNL     1     -22.186  -9.720  -0.223  1.00  0.00     0.015 A 
HETATM   10  C   UNL     1     -21.219 -10.530   0.383  1.00  0.00     0.015 A 
HETATM   11  C   UNL     1     -21.544 -11.830   0.783  1.00  0.00     0.001 A 
HETATM   12  C   UNL     1     -22.825 -12.332   0.560  1.00  0.00     0.000 A 
HETATM   13  C   UNL     1     -23.785 -11.541  -0.069  1.00  0.00     0.001 A 
HETATM   14  C   UNL     1     -23.467 -10.240  -0.462  1.00  0.00     0.015 A 
ENDBRANCH   7   9
ENDBRANCH   4   7
BRANCH   3  15
HETATM   15  O   UNL     1     -22.543  -5.813  -1.922  1.00  0.00    -0.360 OA
HETATM   16  H   UNL     1     -22.327  -4.918  -2.227  1.00  0.00     0.217 HD
ENDBRANCH   3  15
BRANCH   1  17
HETATM   17  O   UNL     1     -20.204  -7.208  -5.932  1.00  0.00    -0.356 OA
HETATM   18  C   UNL     1     -20.138  -5.878  -6.435  1.00  0.00     0.210 C 
ENDBRANCH   1  17
TORSDOF 4
ENDMDL
MODEL 6
REMARK VINA RESULT:      -7.8      7.487     10.728
REMARK  4 active torsions:
REMARK  status: ('A' for Active; 'I' for Inactive)
REMARK    1  A    between atoms: O_2  and  C_3 
REMARK    2  A    between atoms: C_5  and  O_17 
REMARK    3  A    between atoms: C_6  and  C_9 
REMARK    4  A    between atoms: C_9  and  C_11 
ROOT
HETATM    1  C   UNL     1     -21.422  -6.492  -3.331  1.00  0.00     0.070 A 
HETATM    2  C   UNL     1     -20.633  -7.640  -3.237  1.00  0.00     0.074 A 
HETATM    3  C   UNL     1     -20.627  -8.389  -2.053  1.00  0.00     0.082 A 
HETATM    4  C   UNL     1     -21.422  -8.014  -0.961  1.00  0.00     0.048 A 
HETATM    5  C   UNL     1     -22.233  -6.878  -1.076  1.00  0.00     0.021 A 
HETATM    6  C   UNL     1     -22.214  -6.114  -2.247  1.00  0.00     0.038 A 
ENDROOT
BRANCH   4   7
HETATM    7  C   UNL     1     -21.480  -8.834   0.281  1.00  0.00     0.195 C 
HETATM    8  O   UNL     1     -20.945  -8.427   1.309  1.00  0.00    -0.287 OA
BRANCH   7   9
HETATM    9  C   UNL     1     -22.102 -10.193   0.285  1.00  0.00     0.015 A 
HETATM   10  C   UNL     1     -21.418 -11.336   0.714  1.00  0.00     0.015 A 
HETATM   11  C   UNL     1     -22.064 -12.576   0.725  1.00  0.00     0.001 A 
HETATM   12  C   UNL     1     -23.384 -12.683   0.287  1.00  0.00     0.000 A 
HETATM   13  C   UNL     1     -24.061 -11.553  -0.169  1.00  0.00     0.001 A 
HETATM   14  C   UNL     1     -23.422 -10.312  -0.173  1.00  0.00     0.015 A 
ENDBRANCH   7   9
ENDBRANCH   4   7
BRANCH   3  15
HETATM   15  O   UNL     1     -19.798  -9.475  -1.964  1.00  0.00    -0.360 OA
HETATM   16  H   UNL     1     -19.183  -9.365  -1.221  1.00  0.00     0.217 HD
ENDBRANCH   3  15
BRANCH   1  17
HETATM   17  O   UNL     1     -21.506  -5.658  -4.412  1.00  0.00    -0.356 OA
HETATM   18  C   UNL     1     -20.562  -5.853  -5.459  1.00  0.00     0.210 C 
ENDBRANCH   1  17
TORSDOF 4
ENDMDL
MODEL 7
REMARK VINA RESULT:      -7.8      4.369      8.559
REMARK  4 active torsions:
REMARK  status: ('A' for Active; 'I' for Inactive)
REMARK    1  A    between atoms: O_2  and  C_3 
REMARK    2  A    between atoms: C_5  and  O_17 
REMARK    3  A    between atoms: C_6  and  C_9 
REMARK    4  A    between atoms: C_9  and  C_11 
ROOT
HETATM    1  C   UNL     1     -20.378  -8.849  -2.377  1.00  0.00     0.070 A 
HETATM    2  C   UNL     1     -21.144  -7.779  -1.908  1.00  0.00     0.074 A 
HETATM    3  C   UNL     1     -21.694  -6.862  -2.814  1.00  0.00     0.082 A 
HETATM    4  C   UNL     1     -21.504  -7.015  -4.195  1.00  0.00     0.048 A 
HETATM    5  C   UNL     1     -20.760  -8.108  -4.656  1.00  0.00     0.021 A 
HETATM    6  C   UNL     1     -20.187  -9.004  -3.750  1.00  0.00     0.038 A 
ENDROOT
BRANCH   4   7
HETATM    7  C   UNL     1     -22.135  -6.090  -5.176  1.00  0.00     0.195 C 
HETATM    8  O   UNL     1     -23.357  -5.963  -5.201  1.00  0.00    -0.287 OA
BRANCH   7   9
HETATM    9  C   UNL     1     -21.318  -5.371  -6.200  1.00  0.00     0.015 A 
HETATM   10  C   UNL     1     -19.941  -5.167  -6.061  1.00  0.00     0.015 A 
HETATM   11  C   UNL     1     -19.224  -4.514  -7.069  1.00  0.00     0.001 A 
HETATM   12  C   UNL     1     -19.881  -4.043  -8.204  1.00  0.00     0.000 A 
HETATM   13  C   UNL     1     -21.258  -4.217  -8.335  1.00  0.00     0.001 A 
HETATM   14  C   UNL     1     -21.975  -4.876  -7.336  1.00  0.00     0.015 A 
ENDBRANCH   7   9
ENDBRANCH   4   7
BRANCH   3  15
HETATM   15  O   UNL     1     -22.388  -5.788  -2.326  1.00  0.00    -0.360 OA
HETATM   16  H   UNL     1     -21.832  -4.993  -2.352  1.00  0.00     0.217 HD
ENDBRANCH   3  15
BRANCH   1  17
HETATM   17  O   UNL     1     -19.767  -9.801  -1.607  1.00  0.00    -0.356 OA
HETATM   18  C   UNL     1     -20.524 -10.358  -0.538  1.00  0.00     0.210 C 
ENDBRANCH   1  17
TORSDOF 4
ENDMDL
MODEL 8
REMARK VINA RESULT:      -7.6      9.224     12.548
REMARK  4 active torsions:
REMARK  status: ('A' for Active; 'I' for Inactive)
REMARK    1  A    between atoms: O_2  and  C_3 
REMARK    2  A    between atoms: C_5  and  O_17 
REMARK    3  A    between atoms: C_6  and  C_9 
REMARK    4  A    between atoms: C_9  and  C_11 
ROOT
HETATM    1  C   UNL     1     -23.151 -12.887   0.165  1.00  0.00     0.070 A 
HETATM    2  C   UNL     1     -21.810 -12.710   0.511  1.00  0.00     0.074 A 
HETATM    3  C   UNL     1     -21.255 -11.423   0.522  1.00  0.00     0.082 A 
HETATM    4  C   UNL     1     -22.036 -10.301   0.211  1.00  0.00     0.048 A 
HETATM    5  C   UNL     1     -23.388 -10.486  -0.104  1.00  0.00     0.021 A 
HETATM    6  C   UNL     1     -23.932 -11.774  -0.145  1.00  0.00     0.038 A 
ENDROOT
BRANCH   4   7
HETATM    7  C   UNL     1     -21.482  -8.920   0.283  1.00  0.00     0.195 C 
HETATM    8  O   UNL     1     -21.064  -8.482   1.352  1.00  0.00    -0.287 OA
BRANCH   7   9
HETATM    9  C   UNL     1     -21.501  -8.015  -0.906  1.00  0.00     0.015 A 
HETATM   10  C   UNL     1     -22.260  -6.840  -0.949  1.00  0.00     0.015 A 
HETATM   11  C   UNL     1     -22.212  -6.016  -2.078  1.00  0.00     0.001 A 
HETATM   12  C   UNL     1     -21.428  -6.372  -3.173  1.00  0.00     0.000 A 
HETATM   13  C   UNL     1     -20.692  -7.556  -3.148  1.00  0.00     0.001 A 
HETATM   14  C   UNL     1     -20.730  -8.376  -2.020  1.00  0.00     0.015 A 
ENDBRANCH   7   9
ENDBRANCH   4   7
BRANCH   3  15
HETATM   15  O   UNL     1     -19.922 -11.282   0.804  1.00  0.00    -0.360 OA
HETATM   16  H   UNL     1     -19.726 -11.650   1.680  1.00  0.00     0.217 HD
ENDBRANCH   3  15
BRANCH   1  17
HETATM   17  O   UNL     1     -23.813 -14.082   0.092  1.00  0.00    -0.356 OA
HETATM   18  C   UNL     1     -24.366 -14.443  -1.169  1.00  0.00     0.210 C 
ENDBRANCH   1  17
TORSDOF 4
ENDMDL
MODEL 9
REMARK VINA RESULT:      -7.6      7.805     10.982
REMARK  4 active torsions:
REMARK  status: ('A' for Active; 'I' for Inactive)
REMARK    1  A    between atoms: O_2  and  C_3 
REMARK    2  A    between atoms: C_5  and  O_17 
REMARK    3  A    between atoms: C_6  and  C_9 
REMARK    4  A    between atoms: C_9  and  C_11 
ROOT
HETATM    1  C   UNL     1     -21.450  -6.591  -2.864  1.00  0.00     0.070 A 
HETATM    2  C   UNL     1     -22.306  -6.404  -1.777  1.00  0.00     0.074 A 
HETATM    3  C   UNL     1     -22.342  -7.349  -0.743  1.00  0.00     0.082 A 
HETATM    4  C   UNL     1     -21.510  -8.477  -0.773  1.00  0.00     0.048 A 
HETATM    5  C   UNL     1     -20.633  -8.641  -1.852  1.00  0.00     0.021 A 
HETATM    6  C   UNL     1     -20.621  -7.713  -2.898  1.00  0.00     0.038 A 
ENDROOT
BRANCH   4   7
HETATM    7  C   UNL     1     -21.485  -9.458   0.348  1.00  0.00     0.195 C 
HETATM    8  O   UNL     1     -20.846  -9.208   1.367  1.00  0.00    -0.287 OA
BRANCH   7   9
HETATM    9  C   UNL     1     -22.153 -10.789   0.228  1.00  0.00     0.015 A 
HETATM   10  C   UNL     1     -23.387 -10.961  -0.410  1.00  0.00     0.015 A 
HETATM   11  C   UNL     1     -23.948 -12.238  -0.519  1.00  0.00     0.001 A 
HETATM   12  C   UNL     1     -23.292 -13.340   0.027  1.00  0.00     0.000 A 
HETATM   13  C   UNL     1     -22.077 -13.172   0.688  1.00  0.00     0.001 A 
HETATM   14  C   UNL     1     -21.510 -11.901   0.792  1.00  0.00     0.015 A 
ENDBRANCH   7   9
ENDBRANCH   4   7
BRANCH   3  15
HETATM   15  O   UNL     1     -23.234  -7.174   0.281  1.00  0.00    -0.360 OA
HETATM   16  H   UNL     1     -22.762  -6.961   1.101  1.00  0.00     0.217 HD
ENDBRANCH   3  15
BRANCH   1  17
HETATM   17  O   UNL     1     -21.330  -5.764  -3.947  1.00  0.00    -0.356 OA
HETATM   18  C   UNL     1     -21.927  -6.197  -5.165  1.00  0.00     0.210 C 
ENDBRANCH   1  17
TORSDOF 4
ENDMDL
