MODEL 1
REMARK VINA RESULT:      -4.3      0.000      0.000
REMARK WARNING: 32 MAX_TORS EXCEEDED!!!
REMARK  37 active torsions:
REMARK  status: ('A' for Active; 'I' for Inactive)
REMARK    1  A    between atoms: C_2  and  C_4 
REMARK    2  A    between atoms: C_4  and  C_5 
REMARK    3  A    between atoms: C_5  and  C_6 
REMARK    4  A    between atoms: C_6  and  C_7 
REMARK    5  A    between atoms: C_7  and  C_8 
REMARK    6  A    between atoms: C_8  and  C_9 
REMARK    7  A    between atoms: C_9  and  C_10 
REMARK    8  A    between atoms: C_10  and  C_11 
REMARK    9  A    between atoms: C_11  and  C_12 
REMARK   10  A    between atoms: C_12  and  C_13 
REMARK   11  A    between atoms: C_13  and  C_14 
REMARK   12  A    between atoms: C_14  and  C_15 
REMARK   13  A    between atoms: C_15  and  C_16 
REMARK   14  A    between atoms: C_16  and  C_17 
REMARK   15  A    between atoms: C_17  and  C_18 
REMARK   16  A    between atoms: C_18  and  O_20 
REMARK   17  A    between atoms: C_23  and  C_25 
REMARK   18  A    between atoms: C_25  and  C_26 
REMARK   19  A    between atoms: C_26  and  C_27 
REMARK   20  A    between atoms: C_27  and  C_28 
REMARK   21  A    between atoms: C_28  and  C_29 
REMARK   22  A    between atoms: C_29  and  C_30 
REMARK   23  A    between atoms: C_30  and  C_31 
REMARK   24  A    between atoms: C_31  and  C_32 
REMARK   25  A    between atoms: C_32  and  C_33 
REMARK   26  A    between atoms: C_33  and  C_34 
REMARK   27  A    between atoms: C_34  and  C_35 
REMARK   28  A    between atoms: C_35  and  C_36 
REMARK   29  A    between atoms: C_36  and  C_37 
REMARK   30  A    between atoms: C_37  and  C_38 
REMARK   31  A    between atoms: C_38  and  C_39 
REMARK   32  A    between atoms: C_39  and  O_41 
REMARK   33  A    between atoms: C_43  and  C_44 
REMARK   34  A    between atoms: C_43  and  O_48 
REMARK   35  A    between atoms: C_44  and  C_45 
REMARK   36  A    between atoms: C_44  and  O_47 
REMARK   37  A    between atoms: C_45  and  O_46 
ROOT
HETATM    1  C   UNL     3     -23.239  -2.585 -14.190  1.00  0.00     0.165 C 
ENDROOT
BRANCH   1   2
HETATM    2  C   UNL     3     -23.646  -1.305 -14.895  1.00  0.00     0.198 C 
BRANCH   2   3
HETATM    3  O   UNL     3     -24.883  -0.760 -14.480  1.00  0.00    -0.398 OA
HETATM    4  H   UNL     3     -24.695   0.130 -14.119  1.00  0.00     0.209 HD
ENDBRANCH   2   3
ENDBRANCH   1   2
BRANCH   1   5
HETATM    5  C   UNL     3     -23.802  -2.598 -12.784  1.00  0.00     0.198 C 
BRANCH   5   6
HETATM    6  O   UNL     3     -25.129  -3.115 -12.821  1.00  0.00    -0.398 OA
HETATM    7  H   UNL     3     -25.104  -3.895 -12.231  1.00  0.00     0.209 HD
ENDBRANCH   5   6
ENDBRANCH   1   5
BRANCH   1   8
HETATM    8  O   UNL     3     -23.732  -3.725 -14.918  1.00  0.00    -0.391 OA
HETATM    9  H   UNL     3     -23.922  -3.431 -15.828  1.00  0.00     0.210 HD
ENDBRANCH   1   8
TORSDOF 37
ENDMDL
MODEL 2
REMARK VINA RESULT:      -4.2      0.895      2.334
REMARK WARNING: 32 MAX_TORS EXCEEDED!!!
REMARK  37 active torsions:
REMARK  status: ('A' for Active; 'I' for Inactive)
REMARK    1  A    between atoms: C_2  and  C_4 
REMARK    2  A    between atoms: C_4  and  C_5 
REMARK    3  A    between atoms: C_5  and  C_6 
REMARK    4  A    between atoms: C_6  and  C_7 
REMARK    5  A    between atoms: C_7  and  C_8 
REMARK    6  A    between atoms: C_8  and  C_9 
REMARK    7  A    between atoms: C_9  and  C_10 
REMARK    8  A    between atoms: C_10  and  C_11 
REMARK    9  A    between atoms: C_11  and  C_12 
REMARK   10  A    between atoms: C_12  and  C_13 
REMARK   11  A    between atoms: C_13  and  C_14 
REMARK   12  A    between atoms: C_14  and  C_15 
REMARK   13  A    between atoms: C_15  and  C_16 
REMARK   14  A    between atoms: C_16  and  C_17 
REMARK   15  A    between atoms: C_17  and  C_18 
REMARK   16  A    between atoms: C_18  and  O_20 
REMARK   17  A    between atoms: C_23  and  C_25 
REMARK   18  A    between atoms: C_25  and  C_26 
REMARK   19  A    between atoms: C_26  and  C_27 
REMARK   20  A    between atoms: C_27  and  C_28 
REMARK   21  A    between atoms: C_28  and  C_29 
REMARK   22  A    between atoms: C_29  and  C_30 
REMARK   23  A    between atoms: C_30  and  C_31 
REMARK   24  A    between atoms: C_31  and  C_32 
REMARK   25  A    between atoms: C_32  and  C_33 
REMARK   26  A    between atoms: C_33  and  C_34 
REMARK   27  A    between atoms: C_34  and  C_35 
REMARK   28  A    between atoms: C_35  and  C_36 
REMARK   29  A    between atoms: C_36  and  C_37 
REMARK   30  A    between atoms: C_37  and  C_38 
REMARK   31  A    between atoms: C_38  and  C_39 
REMARK   32  A    between atoms: C_39  and  O_41 
REMARK   33  A    between atoms: C_43  and  C_44 
REMARK   34  A    between atoms: C_43  and  O_48 
REMARK   35  A    between atoms: C_44  and  C_45 
REMARK   36  A    between atoms: C_44  and  O_47 
REMARK   37  A    between atoms: C_45  and  O_46 
ROOT
HETATM    1  C   UNL     3     -23.383  -2.501 -14.600  1.00  0.00     0.165 C 
ENDROOT
BRANCH   1   2
HETATM    2  C   UNL     3     -23.197  -2.562 -13.095  1.00  0.00     0.198 C 
BRANCH   2   3
HETATM    3  O   UNL     3     -24.394  -2.533 -12.342  1.00  0.00    -0.398 OA
HETATM    4  H   UNL     3     -24.570  -1.596 -12.124  1.00  0.00     0.209 HD
ENDBRANCH   2   3
ENDBRANCH   1   2
BRANCH   1   5
HETATM    5  C   UNL     3     -23.622  -1.068 -15.029  1.00  0.00     0.198 C 
BRANCH   5   6
HETATM    6  O   UNL     3     -24.909  -0.656 -14.576  1.00  0.00    -0.398 OA
HETATM    7  H   UNL     3     -24.759  -0.353 -13.658  1.00  0.00     0.209 HD
ENDBRANCH   5   6
ENDBRANCH   1   5
BRANCH   1   8
HETATM    8  O   UNL     3     -22.212  -3.013 -15.261  1.00  0.00    -0.391 OA
HETATM    9  H   UNL     3     -22.252  -3.986 -15.215  1.00  0.00     0.210 HD
ENDBRANCH   1   8
TORSDOF 37
ENDMDL
MODEL 3
REMARK VINA RESULT:      -4.2     14.482     15.148
REMARK WARNING: 32 MAX_TORS EXCEEDED!!!
REMARK  37 active torsions:
REMARK  status: ('A' for Active; 'I' for Inactive)
REMARK    1  A    between atoms: C_2  and  C_4 
REMARK    2  A    between atoms: C_4  and  C_5 
REMARK    3  A    between atoms: C_5  and  C_6 
REMARK    4  A    between atoms: C_6  and  C_7 
REMARK    5  A    between atoms: C_7  and  C_8 
REMARK    6  A    between atoms: C_8  and  C_9 
REMARK    7  A    between atoms: C_9  and  C_10 
REMARK    8  A    between atoms: C_10  and  C_11 
REMARK    9  A    between atoms: C_11  and  C_12 
REMARK   10  A    between atoms: C_12  and  C_13 
REMARK   11  A    between atoms: C_13  and  C_14 
REMARK   12  A    between atoms: C_14  and  C_15 
REMARK   13  A    between atoms: C_15  and  C_16 
REMARK   14  A    between atoms: C_16  and  C_17 
REMARK   15  A    between atoms: C_17  and  C_18 
REMARK   16  A    between atoms: C_18  and  O_20 
REMARK   17  A    between atoms: C_23  and  C_25 
REMARK   18  A    between atoms: C_25  and  C_26 
REMARK   19  A    between atoms: C_26  and  C_27 
REMARK   20  A    between atoms: C_27  and  C_28 
REMARK   21  A    between atoms: C_28  and  C_29 
REMARK   22  A    between atoms: C_29  and  C_30 
REMARK   23  A    between atoms: C_30  and  C_31 
REMARK   24  A    between atoms: C_31  and  C_32 
REMARK   25  A    between atoms: C_32  and  C_33 
REMARK   26  A    between atoms: C_33  and  C_34 
REMARK   27  A    between atoms: C_34  and  C_35 
REMARK   28  A    between atoms: C_35  and  C_36 
REMARK   29  A    between atoms: C_36  and  C_37 
REMARK   30  A    between atoms: C_37  and  C_38 
REMARK   31  A    between atoms: C_38  and  C_39 
REMARK   32  A    between atoms: C_39  and  O_41 
REMARK   33  A    between atoms: C_43  and  C_44 
REMARK   34  A    between atoms: C_43  and  O_48 
REMARK   35  A    between atoms: C_44  and  C_45 
REMARK   36  A    between atoms: C_44  and  O_47 
REMARK   37  A    between atoms: C_45  and  O_46 
ROOT
HETATM    1  C   UNL     3     -29.521 -14.719 -20.972  1.00  0.00     0.165 C 
ENDROOT
BRANCH   1   2
HETATM    2  C   UNL     3     -29.615 -14.348 -19.504  1.00  0.00     0.198 C 
BRANCH   2   3
HETATM    3  O   UNL     3     -30.798 -13.669 -19.132  1.00  0.00    -0.398 OA
HETATM    4  H   UNL     3     -31.369 -13.636 -19.926  1.00  0.00     0.209 HD
ENDBRANCH   2   3
ENDBRANCH   1   2
BRANCH   1   5
HETATM    5  C   UNL     3     -30.904 -15.007 -21.518  1.00  0.00     0.198 C 
BRANCH   5   6
HETATM    6  O   UNL     3     -31.397 -13.841 -22.169  1.00  0.00    -0.398 OA
HETATM    7  H   UNL     3     -30.672 -13.569 -22.767  1.00  0.00     0.209 HD
ENDBRANCH   5   6
ENDBRANCH   1   5
BRANCH   1   8
HETATM    8  O   UNL     3     -28.925 -13.641 -21.715  1.00  0.00    -0.391 OA
HETATM    9  H   UNL     3     -28.582 -14.014 -22.548  1.00  0.00     0.210 HD
ENDBRANCH   1   8
TORSDOF 37
ENDMDL
MODEL 4
REMARK VINA RESULT:      -4.1     15.195     15.803
REMARK WARNING: 32 MAX_TORS EXCEEDED!!!
REMARK  37 active torsions:
REMARK  status: ('A' for Active; 'I' for Inactive)
REMARK    1  A    between atoms: C_2  and  C_4 
REMARK    2  A    between atoms: C_4  and  C_5 
REMARK    3  A    between atoms: C_5  and  C_6 
REMARK    4  A    between atoms: C_6  and  C_7 
REMARK    5  A    between atoms: C_7  and  C_8 
REMARK    6  A    between atoms: C_8  and  C_9 
REMARK    7  A    between atoms: C_9  and  C_10 
REMARK    8  A    between atoms: C_10  and  C_11 
REMARK    9  A    between atoms: C_11  and  C_12 
REMARK   10  A    between atoms: C_12  and  C_13 
REMARK   11  A    between atoms: C_13  and  C_14 
REMARK   12  A    between atoms: C_14  and  C_15 
REMARK   13  A    between atoms: C_15  and  C_16 
REMARK   14  A    between atoms: C_16  and  C_17 
REMARK   15  A    between atoms: C_17  and  C_18 
REMARK   16  A    between atoms: C_18  and  O_20 
REMARK   17  A    between atoms: C_23  and  C_25 
REMARK   18  A    between atoms: C_25  and  C_26 
REMARK   19  A    between atoms: C_26  and  C_27 
REMARK   20  A    between atoms: C_27  and  C_28 
REMARK   21  A    between atoms: C_28  and  C_29 
REMARK   22  A    between atoms: C_29  and  C_30 
REMARK   23  A    between atoms: C_30  and  C_31 
REMARK   24  A    between atoms: C_31  and  C_32 
REMARK   25  A    between atoms: C_32  and  C_33 
REMARK   26  A    between atoms: C_33  and  C_34 
REMARK   27  A    between atoms: C_34  and  C_35 
REMARK   28  A    between atoms: C_35  and  C_36 
REMARK   29  A    between atoms: C_36  and  C_37 
REMARK   30  A    between atoms: C_37  and  C_38 
REMARK   31  A    between atoms: C_38  and  C_39 
REMARK   32  A    between atoms: C_39  and  O_41 
REMARK   33  A    between atoms: C_43  and  C_44 
REMARK   34  A    between atoms: C_43  and  O_48 
REMARK   35  A    between atoms: C_44  and  C_45 
REMARK   36  A    between atoms: C_44  and  O_47 
REMARK   37  A    between atoms: C_45  and  O_46 
ROOT
HETATM    1  C   UNL     3     -30.735 -15.203 -20.991  1.00  0.00     0.165 C 
ENDROOT
BRANCH   1   2
HETATM    2  C   UNL     3     -31.718 -14.963 -22.122  1.00  0.00     0.198 C 
BRANCH   2   3
HETATM    3  O   UNL     3     -31.843 -13.615 -22.532  1.00  0.00    -0.398 OA
HETATM    4  H   UNL     3     -31.666 -13.061 -21.746  1.00  0.00     0.209 HD
ENDBRANCH   2   3
ENDBRANCH   1   2
BRANCH   1   5
HETATM    5  C   UNL     3     -29.317 -15.082 -21.509  1.00  0.00     0.198 C 
BRANCH   5   6
HETATM    6  O   UNL     3     -28.973 -13.702 -21.601  1.00  0.00    -0.398 OA
HETATM    7  H   UNL     3     -28.102 -13.697 -22.046  1.00  0.00     0.209 HD
ENDBRANCH   5   6
ENDBRANCH   1   5
BRANCH   1   8
HETATM    8  O   UNL     3     -30.949 -14.240 -19.943  1.00  0.00    -0.391 OA
HETATM    9  H   UNL     3     -30.709 -14.668 -19.100  1.00  0.00     0.210 HD
ENDBRANCH   1   8
TORSDOF 37
ENDMDL
MODEL 5
REMARK VINA RESULT:      -4.0     14.688     15.383
REMARK WARNING: 32 MAX_TORS EXCEEDED!!!
REMARK  37 active torsions:
REMARK  status: ('A' for Active; 'I' for Inactive)
REMARK    1  A    between atoms: C_2  and  C_4 
REMARK    2  A    between atoms: C_4  and  C_5 
REMARK    3  A    between atoms: C_5  and  C_6 
REMARK    4  A    between atoms: C_6  and  C_7 
REMARK    5  A    between atoms: C_7  and  C_8 
REMARK    6  A    between atoms: C_8  and  C_9 
REMARK    7  A    between atoms: C_9  and  C_10 
REMARK    8  A    between atoms: C_10  and  C_11 
REMARK    9  A    between atoms: C_11  and  C_12 
REMARK   10  A    between atoms: C_12  and  C_13 
REMARK   11  A    between atoms: C_13  and  C_14 
REMARK   12  A    between atoms: C_14  and  C_15 
REMARK   13  A    between atoms: C_15  and  C_16 
REMARK   14  A    between atoms: C_16  and  C_17 
REMARK   15  A    between atoms: C_17  and  C_18 
REMARK   16  A    between atoms: C_18  and  O_20 
REMARK   17  A    between atoms: C_23  and  C_25 
REMARK   18  A    between atoms: C_25  and  C_26 
REMARK   19  A    between atoms: C_26  and  C_27 
REMARK   20  A    between atoms: C_27  and  C_28 
REMARK   21  A    between atoms: C_28  and  C_29 
REMARK   22  A    between atoms: C_29  and  C_30 
REMARK   23  A    between atoms: C_30  and  C_31 
REMARK   24  A    between atoms: C_31  and  C_32 
REMARK   25  A    between atoms: C_32  and  C_33 
REMARK   26  A    between atoms: C_33  and  C_34 
REMARK   27  A    between atoms: C_34  and  C_35 
REMARK   28  A    between atoms: C_35  and  C_36 
REMARK   29  A    between atoms: C_36  and  C_37 
REMARK   30  A    between atoms: C_37  and  C_38 
REMARK   31  A    between atoms: C_38  and  C_39 
REMARK   32  A    between atoms: C_39  and  O_41 
REMARK   33  A    between atoms: C_43  and  C_44 
REMARK   34  A    between atoms: C_43  and  O_48 
REMARK   35  A    between atoms: C_44  and  C_45 
REMARK   36  A    between atoms: C_44  and  O_47 
REMARK   37  A    between atoms: C_45  and  O_46 
ROOT
HETATM    1  C   UNL     3     -30.597 -15.063 -20.782  1.00  0.00     0.165 C 
ENDROOT
BRANCH   1   2
HETATM    2  C   UNL     3     -30.254 -14.738 -19.340  1.00  0.00     0.198 C 
BRANCH   2   3
HETATM    3  O   UNL     3     -30.141 -13.359 -19.048  1.00  0.00    -0.398 OA
HETATM    4  H   UNL     3     -29.198 -13.121 -19.155  1.00  0.00     0.209 HD
ENDBRANCH   2   3
ENDBRANCH   1   2
BRANCH   1   5
HETATM    5  C   UNL     3     -29.348 -14.986 -21.636  1.00  0.00     0.198 C 
BRANCH   5   6
HETATM    6  O   UNL     3     -28.847 -13.653 -21.607  1.00  0.00    -0.398 OA
HETATM    7  H   UNL     3     -28.020 -13.714 -21.089  1.00  0.00     0.209 HD
ENDBRANCH   5   6
ENDBRANCH   1   5
BRANCH   1   8
HETATM    8  O   UNL     3     -31.159 -16.385 -20.868  1.00  0.00    -0.391 OA
HETATM    9  H   UNL     3     -30.537 -16.995 -20.429  1.00  0.00     0.210 HD
ENDBRANCH   1   8
TORSDOF 37
ENDMDL
MODEL 6
REMARK VINA RESULT:      -3.9      1.654      2.504
REMARK WARNING: 32 MAX_TORS EXCEEDED!!!
REMARK  37 active torsions:
REMARK  status: ('A' for Active; 'I' for Inactive)
REMARK    1  A    between atoms: C_2  and  C_4 
REMARK    2  A    between atoms: C_4  and  C_5 
REMARK    3  A    between atoms: C_5  and  C_6 
REMARK    4  A    between atoms: C_6  and  C_7 
REMARK    5  A    between atoms: C_7  and  C_8 
REMARK    6  A    between atoms: C_8  and  C_9 
REMARK    7  A    between atoms: C_9  and  C_10 
REMARK    8  A    between atoms: C_10  and  C_11 
REMARK    9  A    between atoms: C_11  and  C_12 
REMARK   10  A    between atoms: C_12  and  C_13 
REMARK   11  A    between atoms: C_13  and  C_14 
REMARK   12  A    between atoms: C_14  and  C_15 
REMARK   13  A    between atoms: C_15  and  C_16 
REMARK   14  A    between atoms: C_16  and  C_17 
REMARK   15  A    between atoms: C_17  and  C_18 
REMARK   16  A    between atoms: C_18  and  O_20 
REMARK   17  A    between atoms: C_23  and  C_25 
REMARK   18  A    between atoms: C_25  and  C_26 
REMARK   19  A    between atoms: C_26  and  C_27 
REMARK   20  A    between atoms: C_27  and  C_28 
REMARK   21  A    between atoms: C_28  and  C_29 
REMARK   22  A    between atoms: C_29  and  C_30 
REMARK   23  A    between atoms: C_30  and  C_31 
REMARK   24  A    between atoms: C_31  and  C_32 
REMARK   25  A    between atoms: C_32  and  C_33 
REMARK   26  A    between atoms: C_33  and  C_34 
REMARK   27  A    between atoms: C_34  and  C_35 
REMARK   28  A    between atoms: C_35  and  C_36 
REMARK   29  A    between atoms: C_36  and  C_37 
REMARK   30  A    between atoms: C_37  and  C_38 
REMARK   31  A    between atoms: C_38  and  C_39 
REMARK   32  A    between atoms: C_39  and  O_41 
REMARK   33  A    between atoms: C_43  and  C_44 
REMARK   34  A    between atoms: C_43  and  O_48 
REMARK   35  A    between atoms: C_44  and  C_45 
REMARK   36  A    between atoms: C_44  and  O_47 
REMARK   37  A    between atoms: C_45  and  O_46 
ROOT
HETATM    1  C   UNL     3     -23.650  -3.010 -13.407  1.00  0.00     0.165 C 
ENDROOT
BRANCH   1   2
HETATM    2  C   UNL     3     -23.160  -2.303 -14.657  1.00  0.00     0.198 C 
BRANCH   2   3
HETATM    3  O   UNL     3     -22.194  -3.013 -15.407  1.00  0.00    -0.398 OA
HETATM    4  H   UNL     3     -22.400  -3.964 -15.308  1.00  0.00     0.209 HD
ENDBRANCH   2   3
ENDBRANCH   1   2
BRANCH   1   5
HETATM    5  C   UNL     3     -22.599  -2.917 -12.320  1.00  0.00     0.198 C 
BRANCH   5   6
HETATM    6  O   UNL     3     -21.519  -3.787 -12.644  1.00  0.00    -0.398 OA
HETATM    7  H   UNL     3     -20.779  -3.186 -12.863  1.00  0.00     0.209 HD
ENDBRANCH   5   6
ENDBRANCH   1   5
BRANCH   1   8
HETATM    8  O   UNL     3     -24.873  -2.405 -12.947  1.00  0.00    -0.391 OA
HETATM    9  H   UNL     3     -25.484  -3.127 -12.709  1.00  0.00     0.210 HD
ENDBRANCH   1   8
TORSDOF 37
ENDMDL
MODEL 7
REMARK VINA RESULT:      -3.9      1.774      3.011
REMARK WARNING: 32 MAX_TORS EXCEEDED!!!
REMARK  37 active torsions:
REMARK  status: ('A' for Active; 'I' for Inactive)
REMARK    1  A    between atoms: C_2  and  C_4 
REMARK    2  A    between atoms: C_4  and  C_5 
REMARK    3  A    between atoms: C_5  and  C_6 
REMARK    4  A    between atoms: C_6  and  C_7 
REMARK    5  A    between atoms: C_7  and  C_8 
REMARK    6  A    between atoms: C_8  and  C_9 
REMARK    7  A    between atoms: C_9  and  C_10 
REMARK    8  A    between atoms: C_10  and  C_11 
REMARK    9  A    between atoms: C_11  and  C_12 
REMARK   10  A    between atoms: C_12  and  C_13 
REMARK   11  A    between atoms: C_13  and  C_14 
REMARK   12  A    between atoms: C_14  and  C_15 
REMARK   13  A    between atoms: C_15  and  C_16 
REMARK   14  A    between atoms: C_16  and  C_17 
REMARK   15  A    between atoms: C_17  and  C_18 
REMARK   16  A    between atoms: C_18  and  O_20 
REMARK   17  A    between atoms: C_23  and  C_25 
REMARK   18  A    between atoms: C_25  and  C_26 
REMARK   19  A    between atoms: C_26  and  C_27 
REMARK   20  A    between atoms: C_27  and  C_28 
REMARK   21  A    between atoms: C_28  and  C_29 
REMARK   22  A    between atoms: C_29  and  C_30 
REMARK   23  A    between atoms: C_30  and  C_31 
REMARK   24  A    between atoms: C_31  and  C_32 
REMARK   25  A    between atoms: C_32  and  C_33 
REMARK   26  A    between atoms: C_33  and  C_34 
REMARK   27  A    between atoms: C_34  and  C_35 
REMARK   28  A    between atoms: C_35  and  C_36 
REMARK   29  A    between atoms: C_36  and  C_37 
REMARK   30  A    between atoms: C_37  and  C_38 
REMARK   31  A    between atoms: C_38  and  C_39 
REMARK   32  A    between atoms: C_39  and  O_41 
REMARK   33  A    between atoms: C_43  and  C_44 
REMARK   34  A    between atoms: C_43  and  O_48 
REMARK   35  A    between atoms: C_44  and  C_45 
REMARK   36  A    between atoms: C_44  and  O_47 
REMARK   37  A    between atoms: C_45  and  O_46 
ROOT
HETATM    1  C   UNL     3     -23.730  -2.842 -13.415  1.00  0.00     0.165 C 
ENDROOT
BRANCH   1   2
HETATM    2  C   UNL     3     -22.644  -2.936 -12.359  1.00  0.00     0.198 C 
BRANCH   2   3
HETATM    3  O   UNL     3     -21.568  -3.796 -12.682  1.00  0.00    -0.398 OA
HETATM    4  H   UNL     3     -21.931  -4.703 -12.726  1.00  0.00     0.209 HD
ENDBRANCH   2   3
ENDBRANCH   1   2
BRANCH   1   5
HETATM    5  C   UNL     3     -23.190  -2.142 -14.645  1.00  0.00     0.198 C 
BRANCH   5   6
HETATM    6  O   UNL     3     -22.334  -3.037 -15.349  1.00  0.00    -0.398 OA
HETATM    7  H   UNL     3     -22.693  -3.925 -15.151  1.00  0.00     0.209 HD
ENDBRANCH   5   6
ENDBRANCH   1   5
BRANCH   1   8
HETATM    8  O   UNL     3     -24.185  -4.160 -13.771  1.00  0.00    -0.391 OA
HETATM    9  H   UNL     3     -23.781  -4.788 -13.144  1.00  0.00     0.210 HD
ENDBRANCH   1   8
TORSDOF 37
ENDMDL
MODEL 8
REMARK VINA RESULT:      -3.8      1.349      2.034
REMARK WARNING: 32 MAX_TORS EXCEEDED!!!
REMARK  37 active torsions:
REMARK  status: ('A' for Active; 'I' for Inactive)
REMARK    1  A    between atoms: C_2  and  C_4 
REMARK    2  A    between atoms: C_4  and  C_5 
REMARK    3  A    between atoms: C_5  and  C_6 
REMARK    4  A    between atoms: C_6  and  C_7 
REMARK    5  A    between atoms: C_7  and  C_8 
REMARK    6  A    between atoms: C_8  and  C_9 
REMARK    7  A    between atoms: C_9  and  C_10 
REMARK    8  A    between atoms: C_10  and  C_11 
REMARK    9  A    between atoms: C_11  and  C_12 
REMARK   10  A    between atoms: C_12  and  C_13 
REMARK   11  A    between atoms: C_13  and  C_14 
REMARK   12  A    between atoms: C_14  and  C_15 
REMARK   13  A    between atoms: C_15  and  C_16 
REMARK   14  A    between atoms: C_16  and  C_17 
REMARK   15  A    between atoms: C_17  and  C_18 
REMARK   16  A    between atoms: C_18  and  O_20 
REMARK   17  A    between atoms: C_23  and  C_25 
REMARK   18  A    between atoms: C_25  and  C_26 
REMARK   19  A    between atoms: C_26  and  C_27 
REMARK   20  A    between atoms: C_27  and  C_28 
REMARK   21  A    between atoms: C_28  and  C_29 
REMARK   22  A    between atoms: C_29  and  C_30 
REMARK   23  A    between atoms: C_30  and  C_31 
REMARK   24  A    between atoms: C_31  and  C_32 
REMARK   25  A    between atoms: C_32  and  C_33 
REMARK   26  A    between atoms: C_33  and  C_34 
REMARK   27  A    between atoms: C_34  and  C_35 
REMARK   28  A    between atoms: C_35  and  C_36 
REMARK   29  A    between atoms: C_36  and  C_37 
REMARK   30  A    between atoms: C_37  and  C_38 
REMARK   31  A    between atoms: C_38  and  C_39 
REMARK   32  A    between atoms: C_39  and  O_41 
REMARK   33  A    between atoms: C_43  and  C_44 
REMARK   34  A    between atoms: C_43  and  O_48 
REMARK   35  A    between atoms: C_44  and  C_45 
REMARK   36  A    between atoms: C_44  and  O_47 
REMARK   37  A    between atoms: C_45  and  O_46 
ROOT
HETATM    1  C   UNL     3     -22.784  -2.815 -12.882  1.00  0.00     0.165 C 
ENDROOT
BRANCH   1   2
HETATM    2  C   UNL     3     -23.148  -2.659 -14.346  1.00  0.00     0.198 C 
BRANCH   2   3
HETATM    3  O   UNL     3     -23.753  -3.792 -14.938  1.00  0.00    -0.398 OA
HETATM    4  H   UNL     3     -24.631  -3.897 -14.519  1.00  0.00     0.209 HD
ENDBRANCH   2   3
ENDBRANCH   1   2
BRANCH   1   5
HETATM    5  C   UNL     3     -24.003  -3.245 -12.093  1.00  0.00     0.198 C 
BRANCH   5   6
HETATM    6  O   UNL     3     -25.172  -2.756 -12.744  1.00  0.00    -0.398 OA
HETATM    7  H   UNL     3     -25.842  -3.454 -12.600  1.00  0.00     0.209 HD
ENDBRANCH   5   6
ENDBRANCH   1   5
BRANCH   1   8
HETATM    8  O   UNL     3     -21.745  -3.801 -12.736  1.00  0.00    -0.391 OA
HETATM    9  H   UNL     3     -22.062  -4.467 -12.099  1.00  0.00     0.210 HD
ENDBRANCH   1   8
TORSDOF 37
ENDMDL
MODEL 9
REMARK VINA RESULT:      -3.7      3.175      4.356
REMARK WARNING: 32 MAX_TORS EXCEEDED!!!
REMARK  37 active torsions:
REMARK  status: ('A' for Active; 'I' for Inactive)
REMARK    1  A    between atoms: C_2  and  C_4 
REMARK    2  A    between atoms: C_4  and  C_5 
REMARK    3  A    between atoms: C_5  and  C_6 
REMARK    4  A    between atoms: C_6  and  C_7 
REMARK    5  A    between atoms: C_7  and  C_8 
REMARK    6  A    between atoms: C_8  and  C_9 
REMARK    7  A    between atoms: C_9  and  C_10 
REMARK    8  A    between atoms: C_10  and  C_11 
REMARK    9  A    between atoms: C_11  and  C_12 
REMARK   10  A    between atoms: C_12  and  C_13 
REMARK   11  A    between atoms: C_13  and  C_14 
REMARK   12  A    between atoms: C_14  and  C_15 
REMARK   13  A    between atoms: C_15  and  C_16 
REMARK   14  A    between atoms: C_16  and  C_17 
REMARK   15  A    between atoms: C_17  and  C_18 
REMARK   16  A    between atoms: C_18  and  O_20 
REMARK   17  A    between atoms: C_23  and  C_25 
REMARK   18  A    between atoms: C_25  and  C_26 
REMARK   19  A    between atoms: C_26  and  C_27 
REMARK   20  A    between atoms: C_27  and  C_28 
REMARK   21  A    between atoms: C_28  and  C_29 
REMARK   22  A    between atoms: C_29  and  C_30 
REMARK   23  A    between atoms: C_30  and  C_31 
REMARK   24  A    between atoms: C_31  and  C_32 
REMARK   25  A    between atoms: C_32  and  C_33 
REMARK   26  A    between atoms: C_33  and  C_34 
REMARK   27  A    between atoms: C_34  and  C_35 
REMARK   28  A    between atoms: C_35  and  C_36 
REMARK   29  A    between atoms: C_36  and  C_37 
REMARK   30  A    between atoms: C_37  and  C_38 
REMARK   31  A    between atoms: C_38  and  C_39 
REMARK   32  A    between atoms: C_39  and  O_41 
REMARK   33  A    between atoms: C_43  and  C_44 
REMARK   34  A    between atoms: C_43  and  O_48 
REMARK   35  A    between atoms: C_44  and  C_45 
REMARK   36  A    between atoms: C_44  and  O_47 
REMARK   37  A    between atoms: C_45  and  O_46 
ROOT
HETATM    1  C   UNL     3     -24.566  -3.822 -10.245  1.00  0.00     0.165 C 
ENDROOT
BRANCH   1   2
HETATM    2  C   UNL     3     -24.152  -3.187 -11.559  1.00  0.00     0.198 C 
BRANCH   2   3
HETATM    3  O   UNL     3     -25.206  -2.961 -12.475  1.00  0.00    -0.398 OA
HETATM    4  H   UNL     3     -24.879  -3.228 -13.357  1.00  0.00     0.209 HD
ENDBRANCH   2   3
ENDBRANCH   1   2
BRANCH   1   5
HETATM    5  C   UNL     3     -23.454  -3.670  -9.228  1.00  0.00     0.198 C 
BRANCH   5   6
HETATM    6  O   UNL     3     -23.938  -4.068  -7.949  1.00  0.00    -0.398 OA
HETATM    7  H   UNL     3     -23.406  -4.856  -7.721  1.00  0.00     0.209 HD
ENDBRANCH   5   6
ENDBRANCH   1   5
BRANCH   1   8
HETATM    8  O   UNL     3     -25.762  -3.192  -9.750  1.00  0.00    -0.391 OA
HETATM    9  H   UNL     3     -25.987  -2.470 -10.365  1.00  0.00     0.210 HD
ENDBRANCH   1   8
TORSDOF 37
ENDMDL
