MODEL 1
REMARK VINA RESULT:      -6.6      0.000      0.000
REMARK  10 active torsions:
REMARK  status: ('A' for Active; 'I' for Inactive)
REMARK    1  A    between atoms: C_2  and  C_4 
REMARK    2  A    between atoms: C_4  and  C_5 
REMARK    3  A    between atoms: C_5  and  C_6 
REMARK    4  A    between atoms: C_6  and  C_7 
REMARK    5  A    between atoms: C_7  and  C_8 
REMARK    6  A    between atoms: C_8  and  C_9 
REMARK    7  A    between atoms: C_9  and  C_10 
REMARK    8  A    between atoms: C_10  and  O_11 
REMARK    9  A    between atoms: O_11  and  C_12 
REMARK   10  A    between atoms: C_12  and  C_14 
ROOT
HETATM    1  C   UNL     1     -21.738  -4.697  -8.031  1.00  0.00     0.027 C 
ENDROOT
BRANCH   1   2
HETATM    2  C   UNL     1     -20.983  -3.870  -6.996  1.00  0.00     0.002 C 
BRANCH   2   3
HETATM    3  C   UNL     1     -20.330  -4.740  -5.923  1.00  0.00     0.000 C 
BRANCH   3   4
HETATM    4  C   UNL     1     -20.261  -6.216  -6.321  1.00  0.00     0.000 C 
BRANCH   4   5
HETATM    5  C   UNL     1     -20.810  -7.104  -5.212  1.00  0.00     0.000 C 
BRANCH   5   6
HETATM    6  C   UNL     1     -21.241  -6.269  -4.005  1.00  0.00     0.004 C 
BRANCH   6   7
HETATM    7  C   UNL     1     -21.665  -7.131  -2.804  1.00  0.00    -0.023 C 
HETATM    8  C   UNL     1     -20.480  -7.966  -2.322  1.00  0.00     0.009 C 
HETATM    9  C   UNL     1     -22.211  -6.289  -1.650  1.00  0.00     0.009 C 
ENDBRANCH   6   7
ENDBRANCH   5   6
ENDBRANCH   4   5
ENDBRANCH   3   4
ENDBRANCH   2   3
ENDBRANCH   1   2
BRANCH   1  10
HETATM   10  C   UNL     1     -23.175  -4.222  -8.204  1.00  0.00     0.178 C 
BRANCH  10  11
HETATM   11  O   UNL     1     -23.217  -3.181  -9.189  1.00  0.00    -0.321 OA
BRANCH  11  12
HETATM   12  C   UNL     1     -24.199  -3.307 -10.132  1.00  0.00     0.266 C 
HETATM   13  O   UNL     1     -25.399  -3.197  -9.898  1.00  0.00    -0.264 OA
BRANCH  12  14
HETATM   14  C   UNL     1     -23.608  -3.593 -11.510  1.00  0.00     0.037 C 
HETATM   15  C   UNL     1     -24.519  -2.981 -12.582  1.00  0.00     0.025 C 
HETATM   16  C   UNL     1     -22.213  -2.952 -11.601  1.00  0.00     0.025 C 
HETATM   17  C   UNL     1     -23.475  -5.106 -11.727  1.00  0.00     0.025 C 
ENDBRANCH  12  14
ENDBRANCH  11  12
ENDBRANCH  10  11
ENDBRANCH   1  10
TORSDOF 10
ENDMDL
MODEL 2
REMARK VINA RESULT:      -6.3      3.385      5.562
REMARK  10 active torsions:
REMARK  status: ('A' for Active; 'I' for Inactive)
REMARK    1  A    between atoms: C_2  and  C_4 
REMARK    2  A    between atoms: C_4  and  C_5 
REMARK    3  A    between atoms: C_5  and  C_6 
REMARK    4  A    between atoms: C_6  and  C_7 
REMARK    5  A    between atoms: C_7  and  C_8 
REMARK    6  A    between atoms: C_8  and  C_9 
REMARK    7  A    between atoms: C_9  and  C_10 
REMARK    8  A    between atoms: C_10  and  O_11 
REMARK    9  A    between atoms: O_11  and  C_12 
REMARK   10  A    between atoms: C_12  and  C_14 
ROOT
HETATM    1  C   UNL     1     -20.307  -8.187  -3.993  1.00  0.00     0.027 C 
ENDROOT
BRANCH   1   2
HETATM    2  C   UNL     1     -20.648  -7.814  -2.554  1.00  0.00     0.002 C 
BRANCH   2   3
HETATM    3  C   UNL     1     -21.926  -6.980  -2.459  1.00  0.00     0.000 C 
BRANCH   3   4
HETATM    4  C   UNL     1     -22.277  -6.601  -1.018  1.00  0.00     0.000 C 
BRANCH   4   5
HETATM    5  C   UNL     1     -21.887  -7.713  -0.053  1.00  0.00     0.000 C 
BRANCH   5   6
HETATM    6  C   UNL     1     -23.065  -8.655   0.200  1.00  0.00     0.004 C 
BRANCH   6   7
HETATM    7  C   UNL     1     -22.850 -10.054  -0.400  1.00  0.00    -0.023 C 
HETATM    8  C   UNL     1     -21.572 -10.670   0.167  1.00  0.00     0.009 C 
HETATM    9  C   UNL     1     -24.035 -10.986  -0.140  1.00  0.00     0.009 C 
ENDBRANCH   6   7
ENDBRANCH   5   6
ENDBRANCH   4   5
ENDBRANCH   3   4
ENDBRANCH   2   3
ENDBRANCH   1   2
BRANCH   1  10
HETATM   10  C   UNL     1     -21.538  -8.191  -4.890  1.00  0.00     0.178 C 
BRANCH  10  11
HETATM   11  O   UNL     1     -21.293  -7.370  -6.039  1.00  0.00    -0.321 OA
BRANCH  11  12
HETATM   12  C   UNL     1     -21.789  -6.098  -5.966  1.00  0.00     0.266 C 
HETATM   13  O   UNL     1     -22.919  -5.819  -5.577  1.00  0.00    -0.264 OA
BRANCH  12  14
HETATM   14  C   UNL     1     -20.753  -5.074  -6.424  1.00  0.00     0.037 C 
HETATM   15  C   UNL     1     -19.975  -4.569  -5.202  1.00  0.00     0.025 C 
HETATM   16  C   UNL     1     -19.779  -5.749  -7.404  1.00  0.00     0.025 C 
HETATM   17  C   UNL     1     -21.444  -3.903  -7.136  1.00  0.00     0.025 C 
ENDBRANCH  12  14
ENDBRANCH  11  12
ENDBRANCH  10  11
ENDBRANCH   1  10
TORSDOF 10
ENDMDL
MODEL 3
REMARK VINA RESULT:      -6.2      3.781      8.854
REMARK  10 active torsions:
REMARK  status: ('A' for Active; 'I' for Inactive)
REMARK    1  A    between atoms: C_2  and  C_4 
REMARK    2  A    between atoms: C_4  and  C_5 
REMARK    3  A    between atoms: C_5  and  C_6 
REMARK    4  A    between atoms: C_6  and  C_7 
REMARK    5  A    between atoms: C_7  and  C_8 
REMARK    6  A    between atoms: C_8  and  C_9 
REMARK    7  A    between atoms: C_9  and  C_10 
REMARK    8  A    between atoms: C_10  and  O_11 
REMARK    9  A    between atoms: O_11  and  C_12 
REMARK   10  A    between atoms: C_12  and  C_14 
ROOT
HETATM    1  C   UNL     1     -21.155  -6.189  -3.470  1.00  0.00     0.027 C 
ENDROOT
BRANCH   1   2
HETATM    2  C   UNL     1     -21.829  -6.287  -4.834  1.00  0.00     0.002 C 
BRANCH   2   3
HETATM    3  C   UNL     1     -20.839  -6.111  -5.985  1.00  0.00     0.000 C 
BRANCH   3   4
HETATM    4  C   UNL     1     -20.022  -4.822  -5.869  1.00  0.00     0.000 C 
BRANCH   4   5
HETATM    5  C   UNL     1     -19.432  -4.430  -7.216  1.00  0.00     0.000 C 
BRANCH   5   6
HETATM    6  C   UNL     1     -20.159  -5.139  -8.360  1.00  0.00     0.004 C 
BRANCH   6   7
HETATM    7  C   UNL     1     -20.899  -4.164  -9.291  1.00  0.00    -0.023 C 
HETATM    8  C   UNL     1     -20.449  -4.384 -10.735  1.00  0.00     0.009 C 
HETATM    9  C   UNL     1     -22.419  -4.307  -9.193  1.00  0.00     0.009 C 
ENDBRANCH   6   7
ENDBRANCH   5   6
ENDBRANCH   4   5
ENDBRANCH   3   4
ENDBRANCH   2   3
ENDBRANCH   1   2
BRANCH   1  10
HETATM   10  C   UNL     1     -22.138  -6.411  -2.328  1.00  0.00     0.178 C 
BRANCH  10  11
HETATM   11  O   UNL     1     -21.546  -7.276  -1.351  1.00  0.00    -0.321 OA
BRANCH  11  12
HETATM   12  C   UNL     1     -21.909  -8.591  -1.434  1.00  0.00     0.266 C 
HETATM   13  O   UNL     1     -21.843  -9.262  -2.460  1.00  0.00    -0.264 OA
BRANCH  12  14
HETATM   14  C   UNL     1     -22.401  -9.115  -0.087  1.00  0.00     0.037 C 
HETATM   15  C   UNL     1     -21.194  -9.577   0.740  1.00  0.00     0.025 C 
HETATM   16  C   UNL     1     -23.125  -7.982   0.658  1.00  0.00     0.025 C 
HETATM   17  C   UNL     1     -23.380 -10.278  -0.295  1.00  0.00     0.025 C 
ENDBRANCH  12  14
ENDBRANCH  11  12
ENDBRANCH  10  11
ENDBRANCH   1  10
TORSDOF 10
ENDMDL
MODEL 4
REMARK VINA RESULT:      -6.1      1.440      2.618
REMARK  10 active torsions:
REMARK  status: ('A' for Active; 'I' for Inactive)
REMARK    1  A    between atoms: C_2  and  C_4 
REMARK    2  A    between atoms: C_4  and  C_5 
REMARK    3  A    between atoms: C_5  and  C_6 
REMARK    4  A    between atoms: C_6  and  C_7 
REMARK    5  A    between atoms: C_7  and  C_8 
REMARK    6  A    between atoms: C_8  and  C_9 
REMARK    7  A    between atoms: C_9  and  C_10 
REMARK    8  A    between atoms: C_10  and  O_11 
REMARK    9  A    between atoms: O_11  and  C_12 
REMARK   10  A    between atoms: C_12  and  C_14 
ROOT
HETATM    1  C   UNL     1     -21.286  -4.366  -6.698  1.00  0.00     0.027 C 
ENDROOT
BRANCH   1   2
HETATM    2  C   UNL     1     -20.515  -5.379  -5.858  1.00  0.00     0.002 C 
BRANCH   2   3
HETATM    3  C   UNL     1     -21.432  -6.202  -4.955  1.00  0.00     0.000 C 
BRANCH   3   4
HETATM    4  C   UNL     1     -21.186  -5.939  -3.467  1.00  0.00     0.000 C 
BRANCH   4   5
HETATM    5  C   UNL     1     -21.620  -7.132  -2.626  1.00  0.00     0.000 C 
BRANCH   5   6
HETATM    6  C   UNL     1     -22.277  -6.672  -1.323  1.00  0.00     0.004 C 
BRANCH   6   7
HETATM    7  C   UNL     1     -21.968  -7.603  -0.139  1.00  0.00    -0.023 C 
HETATM    8  C   UNL     1     -23.271  -8.120   0.468  1.00  0.00     0.009 C 
HETATM    9  C   UNL     1     -21.080  -8.781  -0.543  1.00  0.00     0.009 C 
ENDBRANCH   6   7
ENDBRANCH   5   6
ENDBRANCH   4   5
ENDBRANCH   3   4
ENDBRANCH   2   3
ENDBRANCH   1   2
BRANCH   1  10
HETATM   10  C   UNL     1     -21.396  -4.797  -8.155  1.00  0.00     0.178 C 
BRANCH  10  11
HETATM   11  O   UNL     1     -22.027  -3.757  -8.913  1.00  0.00    -0.321 OA
BRANCH  11  12
HETATM   12  C   UNL     1     -21.885  -3.852 -10.269  1.00  0.00     0.266 C 
HETATM   13  O   UNL     1     -20.815  -4.039 -10.840  1.00  0.00    -0.264 OA
BRANCH  12  14
HETATM   14  C   UNL     1     -23.230  -3.702 -10.977  1.00  0.00     0.037 C 
HETATM   15  C   UNL     1     -23.104  -2.629 -12.067  1.00  0.00     0.025 C 
HETATM   16  C   UNL     1     -23.608  -5.044 -11.626  1.00  0.00     0.025 C 
HETATM   17  C   UNL     1     -24.319  -3.312  -9.970  1.00  0.00     0.025 C 
ENDBRANCH  12  14
ENDBRANCH  11  12
ENDBRANCH  10  11
ENDBRANCH   1  10
TORSDOF 10
ENDMDL
MODEL 5
REMARK VINA RESULT:      -5.8      3.140      5.249
REMARK  10 active torsions:
REMARK  status: ('A' for Active; 'I' for Inactive)
REMARK    1  A    between atoms: C_2  and  C_4 
REMARK    2  A    between atoms: C_4  and  C_5 
REMARK    3  A    between atoms: C_5  and  C_6 
REMARK    4  A    between atoms: C_6  and  C_7 
REMARK    5  A    between atoms: C_7  and  C_8 
REMARK    6  A    between atoms: C_8  and  C_9 
REMARK    7  A    between atoms: C_9  and  C_10 
REMARK    8  A    between atoms: C_10  and  O_11 
REMARK    9  A    between atoms: O_11  and  C_12 
REMARK   10  A    between atoms: C_12  and  C_14 
ROOT
HETATM    1  C   UNL     1     -21.292  -5.999  -3.717  1.00  0.00     0.027 C 
ENDROOT
BRANCH   1   2
HETATM    2  C   UNL     1     -21.813  -6.513  -2.379  1.00  0.00     0.002 C 
BRANCH   2   3
HETATM    3  C   UNL     1     -20.959  -7.651  -1.822  1.00  0.00     0.000 C 
BRANCH   3   4
HETATM    4  C   UNL     1     -21.338  -8.027  -0.388  1.00  0.00     0.000 C 
BRANCH   4   5
HETATM    5  C   UNL     1     -22.629  -8.834  -0.361  1.00  0.00     0.000 C 
BRANCH   5   6
HETATM    6  C   UNL     1     -22.390 -10.231   0.214  1.00  0.00     0.004 C 
BRANCH   6   7
HETATM    7  C   UNL     1     -23.579 -11.180  -0.010  1.00  0.00    -0.023 C 
HETATM    8  C   UNL     1     -23.867 -11.305  -1.506  1.00  0.00     0.009 C 
HETATM    9  C   UNL     1     -23.336 -12.566   0.590  1.00  0.00     0.009 C 
ENDBRANCH   6   7
ENDBRANCH   5   6
ENDBRANCH   4   5
ENDBRANCH   3   4
ENDBRANCH   2   3
ENDBRANCH   1   2
BRANCH   1  10
HETATM   10  C   UNL     1     -22.078  -6.566  -4.892  1.00  0.00     0.178 C 
BRANCH  10  11
HETATM   11  O   UNL     1     -22.101  -5.607  -5.957  1.00  0.00    -0.321 OA
BRANCH  11  12
HETATM   12  C   UNL     1     -21.172  -5.802  -6.941  1.00  0.00     0.266 C 
HETATM   13  O   UNL     1     -20.455  -6.794  -7.027  1.00  0.00    -0.264 OA
BRANCH  12  14
HETATM   14  C   UNL     1     -21.151  -4.631  -7.921  1.00  0.00     0.037 C 
HETATM   15  C   UNL     1     -22.304  -4.793  -8.920  1.00  0.00     0.025 C 
HETATM   16  C   UNL     1     -21.336  -3.319  -7.139  1.00  0.00     0.025 C 
HETATM   17  C   UNL     1     -19.808  -4.583  -8.661  1.00  0.00     0.025 C 
ENDBRANCH  12  14
ENDBRANCH  11  12
ENDBRANCH  10  11
ENDBRANCH   1  10
TORSDOF 10
ENDMDL
MODEL 6
REMARK VINA RESULT:      -5.8      3.550      8.859
REMARK  10 active torsions:
REMARK  status: ('A' for Active; 'I' for Inactive)
REMARK    1  A    between atoms: C_2  and  C_4 
REMARK    2  A    between atoms: C_4  and  C_5 
REMARK    3  A    between atoms: C_5  and  C_6 
REMARK    4  A    between atoms: C_6  and  C_7 
REMARK    5  A    between atoms: C_7  and  C_8 
REMARK    6  A    between atoms: C_8  and  C_9 
REMARK    7  A    between atoms: C_9  and  C_10 
REMARK    8  A    between atoms: C_10  and  O_11 
REMARK    9  A    between atoms: O_11  and  C_12 
REMARK   10  A    between atoms: C_12  and  C_14 
ROOT
HETATM    1  C   UNL     1     -21.087  -6.258  -4.478  1.00  0.00     0.027 C 
ENDROOT
BRANCH   1   2
HETATM    2  C   UNL     1     -21.190  -6.555  -5.970  1.00  0.00     0.002 C 
BRANCH   2   3
HETATM    3  C   UNL     1     -20.086  -5.870  -6.776  1.00  0.00     0.000 C 
BRANCH   3   4
HETATM    4  C   UNL     1     -20.626  -5.110  -7.989  1.00  0.00     0.000 C 
BRANCH   4   5
HETATM    5  C   UNL     1     -21.771  -4.189  -7.588  1.00  0.00     0.000 C 
BRANCH   5   6
HETATM    6  C   UNL     1     -22.469  -3.614  -8.821  1.00  0.00     0.004 C 
BRANCH   6   7
HETATM    7  C   UNL     1     -22.351  -4.528 -10.052  1.00  0.00    -0.023 C 
HETATM    8  C   UNL     1     -23.738  -5.012 -10.473  1.00  0.00     0.009 C 
HETATM    9  C   UNL     1     -21.666  -3.830 -11.229  1.00  0.00     0.009 C 
ENDBRANCH   6   7
ENDBRANCH   5   6
ENDBRANCH   4   5
ENDBRANCH   3   4
ENDBRANCH   2   3
ENDBRANCH   1   2
BRANCH   1  10
HETATM   10  C   UNL     1     -21.510  -7.448  -3.627  1.00  0.00     0.178 C 
BRANCH  10  11
HETATM   11  O   UNL     1     -21.144  -7.212  -2.262  1.00  0.00    -0.321 OA
BRANCH  11  12
HETATM   12  C   UNL     1     -20.852  -8.330  -1.532  1.00  0.00     0.266 C 
HETATM   13  O   UNL     1     -19.919  -9.089  -1.774  1.00  0.00    -0.264 OA
BRANCH  12  14
HETATM   14  C   UNL     1     -21.833  -8.505  -0.374  1.00  0.00     0.037 C 
HETATM   15  C   UNL     1     -22.698  -7.243  -0.256  1.00  0.00     0.025 C 
HETATM   16  C   UNL     1     -22.737  -9.716  -0.661  1.00  0.00     0.025 C 
HETATM   17  C   UNL     1     -21.071  -8.752   0.934  1.00  0.00     0.025 C 
ENDBRANCH  12  14
ENDBRANCH  11  12
ENDBRANCH  10  11
ENDBRANCH   1  10
TORSDOF 10
ENDMDL
MODEL 7
REMARK VINA RESULT:      -5.6     18.428     20.096
REMARK  10 active torsions:
REMARK  status: ('A' for Active; 'I' for Inactive)
REMARK    1  A    between atoms: C_2  and  C_4 
REMARK    2  A    between atoms: C_4  and  C_5 
REMARK    3  A    between atoms: C_5  and  C_6 
REMARK    4  A    between atoms: C_6  and  C_7 
REMARK    5  A    between atoms: C_7  and  C_8 
REMARK    6  A    between atoms: C_8  and  C_9 
REMARK    7  A    between atoms: C_9  and  C_10 
REMARK    8  A    between atoms: C_10  and  O_11 
REMARK    9  A    between atoms: O_11  and  C_12 
REMARK   10  A    between atoms: C_12  and  C_14 
ROOT
HETATM    1  C   UNL     1     -15.913   9.128   7.077  1.00  0.00     0.027 C 
ENDROOT
BRANCH   1   2
HETATM    2  C   UNL     1     -14.474   9.590   6.869  1.00  0.00     0.002 C 
BRANCH   2   3
HETATM    3  C   UNL     1     -13.785   8.846   5.726  1.00  0.00     0.000 C 
BRANCH   3   4
HETATM    4  C   UNL     1     -14.747   7.953   4.938  1.00  0.00     0.000 C 
BRANCH   4   5
HETATM    5  C   UNL     1     -14.501   8.078   3.441  1.00  0.00     0.000 C 
BRANCH   5   6
HETATM    6  C   UNL     1     -13.566   9.249   3.136  1.00  0.00     0.004 C 
BRANCH   6   7
HETATM    7  C   UNL     1     -13.510   9.592   1.638  1.00  0.00    -0.023 C 
HETATM    8  C   UNL     1     -14.257   8.529   0.834  1.00  0.00     0.009 C 
HETATM    9  C   UNL     1     -14.091  10.975   1.336  1.00  0.00     0.009 C 
ENDBRANCH   6   7
ENDBRANCH   5   6
ENDBRANCH   4   5
ENDBRANCH   3   4
ENDBRANCH   2   3
ENDBRANCH   1   2
BRANCH   1  10
HETATM   10  C   UNL     1     -16.917  10.228   6.764  1.00  0.00     0.178 C 
BRANCH  10  11
HETATM   11  O   UNL     1     -17.782   9.797   5.705  1.00  0.00    -0.321 OA
BRANCH  11  12
HETATM   12  C   UNL     1     -17.484  10.292   4.466  1.00  0.00     0.266 C 
HETATM   13  O   UNL     1     -16.544  11.046   4.232  1.00  0.00    -0.264 OA
BRANCH  12  14
HETATM   14  C   UNL     1     -18.466   9.780   3.415  1.00  0.00     0.037 C 
HETATM   15  C   UNL     1     -19.321  10.952   2.917  1.00  0.00     0.025 C 
HETATM   16  C   UNL     1     -17.676   9.188   2.236  1.00  0.00     0.025 C 
HETATM   17  C   UNL     1     -19.360   8.685   4.014  1.00  0.00     0.025 C 
ENDBRANCH  12  14
ENDBRANCH  11  12
ENDBRANCH  10  11
ENDBRANCH   1  10
TORSDOF 10
ENDMDL
MODEL 8
REMARK VINA RESULT:      -5.6      4.016      8.948
REMARK  10 active torsions:
REMARK  status: ('A' for Active; 'I' for Inactive)
REMARK    1  A    between atoms: C_2  and  C_4 
REMARK    2  A    between atoms: C_4  and  C_5 
REMARK    3  A    between atoms: C_5  and  C_6 
REMARK    4  A    between atoms: C_6  and  C_7 
REMARK    5  A    between atoms: C_7  and  C_8 
REMARK    6  A    between atoms: C_8  and  C_9 
REMARK    7  A    between atoms: C_9  and  C_10 
REMARK    8  A    between atoms: C_10  and  O_11 
REMARK    9  A    between atoms: O_11  and  C_12 
REMARK   10  A    between atoms: C_12  and  C_14 
ROOT
HETATM    1  C   UNL     1     -20.361  -8.064  -3.879  1.00  0.00     0.027 C 
ENDROOT
BRANCH   1   2
HETATM    2  C   UNL     1     -21.266  -6.838  -3.838  1.00  0.00     0.002 C 
BRANCH   2   3
HETATM    3  C   UNL     1     -21.869  -6.515  -5.204  1.00  0.00     0.000 C 
BRANCH   3   4
HETATM    4  C   UNL     1     -20.807  -6.190  -6.257  1.00  0.00     0.000 C 
BRANCH   4   5
HETATM    5  C   UNL     1     -20.302  -4.763  -6.096  1.00  0.00     0.000 C 
BRANCH   5   6
HETATM    6  C   UNL     1     -21.031  -3.814  -7.049  1.00  0.00     0.004 C 
BRANCH   6   7
HETATM    7  C   UNL     1     -21.431  -4.489  -8.372  1.00  0.00    -0.023 C 
HETATM    8  C   UNL     1     -22.790  -3.963  -8.832  1.00  0.00     0.009 C 
HETATM    9  C   UNL     1     -20.390  -4.273  -9.472  1.00  0.00     0.009 C 
ENDBRANCH   6   7
ENDBRANCH   5   6
ENDBRANCH   4   5
ENDBRANCH   3   4
ENDBRANCH   2   3
ENDBRANCH   1   2
BRANCH   1  10
HETATM   10  C   UNL     1     -21.157  -9.361  -3.943  1.00  0.00     0.178 C 
BRANCH  10  11
HETATM   11  O   UNL     1     -22.054  -9.424  -2.826  1.00  0.00    -0.321 OA
BRANCH  11  12
HETATM   12  C   UNL     1     -21.666 -10.250  -1.809  1.00  0.00     0.266 C 
HETATM   13  O   UNL     1     -20.954 -11.239  -1.955  1.00  0.00    -0.264 OA
BRANCH  12  14
HETATM   14  C   UNL     1     -22.227  -9.777  -0.469  1.00  0.00     0.037 C 
HETATM   15  C   UNL     1     -23.563 -10.485  -0.209  1.00  0.00     0.025 C 
HETATM   16  C   UNL     1     -21.233 -10.138   0.647  1.00  0.00     0.025 C 
HETATM   17  C   UNL     1     -22.426  -8.255  -0.485  1.00  0.00     0.025 C 
ENDBRANCH  12  14
ENDBRANCH  11  12
ENDBRANCH  10  11
ENDBRANCH   1  10
TORSDOF 10
ENDMDL
MODEL 9
REMARK VINA RESULT:      -5.4     18.129     19.923
REMARK  10 active torsions:
REMARK  status: ('A' for Active; 'I' for Inactive)
REMARK    1  A    between atoms: C_2  and  C_4 
REMARK    2  A    between atoms: C_4  and  C_5 
REMARK    3  A    between atoms: C_5  and  C_6 
REMARK    4  A    between atoms: C_6  and  C_7 
REMARK    5  A    between atoms: C_7  and  C_8 
REMARK    6  A    between atoms: C_8  and  C_9 
REMARK    7  A    between atoms: C_9  and  C_10 
REMARK    8  A    between atoms: C_10  and  O_11 
REMARK    9  A    between atoms: O_11  and  C_12 
REMARK   10  A    between atoms: C_12  and  C_14 
ROOT
HETATM    1  C   UNL     1     -16.010  11.261   6.029  1.00  0.00     0.027 C 
ENDROOT
BRANCH   1   2
HETATM    2  C   UNL     1     -14.847  10.692   6.835  1.00  0.00     0.002 C 
BRANCH   2   3
HETATM    3  C   UNL     1     -14.766   9.169   6.741  1.00  0.00     0.000 C 
BRANCH   3   4
HETATM    4  C   UNL     1     -13.445   8.685   6.138  1.00  0.00     0.000 C 
BRANCH   4   5
HETATM    5  C   UNL     1     -13.341   9.081   4.671  1.00  0.00     0.000 C 
BRANCH   5   6
HETATM    6  C   UNL     1     -14.405   8.368   3.835  1.00  0.00     0.004 C 
BRANCH   6   7
HETATM    7  C   UNL     1     -14.555   8.966   2.426  1.00  0.00    -0.023 C 
HETATM    8  C   UNL     1     -13.257   9.658   2.016  1.00  0.00     0.009 C 
HETATM    9  C   UNL     1     -14.932   7.910   1.385  1.00  0.00     0.009 C 
ENDBRANCH   6   7
ENDBRANCH   5   6
ENDBRANCH   4   5
ENDBRANCH   3   4
ENDBRANCH   2   3
ENDBRANCH   1   2
BRANCH   1  10
HETATM   10  C   UNL     1     -17.223  10.340   6.047  1.00  0.00     0.178 C 
BRANCH  10  11
HETATM   11  O   UNL     1     -17.789  10.272   4.732  1.00  0.00    -0.321 OA
BRANCH  11  12
HETATM   12  C   UNL     1     -18.926   9.521   4.622  1.00  0.00     0.266 C 
HETATM   13  O   UNL     1     -19.510   9.008   5.572  1.00  0.00    -0.264 OA
BRANCH  12  14
HETATM   14  C   UNL     1     -19.378   9.412   3.167  1.00  0.00     0.037 C 
HETATM   15  C   UNL     1     -20.363  10.548   2.863  1.00  0.00     0.025 C 
HETATM   16  C   UNL     1     -18.151   9.542   2.250  1.00  0.00     0.025 C 
HETATM   17  C   UNL     1     -20.042   8.051   2.919  1.00  0.00     0.025 C 
ENDBRANCH  12  14
ENDBRANCH  11  12
ENDBRANCH  10  11
ENDBRANCH   1  10
TORSDOF 10
ENDMDL
