MODEL 1
REMARK VINA RESULT:      -1.1      0.000      0.000
REMARK  16 active torsions:
REMARK  status: ('A' for Active; 'I' for Inactive)
REMARK    1  A    between atoms: C_2  and  C_3 
REMARK    2  A    between atoms: C_3  and  C_4 
REMARK    3  A    between atoms: C_4  and  C_5 
REMARK    4  A    between atoms: C_5  and  C_6 
REMARK    5  A    between atoms: C_6  and  C_7 
REMARK    6  A    between atoms: C_7  and  C_8 
REMARK    7  A    between atoms: C_8  and  C_9 
REMARK    8  A    between atoms: C_9  and  C_10 
REMARK    9  A    between atoms: C_10  and  C_11 
REMARK   10  A    between atoms: C_11  and  C_12 
REMARK   11  A    between atoms: C_12  and  O_14 
REMARK   12  A    between atoms: O_14  and  C_15 
REMARK   13  A    between atoms: C_15  and  C_16 
REMARK   14  A    between atoms: C_16  and  N_17 
REMARK       I    between atoms: N_17  and  C_18 
REMARK   15  A    between atoms: C_18  and  C_20 
REMARK   16  A    between atoms: C_20  and  N_21 
ROOT
HETATM    1 CL   UNL     2     -32.950  -3.302 -11.392  1.00  0.00     0.000 Cl
ENDROOT
TORSDOF 16
ENDMDL
MODEL 2
REMARK VINA RESULT:      -1.0      8.563      8.563
REMARK  16 active torsions:
REMARK  status: ('A' for Active; 'I' for Inactive)
REMARK    1  A    between atoms: C_2  and  C_3 
REMARK    2  A    between atoms: C_3  and  C_4 
REMARK    3  A    between atoms: C_4  and  C_5 
REMARK    4  A    between atoms: C_5  and  C_6 
REMARK    5  A    between atoms: C_6  and  C_7 
REMARK    6  A    between atoms: C_7  and  C_8 
REMARK    7  A    between atoms: C_8  and  C_9 
REMARK    8  A    between atoms: C_9  and  C_10 
REMARK    9  A    between atoms: C_10  and  C_11 
REMARK   10  A    between atoms: C_11  and  C_12 
REMARK   11  A    between atoms: C_12  and  O_14 
REMARK   12  A    between atoms: O_14  and  C_15 
REMARK   13  A    between atoms: C_15  and  C_16 
REMARK   14  A    between atoms: C_16  and  N_17 
REMARK       I    between atoms: N_17  and  C_18 
REMARK   15  A    between atoms: C_18  and  C_20 
REMARK   16  A    between atoms: C_20  and  N_21 
ROOT
HETATM    1 CL   UNL     2     -37.016   0.580  -4.933  1.00  0.00     0.000 Cl
ENDROOT
TORSDOF 16
ENDMDL
MODEL 3
REMARK VINA RESULT:      -1.0      4.766      4.766
REMARK  16 active torsions:
REMARK  status: ('A' for Active; 'I' for Inactive)
REMARK    1  A    between atoms: C_2  and  C_3 
REMARK    2  A    between atoms: C_3  and  C_4 
REMARK    3  A    between atoms: C_4  and  C_5 
REMARK    4  A    between atoms: C_5  and  C_6 
REMARK    5  A    between atoms: C_6  and  C_7 
REMARK    6  A    between atoms: C_7  and  C_8 
REMARK    7  A    between atoms: C_8  and  C_9 
REMARK    8  A    between atoms: C_9  and  C_10 
REMARK    9  A    between atoms: C_10  and  C_11 
REMARK   10  A    between atoms: C_11  and  C_12 
REMARK   11  A    between atoms: C_12  and  O_14 
REMARK   12  A    between atoms: O_14  and  C_15 
REMARK   13  A    between atoms: C_15  and  C_16 
REMARK   14  A    between atoms: C_16  and  N_17 
REMARK       I    between atoms: N_17  and  C_18 
REMARK   15  A    between atoms: C_18  and  C_20 
REMARK   16  A    between atoms: C_20  and  N_21 
ROOT
HETATM    1 CL   UNL     2     -34.910  -7.312  -9.719  1.00  0.00     0.000 Cl
ENDROOT
TORSDOF 16
ENDMDL
MODEL 4
REMARK VINA RESULT:      -1.0     11.254     11.254
REMARK  16 active torsions:
REMARK  status: ('A' for Active; 'I' for Inactive)
REMARK    1  A    between atoms: C_2  and  C_3 
REMARK    2  A    between atoms: C_3  and  C_4 
REMARK    3  A    between atoms: C_4  and  C_5 
REMARK    4  A    between atoms: C_5  and  C_6 
REMARK    5  A    between atoms: C_6  and  C_7 
REMARK    6  A    between atoms: C_7  and  C_8 
REMARK    7  A    between atoms: C_8  and  C_9 
REMARK    8  A    between atoms: C_9  and  C_10 
REMARK    9  A    between atoms: C_10  and  C_11 
REMARK   10  A    between atoms: C_11  and  C_12 
REMARK   11  A    between atoms: C_12  and  O_14 
REMARK   12  A    between atoms: O_14  and  C_15 
REMARK   13  A    between atoms: C_15  and  C_16 
REMARK   14  A    between atoms: C_16  and  N_17 
REMARK       I    between atoms: N_17  and  C_18 
REMARK   15  A    between atoms: C_18  and  C_20 
REMARK   16  A    between atoms: C_20  and  N_21 
ROOT
HETATM    1 CL   UNL     2     -29.817   7.421 -12.752  1.00  0.00     0.000 Cl
ENDROOT
TORSDOF 16
ENDMDL
MODEL 5
REMARK VINA RESULT:      -1.0     14.601     14.601
REMARK  16 active torsions:
REMARK  status: ('A' for Active; 'I' for Inactive)
REMARK    1  A    between atoms: C_2  and  C_3 
REMARK    2  A    between atoms: C_3  and  C_4 
REMARK    3  A    between atoms: C_4  and  C_5 
REMARK    4  A    between atoms: C_5  and  C_6 
REMARK    5  A    between atoms: C_6  and  C_7 
REMARK    6  A    between atoms: C_7  and  C_8 
REMARK    7  A    between atoms: C_8  and  C_9 
REMARK    8  A    between atoms: C_9  and  C_10 
REMARK    9  A    between atoms: C_10  and  C_11 
REMARK   10  A    between atoms: C_11  and  C_12 
REMARK   11  A    between atoms: C_12  and  O_14 
REMARK   12  A    between atoms: O_14  and  C_15 
REMARK   13  A    between atoms: C_15  and  C_16 
REMARK   14  A    between atoms: C_16  and  N_17 
REMARK       I    between atoms: N_17  and  C_18 
REMARK   15  A    between atoms: C_18  and  C_20 
REMARK   16  A    between atoms: C_20  and  N_21 
ROOT
HETATM    1 CL   UNL     2     -22.241  -6.151  -1.886  1.00  0.00     0.000 Cl
ENDROOT
TORSDOF 16
ENDMDL
MODEL 6
REMARK VINA RESULT:      -0.9     12.032     12.032
REMARK  16 active torsions:
REMARK  status: ('A' for Active; 'I' for Inactive)
REMARK    1  A    between atoms: C_2  and  C_3 
REMARK    2  A    between atoms: C_3  and  C_4 
REMARK    3  A    between atoms: C_4  and  C_5 
REMARK    4  A    between atoms: C_5  and  C_6 
REMARK    5  A    between atoms: C_6  and  C_7 
REMARK    6  A    between atoms: C_7  and  C_8 
REMARK    7  A    between atoms: C_8  and  C_9 
REMARK    8  A    between atoms: C_9  and  C_10 
REMARK    9  A    between atoms: C_10  and  C_11 
REMARK   10  A    between atoms: C_11  and  C_12 
REMARK   11  A    between atoms: C_12  and  O_14 
REMARK   12  A    between atoms: O_14  and  C_15 
REMARK   13  A    between atoms: C_15  and  C_16 
REMARK   14  A    between atoms: C_16  and  N_17 
REMARK       I    between atoms: N_17  and  C_18 
REMARK   15  A    between atoms: C_18  and  C_20 
REMARK   16  A    between atoms: C_20  and  N_21 
ROOT
HETATM    1 CL   UNL     2     -27.117   7.219 -11.166  1.00  0.00     0.000 Cl
ENDROOT
TORSDOF 16
ENDMDL
MODEL 7
REMARK VINA RESULT:      -0.9     16.133     16.133
REMARK  16 active torsions:
REMARK  status: ('A' for Active; 'I' for Inactive)
REMARK    1  A    between atoms: C_2  and  C_3 
REMARK    2  A    between atoms: C_3  and  C_4 
REMARK    3  A    between atoms: C_4  and  C_5 
REMARK    4  A    between atoms: C_5  and  C_6 
REMARK    5  A    between atoms: C_6  and  C_7 
REMARK    6  A    between atoms: C_7  and  C_8 
REMARK    7  A    between atoms: C_8  and  C_9 
REMARK    8  A    between atoms: C_9  and  C_10 
REMARK    9  A    between atoms: C_10  and  C_11 
REMARK   10  A    between atoms: C_11  and  C_12 
REMARK   11  A    between atoms: C_12  and  O_14 
REMARK   12  A    between atoms: O_14  and  C_15 
REMARK   13  A    between atoms: C_15  and  C_16 
REMARK   14  A    between atoms: C_16  and  N_17 
REMARK       I    between atoms: N_17  and  C_18 
REMARK   15  A    between atoms: C_18  and  C_20 
REMARK   16  A    between atoms: C_20  and  N_21 
ROOT
HETATM    1 CL   UNL     2     -23.252  -8.078   0.584  1.00  0.00     0.000 Cl
ENDROOT
TORSDOF 16
ENDMDL
MODEL 8
REMARK VINA RESULT:      -0.9     23.016     23.016
REMARK  16 active torsions:
REMARK  status: ('A' for Active; 'I' for Inactive)
REMARK    1  A    between atoms: C_2  and  C_3 
REMARK    2  A    between atoms: C_3  and  C_4 
REMARK    3  A    between atoms: C_4  and  C_5 
REMARK    4  A    between atoms: C_5  and  C_6 
REMARK    5  A    between atoms: C_6  and  C_7 
REMARK    6  A    between atoms: C_7  and  C_8 
REMARK    7  A    between atoms: C_8  and  C_9 
REMARK    8  A    between atoms: C_9  and  C_10 
REMARK    9  A    between atoms: C_10  and  C_11 
REMARK   10  A    between atoms: C_11  and  C_12 
REMARK   11  A    between atoms: C_12  and  O_14 
REMARK   12  A    between atoms: O_14  and  C_15 
REMARK   13  A    between atoms: C_15  and  C_16 
REMARK   14  A    between atoms: C_16  and  N_17 
REMARK       I    between atoms: N_17  and  C_18 
REMARK   15  A    between atoms: C_18  and  C_20 
REMARK   16  A    between atoms: C_20  and  N_21 
ROOT
HETATM    1 CL   UNL     2     -11.776   5.541 -13.167  1.00  0.00     0.000 Cl
ENDROOT
TORSDOF 16
ENDMDL
MODEL 9
REMARK VINA RESULT:      -0.9     29.284     29.284
REMARK  16 active torsions:
REMARK  status: ('A' for Active; 'I' for Inactive)
REMARK    1  A    between atoms: C_2  and  C_3 
REMARK    2  A    between atoms: C_3  and  C_4 
REMARK    3  A    between atoms: C_4  and  C_5 
REMARK    4  A    between atoms: C_5  and  C_6 
REMARK    5  A    between atoms: C_6  and  C_7 
REMARK    6  A    between atoms: C_7  and  C_8 
REMARK    7  A    between atoms: C_8  and  C_9 
REMARK    8  A    between atoms: C_9  and  C_10 
REMARK    9  A    between atoms: C_10  and  C_11 
REMARK   10  A    between atoms: C_11  and  C_12 
REMARK   11  A    between atoms: C_12  and  O_14 
REMARK   12  A    between atoms: O_14  and  C_15 
REMARK   13  A    between atoms: C_15  and  C_16 
REMARK   14  A    between atoms: C_16  and  N_17 
REMARK       I    between atoms: N_17  and  C_18 
REMARK   15  A    between atoms: C_18  and  C_20 
REMARK   16  A    between atoms: C_20  and  N_21 
ROOT
HETATM    1 CL   UNL     2     -12.854   9.133   5.900  1.00  0.00     0.000 Cl
ENDROOT
TORSDOF 16
ENDMDL
