MODEL 1
REMARK VINA RESULT:      -7.0      0.000      0.000
REMARK  5 active torsions:
REMARK  status: ('A' for Active; 'I' for Inactive)
REMARK    1  A    between atoms: C_2  and  C_4 
REMARK    2  A    between atoms: C_4  and  O_5 
REMARK    3  A    between atoms: O_5  and  C_6 
REMARK    4  A    between atoms: C_6  and  C_8 
REMARK    5  A    between atoms: C_11  and  O_14 
ROOT
HETATM    1  C   UNL     1     -34.925  -2.729 -11.173  1.00  0.00     0.039 A 
HETATM    2  C   UNL     1     -33.581  -2.717 -11.577  1.00  0.00     0.020 A 
HETATM    3  C   UNL     1     -32.847  -3.905 -11.628  1.00  0.00     0.037 A 
HETATM    4  C   UNL     1     -33.460  -5.103 -11.275  1.00  0.00     0.065 A 
HETATM    5  C   UNL     1     -34.795  -5.132 -10.882  1.00  0.00     0.037 A 
HETATM    6  C   UNL     1     -35.533  -3.946 -10.837  1.00  0.00     0.020 A 
ENDROOT
BRANCH   1   7
HETATM    7  C   UNL     1     -35.748  -1.486 -11.169  1.00  0.00     0.293 C 
HETATM    8  O   UNL     1     -35.702  -0.644 -10.291  1.00  0.00    -0.259 OA
BRANCH   7   9
HETATM    9  O   UNL     1     -36.573  -1.485 -12.248  1.00  0.00    -0.317 OA
BRANCH   9  10
HETATM   10  C   UNL     1     -36.550  -0.309 -13.066  1.00  0.00     0.183 C 
BRANCH  10  11
HETATM   11  C   UNL     1     -35.313  -0.230 -13.968  1.00  0.00     0.002 C 
HETATM   12  C   UNL     1     -35.667  -0.391 -15.449  1.00  0.00     0.011 C 
HETATM   13  C   UNL     1     -34.615   1.113 -13.742  1.00  0.00     0.011 C 
ENDBRANCH  10  11
ENDBRANCH   9  10
ENDBRANCH   7   9
ENDBRANCH   1   7
BRANCH   4  14
HETATM   14  O   UNL     1     -32.780  -6.282 -11.309  1.00  0.00    -0.361 OA
HETATM   15  H   UNL     1     -33.246  -6.929 -10.753  1.00  0.00     0.217 HD
ENDBRANCH   4  14
TORSDOF 5
ENDMDL
MODEL 2
REMARK VINA RESULT:      -6.5      1.710      5.615
REMARK  5 active torsions:
REMARK  status: ('A' for Active; 'I' for Inactive)
REMARK    1  A    between atoms: C_2  and  C_4 
REMARK    2  A    between atoms: C_4  and  O_5 
REMARK    3  A    between atoms: O_5  and  C_6 
REMARK    4  A    between atoms: C_6  and  C_8 
REMARK    5  A    between atoms: C_11  and  O_14 
ROOT
HETATM    1  C   UNL     1     -35.785  -0.472 -12.773  1.00  0.00     0.039 A 
HETATM    2  C   UNL     1     -36.919  -0.526 -13.598  1.00  0.00     0.020 A 
HETATM    3  C   UNL     1     -37.013   0.291 -14.727  1.00  0.00     0.037 A 
HETATM    4  C   UNL     1     -35.970   1.161 -15.029  1.00  0.00     0.065 A 
HETATM    5  C   UNL     1     -34.835   1.220 -14.226  1.00  0.00     0.037 A 
HETATM    6  C   UNL     1     -34.736   0.398 -13.100  1.00  0.00     0.020 A 
ENDROOT
BRANCH   1   7
HETATM    7  C   UNL     1     -35.632  -1.376 -11.598  1.00  0.00     0.293 C 
HETATM    8  O   UNL     1     -35.658  -0.997 -10.441  1.00  0.00    -0.259 OA
BRANCH   7   9
HETATM    9  O   UNL     1     -35.408  -2.644 -12.028  1.00  0.00    -0.317 OA
BRANCH   9  10
HETATM   10  C   UNL     1     -35.440  -3.671 -11.029  1.00  0.00     0.183 C 
BRANCH  10  11
HETATM   11  C   UNL     1     -34.047  -4.191 -10.659  1.00  0.00     0.002 C 
HETATM   12  C   UNL     1     -33.965  -5.718 -10.722  1.00  0.00     0.011 C 
HETATM   13  C   UNL     1     -33.016  -3.573 -11.607  1.00  0.00     0.011 C 
ENDBRANCH  10  11
ENDBRANCH   9  10
ENDBRANCH   7   9
ENDBRANCH   1   7
BRANCH   4  14
HETATM   14  O   UNL     1     -36.022   1.977 -16.119  1.00  0.00    -0.361 OA
HETATM   15  H   UNL     1     -36.907   1.915 -16.515  1.00  0.00     0.217 HD
ENDBRANCH   4  14
TORSDOF 5
ENDMDL
MODEL 3
REMARK VINA RESULT:      -6.5     11.776     14.355
REMARK  5 active torsions:
REMARK  status: ('A' for Active; 'I' for Inactive)
REMARK    1  A    between atoms: C_2  and  C_4 
REMARK    2  A    between atoms: C_4  and  O_5 
REMARK    3  A    between atoms: O_5  and  C_6 
REMARK    4  A    between atoms: C_6  and  C_8 
REMARK    5  A    between atoms: C_11  and  O_14 
ROOT
HETATM    1  C   UNL     1     -22.523  -3.705  -9.708  1.00  0.00     0.039 A 
HETATM    2  C   UNL     1     -23.652  -3.261 -10.413  1.00  0.00     0.020 A 
HETATM    3  C   UNL     1     -23.598  -3.092 -11.799  1.00  0.00     0.037 A 
HETATM    4  C   UNL     1     -22.415  -3.370 -12.476  1.00  0.00     0.065 A 
HETATM    5  C   UNL     1     -21.291  -3.820 -11.791  1.00  0.00     0.037 A 
HETATM    6  C   UNL     1     -21.344  -3.996 -10.406  1.00  0.00     0.020 A 
ENDROOT
BRANCH   1   7
HETATM    7  C   UNL     1     -22.571  -3.952  -8.238  1.00  0.00     0.293 C 
HETATM    8  O   UNL     1     -23.536  -4.417  -7.659  1.00  0.00    -0.259 OA
BRANCH   7   9
HETATM    9  O   UNL     1     -21.414  -3.527  -7.669  1.00  0.00    -0.317 OA
BRANCH   9  10
HETATM   10  C   UNL     1     -21.112  -4.052  -6.370  1.00  0.00     0.183 C 
BRANCH  10  11
HETATM   11  C   UNL     1     -19.835  -4.899  -6.348  1.00  0.00     0.002 C 
HETATM   12  C   UNL     1     -20.136  -6.399  -6.410  1.00  0.00     0.011 C 
HETATM   13  C   UNL     1     -18.948  -4.496  -7.529  1.00  0.00     0.011 C 
ENDBRANCH  10  11
ENDBRANCH   9  10
ENDBRANCH   7   9
ENDBRANCH   1   7
BRANCH   4  14
HETATM   14  O   UNL     1     -22.320  -3.216 -13.827  1.00  0.00    -0.361 OA
HETATM   15  H   UNL     1     -22.153  -4.084 -14.230  1.00  0.00     0.217 HD
ENDBRANCH   4  14
TORSDOF 5
ENDMDL
MODEL 4
REMARK VINA RESULT:      -6.4     11.041     13.728
REMARK  5 active torsions:
REMARK  status: ('A' for Active; 'I' for Inactive)
REMARK    1  A    between atoms: C_2  and  C_4 
REMARK    2  A    between atoms: C_4  and  O_5 
REMARK    3  A    between atoms: O_5  and  C_6 
REMARK    4  A    between atoms: C_6  and  C_8 
REMARK    5  A    between atoms: C_11  and  O_14 
ROOT
HETATM    1  C   UNL     1     -23.195  -3.711 -10.647  1.00  0.00     0.039 A 
HETATM    2  C   UNL     1     -24.435  -3.348 -11.193  1.00  0.00     0.020 A 
HETATM    3  C   UNL     1     -24.539  -3.002 -12.543  1.00  0.00     0.037 A 
HETATM    4  C   UNL     1     -23.402  -3.022 -13.343  1.00  0.00     0.065 A 
HETATM    5  C   UNL     1     -22.167  -3.389 -12.818  1.00  0.00     0.037 A 
HETATM    6  C   UNL     1     -22.061  -3.742 -11.469  1.00  0.00     0.020 A 
ENDROOT
BRANCH   1   7
HETATM    7  C   UNL     1     -23.066  -4.143  -9.226  1.00  0.00     0.293 C 
HETATM    8  O   UNL     1     -23.893  -3.901  -8.365  1.00  0.00    -0.259 OA
BRANCH   7   9
HETATM    9  O   UNL     1     -21.880  -4.780  -9.051  1.00  0.00    -0.317 OA
BRANCH   9  10
HETATM   10  C   UNL     1     -21.559  -5.172  -7.710  1.00  0.00     0.183 C 
BRANCH  10  11
HETATM   11  C   UNL     1     -20.514  -4.263  -7.053  1.00  0.00     0.002 C 
HETATM   12  C   UNL     1     -20.082  -4.779  -5.679  1.00  0.00     0.011 C 
HETATM   13  C   UNL     1     -19.298  -4.154  -7.976  1.00  0.00     0.011 C 
ENDBRANCH  10  11
ENDBRANCH   9  10
ENDBRANCH   7   9
ENDBRANCH   1   7
BRANCH   4  14
HETATM   14  O   UNL     1     -23.459  -2.690 -14.663  1.00  0.00    -0.361 OA
HETATM   15  H   UNL     1     -22.569  -2.766 -15.045  1.00  0.00     0.217 HD
ENDBRANCH   4  14
TORSDOF 5
ENDMDL
MODEL 5
REMARK VINA RESULT:      -6.4     11.356     14.192
REMARK  5 active torsions:
REMARK  status: ('A' for Active; 'I' for Inactive)
REMARK    1  A    between atoms: C_2  and  C_4 
REMARK    2  A    between atoms: C_4  and  O_5 
REMARK    3  A    between atoms: O_5  and  C_6 
REMARK    4  A    between atoms: C_6  and  C_8 
REMARK    5  A    between atoms: C_11  and  O_14 
ROOT
HETATM    1  C   UNL     1     -22.144  -3.763 -10.217  1.00  0.00     0.039 A 
HETATM    2  C   UNL     1     -23.537  -3.733 -10.051  1.00  0.00     0.020 A 
HETATM    3  C   UNL     1     -24.362  -3.267 -11.079  1.00  0.00     0.037 A 
HETATM    4  C   UNL     1     -23.790  -2.834 -12.270  1.00  0.00     0.065 A 
HETATM    5  C   UNL     1     -22.411  -2.867 -12.453  1.00  0.00     0.037 A 
HETATM    6  C   UNL     1     -21.584  -3.338 -11.429  1.00  0.00     0.020 A 
ENDROOT
BRANCH   1   7
HETATM    7  C   UNL     1     -21.246  -4.311  -9.161  1.00  0.00     0.293 C 
HETATM    8  O   UNL     1     -20.061  -4.045  -9.071  1.00  0.00    -0.259 OA
BRANCH   7   9
HETATM    9  O   UNL     1     -21.941  -5.178  -8.380  1.00  0.00    -0.317 OA
BRANCH   9  10
HETATM   10  C   UNL     1     -22.075  -4.822  -6.998  1.00  0.00     0.183 C 
BRANCH  10  11
HETATM   11  C   UNL     1     -21.138  -5.616  -6.081  1.00  0.00     0.002 C 
HETATM   12  C   UNL     1     -20.100  -4.721  -5.401  1.00  0.00     0.011 C 
HETATM   13  C   UNL     1     -21.974  -6.343  -5.023  1.00  0.00     0.011 C 
ENDBRANCH  10  11
ENDBRANCH   9  10
ENDBRANCH   7   9
ENDBRANCH   1   7
BRANCH   4  14
HETATM   14  O   UNL     1     -24.558  -2.370 -13.296  1.00  0.00    -0.361 OA
HETATM   15  H   UNL     1     -25.494  -2.445 -13.046  1.00  0.00     0.217 HD
ENDBRANCH   4  14
TORSDOF 5
ENDMDL
MODEL 6
REMARK VINA RESULT:      -6.2     12.512     15.315
REMARK  5 active torsions:
REMARK  status: ('A' for Active; 'I' for Inactive)
REMARK    1  A    between atoms: C_2  and  C_4 
REMARK    2  A    between atoms: C_4  and  O_5 
REMARK    3  A    between atoms: O_5  and  C_6 
REMARK    4  A    between atoms: C_6  and  C_8 
REMARK    5  A    between atoms: C_11  and  O_14 
ROOT
HETATM    1  C   UNL     1     -21.245  -4.700  -8.619  1.00  0.00     0.039 A 
HETATM    2  C   UNL     1     -22.583  -4.291  -8.723  1.00  0.00     0.020 A 
HETATM    3  C   UNL     1     -23.032  -3.624  -9.867  1.00  0.00     0.037 A 
HETATM    4  C   UNL     1     -22.140  -3.369 -10.903  1.00  0.00     0.065 A 
HETATM    5  C   UNL     1     -20.812  -3.777 -10.818  1.00  0.00     0.037 A 
HETATM    6  C   UNL     1     -20.362  -4.450  -9.679  1.00  0.00     0.020 A 
ENDROOT
BRANCH   1   7
HETATM    7  C   UNL     1     -20.754  -5.467  -7.439  1.00  0.00     0.293 C 
HETATM    8  O   UNL     1     -19.893  -6.326  -7.496  1.00  0.00    -0.259 OA
BRANCH   7   9
HETATM    9  O   UNL     1     -21.454  -5.096  -6.335  1.00  0.00    -0.317 OA
BRANCH   9  10
HETATM   10  C   UNL     1     -20.945  -5.553  -5.076  1.00  0.00     0.183 C 
BRANCH  10  11
HETATM   11  C   UNL     1     -21.899  -6.513  -4.356  1.00  0.00     0.002 C 
HETATM   12  C   UNL     1     -21.642  -7.974  -4.734  1.00  0.00     0.011 C 
HETATM   13  C   UNL     1     -21.744  -6.329  -2.844  1.00  0.00     0.011 C 
ENDBRANCH  10  11
ENDBRANCH   9  10
ENDBRANCH   7   9
ENDBRANCH   1   7
BRANCH   4  14
HETATM   14  O   UNL     1     -22.536  -2.720 -12.034  1.00  0.00    -0.361 OA
HETATM   15  H   UNL     1     -21.756  -2.327 -12.460  1.00  0.00     0.217 HD
ENDBRANCH   4  14
TORSDOF 5
ENDMDL
MODEL 7
REMARK VINA RESULT:      -6.1     10.229     12.049
REMARK  5 active torsions:
REMARK  status: ('A' for Active; 'I' for Inactive)
REMARK    1  A    between atoms: C_2  and  C_4 
REMARK    2  A    between atoms: C_4  and  O_5 
REMARK    3  A    between atoms: O_5  and  C_6 
REMARK    4  A    between atoms: C_6  and  C_8 
REMARK    5  A    between atoms: C_11  and  O_14 
ROOT
HETATM    1  C   UNL     1     -25.994  -6.705 -18.930  1.00  0.00     0.039 A 
HETATM    2  C   UNL     1     -26.815  -6.985 -20.033  1.00  0.00     0.020 A 
HETATM    3  C   UNL     1     -26.282  -7.588 -21.176  1.00  0.00     0.037 A 
HETATM    4  C   UNL     1     -24.930  -7.912 -21.210  1.00  0.00     0.065 A 
HETATM    5  C   UNL     1     -24.106  -7.650 -20.120  1.00  0.00     0.037 A 
HETATM    6  C   UNL     1     -24.637  -7.052 -18.974  1.00  0.00     0.020 A 
ENDROOT
BRANCH   1   7
HETATM    7  C   UNL     1     -26.548  -6.118 -17.676  1.00  0.00     0.293 C 
HETATM    8  O   UNL     1     -25.868  -5.792 -16.720  1.00  0.00    -0.259 OA
BRANCH   7   9
HETATM    9  O   UNL     1     -27.902  -6.069 -17.759  1.00  0.00    -0.317 OA
BRANCH   9  10
HETATM   10  C   UNL     1     -28.628  -6.786 -16.753  1.00  0.00     0.183 C 
BRANCH  10  11
HETATM   11  C   UNL     1     -30.088  -7.051 -17.141  1.00  0.00     0.002 C 
HETATM   12  C   UNL     1     -30.923  -5.768 -17.156  1.00  0.00     0.011 C 
HETATM   13  C   UNL     1     -30.124  -7.714 -18.521  1.00  0.00     0.011 C 
ENDBRANCH  10  11
ENDBRANCH   9  10
ENDBRANCH   7   9
ENDBRANCH   1   7
BRANCH   4  14
HETATM   14  O   UNL     1     -24.370  -8.499 -22.305  1.00  0.00    -0.361 OA
HETATM   15  H   UNL     1     -24.414  -7.878 -23.051  1.00  0.00     0.217 HD
ENDBRANCH   4  14
TORSDOF 5
ENDMDL
MODEL 8
REMARK VINA RESULT:      -6.0     14.536     16.724
REMARK  5 active torsions:
REMARK  status: ('A' for Active; 'I' for Inactive)
REMARK    1  A    between atoms: C_2  and  C_4 
REMARK    2  A    between atoms: C_4  and  O_5 
REMARK    3  A    between atoms: O_5  and  C_6 
REMARK    4  A    between atoms: C_6  and  C_8 
REMARK    5  A    between atoms: C_11  and  O_14 
ROOT
HETATM    1  C   UNL     1     -21.597  -6.913  -3.024  1.00  0.00     0.039 A 
HETATM    2  C   UNL     1     -20.787  -8.036  -2.792  1.00  0.00     0.020 A 
HETATM    3  C   UNL     1     -20.692  -8.586  -1.511  1.00  0.00     0.037 A 
HETATM    4  C   UNL     1     -21.408  -8.012  -0.466  1.00  0.00     0.065 A 
HETATM    5  C   UNL     1     -22.222  -6.905  -0.683  1.00  0.00     0.037 A 
HETATM    6  C   UNL     1     -22.324  -6.356  -1.964  1.00  0.00     0.020 A 
ENDROOT
BRANCH   1   7
HETATM    7  C   UNL     1     -21.765  -6.344  -4.392  1.00  0.00     0.293 C 
HETATM    8  O   UNL     1     -22.845  -6.165  -4.925  1.00  0.00    -0.259 OA
BRANCH   7   9
HETATM    9  O   UNL     1     -20.544  -6.124  -4.944  1.00  0.00    -0.317 OA
BRANCH   9  10
HETATM   10  C   UNL     1     -20.311  -4.811  -5.471  1.00  0.00     0.183 C 
BRANCH  10  11
HETATM   11  C   UNL     1     -20.479  -4.737  -6.993  1.00  0.00     0.002 C 
HETATM   12  C   UNL     1     -21.512  -3.688  -7.410  1.00  0.00     0.011 C 
HETATM   13  C   UNL     1     -19.123  -4.417  -7.628  1.00  0.00     0.011 C 
ENDBRANCH  10  11
ENDBRANCH   9  10
ENDBRANCH   7   9
ENDBRANCH   1   7
BRANCH   4  14
HETATM   14  O   UNL     1     -21.340  -8.516   0.798  1.00  0.00    -0.361 OA
HETATM   15  H   UNL     1     -21.690  -7.855   1.419  1.00  0.00     0.217 HD
ENDBRANCH   4  14
TORSDOF 5
ENDMDL
MODEL 9
REMARK VINA RESULT:      -5.9     11.966     14.046
REMARK  5 active torsions:
REMARK  status: ('A' for Active; 'I' for Inactive)
REMARK    1  A    between atoms: C_2  and  C_4 
REMARK    2  A    between atoms: C_4  and  O_5 
REMARK    3  A    between atoms: O_5  and  C_6 
REMARK    4  A    between atoms: C_6  and  C_8 
REMARK    5  A    between atoms: C_11  and  O_14 
ROOT
HETATM    1  C   UNL     1     -20.858  -4.359  -8.983  1.00  0.00     0.039 A 
HETATM    2  C   UNL     1     -22.045  -4.520  -8.250  1.00  0.00     0.020 A 
HETATM    3  C   UNL     1     -21.998  -4.801  -6.882  1.00  0.00     0.037 A 
HETATM    4  C   UNL     1     -20.764  -4.919  -6.251  1.00  0.00     0.065 A 
HETATM    5  C   UNL     1     -19.580  -4.753  -6.962  1.00  0.00     0.037 A 
HETATM    6  C   UNL     1     -19.624  -4.465  -8.329  1.00  0.00     0.020 A 
ENDROOT
BRANCH   1   7
HETATM    7  C   UNL     1     -20.880  -3.999 -10.429  1.00  0.00     0.293 C 
HETATM    8  O   UNL     1     -19.977  -4.253 -11.206  1.00  0.00    -0.259 OA
BRANCH   7   9
HETATM    9  O   UNL     1     -22.015  -3.308 -10.708  1.00  0.00    -0.317 OA
BRANCH   9  10
HETATM   10  C   UNL     1     -22.024  -2.566 -11.934  1.00  0.00     0.183 C 
BRANCH  10  11
HETATM   11  C   UNL     1     -23.299  -2.784 -12.756  1.00  0.00     0.002 C 
HETATM   12  C   UNL     1     -23.024  -2.779 -14.262  1.00  0.00     0.011 C 
HETATM   13  C   UNL     1     -23.935  -4.115 -12.347  1.00  0.00     0.011 C 
ENDBRANCH  10  11
ENDBRANCH   9  10
ENDBRANCH   7   9
ENDBRANCH   1   7
BRANCH   4  14
HETATM   14  O   UNL     1     -20.675  -5.195  -4.919  1.00  0.00    -0.361 OA
HETATM   15  H   UNL     1     -20.296  -6.082  -4.807  1.00  0.00     0.217 HD
ENDBRANCH   4  14
TORSDOF 5
ENDMDL
