MODEL 1
REMARK VINA RESULT:      -5.8      0.000      0.000
REMARK  7 active torsions:
REMARK  status: ('A' for Active; 'I' for Inactive)
REMARK    1  A    between atoms: C_1  and  C_2 
REMARK    2  A    between atoms: C_1  and  C_7 
REMARK    3  A    between atoms: C_2  and  C_3 
REMARK    4  A    between atoms: C_3  and  C_4 
REMARK    5  A    between atoms: C_4  and  O_6 
REMARK    6  A    between atoms: C_7  and  C_8 
REMARK    7  A    between atoms: C_8  and  O_10 
ROOT
HETATM    1  C   UNL     1     -22.786  -2.603 -12.033  1.00  0.00     0.011 C 
ENDROOT
BRANCH   1   2
HETATM    2  C   UNL     1     -22.530  -3.735 -11.034  1.00  0.00     0.011 C 
BRANCH   2   3
HETATM    3  C   UNL     1     -23.798  -4.500 -10.666  1.00  0.00     0.110 C 
BRANCH   3   4
HETATM    4  C   UNL     1     -24.617  -3.735  -9.662  1.00  0.00     0.139 C 
HETATM    5  O   UNL     1     -25.626  -3.109  -9.947  1.00  0.00    -0.650 OA
BRANCH   4   6
HETATM    6  O   UNL     1     -24.117  -3.782  -8.408  1.00  0.00    -0.776 OA
HETATM    7  H   UNL     1     -23.855  -2.913  -8.049  1.00  0.00     0.167 HD
ENDBRANCH   4   6
ENDBRANCH   3   4
ENDBRANCH   2   3
ENDBRANCH   1   2
BRANCH   1   8
HETATM    8  C   UNL     1     -23.694  -3.017 -13.192  1.00  0.00     0.110 C 
BRANCH   8   9
HETATM    9  C   UNL     1     -23.484  -2.160 -14.417  1.00  0.00     0.139 C 
HETATM   10  O   UNL     1     -22.726  -2.415 -15.337  1.00  0.00    -0.650 OA
BRANCH   9  11
HETATM   11  O   UNL     1     -24.264  -1.053 -14.403  1.00  0.00    -0.776 OA
HETATM   12  H   UNL     1     -25.222  -1.243 -14.369  1.00  0.00     0.167 HD
ENDBRANCH   9  11
ENDBRANCH   8   9
ENDBRANCH   1   8
TORSDOF 7
ENDMDL
MODEL 2
REMARK VINA RESULT:      -5.8      0.925      4.448
REMARK  7 active torsions:
REMARK  status: ('A' for Active; 'I' for Inactive)
REMARK    1  A    between atoms: C_1  and  C_2 
REMARK    2  A    between atoms: C_1  and  C_7 
REMARK    3  A    between atoms: C_2  and  C_3 
REMARK    4  A    between atoms: C_3  and  C_4 
REMARK    5  A    between atoms: C_4  and  O_6 
REMARK    6  A    between atoms: C_7  and  C_8 
REMARK    7  A    between atoms: C_8  and  O_10 
ROOT
HETATM    1  C   UNL     1     -22.280  -4.333 -10.651  1.00  0.00     0.011 C 
ENDROOT
BRANCH   1   2
HETATM    2  C   UNL     1     -22.000  -3.933 -12.102  1.00  0.00     0.011 C 
BRANCH   2   3
HETATM    3  C   UNL     1     -22.572  -2.565 -12.463  1.00  0.00     0.110 C 
BRANCH   3   4
HETATM    4  C   UNL     1     -23.682  -2.694 -13.471  1.00  0.00     0.139 C 
HETATM    5  O   UNL     1     -23.500  -2.972 -14.646  1.00  0.00    -0.650 OA
BRANCH   4   6
HETATM    6  O   UNL     1     -24.908  -2.447 -12.960  1.00  0.00    -0.776 OA
HETATM    7  H   UNL     1     -25.038  -2.786 -12.054  1.00  0.00     0.167 HD
ENDBRANCH   4   6
ENDBRANCH   3   4
ENDBRANCH   2   3
ENDBRANCH   1   2
BRANCH   1   8
HETATM    8  C   UNL     1     -23.707  -4.840 -10.431  1.00  0.00     0.110 C 
BRANCH   8   9
HETATM    9  C   UNL     1     -24.554  -3.849  -9.670  1.00  0.00     0.139 C 
HETATM   10  O   UNL     1     -25.464  -3.188 -10.142  1.00  0.00    -0.650 OA
BRANCH   9  11
HETATM   11  O   UNL     1     -24.208  -3.781  -8.363  1.00  0.00    -0.776 OA
HETATM   12  H   UNL     1     -24.513  -2.969  -7.914  1.00  0.00     0.167 HD
ENDBRANCH   9  11
ENDBRANCH   8   9
ENDBRANCH   1   8
TORSDOF 7
ENDMDL
MODEL 3
REMARK VINA RESULT:      -5.2      1.219      5.221
REMARK  7 active torsions:
REMARK  status: ('A' for Active; 'I' for Inactive)
REMARK    1  A    between atoms: C_1  and  C_2 
REMARK    2  A    between atoms: C_1  and  C_7 
REMARK    3  A    between atoms: C_2  and  C_3 
REMARK    4  A    between atoms: C_3  and  C_4 
REMARK    5  A    between atoms: C_4  and  O_6 
REMARK    6  A    between atoms: C_7  and  C_8 
REMARK    7  A    between atoms: C_8  and  O_10 
ROOT
HETATM    1  C   UNL     1     -24.314  -3.377 -10.615  1.00  0.00     0.011 C 
ENDROOT
BRANCH   1   2
HETATM    2  C   UNL     1     -24.422  -3.214 -12.134  1.00  0.00     0.011 C 
BRANCH   2   3
HETATM    3  C   UNL     1     -23.174  -2.596 -12.756  1.00  0.00     0.110 C 
BRANCH   3   4
HETATM    4  C   UNL     1     -23.398  -2.279 -14.210  1.00  0.00     0.139 C 
HETATM    5  O   UNL     1     -22.809  -2.835 -15.123  1.00  0.00    -0.650 OA
BRANCH   4   6
HETATM    6  O   UNL     1     -24.302  -1.296 -14.416  1.00  0.00    -0.776 OA
HETATM    7  H   UNL     1     -25.182  -1.615 -14.690  1.00  0.00     0.167 HD
ENDBRANCH   4   6
ENDBRANCH   3   4
ENDBRANCH   2   3
ENDBRANCH   1   2
BRANCH   1   8
HETATM    8  C   UNL     1     -22.900  -3.728 -10.147  1.00  0.00     0.110 C 
BRANCH   8   9
HETATM    9  C   UNL     1     -22.810  -3.850  -8.645  1.00  0.00     0.139 C 
HETATM   10  O   UNL     1     -21.785  -3.766  -7.989  1.00  0.00    -0.650 OA
BRANCH   9  11
HETATM   11  O   UNL     1     -24.023  -4.044  -8.076  1.00  0.00    -0.776 OA
HETATM   12  H   UNL     1     -24.009  -4.647  -7.308  1.00  0.00     0.167 HD
ENDBRANCH   9  11
ENDBRANCH   8   9
ENDBRANCH   1   8
TORSDOF 7
ENDMDL
MODEL 4
REMARK VINA RESULT:      -5.2      1.539      2.182
REMARK  7 active torsions:
REMARK  status: ('A' for Active; 'I' for Inactive)
REMARK    1  A    between atoms: C_1  and  C_2 
REMARK    2  A    between atoms: C_1  and  C_7 
REMARK    3  A    between atoms: C_2  and  C_3 
REMARK    4  A    between atoms: C_3  and  C_4 
REMARK    5  A    between atoms: C_4  and  O_6 
REMARK    6  A    between atoms: C_7  and  C_8 
REMARK    7  A    between atoms: C_8  and  O_10 
ROOT
HETATM    1  C   UNL     1     -23.642  -3.049 -11.332  1.00  0.00     0.011 C 
ENDROOT
BRANCH   1   2
HETATM    2  C   UNL     1     -23.637  -4.339 -10.508  1.00  0.00     0.011 C 
BRANCH   2   3
HETATM    3  C   UNL     1     -22.385  -4.491  -9.649  1.00  0.00     0.110 C 
BRANCH   3   4
HETATM    4  C   UNL     1     -22.641  -4.031  -8.239  1.00  0.00     0.139 C 
HETATM    5  O   UNL     1     -21.762  -3.648  -7.483  1.00  0.00    -0.650 OA
BRANCH   4   6
HETATM    6  O   UNL     1     -23.939  -4.103  -7.874  1.00  0.00    -0.776 OA
HETATM    7  H   UNL     1     -24.505  -4.587  -8.504  1.00  0.00     0.167 HD
ENDBRANCH   4   6
ENDBRANCH   3   4
ENDBRANCH   2   3
ENDBRANCH   1   2
BRANCH   1   8
HETATM    8  C   UNL     1     -24.298  -3.213 -12.704  1.00  0.00     0.110 C 
BRANCH   8   9
HETATM    9  C   UNL     1     -23.326  -2.978 -13.834  1.00  0.00     0.139 C 
HETATM   10  O   UNL     1     -23.604  -2.486 -14.915  1.00  0.00    -0.650 OA
BRANCH   9  11
HETATM   11  O   UNL     1     -22.067  -3.357 -13.510  1.00  0.00    -0.776 OA
HETATM   12  H   UNL     1     -21.760  -4.156 -13.981  1.00  0.00     0.167 HD
ENDBRANCH   9  11
ENDBRANCH   8   9
ENDBRANCH   1   8
TORSDOF 7
ENDMDL
MODEL 5
REMARK VINA RESULT:      -5.1      3.045      4.376
REMARK  7 active torsions:
REMARK  status: ('A' for Active; 'I' for Inactive)
REMARK    1  A    between atoms: C_1  and  C_2 
REMARK    2  A    between atoms: C_1  and  C_7 
REMARK    3  A    between atoms: C_2  and  C_3 
REMARK    4  A    between atoms: C_3  and  C_4 
REMARK    5  A    between atoms: C_4  and  O_6 
REMARK    6  A    between atoms: C_7  and  C_8 
REMARK    7  A    between atoms: C_8  and  O_10 
ROOT
HETATM    1  C   UNL     1     -22.061  -3.540 -10.492  1.00  0.00     0.011 C 
ENDROOT
BRANCH   1   2
HETATM    2  C   UNL     1     -20.830  -4.388 -10.161  1.00  0.00     0.011 C 
BRANCH   2   3
HETATM    3  C   UNL     1     -20.207  -4.030  -8.815  1.00  0.00     0.110 C 
BRANCH   3   4
HETATM    4  C   UNL     1     -21.186  -4.250  -7.693  1.00  0.00     0.139 C 
HETATM    5  O   UNL     1     -21.607  -5.349  -7.368  1.00  0.00    -0.650 OA
BRANCH   4   6
HETATM    6  O   UNL     1     -21.579  -3.108  -7.088  1.00  0.00    -0.776 OA
HETATM    7  H   UNL     1     -22.128  -3.246  -6.294  1.00  0.00     0.167 HD
ENDBRANCH   4   6
ENDBRANCH   3   4
ENDBRANCH   2   3
ENDBRANCH   1   2
BRANCH   1   8
HETATM    8  C   UNL     1     -23.360  -4.348 -10.516  1.00  0.00     0.110 C 
BRANCH   8   9
HETATM    9  C   UNL     1     -24.441  -3.717  -9.672  1.00  0.00     0.139 C 
HETATM   10  O   UNL     1     -25.437  -3.159 -10.100  1.00  0.00    -0.650 OA
BRANCH   9  11
HETATM   11  O   UNL     1     -24.199  -3.856  -8.347  1.00  0.00    -0.776 OA
HETATM   12  H   UNL     1     -24.252  -4.779  -8.029  1.00  0.00     0.167 HD
ENDBRANCH   9  11
ENDBRANCH   8   9
ENDBRANCH   1   8
TORSDOF 7
ENDMDL
MODEL 6
REMARK VINA RESULT:      -5.1      1.973      4.920
REMARK  7 active torsions:
REMARK  status: ('A' for Active; 'I' for Inactive)
REMARK    1  A    between atoms: C_1  and  C_2 
REMARK    2  A    between atoms: C_1  and  C_7 
REMARK    3  A    between atoms: C_2  and  C_3 
REMARK    4  A    between atoms: C_3  and  C_4 
REMARK    5  A    between atoms: C_4  and  O_6 
REMARK    6  A    between atoms: C_7  and  C_8 
REMARK    7  A    between atoms: C_8  and  O_10 
ROOT
HETATM    1  C   UNL     1     -21.453  -3.705  -9.626  1.00  0.00     0.011 C 
ENDROOT
BRANCH   1   2
HETATM    2  C   UNL     1     -21.823  -3.666 -11.111  1.00  0.00     0.011 C 
BRANCH   2   3
HETATM    3  C   UNL     1     -23.175  -4.311 -11.404  1.00  0.00     0.110 C 
BRANCH   3   4
HETATM    4  C   UNL     1     -24.269  -3.277 -11.436  1.00  0.00     0.139 C 
HETATM    5  O   UNL     1     -25.185  -3.236 -10.630  1.00  0.00    -0.650 OA
BRANCH   4   6
HETATM    6  O   UNL     1     -24.158  -2.405 -12.461  1.00  0.00    -0.776 OA
HETATM    7  H   UNL     1     -23.261  -2.345 -12.839  1.00  0.00     0.167 HD
ENDBRANCH   4   6
ENDBRANCH   3   4
ENDBRANCH   2   3
ENDBRANCH   1   2
BRANCH   1   8
HETATM    8  C   UNL     1     -22.032  -4.917  -8.893  1.00  0.00     0.110 C 
BRANCH   8   9
HETATM    9  C   UNL     1     -22.812  -4.521  -7.663  1.00  0.00     0.139 C 
HETATM   10  O   UNL     1     -22.436  -4.662  -6.511  1.00  0.00    -0.650 OA
BRANCH   9  11
HETATM   11  O   UNL     1     -24.001  -3.954  -7.975  1.00  0.00    -0.776 OA
HETATM   12  H   UNL     1     -23.934  -3.222  -8.619  1.00  0.00     0.167 HD
ENDBRANCH   9  11
ENDBRANCH   8   9
ENDBRANCH   1   8
TORSDOF 7
ENDMDL
MODEL 7
REMARK VINA RESULT:      -5.0     17.164     18.858
REMARK  7 active torsions:
REMARK  status: ('A' for Active; 'I' for Inactive)
REMARK    1  A    between atoms: C_1  and  C_2 
REMARK    2  A    between atoms: C_1  and  C_7 
REMARK    3  A    between atoms: C_2  and  C_3 
REMARK    4  A    between atoms: C_3  and  C_4 
REMARK    5  A    between atoms: C_4  and  O_6 
REMARK    6  A    between atoms: C_7  and  C_8 
REMARK    7  A    between atoms: C_8  and  O_10 
ROOT
HETATM    1  C   UNL     1     -10.240   6.997 -21.203  1.00  0.00     0.011 C 
ENDROOT
BRANCH   1   2
HETATM    2  C   UNL     1      -9.445   8.255 -20.841  1.00  0.00     0.011 C 
BRANCH   2   3
HETATM    3  C   UNL     1     -10.329   9.390 -20.332  1.00  0.00     0.110 C 
BRANCH   3   4
HETATM    4  C   UNL     1     -10.916   9.054 -18.988  1.00  0.00     0.139 C 
HETATM    5  O   UNL     1     -12.116   8.987 -18.771  1.00  0.00    -0.650 OA
BRANCH   4   6
HETATM    6  O   UNL     1      -9.988   8.854 -18.027  1.00  0.00    -0.776 OA
HETATM    7  H   UNL     1     -10.282   8.268 -17.304  1.00  0.00     0.167 HD
ENDBRANCH   4   6
ENDBRANCH   3   4
ENDBRANCH   2   3
ENDBRANCH   1   2
BRANCH   1   8
HETATM    8  C   UNL     1      -9.762   5.748 -20.460  1.00  0.00     0.110 C 
BRANCH   8   9
HETATM    9  C   UNL     1     -10.447   5.580 -19.126  1.00  0.00     0.139 C 
HETATM   10  O   UNL     1     -11.608   5.242 -18.964  1.00  0.00    -0.650 OA
BRANCH   9  11
HETATM   11  O   UNL     1      -9.611   5.828 -18.090  1.00  0.00    -0.776 OA
HETATM   12  H   UNL     1      -9.950   5.522 -17.226  1.00  0.00     0.167 HD
ENDBRANCH   9  11
ENDBRANCH   8   9
ENDBRANCH   1   8
TORSDOF 7
ENDMDL
MODEL 8
REMARK VINA RESULT:      -4.9      2.160      2.668
REMARK  7 active torsions:
REMARK  status: ('A' for Active; 'I' for Inactive)
REMARK    1  A    between atoms: C_1  and  C_2 
REMARK    2  A    between atoms: C_1  and  C_7 
REMARK    3  A    between atoms: C_2  and  C_3 
REMARK    4  A    between atoms: C_3  and  C_4 
REMARK    5  A    between atoms: C_4  and  O_6 
REMARK    6  A    between atoms: C_7  and  C_8 
REMARK    7  A    between atoms: C_8  and  O_10 
ROOT
HETATM    1  C   UNL     1     -22.220  -3.626 -12.338  1.00  0.00     0.011 C 
ENDROOT
BRANCH   1   2
HETATM    2  C   UNL     1     -21.154  -3.151 -11.346  1.00  0.00     0.011 C 
BRANCH   2   3
HETATM    3  C   UNL     1     -20.366  -4.300 -10.726  1.00  0.00     0.110 C 
BRANCH   3   4
HETATM    4  C   UNL     1     -20.710  -4.465  -9.269  1.00  0.00     0.139 C 
HETATM    5  O   UNL     1     -21.811  -4.808  -8.869  1.00  0.00    -0.650 OA
BRANCH   4   6
HETATM    6  O   UNL     1     -19.688  -4.173  -8.436  1.00  0.00    -0.776 OA
HETATM    7  H   UNL     1     -18.981  -3.638  -8.843  1.00  0.00     0.167 HD
ENDBRANCH   4   6
ENDBRANCH   3   4
ENDBRANCH   2   3
ENDBRANCH   1   2
BRANCH   1   8
HETATM    8  C   UNL     1     -23.297  -2.575 -12.613  1.00  0.00     0.110 C 
BRANCH   8   9
HETATM    9  C   UNL     1     -23.444  -2.280 -14.086  1.00  0.00     0.139 C 
HETATM   10  O   UNL     1     -22.829  -2.832 -14.982  1.00  0.00    -0.650 OA
BRANCH   9  11
HETATM   11  O   UNL     1     -24.376  -1.327 -14.324  1.00  0.00    -0.776 OA
HETATM   12  H   UNL     1     -24.833  -1.010 -13.521  1.00  0.00     0.167 HD
ENDBRANCH   9  11
ENDBRANCH   8   9
ENDBRANCH   1   8
TORSDOF 7
ENDMDL
MODEL 9
REMARK VINA RESULT:      -4.8      2.164      2.838
REMARK  7 active torsions:
REMARK  status: ('A' for Active; 'I' for Inactive)
REMARK    1  A    between atoms: C_1  and  C_2 
REMARK    2  A    between atoms: C_1  and  C_7 
REMARK    3  A    between atoms: C_2  and  C_3 
REMARK    4  A    between atoms: C_3  and  C_4 
REMARK    5  A    between atoms: C_4  and  O_6 
REMARK    6  A    between atoms: C_7  and  C_8 
REMARK    7  A    between atoms: C_8  and  O_10 
ROOT
HETATM    1  C   UNL     1     -22.197  -4.237 -11.697  1.00  0.00     0.011 C 
ENDROOT
BRANCH   1   2
HETATM    2  C   UNL     1     -21.511  -3.892 -10.372  1.00  0.00     0.011 C 
BRANCH   2   3
HETATM    3  C   UNL     1     -22.445  -4.012  -9.171  1.00  0.00     0.110 C 
BRANCH   3   4
HETATM    4  C   UNL     1     -21.668  -4.268  -7.908  1.00  0.00     0.139 C 
HETATM    5  O   UNL     1     -21.348  -3.391  -7.120  1.00  0.00    -0.650 OA
BRANCH   4   6
HETATM    6  O   UNL     1     -21.332  -5.564  -7.733  1.00  0.00    -0.776 OA
HETATM    7  H   UNL     1     -20.647  -5.886  -8.349  1.00  0.00     0.167 HD
ENDBRANCH   4   6
ENDBRANCH   3   4
ENDBRANCH   2   3
ENDBRANCH   1   2
BRANCH   1   8
HETATM    8  C   UNL     1     -22.505  -3.007 -12.553  1.00  0.00     0.110 C 
BRANCH   8   9
HETATM    9  C   UNL     1     -23.784  -3.164 -13.339  1.00  0.00     0.139 C 
HETATM   10  O   UNL     1     -24.907  -2.956 -12.911  1.00  0.00    -0.650 OA
BRANCH   9  11
HETATM   11  O   UNL     1     -23.553  -3.549 -14.616  1.00  0.00    -0.776 OA
HETATM   12  H   UNL     1     -22.827  -4.196 -14.710  1.00  0.00     0.167 HD
ENDBRANCH   9  11
ENDBRANCH   8   9
ENDBRANCH   1   8
TORSDOF 7
ENDMDL
