MODEL 1
REMARK VINA RESULT:      -5.3      0.000      0.000
REMARK  2 active torsions:
REMARK  status: ('A' for Active; 'I' for Inactive)
REMARK    1  A    between atoms: C_4  and  C_7 
REMARK    2  A    between atoms: C_7  and  O_8 
ROOT
HETATM    1  C   UNL     1     -22.940  -3.877  -9.800  1.00  0.00     0.000 A 
HETATM    2  C   UNL     1     -21.774  -3.958 -10.557  1.00  0.00     0.001 A 
HETATM    3  C   UNL     1     -21.791  -3.623 -11.912  1.00  0.00     0.009 A 
HETATM    4  C   UNL     1     -22.979  -3.200 -12.526  1.00  0.00    -0.035 A 
HETATM    5  C   UNL     1     -24.148  -3.129 -11.752  1.00  0.00     0.009 A 
HETATM    6  C   UNL     1     -24.129  -3.467 -10.398  1.00  0.00     0.001 A 
ENDROOT
BRANCH   4   7
HETATM    7  C   UNL     1     -23.007  -2.786 -13.973  1.00  0.00     0.202 C 
BRANCH   7   8
HETATM    8  O   UNL     1     -23.744  -3.720 -14.753  1.00  0.00    -0.396 OA
HETATM    9  H   UNL     1     -24.240  -3.199 -15.412  1.00  0.00     0.209 HD
ENDBRANCH   7   8
ENDBRANCH   4   7
TORSDOF 2
ENDMDL
MODEL 2
REMARK VINA RESULT:      -5.3      2.032      2.655
REMARK  2 active torsions:
REMARK  status: ('A' for Active; 'I' for Inactive)
REMARK    1  A    between atoms: C_4  and  C_7 
REMARK    2  A    between atoms: C_7  and  O_8 
ROOT
HETATM    1  C   UNL     1     -20.417  -4.303  -9.625  1.00  0.00     0.000 A 
HETATM    2  C   UNL     1     -20.453  -4.026 -10.989  1.00  0.00     0.001 A 
HETATM    3  C   UNL     1     -21.661  -3.694 -11.607  1.00  0.00     0.009 A 
HETATM    4  C   UNL     1     -22.848  -3.634 -10.862  1.00  0.00    -0.035 A 
HETATM    5  C   UNL     1     -22.796  -3.921  -9.490  1.00  0.00     0.009 A 
HETATM    6  C   UNL     1     -21.589  -4.255  -8.875  1.00  0.00     0.001 A 
ENDROOT
BRANCH   4   7
HETATM    7  C   UNL     1     -24.150  -3.228 -11.500  1.00  0.00     0.202 C 
BRANCH   7   8
HETATM    8  O   UNL     1     -25.192  -3.170 -10.532  1.00  0.00    -0.396 OA
HETATM    9  H   UNL     1     -25.361  -2.225 -10.365  1.00  0.00     0.209 HD
ENDBRANCH   7   8
ENDBRANCH   4   7
TORSDOF 2
ENDMDL
MODEL 3
REMARK VINA RESULT:      -5.3      2.019      2.908
REMARK  2 active torsions:
REMARK  status: ('A' for Active; 'I' for Inactive)
REMARK    1  A    between atoms: C_4  and  C_7 
REMARK    2  A    between atoms: C_7  and  O_8 
ROOT
HETATM    1  C   UNL     1     -20.400  -4.389  -9.695  1.00  0.00     0.000 A 
HETATM    2  C   UNL     1     -21.555  -4.313  -8.921  1.00  0.00     0.001 A 
HETATM    3  C   UNL     1     -22.764  -3.920  -9.500  1.00  0.00     0.009 A 
HETATM    4  C   UNL     1     -22.828  -3.602 -10.865  1.00  0.00    -0.035 A 
HETATM    5  C   UNL     1     -21.655  -3.678 -11.630  1.00  0.00     0.009 A 
HETATM    6  C   UNL     1     -20.448  -4.068 -11.048  1.00  0.00     0.001 A 
ENDROOT
BRANCH   4   7
HETATM    7  C   UNL     1     -24.131  -3.226 -11.518  1.00  0.00     0.202 C 
BRANCH   7   8
HETATM    8  O   UNL     1     -25.184  -3.184 -10.561  1.00  0.00    -0.396 OA
HETATM    9  H   UNL     1     -26.017  -3.161 -11.067  1.00  0.00     0.209 HD
ENDBRANCH   7   8
ENDBRANCH   4   7
TORSDOF 2
ENDMDL
MODEL 4
REMARK VINA RESULT:      -5.3      0.236      1.713
REMARK  2 active torsions:
REMARK  status: ('A' for Active; 'I' for Inactive)
REMARK    1  A    between atoms: C_4  and  C_7 
REMARK    2  A    between atoms: C_7  and  O_8 
ROOT
HETATM    1  C   UNL     1     -22.695  -4.032  -9.808  1.00  0.00     0.000 A 
HETATM    2  C   UNL     1     -23.961  -3.632 -10.226  1.00  0.00     0.001 A 
HETATM    3  C   UNL     1     -24.156  -3.161 -11.526  1.00  0.00     0.009 A 
HETATM    4  C   UNL     1     -23.081  -3.088 -12.424  1.00  0.00    -0.035 A 
HETATM    5  C   UNL     1     -21.810  -3.490 -11.987  1.00  0.00     0.009 A 
HETATM    6  C   UNL     1     -21.618  -3.957 -10.686  1.00  0.00     0.001 A 
ENDROOT
BRANCH   4   7
HETATM    7  C   UNL     1     -23.281  -2.631 -13.845  1.00  0.00     0.202 C 
BRANCH   7   8
HETATM    8  O   UNL     1     -23.692  -3.714 -14.672  1.00  0.00    -0.396 OA
HETATM    9  H   UNL     1     -23.705  -3.374 -15.585  1.00  0.00     0.209 HD
ENDBRANCH   7   8
ENDBRANCH   4   7
TORSDOF 2
ENDMDL
MODEL 5
REMARK VINA RESULT:      -5.0     11.210     11.893
REMARK  2 active torsions:
REMARK  status: ('A' for Active; 'I' for Inactive)
REMARK    1  A    between atoms: C_4  and  C_7 
REMARK    2  A    between atoms: C_7  and  O_8 
ROOT
HETATM    1  C   UNL     1     -24.480   9.569 -11.950  1.00  0.00     0.000 A 
HETATM    2  C   UNL     1     -25.651   9.691 -11.205  1.00  0.00     0.001 A 
HETATM    3  C   UNL     1     -26.240   8.561 -10.634  1.00  0.00     0.009 A 
HETATM    4  C   UNL     1     -25.661   7.294 -10.802  1.00  0.00    -0.035 A 
HETATM    5  C   UNL     1     -24.485   7.188 -11.560  1.00  0.00     0.009 A 
HETATM    6  C   UNL     1     -23.899   8.317 -12.132  1.00  0.00     0.001 A 
ENDROOT
BRANCH   4   7
HETATM    7  C   UNL     1     -26.253   6.073 -10.152  1.00  0.00     0.202 C 
BRANCH   7   8
HETATM    8  O   UNL     1     -25.319   4.999 -10.145  1.00  0.00    -0.396 OA
HETATM    9  H   UNL     1     -25.751   4.260  -9.679  1.00  0.00     0.209 HD
ENDBRANCH   7   8
ENDBRANCH   4   7
TORSDOF 2
ENDMDL
MODEL 6
REMARK VINA RESULT:      -5.0      1.764      2.986
REMARK  2 active torsions:
REMARK  status: ('A' for Active; 'I' for Inactive)
REMARK    1  A    between atoms: C_4  and  C_7 
REMARK    2  A    between atoms: C_7  and  O_8 
ROOT
HETATM    1  C   UNL     1     -20.867  -4.451  -8.104  1.00  0.00     0.000 A 
HETATM    2  C   UNL     1     -22.164  -3.946  -8.161  1.00  0.00     0.001 A 
HETATM    3  C   UNL     1     -22.710  -3.551  -9.385  1.00  0.00     0.009 A 
HETATM    4  C   UNL     1     -21.963  -3.661 -10.566  1.00  0.00    -0.035 A 
HETATM    5  C   UNL     1     -20.656  -4.167 -10.491  1.00  0.00     0.009 A 
HETATM    6  C   UNL     1     -20.111  -4.558  -9.267  1.00  0.00     0.001 A 
ENDROOT
BRANCH   4   7
HETATM    7  C   UNL     1     -22.552  -3.290 -11.901  1.00  0.00     0.202 C 
BRANCH   7   8
HETATM    8  O   UNL     1     -21.698  -3.697 -12.963  1.00  0.00    -0.396 OA
HETATM    9  H   UNL     1     -21.119  -2.938 -13.159  1.00  0.00     0.209 HD
ENDBRANCH   7   8
ENDBRANCH   4   7
TORSDOF 2
ENDMDL
MODEL 7
REMARK VINA RESULT:      -4.8      3.723      4.897
REMARK  2 active torsions:
REMARK  status: ('A' for Active; 'I' for Inactive)
REMARK    1  A    between atoms: C_4  and  C_7 
REMARK    2  A    between atoms: C_7  and  O_8 
ROOT
HETATM    1  C   UNL     1     -19.589  -4.771  -6.669  1.00  0.00     0.000 A 
HETATM    2  C   UNL     1     -19.399  -4.383  -7.993  1.00  0.00     0.001 A 
HETATM    3  C   UNL     1     -20.498  -4.097  -8.806  1.00  0.00     0.009 A 
HETATM    4  C   UNL     1     -21.802  -4.195  -8.299  1.00  0.00    -0.035 A 
HETATM    5  C   UNL     1     -21.977  -4.592  -6.965  1.00  0.00     0.009 A 
HETATM    6  C   UNL     1     -20.878  -4.880  -6.156  1.00  0.00     0.001 A 
ENDROOT
BRANCH   4   7
HETATM    7  C   UNL     1     -22.997  -3.842  -9.144  1.00  0.00     0.202 C 
BRANCH   7   8
HETATM    8  O   UNL     1     -24.183  -3.809  -8.358  1.00  0.00    -0.396 OA
HETATM    9  H   UNL     1     -24.489  -4.731  -8.282  1.00  0.00     0.209 HD
ENDBRANCH   7   8
ENDBRANCH   4   7
TORSDOF 2
ENDMDL
MODEL 8
REMARK VINA RESULT:      -4.8     20.703     21.566
REMARK  2 active torsions:
REMARK  status: ('A' for Active; 'I' for Inactive)
REMARK    1  A    between atoms: C_4  and  C_7 
REMARK    2  A    between atoms: C_7  and  O_8 
ROOT
HETATM    1  C   UNL     1     -14.240   8.667   0.788  1.00  0.00     0.000 A 
HETATM    2  C   UNL     1     -13.324   9.595   1.276  1.00  0.00     0.001 A 
HETATM    3  C   UNL     1     -13.136   9.740   2.652  1.00  0.00     0.009 A 
HETATM    4  C   UNL     1     -13.865   8.953   3.556  1.00  0.00    -0.035 A 
HETATM    5  C   UNL     1     -14.788   8.026   3.049  1.00  0.00     0.009 A 
HETATM    6  C   UNL     1     -14.976   7.885   1.674  1.00  0.00     0.001 A 
ENDROOT
BRANCH   4   7
HETATM    7  C   UNL     1     -13.639   9.059   5.041  1.00  0.00     0.202 C 
BRANCH   7   8
HETATM    8  O   UNL     1     -14.352   8.041   5.735  1.00  0.00    -0.396 OA
HETATM    9  H   UNL     1     -13.783   7.761   6.475  1.00  0.00     0.209 HD
ENDBRANCH   7   8
ENDBRANCH   4   7
TORSDOF 2
ENDMDL
MODEL 9
REMARK VINA RESULT:      -4.8     20.737     21.637
REMARK  2 active torsions:
REMARK  status: ('A' for Active; 'I' for Inactive)
REMARK    1  A    between atoms: C_4  and  C_7 
REMARK    2  A    between atoms: C_7  and  O_8 
ROOT
HETATM    1  C   UNL     1     -14.202   8.747   0.818  1.00  0.00     0.000 A 
HETATM    2  C   UNL     1     -14.955   7.937   1.665  1.00  0.00     0.001 A 
HETATM    3  C   UNL     1     -14.782   8.016   3.049  1.00  0.00     0.009 A 
HETATM    4  C   UNL     1     -13.852   8.909   3.600  1.00  0.00    -0.035 A 
HETATM    5  C   UNL     1     -13.098   9.715   2.734  1.00  0.00     0.009 A 
HETATM    6  C   UNL     1     -13.270   9.633   1.352  1.00  0.00     0.001 A 
ENDROOT
BRANCH   4   7
HETATM    7  C   UNL     1     -13.688   9.044   5.091  1.00  0.00     0.202 C 
BRANCH   7   8
HETATM    8  O   UNL     1     -14.426   8.038   5.775  1.00  0.00    -0.396 OA
HETATM    9  H   UNL     1     -15.016   7.631   5.114  1.00  0.00     0.209 HD
ENDBRANCH   7   8
ENDBRANCH   4   7
TORSDOF 2
ENDMDL
