MODEL 1
REMARK VINA RESULT:      -6.3      0.000      0.000
REMARK  7 active torsions:
REMARK  status: ('A' for Active; 'I' for Inactive)
REMARK    1  A    between atoms: C_1  and  C_2 
REMARK    2  A    between atoms: C_1  and  C_8 
REMARK    3  A    between atoms: C_2  and  CA_3 
REMARK    4  A    between atoms: CA_3  and  C_4 
REMARK    5  A    between atoms: CA_3  and  N_7 
REMARK    6  A    between atoms: C_4  and  OXT_6 
REMARK    7  A    between atoms: C_8  and  N_9 
REMARK       I    between atoms: N_9  and  C_10 
REMARK       I    between atoms: C_10  and  N_12 
ROOT
HETATM    1  C   UNL     1     -22.122  -2.932 -11.710  1.00  0.00     0.022 C 
ENDROOT
BRANCH   1   2
HETATM    2  C   UNL     1     -22.292  -3.876 -10.511  1.00  0.00     0.048 C 
BRANCH   2   3
HETATM    3  CA  UNL     1     -23.238  -3.306  -9.442  1.00  0.00     0.314 C 
BRANCH   3   4
HETATM    4  C   UNL     1     -24.706  -3.732  -9.678  1.00  0.00     0.173 C 
HETATM    5  O   UNL     1     -25.615  -2.943  -9.899  1.00  0.00    -0.648 OA
BRANCH   4   6
HETATM    6  OXT UNL     1     -24.903  -5.068  -9.663  1.00  0.00    -0.775 OA
HETATM    7  HXT UNL     1     -24.536  -5.530  -8.886  1.00  0.00     0.167 HD
ENDBRANCH   4   6
ENDBRANCH   3   4
BRANCH   3   8
HETATM    8  N   UNL     1     -22.809  -3.774  -8.104  1.00  0.00     0.093 N 
HETATM    9  H1  UNL     1     -23.369  -3.277  -7.405  1.00  0.00     0.314 HD
HETATM   10  H2  UNL     1     -21.864  -3.416  -7.935  1.00  0.00     0.314 HD
ENDBRANCH   3   8
ENDBRANCH   2   3
ENDBRANCH   1   2
BRANCH   1  11
HETATM   11  C   UNL     1     -23.091  -3.262 -12.843  1.00  0.00     0.124 C 
BRANCH  11  12
HETATM   12  N   UNL     1     -23.709  -2.067 -13.378  1.00  0.00    -0.343 N 
HETATM   13  C   UNL     1     -23.501  -1.681 -14.672  1.00  0.00     0.313 C 
HETATM   14  O   UNL     1     -22.756  -2.240 -15.462  1.00  0.00    -0.248 OA
HETATM   15  N   UNL     1     -24.172  -0.555 -15.004  1.00  0.00    -0.352 N 
HETATM   16  H   UNL     1     -24.887  -0.149 -14.424  1.00  0.00     0.160 HD
HETATM   17  H   UNL     1     -24.068  -0.227 -15.955  1.00  0.00     0.160 HD
HETATM   18  H   UNL     1     -24.526  -1.705 -12.913  1.00  0.00     0.164 HD
ENDBRANCH  11  12
ENDBRANCH   1  11
TORSDOF 7
ENDMDL
MODEL 2
REMARK VINA RESULT:      -6.3      2.122      5.001
REMARK  7 active torsions:
REMARK  status: ('A' for Active; 'I' for Inactive)
REMARK    1  A    between atoms: C_1  and  C_2 
REMARK    2  A    between atoms: C_1  and  C_8 
REMARK    3  A    between atoms: C_2  and  CA_3 
REMARK    4  A    between atoms: CA_3  and  C_4 
REMARK    5  A    between atoms: CA_3  and  N_7 
REMARK    6  A    between atoms: C_4  and  OXT_6 
REMARK    7  A    between atoms: C_8  and  N_9 
REMARK       I    between atoms: N_9  and  C_10 
REMARK       I    between atoms: C_10  and  N_12 
ROOT
HETATM    1  C   UNL     1     -20.515  -3.929 -11.183  1.00  0.00     0.022 C 
ENDROOT
BRANCH   1   2
HETATM    2  C   UNL     1     -21.591  -2.898 -11.557  1.00  0.00     0.048 C 
BRANCH   2   3
HETATM    3  CA  UNL     1     -22.702  -3.500 -12.432  1.00  0.00     0.314 C 
BRANCH   3   4
HETATM    4  C   UNL     1     -24.107  -3.007 -12.009  1.00  0.00     0.173 C 
HETATM    5  O   UNL     1     -24.551  -3.115 -10.874  1.00  0.00    -0.648 OA
BRANCH   4   6
HETATM    6  OXT UNL     1     -24.799  -2.399 -12.996  1.00  0.00    -0.775 OA
HETATM    7  HXT UNL     1     -24.252  -1.988 -13.691  1.00  0.00     0.167 HD
ENDBRANCH   4   6
ENDBRANCH   3   4
BRANCH   3   8
HETATM    8  N   UNL     1     -22.468  -3.132 -13.848  1.00  0.00     0.093 N 
HETATM    9  H1  UNL     1     -21.907  -3.875 -14.274  1.00  0.00     0.314 HD
HETATM   10  H2  UNL     1     -21.833  -2.329 -13.862  1.00  0.00     0.314 HD
ENDBRANCH   3   8
ENDBRANCH   2   3
ENDBRANCH   1   2
BRANCH   1  11
HETATM   11  C   UNL     1     -20.661  -4.414  -9.743  1.00  0.00     0.124 C 
BRANCH  11  12
HETATM   12  N   UNL     1     -22.049  -4.457  -9.335  1.00  0.00    -0.343 N 
HETATM   13  C   UNL     1     -22.444  -3.988  -8.115  1.00  0.00     0.313 C 
HETATM   14  O   UNL     1     -21.696  -3.560  -7.249  1.00  0.00    -0.248 OA
HETATM   15  N   UNL     1     -23.778  -4.089  -7.914  1.00  0.00    -0.352 N 
HETATM   16  H   UNL     1     -24.431  -4.312  -8.646  1.00  0.00     0.160 HD
HETATM   17  H   UNL     1     -24.132  -3.744  -7.032  1.00  0.00     0.160 HD
HETATM   18  H   UNL     1     -22.753  -4.530 -10.053  1.00  0.00     0.164 HD
ENDBRANCH  11  12
ENDBRANCH   1  11
TORSDOF 7
ENDMDL
MODEL 3
REMARK VINA RESULT:      -6.2      1.734      1.938
REMARK  7 active torsions:
REMARK  status: ('A' for Active; 'I' for Inactive)
REMARK    1  A    between atoms: C_1  and  C_2 
REMARK    2  A    between atoms: C_1  and  C_8 
REMARK    3  A    between atoms: C_2  and  CA_3 
REMARK    4  A    between atoms: CA_3  and  C_4 
REMARK    5  A    between atoms: CA_3  and  N_7 
REMARK    6  A    between atoms: C_4  and  OXT_6 
REMARK    7  A    between atoms: C_8  and  N_9 
REMARK       I    between atoms: N_9  and  C_10 
REMARK       I    between atoms: C_10  and  N_12 
ROOT
HETATM    1  C   UNL     1     -24.268  -3.483 -12.045  1.00  0.00     0.022 C 
ENDROOT
BRANCH   1   2
HETATM    2  C   UNL     1     -23.647  -4.512 -11.089  1.00  0.00     0.048 C 
BRANCH   2   3
HETATM    3  CA  UNL     1     -24.326  -4.518  -9.710  1.00  0.00     0.314 C 
BRANCH   3   4
HETATM    4  C   UNL     1     -23.357  -4.094  -8.582  1.00  0.00     0.173 C 
HETATM    5  O   UNL     1     -22.204  -3.735  -8.776  1.00  0.00    -0.648 OA
BRANCH   4   6
HETATM    6  OXT UNL     1     -23.906  -4.108  -7.347  1.00  0.00    -0.775 OA
HETATM    7  HXT UNL     1     -23.525  -4.765  -6.734  1.00  0.00     0.167 HD
ENDBRANCH   4   6
ENDBRANCH   3   4
BRANCH   3   8
HETATM    8  N   UNL     1     -25.483  -3.592  -9.727  1.00  0.00     0.093 N 
HETATM    9  H1  UNL     1     -26.000  -3.724  -8.853  1.00  0.00     0.314 HD
HETATM   10  H2  UNL     1     -26.142  -3.927 -10.435  1.00  0.00     0.314 HD
ENDBRANCH   3   8
ENDBRANCH   2   3
ENDBRANCH   1   2
BRANCH   1  11
HETATM   11  C   UNL     1     -23.208  -2.718 -12.833  1.00  0.00     0.124 C 
BRANCH  11  12
HETATM   12  N   UNL     1     -23.795  -1.649 -13.613  1.00  0.00    -0.343 N 
HETATM   13  C   UNL     1     -23.452  -1.455 -14.921  1.00  0.00     0.313 C 
HETATM   14  O   UNL     1     -22.604  -2.092 -15.529  1.00  0.00    -0.248 OA
HETATM   15  N   UNL     1     -24.114  -0.425 -15.496  1.00  0.00    -0.352 N 
HETATM   16  H   UNL     1     -24.903   0.030 -15.069  1.00  0.00     0.160 HD
HETATM   17  H   UNL     1     -23.911  -0.242 -16.470  1.00  0.00     0.160 HD
HETATM   18  H   UNL     1     -24.671  -1.260 -13.303  1.00  0.00     0.164 HD
ENDBRANCH  11  12
ENDBRANCH   1  11
TORSDOF 7
ENDMDL
MODEL 4
REMARK VINA RESULT:      -6.2     10.742     11.977
REMARK  7 active torsions:
REMARK  status: ('A' for Active; 'I' for Inactive)
REMARK    1  A    between atoms: C_1  and  C_2 
REMARK    2  A    between atoms: C_1  and  C_8 
REMARK    3  A    between atoms: C_2  and  CA_3 
REMARK    4  A    between atoms: CA_3  and  C_4 
REMARK    5  A    between atoms: CA_3  and  N_7 
REMARK    6  A    between atoms: C_4  and  OXT_6 
REMARK    7  A    between atoms: C_8  and  N_9 
REMARK       I    between atoms: N_9  and  C_10 
REMARK       I    between atoms: C_10  and  N_12 
ROOT
HETATM    1  C   UNL     1     -33.903  -4.293 -10.527  1.00  0.00     0.022 C 
ENDROOT
BRANCH   1   2
HETATM    2  C   UNL     1     -33.175  -3.243 -11.379  1.00  0.00     0.048 C 
BRANCH   2   3
HETATM    3  CA  UNL     1     -33.986  -1.947 -11.534  1.00  0.00     0.314 C 
BRANCH   3   4
HETATM    4  C   UNL     1     -35.022  -2.042 -12.680  1.00  0.00     0.173 C 
HETATM    5  O   UNL     1     -36.117  -1.499 -12.652  1.00  0.00    -0.648 OA
BRANCH   4   6
HETATM    6  OXT UNL     1     -34.598  -2.749 -13.751  1.00  0.00    -0.775 OA
HETATM    7  HXT UNL     1     -35.210  -2.753 -14.511  1.00  0.00     0.167 HD
ENDBRANCH   4   6
ENDBRANCH   3   4
BRANCH   3   8
HETATM    8  N   UNL     1     -34.695  -1.654 -10.266  1.00  0.00     0.093 N 
HETATM    9  H1  UNL     1     -35.578  -1.191 -10.503  1.00  0.00     0.314 HD
HETATM   10  H2  UNL     1     -34.175  -0.919  -9.779  1.00  0.00     0.314 HD
ENDBRANCH   3   8
ENDBRANCH   2   3
ENDBRANCH   1   2
BRANCH   1  11
HETATM   11  C   UNL     1     -34.506  -5.407 -11.380  1.00  0.00     0.124 C 
BRANCH  11  12
HETATM   12  N   UNL     1     -33.824  -6.666 -11.166  1.00  0.00    -0.343 N 
HETATM   13  C   UNL     1     -34.316  -7.601 -10.300  1.00  0.00     0.313 C 
HETATM   14  O   UNL     1     -35.304  -7.457  -9.596  1.00  0.00    -0.248 OA
HETATM   15  N   UNL     1     -33.561  -8.722 -10.244  1.00  0.00    -0.352 N 
HETATM   16  H   UNL     1     -32.824  -8.923 -10.898  1.00  0.00     0.160 HD
HETATM   17  H   UNL     1     -33.884  -9.456  -9.629  1.00  0.00     0.160 HD
HETATM   18  H   UNL     1     -33.181  -6.985 -11.875  1.00  0.00     0.164 HD
ENDBRANCH  11  12
ENDBRANCH   1  11
TORSDOF 7
ENDMDL
MODEL 5
REMARK VINA RESULT:      -6.1      1.678      5.094
REMARK  7 active torsions:
REMARK  status: ('A' for Active; 'I' for Inactive)
REMARK    1  A    between atoms: C_1  and  C_2 
REMARK    2  A    between atoms: C_1  and  C_8 
REMARK    3  A    between atoms: C_2  and  CA_3 
REMARK    4  A    between atoms: CA_3  and  C_4 
REMARK    5  A    between atoms: CA_3  and  N_7 
REMARK    6  A    between atoms: C_4  and  OXT_6 
REMARK    7  A    between atoms: C_8  and  N_9 
REMARK       I    between atoms: N_9  and  C_10 
REMARK       I    between atoms: C_10  and  N_12 
ROOT
HETATM    1  C   UNL     1     -21.422  -3.053 -11.368  1.00  0.00     0.022 C 
ENDROOT
BRANCH   1   2
HETATM    2  C   UNL     1     -22.265  -3.401 -12.603  1.00  0.00     0.048 C 
BRANCH   2   3
HETATM    3  CA  UNL     1     -23.490  -2.485 -12.756  1.00  0.00     0.314 C 
BRANCH   3   4
HETATM    4  C   UNL     1     -23.717  -2.055 -14.225  1.00  0.00     0.173 C 
HETATM    5  O   UNL     1     -23.314  -2.692 -15.189  1.00  0.00    -0.648 OA
BRANCH   4   6
HETATM    6  OXT UNL     1     -24.445  -0.925 -14.364  1.00  0.00    -0.775 OA
HETATM    7  HXT UNL     1     -25.218  -1.003 -14.953  1.00  0.00     0.167 HD
ENDBRANCH   4   6
ENDBRANCH   3   4
BRANCH   3   8
HETATM    8  N   UNL     1     -24.698  -3.192 -12.268  1.00  0.00     0.093 N 
HETATM    9  H1  UNL     1     -24.856  -2.905 -11.298  1.00  0.00     0.314 HD
HETATM   10  H2  UNL     1     -24.464  -4.185 -12.177  1.00  0.00     0.314 HD
ENDBRANCH   3   8
ENDBRANCH   2   3
ENDBRANCH   1   2
BRANCH   1  11
HETATM   11  C   UNL     1     -21.287  -4.237 -10.413  1.00  0.00     0.124 C 
BRANCH  11  12
HETATM   12  N   UNL     1     -22.005  -4.007  -9.178  1.00  0.00    -0.343 N 
HETATM   13  C   UNL     1     -23.321  -4.349  -9.049  1.00  0.00     0.313 C 
HETATM   14  O   UNL     1     -24.021  -4.806  -9.941  1.00  0.00    -0.248 OA
HETATM   15  N   UNL     1     -23.822  -4.081  -7.822  1.00  0.00    -0.352 N 
HETATM   16  H   UNL     1     -23.247  -3.830  -7.035  1.00  0.00     0.160 HD
HETATM   17  H   UNL     1     -24.790  -4.326  -7.662  1.00  0.00     0.160 HD
HETATM   18  H   UNL     1     -21.471  -3.898  -8.330  1.00  0.00     0.164 HD
ENDBRANCH  11  12
ENDBRANCH   1  11
TORSDOF 7
ENDMDL
MODEL 6
REMARK VINA RESULT:      -6.0      2.538      5.370
REMARK  7 active torsions:
REMARK  status: ('A' for Active; 'I' for Inactive)
REMARK    1  A    between atoms: C_1  and  C_2 
REMARK    2  A    between atoms: C_1  and  C_8 
REMARK    3  A    between atoms: C_2  and  CA_3 
REMARK    4  A    between atoms: CA_3  and  C_4 
REMARK    5  A    between atoms: CA_3  and  N_7 
REMARK    6  A    between atoms: C_4  and  OXT_6 
REMARK    7  A    between atoms: C_8  and  N_9 
REMARK       I    between atoms: N_9  and  C_10 
REMARK       I    between atoms: C_10  and  N_12 
ROOT
HETATM    1  C   UNL     1     -21.497  -3.838 -11.830  1.00  0.00     0.022 C 
ENDROOT
BRANCH   1   2
HETATM    2  C   UNL     1     -22.477  -2.667 -11.989  1.00  0.00     0.048 C 
BRANCH   2   3
HETATM    3  CA  UNL     1     -23.625  -2.988 -12.958  1.00  0.00     0.314 C 
BRANCH   3   4
HETATM    4  C   UNL     1     -23.390  -2.382 -14.361  1.00  0.00     0.173 C 
HETATM    5  O   UNL     1     -23.982  -1.398 -14.785  1.00  0.00    -0.648 OA
BRANCH   4   6
HETATM    6  OXT UNL     1     -22.432  -3.007 -15.080  1.00  0.00    -0.775 OA
HETATM    7  HXT UNL     1     -22.254  -2.617 -15.957  1.00  0.00     0.167 HD
ENDBRANCH   4   6
ENDBRANCH   3   4
BRANCH   3   8
HETATM    8  N   UNL     1     -23.766  -4.458 -13.085  1.00  0.00     0.093 N 
HETATM    9  H1  UNL     1     -24.655  -4.646 -13.559  1.00  0.00     0.314 HD
HETATM   10  H2  UNL     1     -23.922  -4.840 -12.147  1.00  0.00     0.314 HD
ENDBRANCH   3   8
ENDBRANCH   2   3
ENDBRANCH   1   2
BRANCH   1  11
HETATM   11  C   UNL     1     -21.245  -4.183 -10.364  1.00  0.00     0.124 C 
BRANCH  11  12
HETATM   12  N   UNL     1     -22.485  -4.302  -9.627  1.00  0.00    -0.343 N 
HETATM   13  C   UNL     1     -22.551  -3.995  -8.298  1.00  0.00     0.313 C 
HETATM   14  O   UNL     1     -21.602  -3.663  -7.603  1.00  0.00    -0.248 OA
HETATM   15  N   UNL     1     -23.792  -4.146  -7.779  1.00  0.00    -0.352 N 
HETATM   16  H   UNL     1     -24.612  -4.289  -8.345  1.00  0.00     0.160 HD
HETATM   17  H   UNL     1     -23.906  -3.919  -6.801  1.00  0.00     0.160 HD
HETATM   18  H   UNL     1     -23.349  -4.299 -10.146  1.00  0.00     0.164 HD
ENDBRANCH  11  12
ENDBRANCH   1  11
TORSDOF 7
ENDMDL
MODEL 7
REMARK VINA RESULT:      -5.9      2.288      5.214
REMARK  7 active torsions:
REMARK  status: ('A' for Active; 'I' for Inactive)
REMARK    1  A    between atoms: C_1  and  C_2 
REMARK    2  A    between atoms: C_1  and  C_8 
REMARK    3  A    between atoms: C_2  and  CA_3 
REMARK    4  A    between atoms: CA_3  and  C_4 
REMARK    5  A    between atoms: CA_3  and  N_7 
REMARK    6  A    between atoms: C_4  and  OXT_6 
REMARK    7  A    between atoms: C_8  and  N_9 
REMARK       I    between atoms: N_9  and  C_10 
REMARK       I    between atoms: C_10  and  N_12 
ROOT
HETATM    1  C   UNL     1     -24.310  -3.310 -11.027  1.00  0.00     0.022 C 
ENDROOT
BRANCH   1   2
HETATM    2  C   UNL     1     -23.881  -4.097 -12.273  1.00  0.00     0.048 C 
BRANCH   2   3
HETATM    3  CA  UNL     1     -22.649  -3.486 -12.960  1.00  0.00     0.314 C 
BRANCH   3   4
HETATM    4  C   UNL     1     -23.025  -2.700 -14.238  1.00  0.00     0.173 C 
HETATM    5  O   UNL     1     -23.936  -1.885 -14.291  1.00  0.00    -0.648 OA
BRANCH   4   6
HETATM    6  OXT UNL     1     -22.228  -2.956 -15.299  1.00  0.00    -0.775 OA
HETATM    7  HXT UNL     1     -21.274  -2.995 -15.098  1.00  0.00     0.167 HD
ENDBRANCH   4   6
ENDBRANCH   3   4
BRANCH   3   8
HETATM    8  N   UNL     1     -21.962  -2.573 -12.017  1.00  0.00     0.093 N 
HETATM    9  H1  UNL     1     -20.998  -2.457 -12.342  1.00  0.00     0.314 HD
HETATM   10  H2  UNL     1     -21.845  -3.070 -11.129  1.00  0.00     0.314 HD
ENDBRANCH   3   8
ENDBRANCH   2   3
ENDBRANCH   1   2
BRANCH   1  11
HETATM   11  C   UNL     1     -24.529  -4.219  -9.820  1.00  0.00     0.124 C 
BRANCH  11  12
HETATM   12  N   UNL     1     -23.804  -3.744  -8.660  1.00  0.00    -0.343 N 
HETATM   13  C   UNL     1     -22.449  -3.881  -8.567  1.00  0.00     0.313 C 
HETATM   14  O   UNL     1     -21.740  -4.450  -9.383  1.00  0.00    -0.248 OA
HETATM   15  N   UNL     1     -21.940  -3.363  -7.425  1.00  0.00    -0.352 N 
HETATM   16  H   UNL     1     -22.470  -2.779  -6.801  1.00  0.00     0.160 HD
HETATM   17  H   UNL     1     -20.938  -3.423  -7.306  1.00  0.00     0.160 HD
HETATM   18  H   UNL     1     -24.239  -3.041  -8.083  1.00  0.00     0.164 HD
ENDBRANCH  11  12
ENDBRANCH   1  11
TORSDOF 7
ENDMDL
MODEL 8
REMARK VINA RESULT:      -5.8     10.216     11.289
REMARK  7 active torsions:
REMARK  status: ('A' for Active; 'I' for Inactive)
REMARK    1  A    between atoms: C_1  and  C_2 
REMARK    2  A    between atoms: C_1  and  C_8 
REMARK    3  A    between atoms: C_2  and  CA_3 
REMARK    4  A    between atoms: CA_3  and  C_4 
REMARK    5  A    between atoms: CA_3  and  N_7 
REMARK    6  A    between atoms: C_4  and  OXT_6 
REMARK    7  A    between atoms: C_8  and  N_9 
REMARK       I    between atoms: N_9  and  C_10 
REMARK       I    between atoms: C_10  and  N_12 
ROOT
HETATM    1  C   UNL     1     -34.174  -2.488 -10.303  1.00  0.00     0.022 C 
ENDROOT
BRANCH   1   2
HETATM    2  C   UNL     1     -33.112  -2.895 -11.334  1.00  0.00     0.048 C 
BRANCH   2   3
HETATM    3  CA  UNL     1     -33.331  -4.317 -11.874  1.00  0.00     0.314 C 
BRANCH   3   4
HETATM    4  C   UNL     1     -34.272  -4.335 -13.102  1.00  0.00     0.173 C 
HETATM    5  O   UNL     1     -34.310  -3.446 -13.942  1.00  0.00    -0.648 OA
BRANCH   4   6
HETATM    6  OXT UNL     1     -35.031  -5.448 -13.201  1.00  0.00    -0.775 OA
HETATM    7  HXT UNL     1     -34.755  -6.075 -13.895  1.00  0.00     0.167 HD
ENDBRANCH   4   6
ENDBRANCH   3   4
BRANCH   3   8
HETATM    8  N   UNL     1     -32.026  -4.905 -12.258  1.00  0.00     0.093 N 
HETATM    9  H1  UNL     1     -32.089  -5.189 -13.240  1.00  0.00     0.314 HD
HETATM   10  H2  UNL     1     -31.929  -5.799 -11.767  1.00  0.00     0.314 HD
ENDBRANCH   3   8
ENDBRANCH   2   3
ENDBRANCH   1   2
BRANCH   1  11
HETATM   11  C   UNL     1     -35.233  -1.565 -10.902  1.00  0.00     0.124 C 
BRANCH  11  12
HETATM   12  N   UNL     1     -34.714  -0.828 -12.035  1.00  0.00    -0.343 N 
HETATM   13  C   UNL     1     -35.487  -0.579 -13.133  1.00  0.00     0.313 C 
HETATM   14  O   UNL     1     -36.627  -0.988 -13.299  1.00  0.00    -0.248 OA
HETATM   15  N   UNL     1     -34.846   0.138 -14.083  1.00  0.00    -0.352 N 
HETATM   16  H   UNL     1     -33.964   0.596 -13.926  1.00  0.00     0.160 HD
HETATM   17  H   UNL     1     -35.373   0.366 -14.915  1.00  0.00     0.160 HD
HETATM   18  H   UNL     1     -33.913  -0.233 -11.889  1.00  0.00     0.164 HD
ENDBRANCH  11  12
ENDBRANCH   1  11
TORSDOF 7
ENDMDL
MODEL 9
REMARK VINA RESULT:      -5.5      2.576      3.398
REMARK  7 active torsions:
REMARK  status: ('A' for Active; 'I' for Inactive)
REMARK    1  A    between atoms: C_1  and  C_2 
REMARK    2  A    between atoms: C_1  and  C_8 
REMARK    3  A    between atoms: C_2  and  CA_3 
REMARK    4  A    between atoms: CA_3  and  C_4 
REMARK    5  A    between atoms: CA_3  and  N_7 
REMARK    6  A    between atoms: C_4  and  OXT_6 
REMARK    7  A    between atoms: C_8  and  N_9 
REMARK       I    between atoms: N_9  and  C_10 
REMARK       I    between atoms: C_10  and  N_12 
ROOT
HETATM    1  C   UNL     1     -20.697  -3.601 -10.866  1.00  0.00     0.022 C 
ENDROOT
BRANCH   1   2
HETATM    2  C   UNL     1     -20.405  -4.159  -9.466  1.00  0.00     0.048 C 
BRANCH   2   3
HETATM    3  CA  UNL     1     -21.676  -4.640  -8.748  1.00  0.00     0.314 C 
BRANCH   3   4
HETATM    4  C   UNL     1     -21.352  -5.464  -7.480  1.00  0.00     0.173 C 
HETATM    5  O   UNL     1     -20.426  -6.260  -7.405  1.00  0.00    -0.648 OA
BRANCH   4   6
HETATM    6  OXT UNL     1     -22.158  -5.200  -6.428  1.00  0.00    -0.775 OA
HETATM    7  HXT UNL     1     -23.113  -5.286  -6.609  1.00  0.00     0.167 HD
ENDBRANCH   4   6
ENDBRANCH   3   4
BRANCH   3   8
HETATM    8  N   UNL     1     -22.499  -3.469  -8.366  1.00  0.00     0.093 N 
HETATM    9  H1  UNL     1     -23.467  -3.789  -8.263  1.00  0.00     0.314 HD
HETATM   10  H2  UNL     1     -22.550  -2.844  -9.175  1.00  0.00     0.314 HD
ENDBRANCH   3   8
ENDBRANCH   2   3
ENDBRANCH   1   2
BRANCH   1  11
HETATM   11  C   UNL     1     -21.745  -4.427 -11.607  1.00  0.00     0.124 C 
BRANCH  11  12
HETATM   12  N   UNL     1     -22.477  -3.622 -12.562  1.00  0.00    -0.343 N 
HETATM   13  C   UNL     1     -23.580  -2.908 -12.189  1.00  0.00     0.313 C 
HETATM   14  O   UNL     1     -24.084  -2.921 -11.076  1.00  0.00    -0.248 OA
HETATM   15  N   UNL     1     -24.123  -2.200 -13.205  1.00  0.00    -0.352 N 
HETATM   16  H   UNL     1     -23.663  -2.065 -14.090  1.00  0.00     0.160 HD
HETATM   17  H   UNL     1     -24.935  -1.639 -12.986  1.00  0.00     0.160 HD
HETATM   18  H   UNL     1     -22.003  -3.335 -13.404  1.00  0.00     0.164 HD
ENDBRANCH  11  12
ENDBRANCH   1  11
TORSDOF 7
ENDMDL
