MODEL 1
REMARK VINA RESULT:      -7.5      0.000      0.000
REMARK  21 active torsions:
REMARK  status: ('A' for Active; 'I' for Inactive)
REMARK    1  A    between atoms: C_2  and  C_3 
REMARK    2  A    between atoms: C_3  and  C_4 
REMARK    3  A    between atoms: C_4  and  C_5 
REMARK    4  A    between atoms: C_5  and  C_6 
REMARK    5  A    between atoms: C_6  and  C_7 
REMARK    6  A    between atoms: C_7  and  C_8 
REMARK    7  A    between atoms: C_8  and  C_9 
REMARK    8  A    between atoms: C_9  and  C_10 
REMARK    9  A    between atoms: C_10  and  C_11 
REMARK   10  A    between atoms: C_11  and  C_12 
REMARK   11  A    between atoms: C_12  and  C_13 
REMARK   12  A    between atoms: C_13  and  C_14 
REMARK   13  A    between atoms: C_14  and  C_15 
REMARK   14  A    between atoms: C_15  and  C_16 
REMARK   15  A    between atoms: C_16  and  O_18 
REMARK   16  A    between atoms: O_18  and  C_19 
REMARK   17  A    between atoms: C_19  and  C_20 
REMARK   18  A    between atoms: C_21  and  C_23 
REMARK   19  A    between atoms: C_24  and  C_25 
REMARK   20  A    between atoms: C_26  and  C_28 
REMARK   21  A    between atoms: C_29  and  C_30 
ROOT
HETATM    1  C   UNL     1     -22.100  -7.962   0.400  1.00  0.00     0.206 C 
ENDROOT
BRANCH   1   2
HETATM    2  O   UNL     1     -23.036  -9.046   0.487  1.00  0.00    -0.318 OA
BRANCH   2   3
HETATM    3  C   UNL     1     -22.565 -10.236   0.016  1.00  0.00     0.259 C 
HETATM    4  O   UNL     1     -21.482 -10.742   0.306  1.00  0.00    -0.265 OA
BRANCH   3   5
HETATM    5  C   UNL     1     -23.505 -10.847  -0.977  1.00  0.00     0.111 C 
BRANCH   5   6
HETATM    6  C   UNL     1     -22.732 -11.472  -2.122  1.00  0.00     0.010 C 
BRANCH   6   7
HETATM    7  C   UNL     1     -22.671 -10.544  -3.331  1.00  0.00     0.000 C 
BRANCH   7   8
HETATM    8  C   UNL     1     -21.944 -11.225  -4.484  1.00  0.00     0.000 C 
BRANCH   8   9
HETATM    9  C   UNL     1     -20.892 -10.303  -5.084  1.00  0.00     0.000 C 
BRANCH   9  10
HETATM   10  C   UNL     1     -19.497 -10.729  -4.647  1.00  0.00     0.000 C 
BRANCH  10  11
HETATM   11  C   UNL     1     -19.413 -12.245  -4.548  1.00  0.00     0.000 C 
BRANCH  11  12
HETATM   12  C   UNL     1     -18.676 -12.655  -3.281  1.00  0.00     0.000 C 
BRANCH  12  13
HETATM   13  C   UNL     1     -19.096 -11.770  -2.115  1.00  0.00     0.000 C 
BRANCH  13  14
HETATM   14  C   UNL     1     -17.872 -11.198  -1.417  1.00  0.00     0.000 C 
BRANCH  14  15
HETATM   15  C   UNL     1     -16.674 -12.116  -1.611  1.00  0.00     0.000 C 
BRANCH  15  16
HETATM   16  C   UNL     1     -15.650 -11.470  -2.535  1.00  0.00     0.000 C 
BRANCH  16  17
HETATM   17  C   UNL     1     -15.967  -9.992  -2.734  1.00  0.00    -0.000 C 
BRANCH  17  18
HETATM   18  C   UNL     1     -16.006  -9.638  -4.215  1.00  0.00    -0.005 C 
HETATM   19  C   UNL     1     -15.387 -10.744  -5.054  1.00  0.00     0.005 C 
ENDBRANCH  17  18
ENDBRANCH  16  17
ENDBRANCH  15  16
ENDBRANCH  14  15
ENDBRANCH  13  14
ENDBRANCH  12  13
ENDBRANCH  11  12
ENDBRANCH  10  11
ENDBRANCH   9  10
ENDBRANCH   8   9
ENDBRANCH   7   8
ENDBRANCH   6   7
ENDBRANCH   5   6
ENDBRANCH   3   5
ENDBRANCH   2   3
ENDBRANCH   1   2
BRANCH   1  20
HETATM   20  C   UNL     1     -22.354  -7.091  -0.814  1.00  0.00     0.006 C 
HETATM   21  C   UNL     1     -21.586  -7.129  -1.927  1.00  0.00    -0.064 C 
HETATM   22  C   UNL     1     -20.384  -8.049  -2.015  1.00  0.00     0.048 C 
BRANCH  21  23
HETATM   23  C   UNL     1     -21.897  -6.296  -3.104  1.00  0.00     0.006 C 
HETATM   24  C   UNL     1     -21.729  -6.714  -4.380  1.00  0.00     0.001 C 
BRANCH  24  25
HETATM   25  C   UNL     1     -22.035  -5.981  -5.597  1.00  0.00     0.007 C 
HETATM   26  C   UNL     1     -21.210  -5.084  -6.191  1.00  0.00    -0.062 C 
HETATM   27  C   UNL     1     -19.858  -4.673  -5.649  1.00  0.00     0.048 C 
BRANCH  26  28
HETATM   28  C   UNL     1     -21.647  -4.406  -7.420  1.00  0.00     0.007 C 
HETATM   29  C   UNL     1     -21.953  -5.013  -8.583  1.00  0.00     0.009 C 
BRANCH  29  30
HETATM   30  C   UNL     1     -22.246  -4.336  -9.849  1.00  0.00    -0.048 C 
HETATM   31  C   UNL     1     -21.247  -3.937 -10.678  1.00  0.00    -0.077 C 
HETATM   32  C   UNL     1     -21.506  -3.218 -11.987  1.00  0.00     0.034 C 
HETATM   33  C   UNL     1     -19.770  -4.191 -10.470  1.00  0.00     0.044 C 
HETATM   34  C   UNL     1     -22.935  -2.739 -12.178  1.00  0.00     0.005 C 
HETATM   35  C   UNL     1     -23.905  -3.825 -11.748  1.00  0.00     0.014 C 
HETATM   36  C   UNL     1     -23.744  -4.200 -10.246  1.00  0.00    -0.020 C 
HETATM   37  C   UNL     1     -24.541  -5.518 -10.060  1.00  0.00     0.020 C 
HETATM   38  C   UNL     1     -24.420  -3.110  -9.386  1.00  0.00     0.020 C 
ENDBRANCH  29  30
ENDBRANCH  26  28
ENDBRANCH  24  25
ENDBRANCH  21  23
ENDBRANCH   1  20
TORSDOF 21
ENDMDL
MODEL 2
REMARK VINA RESULT:      -7.5      0.907      3.051
REMARK  21 active torsions:
REMARK  status: ('A' for Active; 'I' for Inactive)
REMARK    1  A    between atoms: C_2  and  C_3 
REMARK    2  A    between atoms: C_3  and  C_4 
REMARK    3  A    between atoms: C_4  and  C_5 
REMARK    4  A    between atoms: C_5  and  C_6 
REMARK    5  A    between atoms: C_6  and  C_7 
REMARK    6  A    between atoms: C_7  and  C_8 
REMARK    7  A    between atoms: C_8  and  C_9 
REMARK    8  A    between atoms: C_9  and  C_10 
REMARK    9  A    between atoms: C_10  and  C_11 
REMARK   10  A    between atoms: C_11  and  C_12 
REMARK   11  A    between atoms: C_12  and  C_13 
REMARK   12  A    between atoms: C_13  and  C_14 
REMARK   13  A    between atoms: C_14  and  C_15 
REMARK   14  A    between atoms: C_15  and  C_16 
REMARK   15  A    between atoms: C_16  and  O_18 
REMARK   16  A    between atoms: O_18  and  C_19 
REMARK   17  A    between atoms: C_19  and  C_20 
REMARK   18  A    between atoms: C_21  and  C_23 
REMARK   19  A    between atoms: C_24  and  C_25 
REMARK   20  A    between atoms: C_26  and  C_28 
REMARK   21  A    between atoms: C_29  and  C_30 
ROOT
HETATM    1  C   UNL     1     -22.167  -7.902   0.390  1.00  0.00     0.206 C 
ENDROOT
BRANCH   1   2
HETATM    2  O   UNL     1     -23.190  -8.898   0.536  1.00  0.00    -0.318 OA
BRANCH   2   3
HETATM    3  C   UNL     1     -22.893 -10.099  -0.036  1.00  0.00     0.259 C 
HETATM    4  O   UNL     1     -23.656 -10.769  -0.730  1.00  0.00    -0.265 OA
BRANCH   3   5
HETATM    5  C   UNL     1     -21.519 -10.563   0.337  1.00  0.00     0.111 C 
BRANCH   5   6
HETATM    6  C   UNL     1     -21.072 -11.684  -0.581  1.00  0.00     0.010 C 
BRANCH   6   7
HETATM    7  C   UNL     1     -19.631 -11.489  -1.044  1.00  0.00     0.000 C 
BRANCH   7   8
HETATM    8  C   UNL     1     -19.170 -12.694  -1.855  1.00  0.00     0.000 C 
BRANCH   8   9
HETATM    9  C   UNL     1     -17.714 -12.542  -2.274  1.00  0.00     0.000 C 
BRANCH   9  10
HETATM   10  C   UNL     1     -17.086 -11.333  -1.594  1.00  0.00     0.000 C 
BRANCH  10  11
HETATM   11  C   UNL     1     -16.318 -10.495  -2.605  1.00  0.00     0.000 C 
BRANCH  11  12
HETATM   12  C   UNL     1     -17.232  -9.458  -3.240  1.00  0.00     0.000 C 
BRANCH  12  13
HETATM   13  C   UNL     1     -17.591  -9.868  -4.661  1.00  0.00     0.000 C 
BRANCH  13  14
HETATM   14  C   UNL     1     -19.009  -9.433  -4.996  1.00  0.00     0.000 C 
BRANCH  14  15
HETATM   15  C   UNL     1     -19.985 -10.576  -4.755  1.00  0.00     0.000 C 
BRANCH  15  16
HETATM   16  C   UNL     1     -21.399 -10.040  -4.567  1.00  0.00     0.000 C 
BRANCH  16  17
HETATM   17  C   UNL     1     -22.300 -11.111  -3.964  1.00  0.00    -0.000 C 
BRANCH  17  18
HETATM   18  C   UNL     1     -21.899 -12.498  -4.450  1.00  0.00    -0.005 C 
HETATM   19  C   UNL     1     -22.765 -12.934  -5.621  1.00  0.00     0.005 C 
ENDBRANCH  17  18
ENDBRANCH  16  17
ENDBRANCH  15  16
ENDBRANCH  14  15
ENDBRANCH  13  14
ENDBRANCH  12  13
ENDBRANCH  11  12
ENDBRANCH  10  11
ENDBRANCH   9  10
ENDBRANCH   8   9
ENDBRANCH   7   8
ENDBRANCH   6   7
ENDBRANCH   5   6
ENDBRANCH   3   5
ENDBRANCH   2   3
ENDBRANCH   1   2
BRANCH   1  20
HETATM   20  C   UNL     1     -22.393  -7.034  -0.832  1.00  0.00     0.006 C 
HETATM   21  C   UNL     1     -21.566  -7.034  -1.903  1.00  0.00    -0.064 C 
HETATM   22  C   UNL     1     -20.324  -7.902  -1.931  1.00  0.00     0.048 C 
BRANCH  21  23
HETATM   23  C   UNL     1     -21.849  -6.205  -3.091  1.00  0.00     0.006 C 
HETATM   24  C   UNL     1     -21.758  -6.665  -4.359  1.00  0.00     0.001 C 
BRANCH  24  25
HETATM   25  C   UNL     1     -22.045  -5.939  -5.585  1.00  0.00     0.007 C 
HETATM   26  C   UNL     1     -21.199  -5.068  -6.187  1.00  0.00    -0.062 C 
HETATM   27  C   UNL     1     -19.839  -4.682  -5.647  1.00  0.00     0.048 C 
BRANCH  26  28
HETATM   28  C   UNL     1     -21.619  -4.393  -7.424  1.00  0.00     0.007 C 
HETATM   29  C   UNL     1     -21.965  -5.007  -8.572  1.00  0.00     0.009 C 
BRANCH  29  30
HETATM   30  C   UNL     1     -22.241  -4.340  -9.848  1.00  0.00    -0.048 C 
HETATM   31  C   UNL     1     -21.231  -3.957 -10.671  1.00  0.00    -0.077 C 
HETATM   32  C   UNL     1     -21.472  -3.249 -11.990  1.00  0.00     0.034 C 
HETATM   33  C   UNL     1     -19.759  -4.219 -10.446  1.00  0.00     0.044 C 
HETATM   34  C   UNL     1     -22.896  -2.761 -12.199  1.00  0.00     0.005 C 
HETATM   35  C   UNL     1     -23.878  -3.836 -11.768  1.00  0.00     0.014 C 
HETATM   36  C   UNL     1     -23.734  -4.198 -10.260  1.00  0.00    -0.020 C 
HETATM   37  C   UNL     1     -24.543  -5.508 -10.069  1.00  0.00     0.020 C 
HETATM   38  C   UNL     1     -24.411  -3.094  -9.418  1.00  0.00     0.020 C 
ENDBRANCH  29  30
ENDBRANCH  26  28
ENDBRANCH  24  25
ENDBRANCH  21  23
ENDBRANCH   1  20
TORSDOF 21
ENDMDL
MODEL 3
REMARK VINA RESULT:      -7.5      0.947      1.833
REMARK  21 active torsions:
REMARK  status: ('A' for Active; 'I' for Inactive)
REMARK    1  A    between atoms: C_2  and  C_3 
REMARK    2  A    between atoms: C_3  and  C_4 
REMARK    3  A    between atoms: C_4  and  C_5 
REMARK    4  A    between atoms: C_5  and  C_6 
REMARK    5  A    between atoms: C_6  and  C_7 
REMARK    6  A    between atoms: C_7  and  C_8 
REMARK    7  A    between atoms: C_8  and  C_9 
REMARK    8  A    between atoms: C_9  and  C_10 
REMARK    9  A    between atoms: C_10  and  C_11 
REMARK   10  A    between atoms: C_11  and  C_12 
REMARK   11  A    between atoms: C_12  and  C_13 
REMARK   12  A    between atoms: C_13  and  C_14 
REMARK   13  A    between atoms: C_14  and  C_15 
REMARK   14  A    between atoms: C_15  and  C_16 
REMARK   15  A    between atoms: C_16  and  O_18 
REMARK   16  A    between atoms: O_18  and  C_19 
REMARK   17  A    between atoms: C_19  and  C_20 
REMARK   18  A    between atoms: C_21  and  C_23 
REMARK   19  A    between atoms: C_24  and  C_25 
REMARK   20  A    between atoms: C_26  and  C_28 
REMARK   21  A    between atoms: C_29  and  C_30 
ROOT
HETATM    1  C   UNL     1     -21.901  -7.974   0.448  1.00  0.00     0.206 C 
ENDROOT
BRANCH   1   2
HETATM    2  O   UNL     1     -22.522  -9.268   0.484  1.00  0.00    -0.318 OA
BRANCH   2   3
HETATM    3  C   UNL     1     -21.649 -10.308   0.604  1.00  0.00     0.259 C 
HETATM    4  O   UNL     1     -20.520 -10.242   1.087  1.00  0.00    -0.265 OA
BRANCH   3   5
HETATM    5  C   UNL     1     -22.201 -11.564   0.003  1.00  0.00     0.111 C 
BRANCH   5   6
HETATM    6  C   UNL     1     -23.527 -11.286  -0.678  1.00  0.00     0.010 C 
BRANCH   6   7
HETATM    7  C   UNL     1     -23.380 -11.251  -2.196  1.00  0.00     0.000 C 
BRANCH   7   8
HETATM    8  C   UNL     1     -22.125 -12.002  -2.623  1.00  0.00     0.000 C 
BRANCH   8   9
HETATM    9  C   UNL     1     -21.078 -11.044  -3.172  1.00  0.00     0.000 C 
BRANCH   9  10
HETATM   10  C   UNL     1     -21.696 -10.110  -4.204  1.00  0.00     0.000 C 
BRANCH  10  11
HETATM   11  C   UNL     1     -20.763  -9.942  -5.393  1.00  0.00     0.000 C 
BRANCH  11  12
HETATM   12  C   UNL     1     -20.257 -11.296  -5.868  1.00  0.00     0.000 C 
BRANCH  12  13
HETATM   13  C   UNL     1     -18.752 -11.249  -6.093  1.00  0.00     0.000 C 
BRANCH  13  14
HETATM   14  C   UNL     1     -18.202  -9.883  -5.715  1.00  0.00     0.000 C 
BRANCH  14  15
HETATM   15  C   UNL     1     -16.682  -9.884  -5.793  1.00  0.00     0.000 C 
BRANCH  15  16
HETATM   16  C   UNL     1     -16.076  -9.776  -4.399  1.00  0.00     0.000 C 
BRANCH  16  17
HETATM   17  C   UNL     1     -17.165  -9.536  -3.360  1.00  0.00    -0.000 C 
BRANCH  17  18
HETATM   18  C   UNL     1     -17.175 -10.645  -2.315  1.00  0.00    -0.005 C 
HETATM   19  C   UNL     1     -15.780 -11.218  -2.120  1.00  0.00     0.005 C 
ENDBRANCH  17  18
ENDBRANCH  16  17
ENDBRANCH  15  16
ENDBRANCH  14  15
ENDBRANCH  13  14
ENDBRANCH  12  13
ENDBRANCH  11  12
ENDBRANCH  10  11
ENDBRANCH   9  10
ENDBRANCH   8   9
ENDBRANCH   7   8
ENDBRANCH   6   7
ENDBRANCH   5   6
ENDBRANCH   3   5
ENDBRANCH   2   3
ENDBRANCH   1   2
BRANCH   1  20
HETATM   20  C   UNL     1     -22.318  -7.181  -0.774  1.00  0.00     0.006 C 
HETATM   21  C   UNL     1     -21.580  -7.124  -1.908  1.00  0.00    -0.064 C 
HETATM   22  C   UNL     1     -20.253  -7.847  -2.011  1.00  0.00     0.048 C 
BRANCH  21  23
HETATM   23  C   UNL     1     -22.046  -6.375  -3.091  1.00  0.00     0.006 C 
HETATM   24  C   UNL     1     -21.411  -6.397  -4.285  1.00  0.00     0.001 C 
BRANCH  24  25
HETATM   25  C   UNL     1     -21.808  -5.722  -5.509  1.00  0.00     0.007 C 
HETATM   26  C   UNL     1     -20.982  -4.986  -6.292  1.00  0.00    -0.062 C 
HETATM   27  C   UNL     1     -19.524  -4.717  -5.985  1.00  0.00     0.048 C 
BRANCH  26  28
HETATM   28  C   UNL     1     -21.516  -4.349  -7.504  1.00  0.00     0.007 C 
HETATM   29  C   UNL     1     -21.842  -4.986  -8.645  1.00  0.00     0.009 C 
BRANCH  29  30
HETATM   30  C   UNL     1     -22.234  -4.342  -9.902  1.00  0.00    -0.048 C 
HETATM   31  C   UNL     1     -21.302  -3.959 -10.813  1.00  0.00    -0.077 C 
HETATM   32  C   UNL     1     -21.663  -3.274 -12.117  1.00  0.00     0.034 C 
HETATM   33  C   UNL     1     -19.813  -4.200 -10.711  1.00  0.00     0.044 C 
HETATM   34  C   UNL     1     -23.107  -2.807 -12.211  1.00  0.00     0.005 C 
HETATM   35  C   UNL     1     -24.033  -3.886 -11.683  1.00  0.00     0.014 C 
HETATM   36  C   UNL     1     -23.758  -4.224 -10.188  1.00  0.00    -0.020 C 
HETATM   37  C   UNL     1     -24.530  -5.540  -9.912  1.00  0.00     0.020 C 
HETATM   38  C   UNL     1     -24.375  -3.116  -9.308  1.00  0.00     0.020 C 
ENDBRANCH  29  30
ENDBRANCH  26  28
ENDBRANCH  24  25
ENDBRANCH  21  23
ENDBRANCH   1  20
TORSDOF 21
ENDMDL
MODEL 4
REMARK VINA RESULT:      -7.5      0.934      1.769
REMARK  21 active torsions:
REMARK  status: ('A' for Active; 'I' for Inactive)
REMARK    1  A    between atoms: C_2  and  C_3 
REMARK    2  A    between atoms: C_3  and  C_4 
REMARK    3  A    between atoms: C_4  and  C_5 
REMARK    4  A    between atoms: C_5  and  C_6 
REMARK    5  A    between atoms: C_6  and  C_7 
REMARK    6  A    between atoms: C_7  and  C_8 
REMARK    7  A    between atoms: C_8  and  C_9 
REMARK    8  A    between atoms: C_9  and  C_10 
REMARK    9  A    between atoms: C_10  and  C_11 
REMARK   10  A    between atoms: C_11  and  C_12 
REMARK   11  A    between atoms: C_12  and  C_13 
REMARK   12  A    between atoms: C_13  and  C_14 
REMARK   13  A    between atoms: C_14  and  C_15 
REMARK   14  A    between atoms: C_15  and  C_16 
REMARK   15  A    between atoms: C_16  and  O_18 
REMARK   16  A    between atoms: O_18  and  C_19 
REMARK   17  A    between atoms: C_19  and  C_20 
REMARK   18  A    between atoms: C_21  and  C_23 
REMARK   19  A    between atoms: C_24  and  C_25 
REMARK   20  A    between atoms: C_26  and  C_28 
REMARK   21  A    between atoms: C_29  and  C_30 
ROOT
HETATM    1  C   UNL     1     -22.340  -7.938   0.439  1.00  0.00     0.206 C 
ENDROOT
BRANCH   1   2
HETATM    2  O   UNL     1     -23.016  -9.200   0.340  1.00  0.00    -0.318 OA
BRANCH   2   3
HETATM    3  C   UNL     1     -22.186 -10.278   0.251  1.00  0.00     0.259 C 
HETATM    4  O   UNL     1     -21.062 -10.358   0.744  1.00  0.00    -0.265 OA
BRANCH   3   5
HETATM    5  C   UNL     1     -22.779 -11.362  -0.596  1.00  0.00     0.111 C 
BRANCH   5   6
HETATM    6  C   UNL     1     -23.080 -10.842  -1.987  1.00  0.00     0.010 C 
BRANCH   6   7
HETATM    7  C   UNL     1     -21.801 -10.590  -2.781  1.00  0.00     0.000 C 
BRANCH   7   8
HETATM    8  C   UNL     1     -21.787 -11.443  -4.043  1.00  0.00     0.000 C 
BRANCH   8   9
HETATM    9  C   UNL     1     -20.503 -11.226  -4.832  1.00  0.00     0.000 C 
BRANCH   9  10
HETATM   10  C   UNL     1     -20.425  -9.794  -5.342  1.00  0.00     0.000 C 
BRANCH  10  11
HETATM   11  C   UNL     1     -19.140  -9.132  -4.869  1.00  0.00     0.000 C 
BRANCH  11  12
HETATM   12  C   UNL     1     -18.139 -10.181  -4.409  1.00  0.00     0.000 C 
BRANCH  12  13
HETATM   13  C   UNL     1     -17.706  -9.906  -2.976  1.00  0.00     0.000 C 
BRANCH  13  14
HETATM   14  C   UNL     1     -16.209  -9.649  -2.914  1.00  0.00     0.000 C 
BRANCH  14  15
HETATM   15  C   UNL     1     -15.453 -10.958  -2.741  1.00  0.00     0.000 C 
BRANCH  15  16
HETATM   16  C   UNL     1     -16.195 -11.880  -1.783  1.00  0.00     0.000 C 
BRANCH  16  17
HETATM   17  C   UNL     1     -15.704 -11.673  -0.354  1.00  0.00    -0.000 C 
BRANCH  17  18
HETATM   18  C   UNL     1     -16.706 -12.227   0.651  1.00  0.00    -0.005 C 
HETATM   19  C   UNL     1     -18.118 -12.184   0.090  1.00  0.00     0.005 C 
ENDBRANCH  17  18
ENDBRANCH  16  17
ENDBRANCH  15  16
ENDBRANCH  14  15
ENDBRANCH  13  14
ENDBRANCH  12  13
ENDBRANCH  11  12
ENDBRANCH  10  11
ENDBRANCH   9  10
ENDBRANCH   8   9
ENDBRANCH   7   8
ENDBRANCH   6   7
ENDBRANCH   5   6
ENDBRANCH   3   5
ENDBRANCH   2   3
ENDBRANCH   1   2
BRANCH   1  20
HETATM   20  C   UNL     1     -22.562  -7.079  -0.790  1.00  0.00     0.006 C 
HETATM   21  C   UNL     1     -21.683  -7.013  -1.816  1.00  0.00    -0.064 C 
HETATM   22  C   UNL     1     -20.383  -7.792  -1.782  1.00  0.00     0.048 C 
BRANCH  21  23
HETATM   23  C   UNL     1     -21.961  -6.198  -3.015  1.00  0.00     0.006 C 
HETATM   24  C   UNL     1     -21.776  -6.643  -4.278  1.00  0.00     0.001 C 
BRANCH  24  25
HETATM   25  C   UNL     1     -22.050  -5.931  -5.515  1.00  0.00     0.007 C 
HETATM   26  C   UNL     1     -21.198  -5.065  -6.116  1.00  0.00    -0.062 C 
HETATM   27  C   UNL     1     -19.844  -4.672  -5.565  1.00  0.00     0.048 C 
BRANCH  26  28
HETATM   28  C   UNL     1     -21.604  -4.404  -7.365  1.00  0.00     0.007 C 
HETATM   29  C   UNL     1     -21.945  -5.030  -8.508  1.00  0.00     0.009 C 
BRANCH  29  30
HETATM   30  C   UNL     1     -22.208  -4.378  -9.794  1.00  0.00    -0.048 C 
HETATM   31  C   UNL     1     -21.189  -4.009 -10.613  1.00  0.00    -0.077 C 
HETATM   32  C   UNL     1     -21.415  -3.317 -11.943  1.00  0.00     0.034 C 
HETATM   33  C   UNL     1     -19.719  -4.274 -10.372  1.00  0.00     0.044 C 
HETATM   34  C   UNL     1     -22.836  -2.828 -12.171  1.00  0.00     0.005 C 
HETATM   35  C   UNL     1     -23.825  -3.893 -11.735  1.00  0.00     0.014 C 
HETATM   36  C   UNL     1     -23.696  -4.236 -10.222  1.00  0.00    -0.020 C 
HETATM   37  C   UNL     1     -24.511  -5.541 -10.022  1.00  0.00     0.020 C 
HETATM   38  C   UNL     1     -24.376  -3.119  -9.400  1.00  0.00     0.020 C 
ENDBRANCH  29  30
ENDBRANCH  26  28
ENDBRANCH  24  25
ENDBRANCH  21  23
ENDBRANCH   1  20
TORSDOF 21
ENDMDL
MODEL 5
REMARK VINA RESULT:      -7.3     16.084     19.294
REMARK  21 active torsions:
REMARK  status: ('A' for Active; 'I' for Inactive)
REMARK    1  A    between atoms: C_2  and  C_3 
REMARK    2  A    between atoms: C_3  and  C_4 
REMARK    3  A    between atoms: C_4  and  C_5 
REMARK    4  A    between atoms: C_5  and  C_6 
REMARK    5  A    between atoms: C_6  and  C_7 
REMARK    6  A    between atoms: C_7  and  C_8 
REMARK    7  A    between atoms: C_8  and  C_9 
REMARK    8  A    between atoms: C_9  and  C_10 
REMARK    9  A    between atoms: C_10  and  C_11 
REMARK   10  A    between atoms: C_11  and  C_12 
REMARK   11  A    between atoms: C_12  and  C_13 
REMARK   12  A    between atoms: C_13  and  C_14 
REMARK   13  A    between atoms: C_14  and  C_15 
REMARK   14  A    between atoms: C_15  and  C_16 
REMARK   15  A    between atoms: C_16  and  O_18 
REMARK   16  A    between atoms: O_18  and  C_19 
REMARK   17  A    between atoms: C_19  and  C_20 
REMARK   18  A    between atoms: C_21  and  C_23 
REMARK   19  A    between atoms: C_24  and  C_25 
REMARK   20  A    between atoms: C_26  and  C_28 
REMARK   21  A    between atoms: C_29  and  C_30 
ROOT
HETATM    1  C   UNL     1     -17.686   9.510   6.208  1.00  0.00     0.206 C 
ENDROOT
BRANCH   1   2
HETATM    2  O   UNL     1     -16.370   8.962   6.378  1.00  0.00    -0.318 OA
BRANCH   2   3
HETATM    3  C   UNL     1     -15.376   9.693   5.801  1.00  0.00     0.259 C 
HETATM    4  O   UNL     1     -15.412  10.903   5.583  1.00  0.00    -0.265 OA
BRANCH   3   5
HETATM    5  C   UNL     1     -14.226   8.829   5.383  1.00  0.00     0.111 C 
BRANCH   5   6
HETATM    6  C   UNL     1     -14.517   8.169   4.050  1.00  0.00     0.010 C 
BRANCH   6   7
HETATM    7  C   UNL     1     -14.013   9.014   2.884  1.00  0.00     0.000 C 
BRANCH   7   8
HETATM    8  C   UNL     1     -14.842   8.740   1.635  1.00  0.00     0.000 C 
BRANCH   8   9
HETATM    9  C   UNL     1     -16.328   8.894   1.925  1.00  0.00     0.000 C 
BRANCH   9  10
HETATM   10  C   UNL     1     -16.738  10.359   1.849  1.00  0.00     0.000 C 
BRANCH  10  11
HETATM   11  C   UNL     1     -18.182  10.482   1.388  1.00  0.00     0.000 C 
BRANCH  11  12
HETATM   12  C   UNL     1     -18.842  11.697   2.022  1.00  0.00     0.000 C 
BRANCH  12  13
HETATM   13  C   UNL     1     -19.701  12.427   0.999  1.00  0.00     0.000 C 
BRANCH  13  14
HETATM   14  C   UNL     1     -19.707  11.674  -0.322  1.00  0.00     0.000 C 
BRANCH  14  15
HETATM   15  C   UNL     1     -21.134  11.364  -0.749  1.00  0.00     0.000 C 
BRANCH  15  16
HETATM   16  C   UNL     1     -21.190  11.053  -2.239  1.00  0.00     0.000 C 
BRANCH  16  17
HETATM   17  C   UNL     1     -22.620  10.745  -2.668  1.00  0.00    -0.000 C 
BRANCH  17  18
HETATM   18  C   UNL     1     -22.639   9.798  -3.861  1.00  0.00    -0.005 C 
HETATM   19  C   UNL     1     -22.037   8.451  -3.493  1.00  0.00     0.005 C 
ENDBRANCH  17  18
ENDBRANCH  16  17
ENDBRANCH  15  16
ENDBRANCH  14  15
ENDBRANCH  13  14
ENDBRANCH  12  13
ENDBRANCH  11  12
ENDBRANCH  10  11
ENDBRANCH   9  10
ENDBRANCH   8   9
ENDBRANCH   7   8
ENDBRANCH   6   7
ENDBRANCH   5   6
ENDBRANCH   3   5
ENDBRANCH   2   3
ENDBRANCH   1   2
BRANCH   1  20
HETATM   20  C   UNL     1     -18.324   9.057   4.910  1.00  0.00     0.006 C 
HETATM   21  C   UNL     1     -19.657   8.871   4.766  1.00  0.00    -0.064 C 
HETATM   22  C   UNL     1     -20.605   9.087   5.928  1.00  0.00     0.048 C 
BRANCH  21  23
HETATM   23  C   UNL     1     -20.240   8.472   3.470  1.00  0.00     0.006 C 
HETATM   24  C   UNL     1     -21.309   9.086   2.914  1.00  0.00     0.001 C 
BRANCH  24  25
HETATM   25  C   UNL     1     -21.933   8.788   1.635  1.00  0.00     0.007 C 
HETATM   26  C   UNL     1     -23.241   8.990   1.344  1.00  0.00    -0.062 C 
HETATM   27  C   UNL     1     -24.266   9.518   2.325  1.00  0.00     0.048 C 
BRANCH  26  28
HETATM   28  C   UNL     1     -23.746   8.636   0.010  1.00  0.00     0.007 C 
HETATM   29  C   UNL     1     -24.973   8.149  -0.259  1.00  0.00     0.009 C 
BRANCH  29  30
HETATM   30  C   UNL     1     -25.430   7.658  -1.563  1.00  0.00    -0.048 C 
HETATM   31  C   UNL     1     -24.855   6.574  -2.144  1.00  0.00    -0.077 C 
HETATM   32  C   UNL     1     -25.285   6.045  -3.498  1.00  0.00     0.034 C 
HETATM   33  C   UNL     1     -23.774   5.711  -1.532  1.00  0.00     0.044 C 
HETATM   34  C   UNL     1     -26.214   6.964  -4.274  1.00  0.00     0.005 C 
HETATM   35  C   UNL     1     -27.278   7.524  -3.348  1.00  0.00     0.014 C 
HETATM   36  C   UNL     1     -26.669   8.363  -2.187  1.00  0.00    -0.020 C 
HETATM   37  C   UNL     1     -27.824   8.567  -1.172  1.00  0.00     0.020 C 
HETATM   38  C   UNL     1     -26.266   9.749  -2.734  1.00  0.00     0.020 C 
ENDBRANCH  29  30
ENDBRANCH  26  28
ENDBRANCH  24  25
ENDBRANCH  21  23
ENDBRANCH   1  20
TORSDOF 21
ENDMDL
MODEL 6
REMARK VINA RESULT:      -6.6      1.763      3.473
REMARK  21 active torsions:
REMARK  status: ('A' for Active; 'I' for Inactive)
REMARK    1  A    between atoms: C_2  and  C_3 
REMARK    2  A    between atoms: C_3  and  C_4 
REMARK    3  A    between atoms: C_4  and  C_5 
REMARK    4  A    between atoms: C_5  and  C_6 
REMARK    5  A    between atoms: C_6  and  C_7 
REMARK    6  A    between atoms: C_7  and  C_8 
REMARK    7  A    between atoms: C_8  and  C_9 
REMARK    8  A    between atoms: C_9  and  C_10 
REMARK    9  A    between atoms: C_10  and  C_11 
REMARK   10  A    between atoms: C_11  and  C_12 
REMARK   11  A    between atoms: C_12  and  C_13 
REMARK   12  A    between atoms: C_13  and  C_14 
REMARK   13  A    between atoms: C_14  and  C_15 
REMARK   14  A    between atoms: C_15  and  C_16 
REMARK   15  A    between atoms: C_16  and  O_18 
REMARK   16  A    between atoms: O_18  and  C_19 
REMARK   17  A    between atoms: C_19  and  C_20 
REMARK   18  A    between atoms: C_21  and  C_23 
REMARK   19  A    between atoms: C_24  and  C_25 
REMARK   20  A    between atoms: C_26  and  C_28 
REMARK   21  A    between atoms: C_29  and  C_30 
ROOT
HETATM    1  C   UNL     1     -20.276  -9.211  -0.911  1.00  0.00     0.206 C 
ENDROOT
BRANCH   1   2
HETATM    2  O   UNL     1     -20.939 -10.483  -0.972  1.00  0.00    -0.318 OA
BRANCH   2   3
HETATM    3  C   UNL     1     -20.210 -11.523  -0.477  1.00  0.00     0.259 C 
HETATM    4  O   UNL     1     -20.634 -12.403   0.270  1.00  0.00    -0.265 OA
BRANCH   3   5
HETATM    5  C   UNL     1     -18.773 -11.438  -0.894  1.00  0.00     0.111 C 
BRANCH   5   6
HETATM    6  C   UNL     1     -17.879 -12.067   0.156  1.00  0.00     0.010 C 
BRANCH   6   7
HETATM    7  C   UNL     1     -16.432 -12.157  -0.321  1.00  0.00     0.000 C 
BRANCH   7   8
HETATM    8  C   UNL     1     -16.376 -12.724  -1.734  1.00  0.00     0.000 C 
BRANCH   8   9
HETATM    9  C   UNL     1     -15.754 -14.114  -1.738  1.00  0.00     0.000 C 
BRANCH   9  10
HETATM   10  C   UNL     1     -14.713 -14.229  -2.843  1.00  0.00     0.000 C 
BRANCH  10  11
HETATM   11  C   UNL     1     -14.049 -12.883  -3.088  1.00  0.00     0.000 C 
BRANCH  11  12
HETATM   12  C   UNL     1     -13.566 -12.782  -4.527  1.00  0.00     0.000 C 
BRANCH  12  13
HETATM   13  C   UNL     1     -14.265 -13.819  -5.394  1.00  0.00     0.000 C 
BRANCH  13  14
HETATM   14  C   UNL     1     -15.461 -13.201  -6.099  1.00  0.00     0.000 C 
BRANCH  14  15
HETATM   15  C   UNL     1     -15.109 -11.817  -6.626  1.00  0.00     0.000 C 
BRANCH  15  16
HETATM   16  C   UNL     1     -16.190 -10.812  -6.251  1.00  0.00     0.000 C 
BRANCH  16  17
HETATM   17  C   UNL     1     -15.701  -9.892  -5.138  1.00  0.00    -0.000 C 
BRANCH  17  18
HETATM   18  C   UNL     1     -16.730  -9.799  -4.018  1.00  0.00    -0.005 C 
HETATM   19  C   UNL     1     -16.080  -9.339  -2.723  1.00  0.00     0.005 C 
ENDBRANCH  17  18
ENDBRANCH  16  17
ENDBRANCH  15  16
ENDBRANCH  14  15
ENDBRANCH  13  14
ENDBRANCH  12  13
ENDBRANCH  11  12
ENDBRANCH  10  11
ENDBRANCH   9  10
ENDBRANCH   8   9
ENDBRANCH   7   8
ENDBRANCH   6   7
ENDBRANCH   5   6
ENDBRANCH   3   5
ENDBRANCH   2   3
ENDBRANCH   1   2
BRANCH   1  20
HETATM   20  C   UNL     1     -20.650  -8.321  -2.079  1.00  0.00     0.006 C 
HETATM   21  C   UNL     1     -21.547  -7.312  -1.984  1.00  0.00    -0.064 C 
HETATM   22  C   UNL     1     -22.264  -7.026  -0.679  1.00  0.00     0.048 C 
BRANCH  21  23
HETATM   23  C   UNL     1     -21.848  -6.441  -3.136  1.00  0.00     0.006 C 
HETATM   24  C   UNL     1     -21.889  -6.882  -4.414  1.00  0.00     0.001 C 
BRANCH  24  25
HETATM   25  C   UNL     1     -22.205  -6.112  -5.605  1.00  0.00     0.007 C 
HETATM   26  C   UNL     1     -21.365  -5.236  -6.208  1.00  0.00    -0.062 C 
HETATM   27  C   UNL     1     -19.979  -4.892  -5.705  1.00  0.00     0.048 C 
BRANCH  26  28
HETATM   28  C   UNL     1     -21.815  -4.514  -7.407  1.00  0.00     0.007 C 
HETATM   29  C   UNL     1     -21.951  -5.047  -8.637  1.00  0.00     0.009 C 
BRANCH  29  30
HETATM   30  C   UNL     1     -22.257  -4.302  -9.862  1.00  0.00    -0.048 C 
HETATM   31  C   UNL     1     -21.266  -3.855 -10.675  1.00  0.00    -0.077 C 
HETATM   32  C   UNL     1     -21.537  -3.066 -11.941  1.00  0.00     0.034 C 
HETATM   33  C   UNL     1     -19.787  -4.114 -10.493  1.00  0.00     0.044 C 
HETATM   34  C   UNL     1     -22.970  -2.583 -12.094  1.00  0.00     0.005 C 
HETATM   35  C   UNL     1     -23.932  -3.694 -11.717  1.00  0.00     0.014 C 
HETATM   36  C   UNL     1     -23.759  -4.151 -10.239  1.00  0.00    -0.020 C 
HETATM   37  C   UNL     1     -24.550  -5.480 -10.120  1.00  0.00     0.020 C 
HETATM   38  C   UNL     1     -24.432  -3.112  -9.316  1.00  0.00     0.020 C 
ENDBRANCH  29  30
ENDBRANCH  26  28
ENDBRANCH  24  25
ENDBRANCH  21  23
ENDBRANCH   1  20
TORSDOF 21
ENDMDL
MODEL 7
REMARK VINA RESULT:      -6.5      1.662      3.263
REMARK  21 active torsions:
REMARK  status: ('A' for Active; 'I' for Inactive)
REMARK    1  A    between atoms: C_2  and  C_3 
REMARK    2  A    between atoms: C_3  and  C_4 
REMARK    3  A    between atoms: C_4  and  C_5 
REMARK    4  A    between atoms: C_5  and  C_6 
REMARK    5  A    between atoms: C_6  and  C_7 
REMARK    6  A    between atoms: C_7  and  C_8 
REMARK    7  A    between atoms: C_8  and  C_9 
REMARK    8  A    between atoms: C_9  and  C_10 
REMARK    9  A    between atoms: C_10  and  C_11 
REMARK   10  A    between atoms: C_11  and  C_12 
REMARK   11  A    between atoms: C_12  and  C_13 
REMARK   12  A    between atoms: C_13  and  C_14 
REMARK   13  A    between atoms: C_14  and  C_15 
REMARK   14  A    between atoms: C_15  and  C_16 
REMARK   15  A    between atoms: C_16  and  O_18 
REMARK   16  A    between atoms: O_18  and  C_19 
REMARK   17  A    between atoms: C_19  and  C_20 
REMARK   18  A    between atoms: C_21  and  C_23 
REMARK   19  A    between atoms: C_24  and  C_25 
REMARK   20  A    between atoms: C_26  and  C_28 
REMARK   21  A    between atoms: C_29  and  C_30 
ROOT
HETATM    1  C   UNL     1     -20.093  -8.641  -1.700  1.00  0.00     0.206 C 
ENDROOT
BRANCH   1   2
HETATM    2  O   UNL     1     -20.643  -9.928  -1.384  1.00  0.00    -0.318 OA
BRANCH   2   3
HETATM    3  C   UNL     1     -21.362  -9.964  -0.226  1.00  0.00     0.259 C 
HETATM    4  O   UNL     1     -22.363  -9.292   0.016  1.00  0.00    -0.265 OA
BRANCH   3   5
HETATM    5  C   UNL     1     -20.744 -10.888   0.779  1.00  0.00     0.111 C 
BRANCH   5   6
HETATM    6  C   UNL     1     -21.465 -12.222   0.784  1.00  0.00     0.010 C 
BRANCH   6   7
HETATM    7  C   UNL     1     -20.658 -13.298   0.063  1.00  0.00     0.000 C 
BRANCH   7   8
HETATM    8  C   UNL     1     -19.169 -12.985   0.144  1.00  0.00     0.000 C 
BRANCH   8   9
HETATM    9  C   UNL     1     -18.431 -13.530  -1.070  1.00  0.00     0.000 C 
BRANCH   9  10
HETATM   10  C   UNL     1     -18.112 -12.409  -2.049  1.00  0.00     0.000 C 
BRANCH  10  11
HETATM   11  C   UNL     1     -17.301 -11.321  -1.362  1.00  0.00     0.000 C 
BRANCH  11  12
HETATM   12  C   UNL     1     -16.082 -10.958  -2.197  1.00  0.00     0.000 C 
BRANCH  12  13
HETATM   13  C   UNL     1     -16.264  -9.586  -2.831  1.00  0.00     0.000 C 
BRANCH  13  14
HETATM   14  C   UNL     1     -16.760  -9.724  -4.261  1.00  0.00     0.000 C 
BRANCH  14  15
HETATM   15  C   UNL     1     -15.606 -10.076  -5.191  1.00  0.00     0.000 C 
BRANCH  15  16
HETATM   16  C   UNL     1     -16.000 -11.213  -6.123  1.00  0.00     0.000 C 
BRANCH  16  17
HETATM   17  C   UNL     1     -14.857 -12.211  -6.261  1.00  0.00    -0.000 C 
BRANCH  17  18
HETATM   18  C   UNL     1     -13.755 -11.921  -5.250  1.00  0.00    -0.005 C 
HETATM   19  C   UNL     1     -13.663 -13.031  -4.215  1.00  0.00     0.005 C 
ENDBRANCH  17  18
ENDBRANCH  16  17
ENDBRANCH  15  16
ENDBRANCH  14  15
ENDBRANCH  13  14
ENDBRANCH  12  13
ENDBRANCH  11  12
ENDBRANCH  10  11
ENDBRANCH   9  10
ENDBRANCH   8   9
ENDBRANCH   7   8
ENDBRANCH   6   7
ENDBRANCH   5   6
ENDBRANCH   3   5
ENDBRANCH   2   3
ENDBRANCH   1   2
BRANCH   1  20
HETATM   20  C   UNL     1     -20.592  -8.124  -3.034  1.00  0.00     0.006 C 
HETATM   21  C   UNL     1     -21.453  -7.087  -3.152  1.00  0.00    -0.064 C 
HETATM   22  C   UNL     1     -21.999  -6.383  -1.925  1.00  0.00     0.048 C 
BRANCH  21  23
HETATM   23  C   UNL     1     -21.877  -6.587  -4.473  1.00  0.00     0.006 C 
HETATM   24  C   UNL     1     -21.188  -5.660  -5.177  1.00  0.00     0.001 C 
BRANCH  24  25
HETATM   25  C   UNL     1     -21.508  -5.132  -6.493  1.00  0.00     0.007 C 
HETATM   26  C   UNL     1     -20.596  -4.696  -7.396  1.00  0.00    -0.062 C 
HETATM   27  C   UNL     1     -19.102  -4.650  -7.153  1.00  0.00     0.048 C 
BRANCH  26  28
HETATM   28  C   UNL     1     -21.056  -4.177  -8.692  1.00  0.00     0.007 C 
HETATM   29  C   UNL     1     -22.342  -4.027  -9.064  1.00  0.00     0.009 C 
BRANCH  29  30
HETATM   30  C   UNL     1     -22.807  -3.650 -10.402  1.00  0.00    -0.048 C 
HETATM   31  C   UNL     1     -24.124  -3.426 -10.648  1.00  0.00    -0.077 C 
HETATM   32  C   UNL     1     -24.649  -3.052 -12.021  1.00  0.00     0.034 C 
HETATM   33  C   UNL     1     -25.233  -3.449  -9.620  1.00  0.00     0.044 C 
HETATM   34  C   UNL     1     -23.643  -3.208 -13.150  1.00  0.00     0.005 C 
HETATM   35  C   UNL     1     -22.295  -2.659 -12.720  1.00  0.00     0.014 C 
HETATM   36  C   UNL     1     -21.717  -3.411 -11.485  1.00  0.00    -0.020 C 
HETATM   37  C   UNL     1     -20.542  -2.535 -10.979  1.00  0.00     0.020 C 
HETATM   38  C   UNL     1     -21.136  -4.762 -11.955  1.00  0.00     0.020 C 
ENDBRANCH  29  30
ENDBRANCH  26  28
ENDBRANCH  24  25
ENDBRANCH  21  23
ENDBRANCH   1  20
TORSDOF 21
ENDMDL
MODEL 8
REMARK VINA RESULT:      -6.5      2.069      3.614
REMARK  21 active torsions:
REMARK  status: ('A' for Active; 'I' for Inactive)
REMARK    1  A    between atoms: C_2  and  C_3 
REMARK    2  A    between atoms: C_3  and  C_4 
REMARK    3  A    between atoms: C_4  and  C_5 
REMARK    4  A    between atoms: C_5  and  C_6 
REMARK    5  A    between atoms: C_6  and  C_7 
REMARK    6  A    between atoms: C_7  and  C_8 
REMARK    7  A    between atoms: C_8  and  C_9 
REMARK    8  A    between atoms: C_9  and  C_10 
REMARK    9  A    between atoms: C_10  and  C_11 
REMARK   10  A    between atoms: C_11  and  C_12 
REMARK   11  A    between atoms: C_12  and  C_13 
REMARK   12  A    between atoms: C_13  and  C_14 
REMARK   13  A    between atoms: C_14  and  C_15 
REMARK   14  A    between atoms: C_15  and  C_16 
REMARK   15  A    between atoms: C_16  and  O_18 
REMARK   16  A    between atoms: O_18  and  C_19 
REMARK   17  A    between atoms: C_19  and  C_20 
REMARK   18  A    between atoms: C_21  and  C_23 
REMARK   19  A    between atoms: C_24  and  C_25 
REMARK   20  A    between atoms: C_26  and  C_28 
REMARK   21  A    between atoms: C_29  and  C_30 
ROOT
HETATM    1  C   UNL     1     -18.945 -10.384  -1.623  1.00  0.00     0.206 C 
ENDROOT
BRANCH   1   2
HETATM    2  O   UNL     1     -18.558 -11.766  -1.596  1.00  0.00    -0.318 OA
BRANCH   2   3
HETATM    3  C   UNL     1     -18.899 -12.424  -0.452  1.00  0.00     0.259 C 
HETATM    4  O   UNL     1     -18.119 -12.772   0.433  1.00  0.00    -0.265 OA
BRANCH   3   5
HETATM    5  C   UNL     1     -20.361 -12.749  -0.417  1.00  0.00     0.111 C 
BRANCH   5   6
HETATM    6  C   UNL     1     -21.021 -12.093   0.780  1.00  0.00     0.010 C 
BRANCH   6   7
HETATM    7  C   UNL     1     -22.069 -11.071   0.351  1.00  0.00     0.000 C 
BRANCH   7   8
HETATM    8  C   UNL     1     -23.423 -11.746   0.171  1.00  0.00     0.000 C 
BRANCH   8   9
HETATM    9  C   UNL     1     -23.852 -11.721  -1.290  1.00  0.00     0.000 C 
BRANCH   9  10
HETATM   10  C   UNL     1     -23.133 -10.609  -2.040  1.00  0.00     0.000 C 
BRANCH  10  11
HETATM   11  C   UNL     1     -22.755 -11.071  -3.439  1.00  0.00     0.000 C 
BRANCH  11  12
HETATM   12  C   UNL     1     -22.462 -12.564  -3.445  1.00  0.00     0.000 C 
BRANCH  12  13
HETATM   13  C   UNL     1     -21.330 -12.877  -4.413  1.00  0.00     0.000 C 
BRANCH  13  14
HETATM   14  C   UNL     1     -21.841 -12.873  -5.845  1.00  0.00     0.000 C 
BRANCH  14  15
HETATM   15  C   UNL     1     -21.101 -11.829  -6.669  1.00  0.00     0.000 C 
BRANCH  15  16
HETATM   16  C   UNL     1     -19.688 -11.630  -6.135  1.00  0.00     0.000 C 
BRANCH  16  17
HETATM   17  C   UNL     1     -18.664 -11.829  -7.246  1.00  0.00    -0.000 C 
BRANCH  17  18
HETATM   18  C   UNL     1     -18.562 -13.298  -7.637  1.00  0.00    -0.005 C 
HETATM   19  C   UNL     1     -19.004 -13.509  -9.076  1.00  0.00     0.005 C 
ENDBRANCH  17  18
ENDBRANCH  16  17
ENDBRANCH  15  16
ENDBRANCH  14  15
ENDBRANCH  13  14
ENDBRANCH  12  13
ENDBRANCH  11  12
ENDBRANCH  10  11
ENDBRANCH   9  10
ENDBRANCH   8   9
ENDBRANCH   7   8
ENDBRANCH   6   7
ENDBRANCH   5   6
ENDBRANCH   3   5
ENDBRANCH   2   3
ENDBRANCH   1   2
BRANCH   1  20
HETATM   20  C   UNL     1     -19.195  -9.894  -3.035  1.00  0.00     0.006 C 
HETATM   21  C   UNL     1     -19.891  -8.768  -3.316  1.00  0.00    -0.064 C 
HETATM   22  C   UNL     1     -20.496  -7.928  -2.210  1.00  0.00     0.048 C 
BRANCH  21  23
HETATM   23  C   UNL     1     -20.071  -8.303  -4.705  1.00  0.00     0.006 C 
HETATM   24  C   UNL     1     -21.057  -7.460  -5.087  1.00  0.00     0.001 C 
BRANCH  24  25
HETATM   25  C   UNL     1     -21.296  -6.924  -6.417  1.00  0.00     0.007 C 
HETATM   26  C   UNL     1     -20.939  -5.683  -6.829  1.00  0.00    -0.062 C 
HETATM   27  C   UNL     1     -20.274  -4.646  -5.949  1.00  0.00     0.048 C 
BRANCH  26  28
HETATM   28  C   UNL     1     -21.248  -5.263  -8.203  1.00  0.00     0.007 C 
HETATM   29  C   UNL     1     -21.974  -4.182  -8.547  1.00  0.00     0.009 C 
BRANCH  29  30
HETATM   30  C   UNL     1     -22.408  -3.840  -9.905  1.00  0.00    -0.048 C 
HETATM   31  C   UNL     1     -21.520  -3.396 -10.832  1.00  0.00    -0.077 C 
HETATM   32  C   UNL     1     -21.929  -3.014 -12.241  1.00  0.00     0.034 C 
HETATM   33  C   UNL     1     -20.025  -3.272 -10.639  1.00  0.00     0.044 C 
HETATM   34  C   UNL     1     -23.429  -2.908 -12.461  1.00  0.00     0.005 C 
HETATM   35  C   UNL     1     -24.132  -4.079 -11.799  1.00  0.00     0.014 C 
HETATM   36  C   UNL     1     -23.896  -4.117 -10.260  1.00  0.00    -0.020 C 
HETATM   37  C   UNL     1     -24.378  -5.518  -9.801  1.00  0.00     0.020 C 
HETATM   38  C   UNL     1     -24.803  -3.060  -9.593  1.00  0.00     0.020 C 
ENDBRANCH  29  30
ENDBRANCH  26  28
ENDBRANCH  24  25
ENDBRANCH  21  23
ENDBRANCH   1  20
TORSDOF 21
ENDMDL
MODEL 9
REMARK VINA RESULT:      -6.4      4.414     12.583
REMARK  21 active torsions:
REMARK  status: ('A' for Active; 'I' for Inactive)
REMARK    1  A    between atoms: C_2  and  C_3 
REMARK    2  A    between atoms: C_3  and  C_4 
REMARK    3  A    between atoms: C_4  and  C_5 
REMARK    4  A    between atoms: C_5  and  C_6 
REMARK    5  A    between atoms: C_6  and  C_7 
REMARK    6  A    between atoms: C_7  and  C_8 
REMARK    7  A    between atoms: C_8  and  C_9 
REMARK    8  A    between atoms: C_9  and  C_10 
REMARK    9  A    between atoms: C_10  and  C_11 
REMARK   10  A    between atoms: C_11  and  C_12 
REMARK   11  A    between atoms: C_12  and  C_13 
REMARK   12  A    between atoms: C_13  and  C_14 
REMARK   13  A    between atoms: C_14  and  C_15 
REMARK   14  A    between atoms: C_15  and  C_16 
REMARK   15  A    between atoms: C_16  and  O_18 
REMARK   16  A    between atoms: O_18  and  C_19 
REMARK   17  A    between atoms: C_19  and  C_20 
REMARK   18  A    between atoms: C_21  and  C_23 
REMARK   19  A    between atoms: C_24  and  C_25 
REMARK   20  A    between atoms: C_26  and  C_28 
REMARK   21  A    between atoms: C_29  and  C_30 
ROOT
HETATM    1  C   UNL     1     -17.980  -9.988  -5.739  1.00  0.00     0.206 C 
ENDROOT
BRANCH   1   2
HETATM    2  O   UNL     1     -19.042 -10.923  -5.978  1.00  0.00    -0.318 OA
BRANCH   2   3
HETATM    3  C   UNL     1     -20.228 -10.589  -5.396  1.00  0.00     0.259 C 
HETATM    4  O   UNL     1     -21.056  -9.805  -5.857  1.00  0.00    -0.265 OA
BRANCH   3   5
HETATM    5  C   UNL     1     -20.390 -11.244  -4.058  1.00  0.00     0.111 C 
BRANCH   5   6
HETATM    6  C   UNL     1     -21.051 -10.293  -3.080  1.00  0.00     0.010 C 
BRANCH   6   7
HETATM    7  C   UNL     1     -20.430 -10.399  -1.690  1.00  0.00     0.000 C 
BRANCH   7   8
HETATM    8  C   UNL     1     -21.174  -9.500  -0.710  1.00  0.00     0.000 C 
BRANCH   8   9
HETATM    9  C   UNL     1     -22.174  -8.612  -1.438  1.00  0.00     0.000 C 
BRANCH   9  10
HETATM   10  C   UNL     1     -22.136  -7.196  -0.881  1.00  0.00     0.000 C 
BRANCH  10  11
HETATM   11  C   UNL     1     -22.094  -6.182  -2.014  1.00  0.00     0.000 C 
BRANCH  11  12
HETATM   12  C   UNL     1     -21.359  -6.758  -3.216  1.00  0.00     0.000 C 
BRANCH  12  13
HETATM   13  C   UNL     1     -22.013  -6.292  -4.509  1.00  0.00     0.000 C 
BRANCH  13  14
HETATM   14  C   UNL     1     -20.989  -6.238  -5.631  1.00  0.00     0.000 C 
BRANCH  14  15
HETATM   15  C   UNL     1     -20.175  -4.954  -5.546  1.00  0.00     0.000 C 
BRANCH  15  16
HETATM   16  C   UNL     1     -19.592  -4.601  -6.908  1.00  0.00     0.000 C 
BRANCH  16  17
HETATM   17  C   UNL     1     -20.316  -5.361  -8.013  1.00  0.00    -0.000 C 
BRANCH  17  18
HETATM   18  C   UNL     1     -21.010  -4.400  -8.970  1.00  0.00    -0.005 C 
HETATM   19  C   UNL     1     -22.351  -3.952  -8.410  1.00  0.00     0.005 C 
ENDBRANCH  17  18
ENDBRANCH  16  17
ENDBRANCH  15  16
ENDBRANCH  14  15
ENDBRANCH  13  14
ENDBRANCH  12  13
ENDBRANCH  11  12
ENDBRANCH  10  11
ENDBRANCH   9  10
ENDBRANCH   8   9
ENDBRANCH   7   8
ENDBRANCH   6   7
ENDBRANCH   5   6
ENDBRANCH   3   5
ENDBRANCH   2   3
ENDBRANCH   1   2
BRANCH   1  20
HETATM   20  C   UNL     1     -16.809 -10.633  -5.025  1.00  0.00     0.006 C 
HETATM   21  C   UNL     1     -16.499 -10.379  -3.732  1.00  0.00    -0.064 C 
HETATM   22  C   UNL     1     -17.309  -9.393  -2.915  1.00  0.00     0.048 C 
BRANCH  21  23
HETATM   23  C   UNL     1     -15.376 -11.063  -3.063  1.00  0.00     0.006 C 
HETATM   24  C   UNL     1     -15.441 -12.337  -2.612  1.00  0.00     0.001 C 
BRANCH  24  25
HETATM   25  C   UNL     1     -14.385 -13.103  -1.973  1.00  0.00     0.007 C 
HETATM   26  C   UNL     1     -14.359 -13.444  -0.661  1.00  0.00    -0.062 C 
HETATM   27  C   UNL     1     -15.409 -13.039   0.351  1.00  0.00     0.048 C 
BRANCH  26  28
HETATM   28  C   UNL     1     -13.223 -14.217  -0.139  1.00  0.00     0.007 C 
HETATM   29  C   UNL     1     -12.647 -14.046   1.066  1.00  0.00     0.009 C 
BRANCH  29  30
HETATM   30  C   UNL     1     -11.426 -14.711   1.532  1.00  0.00    -0.048 C 
HETATM   31  C   UNL     1     -10.232 -14.063   1.532  1.00  0.00    -0.077 C 
HETATM   32  C   UNL     1      -8.944 -14.719   1.989  1.00  0.00     0.034 C 
HETATM   33  C   UNL     1     -10.011 -12.616   1.152  1.00  0.00     0.044 C 
HETATM   34  C   UNL     1      -9.033 -16.222   2.190  1.00  0.00     0.005 C 
HETATM   35  C   UNL     1     -10.316 -16.570   2.921  1.00  0.00     0.014 C 
HETATM   36  C   UNL     1     -11.584 -16.139   2.126  1.00  0.00    -0.020 C 
HETATM   37  C   UNL     1     -12.761 -16.250   3.131  1.00  0.00     0.020 C 
HETATM   38  C   UNL     1     -11.830 -17.158   0.992  1.00  0.00     0.020 C 
ENDBRANCH  29  30
ENDBRANCH  26  28
ENDBRANCH  24  25
ENDBRANCH  21  23
ENDBRANCH   1  20
TORSDOF 21
ENDMDL
