MODEL 1
REMARK VINA RESULT:      -8.5      0.000      0.000
REMARK  16 active torsions:
REMARK  status: ('A' for Active; 'I' for Inactive)
REMARK       I    between atoms: C_2  and  N_4 
REMARK    1  A    between atoms: N_4  and  C_5 
REMARK    2  A    between atoms: C_5  and  C_6 
REMARK    3  A    between atoms: C_6  and  C_7 
REMARK       I    between atoms: C_7  and  N_10 
REMARK    4  A    between atoms: N_10  and  CA_11 
REMARK    5  A    between atoms: CA_11  and  CB_12 
REMARK    6  A    between atoms: CA_11  and  C_19 
REMARK    7  A    between atoms: CB_12  and  CG_13 
REMARK       I    between atoms: C_19  and  N_23 
REMARK    8  A    between atoms: N_23  and  CA_24 
REMARK    9  A    between atoms: CA_24  and  CB_25 
REMARK   10  A    between atoms: CA_24  and  C_27 
REMARK   11  A    between atoms: CB_25  and  OG_26 
REMARK       I    between atoms: C_27  and  N_31 
REMARK   12  A    between atoms: N_31  and  CA_32 
REMARK   13  A    between atoms: CA_32  and  CB_33 
REMARK   14  A    between atoms: CA_32  and  C_40 
REMARK   15  A    between atoms: CB_33  and  CG_34 
REMARK   16  A    between atoms: C_40  and  OXT_42 
ROOT
ATOM      1  C   HIS A   1     -20.733  -6.844  -5.525  1.00  0.00     0.221 C 
ATOM      2  O   HIS A   1     -20.987  -7.313  -6.636  1.00  0.00    -0.278 OA
ATOM      3  N   SER A   2     -20.686  -5.471  -5.281  1.00  0.00    -0.246 NA
ATOM      4  H   SER A   2     -19.949  -5.337  -4.593  1.00  0.00     0.131 HD
ENDROOT
BRANCH   3   5
ATOM      5  CA  SER A   2     -20.594  -4.425  -6.346  1.00  0.00     0.178 C 
BRANCH   5   6
ATOM      6  CB  SER A   2     -19.409  -4.663  -7.318  1.00  0.00     0.193 C 
BRANCH   6   7
ATOM      7  OG  SER A   2     -19.696  -5.339  -8.544  1.00  0.00    -0.399 OA
ATOM      8  H   SER A   2     -20.125  -6.201  -8.353  1.00  0.00     0.209 HD
ENDBRANCH   6   7
ENDBRANCH   5   6
BRANCH   5   9
ATOM      9  C   SER A   2     -21.971  -4.137  -7.244  1.00  0.00     0.238 C 
ATOM     10  O   SER A   2     -23.072  -4.525  -6.847  1.00  0.00    -0.272 OA
ATOM     11  N   HIS A   3     -21.853  -3.552  -8.515  1.00  0.00    -0.345 N 
ATOM     12  H   HIS A   3     -20.892  -3.410  -8.806  1.00  0.00     0.163 HD
BRANCH  11  13
ATOM     13  CA  HIS A   3     -22.894  -3.420  -9.638  1.00  0.00     0.188 C 
BRANCH  13  14
ATOM     14  CB  HIS A   3     -22.342  -4.081 -10.959  1.00  0.00     0.094 C 
BRANCH  14  15
ATOM     15  CG  HIS A   3     -22.723  -3.393 -12.240  1.00  0.00     0.028 A 
ATOM     16  CD2 HIS A   3     -23.731  -2.505 -12.480  1.00  0.00     0.114 A 
ATOM     17  NE2 HIS A   3     -23.826  -2.103 -13.777  1.00  0.00    -0.360 N 
ATOM     18  CE1 HIS A   3     -22.854  -2.740 -14.371  1.00  0.00     0.180 A 
ATOM     19  HE2 HIS A   3     -24.498  -1.455 -14.188  1.00  0.00     0.166 HD
ATOM     20  ND1 HIS A   3     -22.111  -3.471 -13.472  1.00  0.00    -0.354 N 
ATOM     21  HD1 HIS A   3     -21.283  -3.987 -13.720  1.00  0.00     0.166 HD
ENDBRANCH  14  15
ENDBRANCH  13  14
BRANCH  13  22
ATOM     22  C   HIS A   3     -24.451  -3.857  -9.547  1.00  0.00     0.163 C 
ATOM     23  O   HIS A   3     -24.998  -4.919  -9.791  1.00  0.00    -0.648 OA
BRANCH  22  24
ATOM     24  OXT HIS A   3     -25.280  -2.850  -9.217  1.00  0.00    -0.775 OA
ATOM     25  HXT HIS A   3     -25.163  -1.996  -9.709  1.00  0.00     0.167 HD
ENDBRANCH  22  24
ENDBRANCH  13  22
ENDBRANCH  11  13
ENDBRANCH   5   9
ENDBRANCH   3   5
BRANCH   1  26
ATOM     26  CA  HIS A   1     -20.612  -7.767  -4.266  1.00  0.00     0.176 C 
BRANCH  26  27
ATOM     27  N   HIS A   1     -21.639  -7.453  -3.275  1.00  0.00    -0.348 N 
HETATM   28  C   UNK A   0     -21.286  -7.448  -1.935  1.00  0.00     0.219 C 
HETATM   29  O   UNK A   0     -20.197  -7.849  -1.536  1.00  0.00    -0.274 OA
ATOM     30  H   HIS A   1     -22.568  -7.178  -3.571  1.00  0.00     0.163 HD
BRANCH  28  31
HETATM   31  C   UNK A   0     -22.308  -6.815  -1.029  1.00  0.00     0.122 C 
BRANCH  31  32
HETATM   32  C   UNK A   0     -22.809  -7.778   0.073  1.00  0.00     0.132 C 
BRANCH  32  33
HETATM   33  N   UNK A   0     -22.079  -9.044   0.406  1.00  0.00    -0.361 N 
HETATM   34  C   UNK A   0     -22.472 -10.286   0.012  1.00  0.00     0.213 C 
HETATM   35  C   UNK A   0     -21.665 -11.526   0.387  1.00  0.00     0.117 C 
HETATM   36  O   UNK A   0     -23.417 -10.383  -0.764  1.00  0.00    -0.274 OA
HETATM   37  H   UNK A   0     -21.065  -8.962   0.472  1.00  0.00     0.162 HD
ENDBRANCH  32  33
ENDBRANCH  31  32
ENDBRANCH  28  31
ENDBRANCH  26  27
BRANCH  26  38
ATOM     38  CB  HIS A   1     -20.642  -9.229  -4.738  1.00  0.00     0.092 C 
BRANCH  38  39
ATOM     39  CG  HIS A   1     -19.304  -9.854  -4.986  1.00  0.00     0.028 A 
ATOM     40  CD2 HIS A   1     -18.552 -10.793  -4.309  1.00  0.00     0.114 A 
ATOM     41  NE2 HIS A   1     -17.349 -11.003  -4.934  1.00  0.00    -0.360 N 
ATOM     42  CE1 HIS A   1     -17.341 -10.186  -5.960  1.00  0.00     0.180 A 
ATOM     43  HE2 HIS A   1     -16.616 -11.657  -4.658  1.00  0.00     0.166 HD
ATOM     44  ND1 HIS A   1     -18.509  -9.484  -6.046  1.00  0.00    -0.354 N 
ATOM     45  HD1 HIS A   1     -18.730  -8.798  -6.753  1.00  0.00     0.166 HD
ENDBRANCH  38  39
ENDBRANCH  26  38
ENDBRANCH   1  26
TORSDOF 16
ENDMDL
MODEL 2
REMARK VINA RESULT:      -8.4      1.744      4.415
REMARK  16 active torsions:
REMARK  status: ('A' for Active; 'I' for Inactive)
REMARK       I    between atoms: C_2  and  N_4 
REMARK    1  A    between atoms: N_4  and  C_5 
REMARK    2  A    between atoms: C_5  and  C_6 
REMARK    3  A    between atoms: C_6  and  C_7 
REMARK       I    between atoms: C_7  and  N_10 
REMARK    4  A    between atoms: N_10  and  CA_11 
REMARK    5  A    between atoms: CA_11  and  CB_12 
REMARK    6  A    between atoms: CA_11  and  C_19 
REMARK    7  A    between atoms: CB_12  and  CG_13 
REMARK       I    between atoms: C_19  and  N_23 
REMARK    8  A    between atoms: N_23  and  CA_24 
REMARK    9  A    between atoms: CA_24  and  CB_25 
REMARK   10  A    between atoms: CA_24  and  C_27 
REMARK   11  A    between atoms: CB_25  and  OG_26 
REMARK       I    between atoms: C_27  and  N_31 
REMARK   12  A    between atoms: N_31  and  CA_32 
REMARK   13  A    between atoms: CA_32  and  CB_33 
REMARK   14  A    between atoms: CA_32  and  C_40 
REMARK   15  A    between atoms: CB_33  and  CG_34 
REMARK   16  A    between atoms: C_40  and  OXT_42 
ROOT
ATOM      1  C   HIS A   1     -21.054  -6.837  -5.526  1.00  0.00     0.221 C 
ATOM      2  O   HIS A   1     -21.190  -7.346  -6.640  1.00  0.00    -0.278 OA
ATOM      3  N   SER A   2     -21.098  -5.458  -5.319  1.00  0.00    -0.246 NA
ATOM      4  H   SER A   2     -20.429  -5.268  -4.577  1.00  0.00     0.131 HD
ENDROOT
BRANCH   3   5
ATOM      5  CA  SER A   2     -20.969  -4.434  -6.402  1.00  0.00     0.178 C 
BRANCH   5   6
ATOM      6  CB  SER A   2     -19.748  -4.687  -7.323  1.00  0.00     0.193 C 
BRANCH   6   7
ATOM      7  OG  SER A   2     -19.998  -5.324  -8.578  1.00  0.00    -0.399 OA
ATOM      8  H   SER A   2     -19.151  -5.634  -8.966  1.00  0.00     0.209 HD
ENDBRANCH   6   7
ENDBRANCH   5   6
BRANCH   5   9
ATOM      9  C   SER A   2     -22.313  -4.173  -7.357  1.00  0.00     0.238 C 
ATOM     10  O   SER A   2     -23.394  -4.694  -7.076  1.00  0.00    -0.272 OA
ATOM     11  N   HIS A   3     -22.176  -3.448  -8.553  1.00  0.00    -0.345 N 
ATOM     12  H   HIS A   3     -21.218  -3.194  -8.762  1.00  0.00     0.163 HD
BRANCH  11  13
ATOM     13  CA  HIS A   3     -23.158  -3.289  -9.724  1.00  0.00     0.188 C 
BRANCH  13  14
ATOM     14  CB  HIS A   3     -22.598  -4.034 -10.996  1.00  0.00     0.094 C 
BRANCH  14  15
ATOM     15  CG  HIS A   3     -22.864  -3.362 -12.314  1.00  0.00     0.028 A 
ATOM     16  CD2 HIS A   3     -23.834  -2.463 -12.648  1.00  0.00     0.114 A 
ATOM     17  NE2 HIS A   3     -23.820  -2.082 -13.955  1.00  0.00    -0.360 N 
ATOM     18  CE1 HIS A   3     -22.815  -2.745 -14.459  1.00  0.00     0.180 A 
ATOM     19  HE2 HIS A   3     -24.446  -1.431 -14.428  1.00  0.00     0.166 HD
ATOM     20  ND1 HIS A   3     -22.158  -3.471 -13.492  1.00  0.00    -0.354 N 
ATOM     21  HD1 HIS A   3     -21.322  -4.005 -13.665  1.00  0.00     0.166 HD
ENDBRANCH  14  15
ENDBRANCH  13  14
BRANCH  13  22
ATOM     22  C   HIS A   3     -24.743  -3.617  -9.687  1.00  0.00     0.163 C 
ATOM     23  O   HIS A   3     -25.713  -2.876  -9.693  1.00  0.00    -0.648 OA
BRANCH  22  24
ATOM     24  OXT HIS A   3     -25.026  -4.926  -9.555  1.00  0.00    -0.775 OA
ATOM     25  HXT HIS A   3     -24.283  -5.562  -9.724  1.00  0.00     0.167 HD
ENDBRANCH  22  24
ENDBRANCH  13  22
ENDBRANCH  11  13
ENDBRANCH   5   9
ENDBRANCH   3   5
BRANCH   1  26
ATOM     26  CA  HIS A   1     -20.992  -7.721  -4.235  1.00  0.00     0.176 C 
BRANCH  26  27
ATOM     27  N   HIS A   1     -19.692  -8.377  -4.101  1.00  0.00    -0.348 N 
HETATM   28  C   UNK A   0     -19.602  -9.730  -4.383  1.00  0.00     0.219 C 
HETATM   29  O   UNK A   0     -20.588 -10.432  -4.583  1.00  0.00    -0.274 OA
ATOM     30  H   HIS A   1     -18.868  -7.834  -3.875  1.00  0.00     0.163 HD
BRANCH  28  31
HETATM   31  C   UNK A   0     -18.193 -10.239  -4.524  1.00  0.00     0.122 C 
BRANCH  31  32
HETATM   32  C   UNK A   0     -17.750 -10.375  -6.000  1.00  0.00     0.132 C 
BRANCH  32  33
HETATM   33  N   UNK A   0     -18.618 -11.037  -7.026  1.00  0.00    -0.361 N 
HETATM   34  C   UNK A   0     -18.593 -12.366  -7.314  1.00  0.00     0.213 C 
HETATM   35  C   UNK A   0     -19.519 -12.964  -8.369  1.00  0.00     0.117 C 
HETATM   36  O   UNK A   0     -17.903 -13.104  -6.618  1.00  0.00    -0.274 OA
HETATM   37  H   UNK A   0     -19.549 -10.635  -7.140  1.00  0.00     0.162 HD
ENDBRANCH  32  33
ENDBRANCH  31  32
ENDBRANCH  28  31
ENDBRANCH  26  27
BRANCH  26  38
ATOM     38  CB  HIS A   1     -21.362  -6.841  -3.032  1.00  0.00     0.092 C 
BRANCH  38  39
ATOM     39  CG  HIS A   1     -21.805  -7.578  -1.805  1.00  0.00     0.028 A 
ATOM     40  CD2 HIS A   1     -21.882  -8.916  -1.476  1.00  0.00     0.114 A 
ATOM     41  NE2 HIS A   1     -22.407  -9.083  -0.219  1.00  0.00    -0.360 N 
ATOM     42  CE1 HIS A   1     -22.681  -7.874   0.208  1.00  0.00     0.180 A 
ATOM     43  HE2 HIS A   1     -22.553  -9.962   0.277  1.00  0.00     0.166 HD
ATOM     44  ND1 HIS A   1     -22.317  -6.928  -0.707  1.00  0.00    -0.354 N 
ATOM     45  HD1 HIS A   1     -22.432  -5.930  -0.596  1.00  0.00     0.166 HD
ENDBRANCH  38  39
ENDBRANCH  26  38
ENDBRANCH   1  26
TORSDOF 16
ENDMDL
MODEL 3
REMARK VINA RESULT:      -7.8      2.205      3.624
REMARK  16 active torsions:
REMARK  status: ('A' for Active; 'I' for Inactive)
REMARK       I    between atoms: C_2  and  N_4 
REMARK    1  A    between atoms: N_4  and  C_5 
REMARK    2  A    between atoms: C_5  and  C_6 
REMARK    3  A    between atoms: C_6  and  C_7 
REMARK       I    between atoms: C_7  and  N_10 
REMARK    4  A    between atoms: N_10  and  CA_11 
REMARK    5  A    between atoms: CA_11  and  CB_12 
REMARK    6  A    between atoms: CA_11  and  C_19 
REMARK    7  A    between atoms: CB_12  and  CG_13 
REMARK       I    between atoms: C_19  and  N_23 
REMARK    8  A    between atoms: N_23  and  CA_24 
REMARK    9  A    between atoms: CA_24  and  CB_25 
REMARK   10  A    between atoms: CA_24  and  C_27 
REMARK   11  A    between atoms: CB_25  and  OG_26 
REMARK       I    between atoms: C_27  and  N_31 
REMARK   12  A    between atoms: N_31  and  CA_32 
REMARK   13  A    between atoms: CA_32  and  CB_33 
REMARK   14  A    between atoms: CA_32  and  C_40 
REMARK   15  A    between atoms: CB_33  and  CG_34 
REMARK   16  A    between atoms: C_40  and  OXT_42 
ROOT
ATOM      1  C   HIS A   1     -20.351  -8.953  -4.695  1.00  0.00     0.221 C 
ATOM      2  O   HIS A   1     -21.109  -9.137  -5.649  1.00  0.00    -0.278 OA
ATOM      3  N   SER A   2     -20.496  -7.881  -3.815  1.00  0.00    -0.246 NA
ATOM      4  H   SER A   2     -19.552  -7.607  -3.555  1.00  0.00     0.131 HD
ENDROOT
BRANCH   3   5
ATOM      5  CA  SER A   2     -21.328  -6.667  -4.088  1.00  0.00     0.178 C 
BRANCH   5   6
ATOM      6  CB  SER A   2     -21.455  -5.738  -2.854  1.00  0.00     0.193 C 
BRANCH   6   7
ATOM      7  OG  SER A   2     -22.592  -5.929  -2.008  1.00  0.00    -0.399 OA
ATOM      8  H   SER A   2     -23.414  -5.756  -2.515  1.00  0.00     0.209 HD
ENDBRANCH   6   7
ENDBRANCH   5   6
BRANCH   5   9
ATOM      9  C   SER A   2     -20.902  -5.743  -5.411  1.00  0.00     0.238 C 
ATOM     10  O   SER A   2     -20.257  -4.702  -5.269  1.00  0.00    -0.272 OA
ATOM     11  N   HIS A   3     -21.386  -6.097  -6.681  1.00  0.00    -0.345 N 
ATOM     12  H   HIS A   3     -22.028  -6.882  -6.664  1.00  0.00     0.163 HD
BRANCH  11  13
ATOM     13  CA  HIS A   3     -21.375  -5.301  -7.995  1.00  0.00     0.188 C 
BRANCH  13  14
ATOM     14  CB  HIS A   3     -22.381  -4.090  -7.895  1.00  0.00     0.094 C 
BRANCH  14  15
ATOM     15  CG  HIS A   3     -23.146  -3.773  -9.149  1.00  0.00     0.028 A 
ATOM     16  CD2 HIS A   3     -24.494  -3.679  -9.342  1.00  0.00     0.114 A 
ATOM     17  NE2 HIS A   3     -24.859  -3.416 -10.627  1.00  0.00    -0.360 N 
ATOM     18  CE1 HIS A   3     -23.721  -3.331 -11.261  1.00  0.00     0.180 A 
ATOM     19  HE2 HIS A   3     -25.800  -3.309 -11.005  1.00  0.00     0.166 HD
ATOM     20  ND1 HIS A   3     -22.656  -3.462 -10.399  1.00  0.00    -0.354 N 
ATOM     21  HD1 HIS A   3     -21.693  -3.368 -10.680  1.00  0.00     0.166 HD
ENDBRANCH  14  15
ENDBRANCH  13  14
BRANCH  13  22
ATOM     22  C   HIS A   3     -20.062  -4.718  -8.744  1.00  0.00     0.163 C 
ATOM     23  O   HIS A   3     -19.758  -4.701  -9.925  1.00  0.00    -0.648 OA
BRANCH  22  24
ATOM     24  OXT HIS A   3     -19.124  -4.241  -7.905  1.00  0.00    -0.775 OA
ATOM     25  HXT HIS A   3     -19.273  -3.330  -7.542  1.00  0.00     0.167 HD
ENDBRANCH  22  24
ENDBRANCH  13  22
ENDBRANCH  11  13
ENDBRANCH   5   9
ENDBRANCH   3   5
BRANCH   1  26
ATOM     26  CA  HIS A   1     -19.269 -10.016  -4.306  1.00  0.00     0.176 C 
BRANCH  26  27
ATOM     27  N   HIS A   1     -19.677 -10.785  -3.130  1.00  0.00    -0.348 N 
HETATM   28  C   UNK A   0     -18.742 -11.014  -2.134  1.00  0.00     0.219 C 
HETATM   29  O   UNK A   0     -17.553 -10.742  -2.266  1.00  0.00    -0.274 OA
ATOM     30  H   HIS A   1     -20.640 -11.079  -3.021  1.00  0.00     0.163 HD
BRANCH  28  31
HETATM   31  C   UNK A   0     -19.326 -11.528  -0.846  1.00  0.00     0.122 C 
BRANCH  31  32
HETATM   32  C   UNK A   0     -20.871 -11.451  -0.816  1.00  0.00     0.132 C 
BRANCH  32  33
HETATM   33  N   UNK A   0     -21.594 -10.443   0.024  1.00  0.00    -0.361 N 
HETATM   34  C   UNK A   0     -22.090  -9.265  -0.442  1.00  0.00     0.213 C 
HETATM   35  C   UNK A   0     -22.823  -8.295   0.479  1.00  0.00     0.117 C 
HETATM   36  O   UNK A   0     -22.054  -9.050  -1.650  1.00  0.00    -0.274 OA
HETATM   37  H   UNK A   0     -22.159 -10.826   0.782  1.00  0.00     0.162 HD
ENDBRANCH  32  33
ENDBRANCH  31  32
ENDBRANCH  28  31
ENDBRANCH  26  27
BRANCH  26  38
ATOM     38  CB  HIS A   1     -18.987 -10.887  -5.539  1.00  0.00     0.092 C 
BRANCH  38  39
ATOM     39  CG  HIS A   1     -17.541 -11.173  -5.809  1.00  0.00     0.028 A 
ATOM     40  CD2 HIS A   1     -16.886 -12.096  -6.599  1.00  0.00     0.114 A 
ATOM     41  NE2 HIS A   1     -15.526 -11.978  -6.466  1.00  0.00    -0.360 N 
ATOM     42  CE1 HIS A   1     -15.342 -11.024  -5.586  1.00  0.00     0.180 A 
ATOM     43  HE2 HIS A   1     -14.809 -12.519  -6.951  1.00  0.00     0.166 HD
ATOM     44  ND1 HIS A   1     -16.530 -10.492  -5.174  1.00  0.00    -0.354 N 
ATOM     45  HD1 HIS A   1     -16.637  -9.747  -4.500  1.00  0.00     0.166 HD
ENDBRANCH  38  39
ENDBRANCH  26  38
ENDBRANCH   1  26
TORSDOF 16
ENDMDL
MODEL 4
REMARK VINA RESULT:      -7.1      2.590      4.444
REMARK  16 active torsions:
REMARK  status: ('A' for Active; 'I' for Inactive)
REMARK       I    between atoms: C_2  and  N_4 
REMARK    1  A    between atoms: N_4  and  C_5 
REMARK    2  A    between atoms: C_5  and  C_6 
REMARK    3  A    between atoms: C_6  and  C_7 
REMARK       I    between atoms: C_7  and  N_10 
REMARK    4  A    between atoms: N_10  and  CA_11 
REMARK    5  A    between atoms: CA_11  and  CB_12 
REMARK    6  A    between atoms: CA_11  and  C_19 
REMARK    7  A    between atoms: CB_12  and  CG_13 
REMARK       I    between atoms: C_19  and  N_23 
REMARK    8  A    between atoms: N_23  and  CA_24 
REMARK    9  A    between atoms: CA_24  and  CB_25 
REMARK   10  A    between atoms: CA_24  and  C_27 
REMARK   11  A    between atoms: CB_25  and  OG_26 
REMARK       I    between atoms: C_27  and  N_31 
REMARK   12  A    between atoms: N_31  and  CA_32 
REMARK   13  A    between atoms: CA_32  and  CB_33 
REMARK   14  A    between atoms: CA_32  and  C_40 
REMARK   15  A    between atoms: CB_33  and  CG_34 
REMARK   16  A    between atoms: C_40  and  OXT_42 
ROOT
ATOM      1  C   HIS A   1     -21.199  -9.124  -1.908  1.00  0.00     0.221 C 
ATOM      2  O   HIS A   1     -22.144  -8.741  -1.216  1.00  0.00    -0.278 OA
ATOM      3  N   SER A   2     -20.754  -8.422  -3.028  1.00  0.00    -0.246 NA
ATOM      4  H   SER A   2     -20.457  -9.129  -3.697  1.00  0.00     0.131 HD
ENDROOT
BRANCH   3   5
ATOM      5  CA  SER A   2     -21.536  -7.352  -3.722  1.00  0.00     0.178 C 
BRANCH   5   6
ATOM      6  CB  SER A   2     -21.493  -5.997  -2.971  1.00  0.00     0.193 C 
BRANCH   6   7
ATOM      7  OG  SER A   2     -22.474  -5.782  -1.954  1.00  0.00    -0.399 OA
ATOM      8  H   SER A   2     -22.148  -5.113  -1.315  1.00  0.00     0.209 HD
ENDBRANCH   6   7
ENDBRANCH   5   6
BRANCH   5   9
ATOM      9  C   SER A   2     -21.184  -7.083  -5.331  1.00  0.00     0.238 C 
ATOM     10  O   SER A   2     -20.354  -7.781  -5.917  1.00  0.00    -0.272 OA
ATOM     11  N   HIS A   3     -21.753  -5.977  -5.984  1.00  0.00    -0.345 N 
ATOM     12  H   HIS A   3     -22.301  -5.385  -5.370  1.00  0.00     0.163 HD
BRANCH  11  13
ATOM     13  CA  HIS A   3     -21.406  -5.353  -7.344  1.00  0.00     0.188 C 
BRANCH  13  14
ATOM     14  CB  HIS A   3     -22.326  -4.100  -7.607  1.00  0.00     0.094 C 
BRANCH  14  15
ATOM     15  CG  HIS A   3     -23.087  -4.111  -8.904  1.00  0.00     0.028 A 
ATOM     16  CD2 HIS A   3     -24.243  -3.465  -9.236  1.00  0.00     0.114 A 
ATOM     17  NE2 HIS A   3     -24.690  -3.729 -10.495  1.00  0.00    -0.360 N 
ATOM     18  CE1 HIS A   3     -23.796  -4.550 -10.975  1.00  0.00     0.180 A 
ATOM     19  HE2 HIS A   3     -25.526  -3.370 -10.954  1.00  0.00     0.166 HD
ATOM     20  ND1 HIS A   3     -22.768  -4.750 -10.082  1.00  0.00    -0.354 N 
ATOM     21  HD1 HIS A   3     -21.951  -5.303 -10.284  1.00  0.00     0.166 HD
ENDBRANCH  14  15
ENDBRANCH  13  14
BRANCH  13  22
ATOM     22  C   HIS A   3     -19.927  -4.922  -7.844  1.00  0.00     0.163 C 
ATOM     23  O   HIS A   3     -18.914  -4.667  -7.215  1.00  0.00    -0.648 OA
BRANCH  22  24
ATOM     24  OXT HIS A   3     -19.831  -4.749  -9.176  1.00  0.00    -0.775 OA
ATOM     25  HXT HIS A   3     -20.101  -3.863  -9.530  1.00  0.00     0.167 HD
ENDBRANCH  22  24
ENDBRANCH  13  22
ENDBRANCH  11  13
ENDBRANCH   5   9
ENDBRANCH   3   5
BRANCH   1  26
ATOM     26  CA  HIS A   1     -20.320 -10.345  -1.472  1.00  0.00     0.176 C 
BRANCH  26  27
ATOM     27  N   HIS A   1     -21.143 -11.428  -0.934  1.00  0.00    -0.348 N 
HETATM   28  C   UNK A   0     -21.248 -11.558   0.441  1.00  0.00     0.219 C 
HETATM   29  O   UNK A   0     -20.558 -10.909   1.222  1.00  0.00    -0.274 OA
ATOM     30  H   HIS A   1     -21.677 -12.021  -1.558  1.00  0.00     0.163 HD
BRANCH  28  31
HETATM   31  C   UNK A   0     -22.347 -12.482   0.892  1.00  0.00     0.122 C 
BRANCH  31  32
HETATM   32  C   UNK A   0     -23.459 -12.652  -0.170  1.00  0.00     0.132 C 
BRANCH  32  33
HETATM   33  N   UNK A   0     -23.615 -13.920  -0.953  1.00  0.00    -0.361 N 
HETATM   34  C   UNK A   0     -23.317 -14.050  -2.274  1.00  0.00     0.213 C 
HETATM   35  C   UNK A   0     -23.496 -15.382  -2.997  1.00  0.00     0.117 C 
HETATM   36  O   UNK A   0     -22.775 -13.111  -2.849  1.00  0.00    -0.274 OA
HETATM   37  H   UNK A   0     -23.449 -14.781  -0.433  1.00  0.00     0.162 HD
ENDBRANCH  32  33
ENDBRANCH  31  32
ENDBRANCH  28  31
ENDBRANCH  26  27
BRANCH  26  38
ATOM     38  CB  HIS A   1     -19.458 -10.768  -2.670  1.00  0.00     0.092 C 
BRANCH  38  39
ATOM     39  CG  HIS A   1     -17.987 -10.521  -2.526  1.00  0.00     0.028 A 
ATOM     40  CD2 HIS A   1     -17.127  -9.575  -3.045  1.00  0.00     0.114 A 
ATOM     41  NE2 HIS A   1     -15.837  -9.808  -2.639  1.00  0.00    -0.360 N 
ATOM     42  CE1 HIS A   1     -15.893 -10.897  -1.910  1.00  0.00     0.180 A 
ATOM     43  HE2 HIS A   1     -15.011  -9.251  -2.858  1.00  0.00     0.166 HD
ATOM     44  ND1 HIS A   1     -17.174 -11.354  -1.796  1.00  0.00    -0.354 N 
ATOM     45  HD1 HIS A   1     -17.459 -12.177  -1.283  1.00  0.00     0.166 HD
ENDBRANCH  38  39
ENDBRANCH  26  38
ENDBRANCH   1  26
TORSDOF 16
ENDMDL
MODEL 5
REMARK VINA RESULT:      -7.0      2.647      5.647
REMARK  16 active torsions:
REMARK  status: ('A' for Active; 'I' for Inactive)
REMARK       I    between atoms: C_2  and  N_4 
REMARK    1  A    between atoms: N_4  and  C_5 
REMARK    2  A    between atoms: C_5  and  C_6 
REMARK    3  A    between atoms: C_6  and  C_7 
REMARK       I    between atoms: C_7  and  N_10 
REMARK    4  A    between atoms: N_10  and  CA_11 
REMARK    5  A    between atoms: CA_11  and  CB_12 
REMARK    6  A    between atoms: CA_11  and  C_19 
REMARK    7  A    between atoms: CB_12  and  CG_13 
REMARK       I    between atoms: C_19  and  N_23 
REMARK    8  A    between atoms: N_23  and  CA_24 
REMARK    9  A    between atoms: CA_24  and  CB_25 
REMARK   10  A    between atoms: CA_24  and  C_27 
REMARK   11  A    between atoms: CB_25  and  OG_26 
REMARK       I    between atoms: C_27  and  N_31 
REMARK   12  A    between atoms: N_31  and  CA_32 
REMARK   13  A    between atoms: CA_32  and  CB_33 
REMARK   14  A    between atoms: CA_32  and  C_40 
REMARK   15  A    between atoms: CB_33  and  CG_34 
REMARK   16  A    between atoms: C_40  and  OXT_42 
ROOT
ATOM      1  C   HIS A   1     -20.500  -8.804  -4.267  1.00  0.00     0.221 C 
ATOM      2  O   HIS A   1     -19.453  -8.213  -4.539  1.00  0.00    -0.278 OA
ATOM      3  N   SER A   2     -21.738  -8.163  -4.230  1.00  0.00    -0.246 NA
ATOM      4  H   SER A   2     -22.260  -8.611  -3.481  1.00  0.00     0.131 HD
ENDROOT
BRANCH   3   5
ATOM      5  CA  SER A   2     -21.922  -6.679  -4.170  1.00  0.00     0.178 C 
BRANCH   5   6
ATOM      6  CB  SER A   2     -21.469  -6.075  -2.816  1.00  0.00     0.193 C 
BRANCH   6   7
ATOM      7  OG  SER A   2     -22.493  -5.745  -1.874  1.00  0.00    -0.399 OA
ATOM      8  H   SER A   2     -23.374  -5.907  -2.273  1.00  0.00     0.209 HD
ENDBRANCH   6   7
ENDBRANCH   5   6
BRANCH   5   9
ATOM      9  C   SER A   2     -21.248  -5.784  -5.407  1.00  0.00     0.238 C 
ATOM     10  O   SER A   2     -20.481  -4.851  -5.161  1.00  0.00    -0.272 OA
ATOM     11  N   HIS A   3     -21.653  -6.026  -6.730  1.00  0.00    -0.345 N 
ATOM     12  H   HIS A   3     -22.396  -6.711  -6.805  1.00  0.00     0.163 HD
BRANCH  11  13
ATOM     13  CA  HIS A   3     -21.406  -5.199  -8.000  1.00  0.00     0.188 C 
BRANCH  13  14
ATOM     14  CB  HIS A   3     -22.333  -3.923  -7.996  1.00  0.00     0.094 C 
BRANCH  14  15
ATOM     15  CG  HIS A   3     -23.114  -3.681  -9.258  1.00  0.00     0.028 A 
ATOM     16  CD2 HIS A   3     -24.462  -3.574  -9.436  1.00  0.00     0.114 A 
ATOM     17  NE2 HIS A   3     -24.844  -3.395 -10.730  1.00  0.00    -0.360 N 
ATOM     18  CE1 HIS A   3     -23.716  -3.378 -11.386  1.00  0.00     0.180 A 
ATOM     19  HE2 HIS A   3     -25.790  -3.297 -11.100  1.00  0.00     0.166 HD
ATOM     20  ND1 HIS A   3     -22.639  -3.468 -10.534  1.00  0.00    -0.354 N 
ATOM     21  HD1 HIS A   3     -21.680  -3.414 -10.837  1.00  0.00     0.166 HD
ENDBRANCH  14  15
ENDBRANCH  13  14
BRANCH  13  22
ATOM     22  C   HIS A   3     -19.966  -4.691  -8.541  1.00  0.00     0.163 C 
ATOM     23  O   HIS A   3     -19.014  -4.210  -7.949  1.00  0.00    -0.648 OA
BRANCH  22  24
ATOM     24  OXT HIS A   3     -19.836  -4.747  -9.879  1.00  0.00    -0.775 OA
ATOM     25  HXT HIS A   3     -18.924  -4.608 -10.245  1.00  0.00     0.167 HD
ENDBRANCH  22  24
ENDBRANCH  13  22
ENDBRANCH  11  13
ENDBRANCH   5   9
ENDBRANCH   3   5
BRANCH   1  26
ATOM     26  CA  HIS A   1     -20.531 -10.362  -4.111  1.00  0.00     0.176 C 
BRANCH  26  27
ATOM     27  N   HIS A   1     -19.358 -10.848  -3.387  1.00  0.00    -0.348 N 
HETATM   28  C   UNK A   0     -18.266 -11.288  -4.118  1.00  0.00     0.219 C 
HETATM   29  O   UNK A   0     -18.300 -11.437  -5.335  1.00  0.00    -0.274 OA
ATOM     30  H   HIS A   1     -19.323 -10.795  -2.376  1.00  0.00     0.163 HD
BRANCH  28  31
HETATM   31  C   UNK A   0     -17.011 -11.466  -3.306  1.00  0.00     0.122 C 
BRANCH  31  32
HETATM   32  C   UNK A   0     -15.779 -10.789  -3.953  1.00  0.00     0.132 C 
BRANCH  32  33
HETATM   33  N   UNK A   0     -15.108 -11.362  -5.164  1.00  0.00    -0.361 N 
HETATM   34  C   UNK A   0     -13.995 -12.144  -5.130  1.00  0.00     0.213 C 
HETATM   35  C   UNK A   0     -13.378 -12.697  -6.412  1.00  0.00     0.117 C 
HETATM   36  O   UNK A   0     -13.567 -12.508  -4.040  1.00  0.00    -0.274 OA
HETATM   37  H   UNK A   0     -15.729 -11.607  -5.935  1.00  0.00     0.162 HD
ENDBRANCH  32  33
ENDBRANCH  31  32
ENDBRANCH  28  31
ENDBRANCH  26  27
BRANCH  26  38
ATOM     38  CB  HIS A   1     -21.863 -10.752  -3.451  1.00  0.00     0.092 C 
BRANCH  38  39
ATOM     39  CG  HIS A   1     -21.882 -10.694  -1.955  1.00  0.00     0.028 A 
ATOM     40  CD2 HIS A   1     -21.867 -11.656  -0.965  1.00  0.00     0.114 A 
ATOM     41  NE2 HIS A   1     -21.944 -11.083   0.279  1.00  0.00    -0.360 N 
ATOM     42  CE1 HIS A   1     -22.040  -9.792   0.063  1.00  0.00     0.180 A 
ATOM     43  HE2 HIS A   1     -21.930 -11.560   1.180  1.00  0.00     0.166 HD
ATOM     44  ND1 HIS A   1     -21.987  -9.506  -1.270  1.00  0.00    -0.354 N 
ATOM     45  HD1 HIS A   1     -22.042  -8.581  -1.674  1.00  0.00     0.166 HD
ENDBRANCH  38  39
ENDBRANCH  26  38
ENDBRANCH   1  26
TORSDOF 16
ENDMDL
MODEL 6
REMARK VINA RESULT:      -6.9      7.274     13.953
REMARK  16 active torsions:
REMARK  status: ('A' for Active; 'I' for Inactive)
REMARK       I    between atoms: C_2  and  N_4 
REMARK    1  A    between atoms: N_4  and  C_5 
REMARK    2  A    between atoms: C_5  and  C_6 
REMARK    3  A    between atoms: C_6  and  C_7 
REMARK       I    between atoms: C_7  and  N_10 
REMARK    4  A    between atoms: N_10  and  CA_11 
REMARK    5  A    between atoms: CA_11  and  CB_12 
REMARK    6  A    between atoms: CA_11  and  C_19 
REMARK    7  A    between atoms: CB_12  and  CG_13 
REMARK       I    between atoms: C_19  and  N_23 
REMARK    8  A    between atoms: N_23  and  CA_24 
REMARK    9  A    between atoms: CA_24  and  CB_25 
REMARK   10  A    between atoms: CA_24  and  C_27 
REMARK   11  A    between atoms: CB_25  and  OG_26 
REMARK       I    between atoms: C_27  and  N_31 
REMARK   12  A    between atoms: N_31  and  CA_32 
REMARK   13  A    between atoms: CA_32  and  CB_33 
REMARK   14  A    between atoms: CA_32  and  C_40 
REMARK   15  A    between atoms: CB_33  and  CG_34 
REMARK   16  A    between atoms: C_40  and  OXT_42 
ROOT
ATOM      1  C   HIS A   1     -27.707  -6.500 -16.522  1.00  0.00     0.221 C 
ATOM      2  O   HIS A   1     -28.104  -5.962 -15.487  1.00  0.00    -0.278 OA
ATOM      3  N   SER A   2     -26.505  -7.203 -16.591  1.00  0.00    -0.246 NA
ATOM      4  H   SER A   2     -26.132  -7.025 -17.520  1.00  0.00     0.131 HD
ENDROOT
BRANCH   3   5
ATOM      5  CA  SER A   2     -25.412  -7.115 -15.572  1.00  0.00     0.178 C 
BRANCH   5   6
ATOM      6  CB  SER A   2     -24.164  -7.950 -15.959  1.00  0.00     0.193 C 
BRANCH   6   7
ATOM      7  OG  SER A   2     -23.724  -7.873 -17.317  1.00  0.00    -0.399 OA
ATOM      8  H   SER A   2     -24.283  -8.451 -17.880  1.00  0.00     0.209 HD
ENDBRANCH   6   7
ENDBRANCH   5   6
BRANCH   5   9
ATOM      9  C   SER A   2     -24.915  -5.585 -15.129  1.00  0.00     0.238 C 
ATOM     10  O   SER A   2     -24.581  -4.761 -15.983  1.00  0.00    -0.272 OA
ATOM     11  N   HIS A   3     -24.767  -5.279 -13.766  1.00  0.00    -0.345 N 
ATOM     12  H   HIS A   3     -24.923  -6.073 -13.155  1.00  0.00     0.163 HD
BRANCH  11  13
ATOM     13  CA  HIS A   3     -24.089  -4.073 -13.097  1.00  0.00     0.188 C 
BRANCH  13  14
ATOM     14  CB  HIS A   3     -22.987  -4.572 -12.086  1.00  0.00     0.094 C 
BRANCH  14  15
ATOM     15  CG  HIS A   3     -23.291  -4.352 -10.630  1.00  0.00     0.028 A 
ATOM     16  CD2 HIS A   3     -24.401  -3.812 -10.049  1.00  0.00     0.114 A 
ATOM     17  NE2 HIS A   3     -24.333  -3.719  -8.692  1.00  0.00    -0.360 N 
ATOM     18  CE1 HIS A   3     -23.162  -4.217  -8.406  1.00  0.00     0.180 A 
ATOM     19  HE2 HIS A   3     -25.034  -3.347  -8.051  1.00  0.00     0.166 HD
ATOM     20  ND1 HIS A   3     -22.527  -4.685  -9.533  1.00  0.00    -0.354 N 
ATOM     21  HD1 HIS A   3     -21.638  -5.158  -9.519  1.00  0.00     0.166 HD
ENDBRANCH  14  15
ENDBRANCH  13  14
BRANCH  13  22
ATOM     22  C   HIS A   3     -23.439  -2.802 -13.862  1.00  0.00     0.163 C 
ATOM     23  O   HIS A   3     -23.836  -1.655 -13.985  1.00  0.00    -0.648 OA
BRANCH  22  24
ATOM     24  OXT HIS A   3     -22.308  -3.090 -14.533  1.00  0.00    -0.775 OA
ATOM     25  HXT HIS A   3     -21.546  -3.430 -13.995  1.00  0.00     0.167 HD
ENDBRANCH  22  24
ENDBRANCH  13  22
ENDBRANCH  11  13
ENDBRANCH   5   9
ENDBRANCH   3   5
BRANCH   1  26
ATOM     26  CA  HIS A   1     -28.616  -6.572 -17.795  1.00  0.00     0.176 C 
BRANCH  26  27
ATOM     27  N   HIS A   1     -29.940  -6.008 -17.537  1.00  0.00    -0.348 N 
HETATM   28  C   UNK A   0     -31.053  -6.794 -17.789  1.00  0.00     0.219 C 
HETATM   29  O   UNK A   0     -30.984  -7.874 -18.366  1.00  0.00    -0.274 OA
ATOM     30  H   HIS A   1     -30.031  -5.091 -17.117  1.00  0.00     0.163 HD
BRANCH  28  31
HETATM   31  C   UNK A   0     -32.332  -6.258 -17.204  1.00  0.00     0.122 C 
BRANCH  31  32
HETATM   32  C   UNK A   0     -32.191  -4.807 -16.684  1.00  0.00     0.132 C 
BRANCH  32  33
HETATM   33  N   UNK A   0     -33.126  -3.720 -17.119  1.00  0.00    -0.361 N 
HETATM   34  C   UNK A   0     -34.161  -3.250 -16.371  1.00  0.00     0.213 C 
HETATM   35  C   UNK A   0     -35.063  -2.131 -16.884  1.00  0.00     0.117 C 
HETATM   36  O   UNK A   0     -34.279  -3.649 -15.217  1.00  0.00    -0.274 OA
HETATM   37  H   UNK A   0     -32.716  -2.996 -17.708  1.00  0.00     0.162 HD
ENDBRANCH  32  33
ENDBRANCH  31  32
ENDBRANCH  28  31
ENDBRANCH  26  27
BRANCH  26  38
ATOM     38  CB  HIS A   1     -27.874  -5.887 -18.954  1.00  0.00     0.092 C 
BRANCH  38  39
ATOM     39  CG  HIS A   1     -26.983  -6.776 -19.765  1.00  0.00     0.028 A 
ATOM     40  CD2 HIS A   1     -27.218  -7.737 -20.727  1.00  0.00     0.114 A 
ATOM     41  NE2 HIS A   1     -26.045  -8.313 -21.144  1.00  0.00    -0.360 N 
ATOM     42  CE1 HIS A   1     -25.104  -7.745 -20.430  1.00  0.00     0.180 A 
ATOM     43  HE2 HIS A   1     -25.930  -9.032 -21.859  1.00  0.00     0.166 HD
ATOM     44  ND1 HIS A   1     -25.618  -6.795 -19.595  1.00  0.00    -0.354 N 
ATOM     45  HD1 HIS A   1     -25.084  -6.228 -18.951  1.00  0.00     0.166 HD
ENDBRANCH  38  39
ENDBRANCH  26  38
ENDBRANCH   1  26
TORSDOF 16
ENDMDL
MODEL 7
REMARK VINA RESULT:      -6.9      3.769      8.656
REMARK  16 active torsions:
REMARK  status: ('A' for Active; 'I' for Inactive)
REMARK       I    between atoms: C_2  and  N_4 
REMARK    1  A    between atoms: N_4  and  C_5 
REMARK    2  A    between atoms: C_5  and  C_6 
REMARK    3  A    between atoms: C_6  and  C_7 
REMARK       I    between atoms: C_7  and  N_10 
REMARK    4  A    between atoms: N_10  and  CA_11 
REMARK    5  A    between atoms: CA_11  and  CB_12 
REMARK    6  A    between atoms: CA_11  and  C_19 
REMARK    7  A    between atoms: CB_12  and  CG_13 
REMARK       I    between atoms: C_19  and  N_23 
REMARK    8  A    between atoms: N_23  and  CA_24 
REMARK    9  A    between atoms: CA_24  and  CB_25 
REMARK   10  A    between atoms: CA_24  and  C_27 
REMARK   11  A    between atoms: CB_25  and  OG_26 
REMARK       I    between atoms: C_27  and  N_31 
REMARK   12  A    between atoms: N_31  and  CA_32 
REMARK   13  A    between atoms: CA_32  and  CB_33 
REMARK   14  A    between atoms: CA_32  and  C_40 
REMARK   15  A    between atoms: CB_33  and  CG_34 
REMARK   16  A    between atoms: C_40  and  OXT_42 
ROOT
ATOM      1  C   HIS A   1     -21.248  -9.607  -4.715  1.00  0.00     0.221 C 
ATOM      2  O   HIS A   1     -21.957 -10.324  -4.005  1.00  0.00    -0.278 OA
ATOM      3  N   SER A   2     -20.570 -10.091  -5.833  1.00  0.00    -0.246 NA
ATOM      4  H   SER A   2     -19.693  -9.578  -5.868  1.00  0.00     0.131 HD
ENDROOT
BRANCH   3   5
ATOM      5  CA  SER A   2     -20.331 -11.540  -6.117  1.00  0.00     0.178 C 
BRANCH   5   6
ATOM      6  CB  SER A   2     -21.518 -12.209  -6.855  1.00  0.00     0.193 C 
BRANCH   6   7
ATOM      7  OG  SER A   2     -22.650 -12.585  -6.066  1.00  0.00    -0.399 OA
ATOM      8  H   SER A   2     -22.927 -11.830  -5.504  1.00  0.00     0.209 HD
ENDBRANCH   6   7
ENDBRANCH   5   6
BRANCH   5   9
ATOM      9  C   SER A   2     -18.918 -11.930  -6.914  1.00  0.00     0.238 C 
ATOM     10  O   SER A   2     -18.948 -12.381  -8.061  1.00  0.00    -0.272 OA
ATOM     11  N   HIS A   3     -17.696 -11.851  -6.226  1.00  0.00    -0.345 N 
ATOM     12  H   HIS A   3     -17.800 -11.613  -5.246  1.00  0.00     0.163 HD
BRANCH  11  13
ATOM     13  CA  HIS A   3     -16.311 -12.389  -6.616  1.00  0.00     0.188 C 
BRANCH  13  14
ATOM     14  CB  HIS A   3     -15.188 -11.458  -6.017  1.00  0.00     0.094 C 
BRANCH  14  15
ATOM     15  CG  HIS A   3     -15.456 -10.917  -4.640  1.00  0.00     0.028 A 
ATOM     16  CD2 HIS A   3     -15.329 -11.530  -3.428  1.00  0.00     0.114 A 
ATOM     17  NE2 HIS A   3     -15.700 -10.759  -2.369  1.00  0.00    -0.360 N 
ATOM     18  CE1 HIS A   3     -16.061  -9.632  -2.918  1.00  0.00     0.180 A 
ATOM     19  HE2 HIS A   3     -15.697 -11.005  -1.379  1.00  0.00     0.166 HD
ATOM     20  ND1 HIS A   3     -15.858  -9.649  -4.279  1.00  0.00    -0.354 N 
ATOM     21  HD1 HIS A   3     -16.018  -8.857  -4.879  1.00  0.00     0.166 HD
ENDBRANCH  14  15
ENDBRANCH  13  14
BRANCH  13  22
ATOM     22  C   HIS A   3     -15.783 -13.905  -6.402  1.00  0.00     0.163 C 
ATOM     23  O   HIS A   3     -14.708 -14.330  -6.012  1.00  0.00    -0.648 OA
BRANCH  22  24
ATOM     24  OXT HIS A   3     -16.662 -14.848  -6.791  1.00  0.00    -0.775 OA
ATOM     25  HXT HIS A   3     -16.584 -15.169  -7.727  1.00  0.00     0.167 HD
ENDBRANCH  22  24
ENDBRANCH  13  22
ENDBRANCH  11  13
ENDBRANCH   5   9
ENDBRANCH   3   5
BRANCH   1  26
ATOM     26  CA  HIS A   1     -21.199  -8.056  -4.502  1.00  0.00     0.176 C 
BRANCH  26  27
ATOM     27  N   HIS A   1     -21.093  -7.716  -3.084  1.00  0.00    -0.348 N 
HETATM   28  C   UNK A   0     -21.957  -6.764  -2.566  1.00  0.00     0.219 C 
HETATM   29  O   UNK A   0     -22.692  -6.083  -3.274  1.00  0.00    -0.274 OA
ATOM     30  H   HIS A   1     -20.450  -8.219  -2.485  1.00  0.00     0.163 HD
BRANCH  28  31
HETATM   31  C   UNK A   0     -21.988  -6.712  -1.063  1.00  0.00     0.122 C 
BRANCH  31  32
HETATM   32  C   UNK A   0     -21.546  -8.043  -0.408  1.00  0.00     0.132 C 
BRANCH  32  33
HETATM   33  N   UNK A   0     -22.121  -9.360  -0.833  1.00  0.00    -0.361 N 
HETATM   34  C   UNK A   0     -23.260  -9.903  -0.323  1.00  0.00     0.213 C 
HETATM   35  C   UNK A   0     -23.784 -11.248  -0.817  1.00  0.00     0.117 C 
HETATM   36  O   UNK A   0     -23.934  -9.232   0.451  1.00  0.00    -0.274 OA
HETATM   37  H   UNK A   0     -21.982  -9.605  -1.812  1.00  0.00     0.162 HD
ENDBRANCH  32  33
ENDBRANCH  31  32
ENDBRANCH  28  31
ENDBRANCH  26  27
BRANCH  26  38
ATOM     38  CB  HIS A   1     -20.053  -7.491  -5.355  1.00  0.00     0.092 C 
BRANCH  38  39
ATOM     39  CG  HIS A   1     -20.357  -6.216  -6.080  1.00  0.00     0.028 A 
ATOM     40  CD2 HIS A   1     -20.324  -4.885  -5.718  1.00  0.00     0.114 A 
ATOM     41  NE2 HIS A   1     -20.743  -4.084  -6.750  1.00  0.00    -0.360 N 
ATOM     42  CE1 HIS A   1     -21.063  -4.905  -7.721  1.00  0.00     0.180 A 
ATOM     43  HE2 HIS A   1     -20.796  -3.065  -6.759  1.00  0.00     0.166 HD
ATOM     44  ND1 HIS A   1     -20.828  -6.204  -7.372  1.00  0.00    -0.354 N 
ATOM     45  HD1 HIS A   1     -20.998  -7.009  -7.958  1.00  0.00     0.166 HD
ENDBRANCH  38  39
ENDBRANCH  26  38
ENDBRANCH   1  26
TORSDOF 16
ENDMDL
MODEL 8
REMARK VINA RESULT:      -6.9      3.225      8.644
REMARK  16 active torsions:
REMARK  status: ('A' for Active; 'I' for Inactive)
REMARK       I    between atoms: C_2  and  N_4 
REMARK    1  A    between atoms: N_4  and  C_5 
REMARK    2  A    between atoms: C_5  and  C_6 
REMARK    3  A    between atoms: C_6  and  C_7 
REMARK       I    between atoms: C_7  and  N_10 
REMARK    4  A    between atoms: N_10  and  CA_11 
REMARK    5  A    between atoms: CA_11  and  CB_12 
REMARK    6  A    between atoms: CA_11  and  C_19 
REMARK    7  A    between atoms: CB_12  and  CG_13 
REMARK       I    between atoms: C_19  and  N_23 
REMARK    8  A    between atoms: N_23  and  CA_24 
REMARK    9  A    between atoms: CA_24  and  CB_25 
REMARK   10  A    between atoms: CA_24  and  C_27 
REMARK   11  A    between atoms: CB_25  and  OG_26 
REMARK       I    between atoms: C_27  and  N_31 
REMARK   12  A    between atoms: N_31  and  CA_32 
REMARK   13  A    between atoms: CA_32  and  CB_33 
REMARK   14  A    between atoms: CA_32  and  C_40 
REMARK   15  A    between atoms: CB_33  and  CG_34 
REMARK   16  A    between atoms: C_40  and  OXT_42 
ROOT
ATOM      1  C   HIS A   1     -20.200  -8.876  -5.318  1.00  0.00     0.221 C 
ATOM      2  O   HIS A   1     -19.050  -9.109  -5.694  1.00  0.00    -0.278 OA
ATOM      3  N   SER A   2     -21.029  -9.860  -4.778  1.00  0.00    -0.246 NA
ATOM      4  H   SER A   2     -21.969  -9.635  -5.096  1.00  0.00     0.131 HD
ENDROOT
BRANCH   3   5
ATOM      5  CA  SER A   2     -20.784 -11.331  -4.895  1.00  0.00     0.178 C 
BRANCH   5   6
ATOM      6  CB  SER A   2     -20.778 -11.822  -6.365  1.00  0.00     0.193 C 
BRANCH   6   7
ATOM      7  OG  SER A   2     -19.569 -11.648  -7.108  1.00  0.00    -0.399 OA
ATOM      8  H   SER A   2     -19.683 -10.924  -7.761  1.00  0.00     0.209 HD
ENDBRANCH   6   7
ENDBRANCH   5   6
BRANCH   5   9
ATOM      9  C   SER A   2     -19.431 -11.935  -4.126  1.00  0.00     0.238 C 
ATOM     10  O   SER A   2     -18.836 -12.915  -4.578  1.00  0.00    -0.272 OA
ATOM     11  N   HIS A   3     -19.043 -11.390  -2.890  1.00  0.00    -0.345 N 
ATOM     12  H   HIS A   3     -19.687 -10.691  -2.538  1.00  0.00     0.163 HD
BRANCH  11  13
ATOM     13  CA  HIS A   3     -18.029 -11.911  -1.861  1.00  0.00     0.188 C 
BRANCH  13  14
ATOM     14  CB  HIS A   3     -16.655 -11.156  -2.034  1.00  0.00     0.094 C 
BRANCH  14  15
ATOM     15  CG  HIS A   3     -16.242 -10.871  -3.450  1.00  0.00     0.028 A 
ATOM     16  CD2 HIS A   3     -16.067  -9.672  -4.078  1.00  0.00     0.114 A 
ATOM     17  NE2 HIS A   3     -15.727  -9.772  -5.393  1.00  0.00    -0.360 N 
ATOM     18  CE1 HIS A   3     -15.675 -11.060  -5.601  1.00  0.00     0.180 A 
ATOM     19  HE2 HIS A   3     -15.553  -9.019  -6.057  1.00  0.00     0.166 HD
ATOM     20  ND1 HIS A   3     -15.901 -11.765  -4.442  1.00  0.00    -0.354 N 
ATOM     21  HD1 HIS A   3     -15.846 -12.769  -4.378  1.00  0.00     0.166 HD
ENDBRANCH  14  15
ENDBRANCH  13  14
BRANCH  13  22
ATOM     22  C   HIS A   3     -18.268 -12.026  -0.263  1.00  0.00     0.163 C 
ATOM     23  O   HIS A   3     -17.614 -12.580   0.605  1.00  0.00    -0.648 OA
BRANCH  22  24
ATOM     24  OXT HIS A   3     -19.423 -11.476   0.156  1.00  0.00    -0.775 OA
ATOM     25  HXT HIS A   3     -20.218 -11.618  -0.421  1.00  0.00     0.167 HD
ENDBRANCH  22  24
ENDBRANCH  13  22
ENDBRANCH  11  13
ENDBRANCH   5   9
ENDBRANCH   3   5
BRANCH   1  26
ATOM     26  CA  HIS A   1     -20.753  -7.412  -5.266  1.00  0.00     0.176 C 
BRANCH  26  27
ATOM     27  N   HIS A   1     -20.835  -6.923  -3.891  1.00  0.00    -0.348 N 
HETATM   28  C   UNK A   0     -22.041  -6.409  -3.443  1.00  0.00     0.219 C 
HETATM   29  O   UNK A   0     -22.990  -6.200  -4.191  1.00  0.00    -0.274 OA
ATOM     30  H   HIS A   1     -20.045  -7.025  -3.265  1.00  0.00     0.163 HD
BRANCH  28  31
HETATM   31  C   UNK A   0     -22.119  -6.229  -1.951  1.00  0.00     0.122 C 
BRANCH  31  32
HETATM   32  C   UNK A   0     -21.506  -7.417  -1.171  1.00  0.00     0.132 C 
BRANCH  32  33
HETATM   33  N   UNK A   0     -22.166  -8.761  -1.136  1.00  0.00    -0.361 N 
HETATM   34  C   UNK A   0     -23.056  -9.158  -0.186  1.00  0.00     0.213 C 
HETATM   35  C   UNK A   0     -23.691 -10.544  -0.227  1.00  0.00     0.117 C 
HETATM   36  O   UNK A   0     -23.441  -8.334   0.637  1.00  0.00    -0.274 OA
HETATM   37  H   UNK A   0     -22.362  -9.179  -2.046  1.00  0.00     0.162 HD
ENDBRANCH  32  33
ENDBRANCH  31  32
ENDBRANCH  28  31
ENDBRANCH  26  27
BRANCH  26  38
ATOM     38  CB  HIS A   1     -19.879  -6.536  -6.177  1.00  0.00     0.092 C 
BRANCH  38  39
ATOM     39  CG  HIS A   1     -20.622  -5.592  -7.070  1.00  0.00     0.028 A 
ATOM     40  CD2 HIS A   1     -20.291  -4.917  -8.228  1.00  0.00     0.114 A 
ATOM     41  NE2 HIS A   1     -21.327  -4.122  -8.648  1.00  0.00    -0.360 N 
ATOM     42  CE1 HIS A   1     -22.270  -4.274  -7.749  1.00  0.00     0.180 A 
ATOM     43  HE2 HIS A   1     -21.357  -3.536  -9.482  1.00  0.00     0.166 HD
ATOM     44  ND1 HIS A   1     -21.899  -5.168  -6.785  1.00  0.00    -0.354 N 
ATOM     45  HD1 HIS A   1     -22.462  -5.443  -5.993  1.00  0.00     0.166 HD
ENDBRANCH  38  39
ENDBRANCH  26  38
ENDBRANCH   1  26
TORSDOF 16
ENDMDL
MODEL 9
REMARK VINA RESULT:      -6.8      2.709      4.566
REMARK  16 active torsions:
REMARK  status: ('A' for Active; 'I' for Inactive)
REMARK       I    between atoms: C_2  and  N_4 
REMARK    1  A    between atoms: N_4  and  C_5 
REMARK    2  A    between atoms: C_5  and  C_6 
REMARK    3  A    between atoms: C_6  and  C_7 
REMARK       I    between atoms: C_7  and  N_10 
REMARK    4  A    between atoms: N_10  and  CA_11 
REMARK    5  A    between atoms: CA_11  and  CB_12 
REMARK    6  A    between atoms: CA_11  and  C_19 
REMARK    7  A    between atoms: CB_12  and  CG_13 
REMARK       I    between atoms: C_19  and  N_23 
REMARK    8  A    between atoms: N_23  and  CA_24 
REMARK    9  A    between atoms: CA_24  and  CB_25 
REMARK   10  A    between atoms: CA_24  and  C_27 
REMARK   11  A    between atoms: CB_25  and  OG_26 
REMARK       I    between atoms: C_27  and  N_31 
REMARK   12  A    between atoms: N_31  and  CA_32 
REMARK   13  A    between atoms: CA_32  and  CB_33 
REMARK   14  A    between atoms: CA_32  and  C_40 
REMARK   15  A    between atoms: CB_33  and  CG_34 
REMARK   16  A    between atoms: C_40  and  OXT_42 
ROOT
ATOM      1  C   HIS A   1     -20.624  -9.558  -4.574  1.00  0.00     0.221 C 
ATOM      2  O   HIS A   1     -21.681 -10.168  -4.403  1.00  0.00    -0.278 OA
ATOM      3  N   SER A   2     -20.482  -8.203  -4.278  1.00  0.00    -0.246 NA
ATOM      4  H   SER A   2     -19.851  -7.830  -4.984  1.00  0.00     0.131 HD
ENDROOT
BRANCH   3   5
ATOM      5  CA  SER A   2     -21.622  -7.260  -4.056  1.00  0.00     0.178 C 
BRANCH   5   6
ATOM      6  CB  SER A   2     -21.446  -6.399  -2.778  1.00  0.00     0.193 C 
BRANCH   6   7
ATOM      7  OG  SER A   2     -22.625  -5.817  -2.217  1.00  0.00    -0.399 OA
ATOM      8  H   SER A   2     -23.259  -6.524  -1.971  1.00  0.00     0.209 HD
ENDBRANCH   6   7
ENDBRANCH   5   6
BRANCH   5   9
ATOM      9  C   SER A   2     -22.029  -6.256  -5.325  1.00  0.00     0.238 C 
ATOM     10  O   SER A   2     -23.186  -5.852  -5.460  1.00  0.00    -0.272 OA
ATOM     11  N   HIS A   3     -21.068  -5.968  -6.308  1.00  0.00    -0.345 N 
ATOM     12  H   HIS A   3     -20.197  -6.470  -6.181  1.00  0.00     0.163 HD
BRANCH  11  13
ATOM     13  CA  HIS A   3     -21.239  -5.311  -7.686  1.00  0.00     0.188 C 
BRANCH  13  14
ATOM     14  CB  HIS A   3     -22.264  -4.116  -7.587  1.00  0.00     0.094 C 
BRANCH  14  15
ATOM     15  CG  HIS A   3     -23.075  -3.849  -8.824  1.00  0.00     0.028 A 
ATOM     16  CD2 HIS A   3     -24.426  -3.916  -9.005  1.00  0.00     0.114 A 
ATOM     17  NE2 HIS A   3     -24.834  -3.650 -10.277  1.00  0.00    -0.360 N 
ATOM     18  CE1 HIS A   3     -23.721  -3.400 -10.913  1.00  0.00     0.180 A 
ATOM     19  HE2 HIS A   3     -25.784  -3.647 -10.646  1.00  0.00     0.166 HD
ATOM     20  ND1 HIS A   3     -22.640  -3.430 -10.062  1.00  0.00    -0.354 N 
ATOM     21  HD1 HIS A   3     -21.700  -3.206 -10.345  1.00  0.00     0.166 HD
ENDBRANCH  14  15
ENDBRANCH  13  14
BRANCH  13  22
ATOM     22  C   HIS A   3     -20.044  -4.783  -8.644  1.00  0.00     0.163 C 
ATOM     23  O   HIS A   3     -19.894  -4.860  -9.852  1.00  0.00    -0.648 OA
BRANCH  22  24
ATOM     24  OXT HIS A   3     -19.013  -4.234  -7.975  1.00  0.00    -0.775 OA
ATOM     25  HXT HIS A   3     -18.307  -3.800  -8.522  1.00  0.00     0.167 HD
ENDBRANCH  22  24
ENDBRANCH  13  22
ENDBRANCH  11  13
ENDBRANCH   5   9
ENDBRANCH   3   5
BRANCH   1  26
ATOM     26  CA  HIS A   1     -19.313 -10.312  -4.979  1.00  0.00     0.176 C 
BRANCH  26  27
ATOM     27  N   HIS A   1     -18.322 -10.272  -3.905  1.00  0.00    -0.348 N 
HETATM   28  C   UNK A   0     -17.028  -9.883  -4.213  1.00  0.00     0.219 C 
HETATM   29  O   UNK A   0     -16.641  -9.727  -5.367  1.00  0.00    -0.274 OA
ATOM     30  H   HIS A   1     -18.598 -10.457  -2.948  1.00  0.00     0.163 HD
BRANCH  28  31
HETATM   31  C   UNK A   0     -16.175  -9.570  -3.013  1.00  0.00     0.122 C 
BRANCH  31  32
HETATM   32  C   UNK A   0     -15.544 -10.833  -2.381  1.00  0.00     0.132 C 
BRANCH  32  33
HETATM   33  N   UNK A   0     -15.940 -11.316  -1.019  1.00  0.00    -0.361 N 
HETATM   34  C   UNK A   0     -17.098 -11.975  -0.743  1.00  0.00     0.213 C 
HETATM   35  C   UNK A   0     -17.423 -12.441   0.673  1.00  0.00     0.117 C 
HETATM   36  O   UNK A   0     -17.822 -12.306  -1.676  1.00  0.00    -0.274 OA
HETATM   37  H   UNK A   0     -15.173 -11.616  -0.418  1.00  0.00     0.162 HD
ENDBRANCH  32  33
ENDBRANCH  31  32
ENDBRANCH  28  31
ENDBRANCH  26  27
BRANCH  26  38
ATOM     38  CB  HIS A   1     -19.692 -11.738  -5.409  1.00  0.00     0.092 C 
BRANCH  38  39
ATOM     39  CG  HIS A   1     -18.962 -12.266  -6.606  1.00  0.00     0.028 A 
ATOM     40  CD2 HIS A   1     -17.707 -12.808  -6.792  1.00  0.00     0.114 A 
ATOM     41  NE2 HIS A   1     -17.490 -13.103  -8.114  1.00  0.00    -0.360 N 
ATOM     42  CE1 HIS A   1     -18.576 -12.720  -8.740  1.00  0.00     0.180 A 
ATOM     43  HE2 HIS A   1     -16.658 -13.530  -8.523  1.00  0.00     0.166 HD
ATOM     44  ND1 HIS A   1     -19.504 -12.225  -7.870  1.00  0.00    -0.354 N 
ATOM     45  HD1 HIS A   1     -20.416 -11.870  -8.122  1.00  0.00     0.166 HD
ENDBRANCH  38  39
ENDBRANCH  26  38
ENDBRANCH   1  26
TORSDOF 16
ENDMDL
