MODEL 1
REMARK VINA RESULT:      -8.1      0.000      0.000
REMARK  18 active torsions:
REMARK  status: ('A' for Active; 'I' for Inactive)
REMARK    1  A    between atoms: C_3  and  C_45 
REMARK    2  A    between atoms: N_5  and  C_7 
REMARK    3  A    between atoms: C_8  and  O_44 
REMARK    4  A    between atoms: C_9  and  O_43 
REMARK    5  A    between atoms: C_10  and  C_12 
REMARK    6  A    between atoms: C_12  and  O_13 
REMARK    7  A    between atoms: O_13  and  P_14 
REMARK    8  A    between atoms: P_14  and  O_16 
REMARK    9  A    between atoms: P_14  and  O_17 
REMARK   10  A    between atoms: O_17  and  P_18 
REMARK   11  A    between atoms: P_18  and  O_20 
REMARK   12  A    between atoms: P_18  and  O_21 
REMARK   13  A    between atoms: O_21  and  C_22 
REMARK   14  A    between atoms: C_22  and  C_23 
REMARK   15  A    between atoms: C_24  and  O_42 
REMARK   16  A    between atoms: C_25  and  O_41 
REMARK   17  A    between atoms: C_26  and  N_28 
REMARK   18  A    between atoms: C_33  and  N_40 
REMARK       I    between atoms: C_45  and  N_47 
ROOT
HETATM    1  P   UNL     1     -21.398 -10.057  -0.745  1.00  0.00     0.401 P 
HETATM    2  O   UNL     1     -20.485 -10.556   0.385  1.00  0.00    -0.631 OA
ENDROOT
BRANCH   1   3
HETATM    3  O   UNL     1     -21.151  -8.456  -0.138  1.00  0.00    -0.195 OA
BRANCH   3   4
HETATM    4  P   UNL     1     -21.707  -7.305  -1.303  1.00  0.00     0.401 P 
HETATM    5  O   UNL     1     -22.998  -7.083  -0.518  1.00  0.00    -0.631 OA
BRANCH   4   6
HETATM    6  O   UNL     1     -22.262  -6.153  -2.467  1.00  0.00    -0.294 OA
BRANCH   6   7
HETATM    7  C   UNL     1     -21.399  -6.027  -3.593  1.00  0.00     0.215 C 
BRANCH   7   8
HETATM    8  C   UNL     1     -22.133  -6.421  -4.883  1.00  0.00     0.180 C 
HETATM    9  C   UNL     1     -21.504  -7.558  -5.690  1.00  0.00     0.182 C 
HETATM   10  C   UNL     1     -20.698  -6.881  -6.793  1.00  0.00     0.198 C 
HETATM   11  C   UNL     1     -21.022  -5.395  -6.628  1.00  0.00     0.259 C 
HETATM   12  O   UNL     1     -22.194  -5.301  -5.802  1.00  0.00    -0.353 OA
BRANCH   9  13
HETATM   13  O   UNL     1     -20.751  -8.513  -4.964  1.00  0.00    -0.390 OA
HETATM   14  H   UNL     1     -19.889  -8.134  -4.682  1.00  0.00     0.210 HD
ENDBRANCH   9  13
BRANCH  10  15
HETATM   15  O   UNL     1     -19.298  -7.114  -6.682  1.00  0.00    -0.388 OA
HETATM   16  H   UNL     1     -19.122  -8.008  -7.047  1.00  0.00     0.210 HD
ENDBRANCH  10  15
BRANCH  11  17
HETATM   17  N   UNL     1     -21.195  -4.716  -7.942  1.00  0.00    -0.336 N 
HETATM   18  C   UNL     1     -22.455  -4.377  -8.324  1.00  0.00     0.110 A 
HETATM   19  C   UNL     1     -22.717  -3.896  -9.608  1.00  0.00     0.047 A 
HETATM   20  C   UNL     1     -21.656  -3.729 -10.494  1.00  0.00     0.020 A 
HETATM   21  C   UNL     1     -20.367  -4.050 -10.077  1.00  0.00     0.018 A 
HETATM   22  C   UNL     1     -20.156  -4.550  -8.793  1.00  0.00     0.093 A 
BRANCH  19  23
HETATM   23  C   UNL     1     -24.135  -3.629  -9.936  1.00  0.00     0.250 C 
HETATM   24  O   UNL     1     -24.539  -3.843 -11.071  1.00  0.00    -0.268 OA
HETATM   25  N   UNL     1     -24.962  -3.127  -8.973  1.00  0.00    -0.366 N 
HETATM   26  H   UNL     1     -24.710  -2.887  -8.025  1.00  0.00     0.159 HD
HETATM   27  H   UNL     1     -25.917  -2.930  -9.248  1.00  0.00     0.159 HD
ENDBRANCH  19  23
ENDBRANCH  11  17
ENDBRANCH   7   8
ENDBRANCH   6   7
ENDBRANCH   4   6
BRANCH   4  28
HETATM   28  O   UNL     1     -21.988  -8.476  -2.401  1.00  0.00    -0.307 OA
HETATM   29  H   UNL     1     -21.293  -8.566  -3.083  1.00  0.00     0.222 HD
ENDBRANCH   4  28
ENDBRANCH   3   4
ENDBRANCH   1   3
BRANCH   1  30
HETATM   30  O   UNL     1     -22.912  -9.989  -0.131  1.00  0.00    -0.307 OA
HETATM   31  H   UNL     1     -23.478 -10.655  -0.561  1.00  0.00     0.222 HD
ENDBRANCH   1  30
BRANCH   1  32
HETATM   32  O   UNL     1     -21.646 -11.658  -1.354  1.00  0.00    -0.294 OA
BRANCH  32  33
HETATM   33  C   UNL     1     -20.488 -12.213  -1.995  1.00  0.00     0.215 C 
BRANCH  33  34
HETATM   34  C   UNL     1     -20.433 -11.783  -3.428  1.00  0.00     0.180 C 
HETATM   35  C   UNL     1     -21.743 -11.851  -4.177  1.00  0.00     0.182 C 
HETATM   36  C   UNL     1     -21.284 -12.069  -5.623  1.00  0.00     0.198 C 
HETATM   37  C   UNL     1     -19.812 -12.496  -5.509  1.00  0.00     0.262 C 
HETATM   38  O   UNL     1     -19.537 -12.658  -4.115  1.00  0.00    -0.353 OA
BRANCH  35  39
HETATM   39  O   UNL     1     -22.511 -10.670  -3.993  1.00  0.00    -0.390 OA
HETATM   40  H   UNL     1     -22.288 -10.316  -3.111  1.00  0.00     0.210 HD
ENDBRANCH  35  39
BRANCH  36  41
HETATM   41  O   UNL     1     -21.599 -10.994  -6.492  1.00  0.00    -0.388 OA
HETATM   42  H   UNL     1     -22.236 -11.314  -7.155  1.00  0.00     0.210 HD
ENDBRANCH  36  41
BRANCH  37  43
HETATM   43  N   UNL     1     -18.674 -11.774  -6.046  1.00  0.00    -0.297 N 
HETATM   44  C   UNL     1     -17.882 -12.452  -6.968  1.00  0.00     0.188 C 
HETATM   45  N   UNL     1     -16.610 -12.174  -6.850  1.00  0.00    -0.346 N 
HETATM   46  C   UNL     1     -16.557 -11.333  -5.771  1.00  0.00     0.122 C 
ATOM     47  HN  UNL     1     -15.838 -12.505  -7.427  1.00  0.00     0.167 HD
HETATM   48  C   UNL     1     -15.473 -10.964  -4.975  1.00  0.00     0.131 C 
HETATM   49  C   UNL     1     -17.824 -10.918  -5.364  1.00  0.00     0.142 C 
HETATM   50  N   UNL     1     -15.653 -10.099  -3.976  1.00  0.00    -0.337 N 
HETATM   51  C   UNL     1     -16.927  -9.649  -3.767  1.00  0.00     0.183 C 
ATOM     52  HN  UNL     1     -14.876  -9.788  -3.394  1.00  0.00     0.168 HD
HETATM   53  N   UNL     1     -18.080 -10.039  -4.373  1.00  0.00    -0.336 N 
ATOM     54  HN  UNL     1     -19.011  -9.712  -4.114  1.00  0.00     0.168 HD
BRANCH  48  55
HETATM   55  N   UNL     1     -14.261 -11.609  -5.142  1.00  0.00    -0.383 N 
HETATM   56  H   UNL     1     -14.019 -11.876  -6.091  1.00  0.00     0.157 HD
HETATM   57  H   UNL     1     -13.683 -11.851  -4.357  1.00  0.00     0.157 HD
ENDBRANCH  48  55
ENDBRANCH  37  43
ENDBRANCH  33  34
ENDBRANCH  32  33
ENDBRANCH   1  32
TORSDOF 18
ENDMDL
MODEL 2
REMARK VINA RESULT:      -8.0      3.347      5.172
REMARK  18 active torsions:
REMARK  status: ('A' for Active; 'I' for Inactive)
REMARK    1  A    between atoms: C_3  and  C_45 
REMARK    2  A    between atoms: N_5  and  C_7 
REMARK    3  A    between atoms: C_8  and  O_44 
REMARK    4  A    between atoms: C_9  and  O_43 
REMARK    5  A    between atoms: C_10  and  C_12 
REMARK    6  A    between atoms: C_12  and  O_13 
REMARK    7  A    between atoms: O_13  and  P_14 
REMARK    8  A    between atoms: P_14  and  O_16 
REMARK    9  A    between atoms: P_14  and  O_17 
REMARK   10  A    between atoms: O_17  and  P_18 
REMARK   11  A    between atoms: P_18  and  O_20 
REMARK   12  A    between atoms: P_18  and  O_21 
REMARK   13  A    between atoms: O_21  and  C_22 
REMARK   14  A    between atoms: C_22  and  C_23 
REMARK   15  A    between atoms: C_24  and  O_42 
REMARK   16  A    between atoms: C_25  and  O_41 
REMARK   17  A    between atoms: C_26  and  N_28 
REMARK   18  A    between atoms: C_33  and  N_40 
REMARK       I    between atoms: C_45  and  N_47 
ROOT
HETATM    1  P   UNL     1     -19.815 -12.219  -4.255  1.00  0.00     0.401 P 
HETATM    2  O   UNL     1     -19.287 -12.959  -5.493  1.00  0.00    -0.631 OA
ENDROOT
BRANCH   1   3
HETATM    3  O   UNL     1     -18.376 -11.261  -4.307  1.00  0.00    -0.195 OA
BRANCH   3   4
HETATM    4  P   UNL     1     -18.650  -9.861  -5.286  1.00  0.00     0.401 P 
HETATM    5  O   UNL     1     -20.159  -9.968  -5.077  1.00  0.00    -0.631 OA
BRANCH   4   6
HETATM    6  O   UNL     1     -18.923  -8.462  -6.265  1.00  0.00    -0.294 OA
BRANCH   6   7
HETATM    7  C   UNL     1     -19.989  -7.644  -5.794  1.00  0.00     0.215 C 
BRANCH   7   8
HETATM    8  C   UNL     1     -19.719  -6.167  -6.116  1.00  0.00     0.180 C 
HETATM    9  C   UNL     1     -20.657  -5.155  -5.454  1.00  0.00     0.182 C 
HETATM   10  C   UNL     1     -21.701  -4.812  -6.511  1.00  0.00     0.198 C 
HETATM   11  C   UNL     1     -21.220  -5.552  -7.760  1.00  0.00     0.259 C 
HETATM   12  O   UNL     1     -19.848  -5.919  -7.539  1.00  0.00    -0.353 OA
BRANCH   9  13
HETATM   13  O   UNL     1     -21.229  -5.534  -4.216  1.00  0.00    -0.390 OA
HETATM   14  H   UNL     1     -20.559  -5.965  -3.641  1.00  0.00     0.210 HD
ENDBRANCH   9  13
BRANCH  10  15
HETATM   15  O   UNL     1     -23.015  -5.224  -6.148  1.00  0.00    -0.388 OA
HETATM   16  H   UNL     1     -23.457  -4.452  -5.732  1.00  0.00     0.210 HD
ENDBRANCH  10  15
BRANCH  11  17
HETATM   17  N   UNL     1     -21.400  -4.736  -8.992  1.00  0.00    -0.336 N 
HETATM   18  C   UNL     1     -22.660  -4.345  -9.321  1.00  0.00     0.110 A 
HETATM   19  C   UNL     1     -22.929  -3.728 -10.543  1.00  0.00     0.047 A 
HETATM   20  C   UNL     1     -21.877  -3.477 -11.419  1.00  0.00     0.020 A 
HETATM   21  C   UNL     1     -20.586  -3.854 -11.053  1.00  0.00     0.018 A 
HETATM   22  C   UNL     1     -20.368  -4.489  -9.832  1.00  0.00     0.093 A 
BRANCH  19  23
HETATM   23  C   UNL     1     -24.349  -3.414 -10.824  1.00  0.00     0.250 C 
HETATM   24  O   UNL     1     -24.654  -2.936 -11.909  1.00  0.00    -0.268 OA
HETATM   25  N   UNL     1     -25.287  -3.640  -9.860  1.00  0.00    -0.366 N 
HETATM   26  H   UNL     1     -25.125  -3.995  -8.929  1.00  0.00     0.159 HD
HETATM   27  H   UNL     1     -26.242  -3.382 -10.083  1.00  0.00     0.159 HD
ENDBRANCH  19  23
ENDBRANCH  11  17
ENDBRANCH   7   8
ENDBRANCH   6   7
ENDBRANCH   4   6
BRANCH   4  28
HETATM   28  O   UNL     1     -18.277 -10.678  -6.647  1.00  0.00    -0.307 OA
HETATM   29  H   UNL     1     -18.338 -11.651  -6.564  1.00  0.00     0.222 HD
ENDBRANCH   4  28
ENDBRANCH   3   4
ENDBRANCH   1   3
BRANCH   1  30
HETATM   30  O   UNL     1     -19.188 -12.979  -2.949  1.00  0.00    -0.307 OA
HETATM   31  H   UNL     1     -19.668 -13.810  -2.783  1.00  0.00     0.222 HD
ENDBRANCH   1  30
BRANCH   1  32
HETATM   32  O   UNL     1     -21.255 -13.177  -4.203  1.00  0.00    -0.294 OA
BRANCH  32  33
HETATM   33  C   UNL     1     -22.408 -12.455  -3.748  1.00  0.00     0.215 C 
BRANCH  33  34
HETATM   34  C   UNL     1     -22.293 -12.164  -2.284  1.00  0.00     0.180 C 
HETATM   35  C   UNL     1     -22.502 -13.347  -1.368  1.00  0.00     0.182 C 
HETATM   36  C   UNL     1     -23.028 -12.686  -0.090  1.00  0.00     0.198 C 
HETATM   37  C   UNL     1     -23.440 -11.269  -0.521  1.00  0.00     0.262 C 
HETATM   38  O   UNL     1     -23.307 -11.216  -1.944  1.00  0.00    -0.353 OA
BRANCH  35  39
HETATM   39  O   UNL     1     -21.298 -14.079  -1.179  1.00  0.00    -0.390 OA
HETATM   40  H   UNL     1     -20.659 -13.476  -0.754  1.00  0.00     0.210 HD
ENDBRANCH  35  39
BRANCH  36  41
HETATM   41  O   UNL     1     -22.158 -12.815   1.022  1.00  0.00    -0.388 OA
HETATM   42  H   UNL     1     -21.275 -13.057   0.692  1.00  0.00     0.210 HD
ENDBRANCH  36  41
BRANCH  37  43
HETATM   43  N   UNL     1     -22.865 -10.031  -0.031  1.00  0.00    -0.297 N 
HETATM   44  C   UNL     1     -23.748  -9.100   0.507  1.00  0.00     0.188 C 
HETATM   45  N   UNL     1     -23.419  -7.866   0.233  1.00  0.00    -0.346 N 
HETATM   46  C   UNL     1     -22.317  -7.990  -0.569  1.00  0.00     0.122 C 
ATOM     47  HN  UNL     1     -23.876  -7.009   0.545  1.00  0.00     0.167 HD
HETATM   48  C   UNL     1     -21.721  -7.064  -1.424  1.00  0.00     0.131 C 
HETATM   49  C   UNL     1     -21.836  -9.298  -0.604  1.00  0.00     0.142 C 
HETATM   50  N   UNL     1     -20.623  -7.401  -2.101  1.00  0.00    -0.337 N 
HETATM   51  C   UNL     1     -20.163  -8.679  -1.938  1.00  0.00     0.183 C 
ATOM     52  HN  UNL     1     -20.148  -6.738  -2.712  1.00  0.00     0.168 HD
HETATM   53  N   UNL     1     -20.729  -9.709  -1.255  1.00  0.00    -0.336 N 
ATOM     54  HN  UNL     1     -20.366 -10.662  -1.237  1.00  0.00     0.168 HD
BRANCH  48  55
HETATM   55  N   UNL     1     -22.359  -5.860  -1.667  1.00  0.00    -0.383 N 
HETATM   56  H   UNL     1     -22.818  -5.425  -0.873  1.00  0.00     0.157 HD
HETATM   57  H   UNL     1     -22.415  -5.473  -2.593  1.00  0.00     0.157 HD
ENDBRANCH  48  55
ENDBRANCH  37  43
ENDBRANCH  33  34
ENDBRANCH  32  33
ENDBRANCH   1  32
TORSDOF 18
ENDMDL
MODEL 3
REMARK VINA RESULT:      -7.8      2.168      3.716
REMARK  18 active torsions:
REMARK  status: ('A' for Active; 'I' for Inactive)
REMARK    1  A    between atoms: C_3  and  C_45 
REMARK    2  A    between atoms: N_5  and  C_7 
REMARK    3  A    between atoms: C_8  and  O_44 
REMARK    4  A    between atoms: C_9  and  O_43 
REMARK    5  A    between atoms: C_10  and  C_12 
REMARK    6  A    between atoms: C_12  and  O_13 
REMARK    7  A    between atoms: O_13  and  P_14 
REMARK    8  A    between atoms: P_14  and  O_16 
REMARK    9  A    between atoms: P_14  and  O_17 
REMARK   10  A    between atoms: O_17  and  P_18 
REMARK   11  A    between atoms: P_18  and  O_20 
REMARK   12  A    between atoms: P_18  and  O_21 
REMARK   13  A    between atoms: O_21  and  C_22 
REMARK   14  A    between atoms: C_22  and  C_23 
REMARK   15  A    between atoms: C_24  and  O_42 
REMARK   16  A    between atoms: C_25  and  O_41 
REMARK   17  A    between atoms: C_26  and  N_28 
REMARK   18  A    between atoms: C_33  and  N_40 
REMARK       I    between atoms: C_45  and  N_47 
ROOT
HETATM    1  P   UNL     1     -20.949 -11.391  -1.799  1.00  0.00     0.401 P 
HETATM    2  O   UNL     1     -22.179 -12.052  -2.439  1.00  0.00    -0.631 OA
ENDROOT
BRANCH   1   3
HETATM    3  O   UNL     1     -21.630  -9.865  -2.245  1.00  0.00    -0.195 OA
BRANCH   3   4
HETATM    4  P   UNL     1     -20.602  -9.091  -3.402  1.00  0.00     0.401 P 
HETATM    5  O   UNL     1     -20.244  -7.995  -2.400  1.00  0.00    -0.631 OA
BRANCH   4   6
HETATM    6  O   UNL     1     -19.573  -8.317  -4.557  1.00  0.00    -0.294 OA
BRANCH   6   7
HETATM    7  C   UNL     1     -20.271  -7.842  -5.704  1.00  0.00     0.215 C 
BRANCH   7   8
HETATM    8  C   UNL     1     -19.905  -6.378  -5.991  1.00  0.00     0.180 C 
HETATM    9  C   UNL     1     -20.775  -5.325  -5.302  1.00  0.00     0.182 C 
HETATM   10  C   UNL     1     -21.795  -4.888  -6.348  1.00  0.00     0.198 C 
HETATM   11  C   UNL     1     -21.364  -5.627  -7.616  1.00  0.00     0.259 C 
HETATM   12  O   UNL     1     -20.019  -6.088  -7.407  1.00  0.00    -0.353 OA
BRANCH   9  13
HETATM   13  O   UNL     1     -21.370  -5.696  -4.072  1.00  0.00    -0.390 OA
HETATM   14  H   UNL     1     -20.736  -6.202  -3.519  1.00  0.00     0.210 HD
ENDBRANCH   9  13
BRANCH  10  15
HETATM   15  O   UNL     1     -23.133  -5.222  -5.992  1.00  0.00    -0.388 OA
HETATM   16  H   UNL     1     -23.112  -6.115  -5.584  1.00  0.00     0.210 HD
ENDBRANCH  10  15
BRANCH  11  17
HETATM   17  N   UNL     1     -21.491  -4.770  -8.827  1.00  0.00    -0.336 N 
HETATM   18  C   UNL     1     -22.736  -4.370  -9.198  1.00  0.00     0.110 A 
HETATM   19  C   UNL     1     -22.953  -3.713 -10.410  1.00  0.00     0.047 A 
HETATM   20  C   UNL     1     -21.863  -3.433 -11.230  1.00  0.00     0.020 A 
HETATM   21  C   UNL     1     -20.590  -3.821 -10.820  1.00  0.00     0.018 A 
HETATM   22  C   UNL     1     -20.424  -4.496  -9.612  1.00  0.00     0.093 A 
BRANCH  19  23
HETATM   23  C   UNL     1     -24.359  -3.391 -10.743  1.00  0.00     0.250 C 
HETATM   24  O   UNL     1     -24.626  -2.942 -11.850  1.00  0.00    -0.268 OA
HETATM   25  N   UNL     1     -25.329  -3.576  -9.802  1.00  0.00    -0.366 N 
HETATM   26  H   UNL     1     -25.199  -3.906  -8.856  1.00  0.00     0.159 HD
HETATM   27  H   UNL     1     -26.273  -3.314 -10.060  1.00  0.00     0.159 HD
ENDBRANCH  19  23
ENDBRANCH  11  17
ENDBRANCH   7   8
ENDBRANCH   6   7
ENDBRANCH   4   6
BRANCH   4  28
HETATM   28  O   UNL     1     -21.882  -8.573  -4.269  1.00  0.00    -0.307 OA
HETATM   29  H   UNL     1     -22.449  -7.925  -3.805  1.00  0.00     0.222 HD
ENDBRANCH   4  28
ENDBRANCH   3   4
ENDBRANCH   1   3
BRANCH   1  30
HETATM   30  O   UNL     1     -19.852 -11.181  -2.993  1.00  0.00    -0.307 OA
HETATM   31  H   UNL     1     -19.088 -11.769  -2.853  1.00  0.00     0.222 HD
ENDBRANCH   1  30
BRANCH   1  32
HETATM   32  O   UNL     1     -20.268 -12.917  -1.351  1.00  0.00    -0.294 OA
BRANCH  32  33
HETATM   33  C   UNL     1     -19.263 -12.819  -0.331  1.00  0.00     0.215 C 
BRANCH  33  34
HETATM   34  C   UNL     1     -17.900 -12.776  -0.949  1.00  0.00     0.180 C 
HETATM   35  C   UNL     1     -16.812 -13.482  -0.173  1.00  0.00     0.182 C 
HETATM   36  C   UNL     1     -15.556 -12.711  -0.591  1.00  0.00     0.198 C 
HETATM   37  C   UNL     1     -16.084 -11.418  -1.235  1.00  0.00     0.262 C 
HETATM   38  O   UNL     1     -17.500 -11.408  -1.036  1.00  0.00    -0.353 OA
BRANCH  35  39
HETATM   39  O   UNL     1     -16.763 -14.867  -0.486  1.00  0.00    -0.390 OA
HETATM   40  H   UNL     1     -17.046 -15.353   0.312  1.00  0.00     0.210 HD
ENDBRANCH  35  39
BRANCH  36  41
HETATM   41  O   UNL     1     -14.625 -13.487  -1.326  1.00  0.00    -0.388 OA
HETATM   42  H   UNL     1     -14.545 -13.105  -2.217  1.00  0.00     0.210 HD
ENDBRANCH  36  41
BRANCH  37  43
HETATM   43  N   UNL     1     -15.882 -11.012  -2.612  1.00  0.00    -0.297 N 
HETATM   44  C   UNL     1     -16.258  -9.714  -2.944  1.00  0.00     0.188 C 
HETATM   45  N   UNL     1     -16.773  -9.622  -4.142  1.00  0.00    -0.346 N 
HETATM   46  C   UNL     1     -16.796 -10.915  -4.589  1.00  0.00     0.122 C 
ATOM     47  HN  UNL     1     -17.085  -8.782  -4.629  1.00  0.00     0.167 HD
HETATM   48  C   UNL     1     -17.513 -11.486  -5.640  1.00  0.00     0.131 C 
HETATM   49  C   UNL     1     -16.089 -11.775  -3.752  1.00  0.00     0.142 C 
HETATM   50  N   UNL     1     -17.361 -12.783  -5.914  1.00  0.00    -0.337 N 
HETATM   51  C   UNL     1     -16.520 -13.493  -5.103  1.00  0.00     0.183 C 
ATOM     52  HN  UNL     1     -17.849 -13.224  -6.693  1.00  0.00     0.168 HD
HETATM   53  N   UNL     1     -15.883 -13.090  -3.972  1.00  0.00    -0.336 N 
ATOM     54  HN  UNL     1     -15.327 -13.698  -3.371  1.00  0.00     0.168 HD
BRANCH  48  55
HETATM   55  N   UNL     1     -18.478 -10.736  -6.289  1.00  0.00    -0.383 N 
HETATM   56  H   UNL     1     -18.365 -10.629  -7.292  1.00  0.00     0.157 HD
HETATM   57  H   UNL     1     -19.212 -10.274  -5.782  1.00  0.00     0.157 HD
ENDBRANCH  48  55
ENDBRANCH  37  43
ENDBRANCH  33  34
ENDBRANCH  32  33
ENDBRANCH   1  32
TORSDOF 18
ENDMDL
MODEL 4
REMARK VINA RESULT:      -7.7      3.291      4.899
REMARK  18 active torsions:
REMARK  status: ('A' for Active; 'I' for Inactive)
REMARK    1  A    between atoms: C_3  and  C_45 
REMARK    2  A    between atoms: N_5  and  C_7 
REMARK    3  A    between atoms: C_8  and  O_44 
REMARK    4  A    between atoms: C_9  and  O_43 
REMARK    5  A    between atoms: C_10  and  C_12 
REMARK    6  A    between atoms: C_12  and  O_13 
REMARK    7  A    between atoms: O_13  and  P_14 
REMARK    8  A    between atoms: P_14  and  O_16 
REMARK    9  A    between atoms: P_14  and  O_17 
REMARK   10  A    between atoms: O_17  and  P_18 
REMARK   11  A    between atoms: P_18  and  O_20 
REMARK   12  A    between atoms: P_18  and  O_21 
REMARK   13  A    between atoms: O_21  and  C_22 
REMARK   14  A    between atoms: C_22  and  C_23 
REMARK   15  A    between atoms: C_24  and  O_42 
REMARK   16  A    between atoms: C_25  and  O_41 
REMARK   17  A    between atoms: C_26  and  N_28 
REMARK   18  A    between atoms: C_33  and  N_40 
REMARK       I    between atoms: C_45  and  N_47 
ROOT
HETATM    1  P   UNL     1     -16.844 -10.594  -4.088  1.00  0.00     0.401 P 
HETATM    2  O   UNL     1     -15.870 -11.076  -5.172  1.00  0.00    -0.631 OA
ENDROOT
BRANCH   1   3
HETATM    3  O   UNL     1     -17.284  -9.310  -5.160  1.00  0.00    -0.195 OA
BRANCH   3   4
HETATM    4  P   UNL     1     -18.972  -8.970  -4.991  1.00  0.00     0.401 P 
HETATM    5  O   UNL     1     -18.904  -9.208  -3.484  1.00  0.00    -0.631 OA
BRANCH   4   6
HETATM    6  O   UNL     1     -20.660  -8.631  -4.822  1.00  0.00    -0.294 OA
BRANCH   6   7
HETATM    7  C   UNL     1     -21.220  -7.979  -5.957  1.00  0.00     0.215 C 
BRANCH   7   8
HETATM    8  C   UNL     1     -20.556  -6.610  -6.175  1.00  0.00     0.180 C 
HETATM    9  C   UNL     1     -21.249  -5.418  -5.512  1.00  0.00     0.182 C 
HETATM   10  C   UNL     1     -22.090  -4.772  -6.607  1.00  0.00     0.198 C 
HETATM   11  C   UNL     1     -21.725  -5.560  -7.867  1.00  0.00     0.259 C 
HETATM   12  O   UNL     1     -20.513  -6.280  -7.586  1.00  0.00    -0.353 OA
BRANCH   9  13
HETATM   13  O   UNL     1     -21.989  -5.686  -4.335  1.00  0.00    -0.390 OA
HETATM   14  H   UNL     1     -22.931  -5.861  -4.549  1.00  0.00     0.210 HD
ENDBRANCH   9  13
BRANCH  10  15
HETATM   15  O   UNL     1     -23.489  -4.842  -6.348  1.00  0.00    -0.388 OA
HETATM   16  H   UNL     1     -23.866  -3.958  -6.546  1.00  0.00     0.210 HD
ENDBRANCH  10  15
BRANCH  11  17
HETATM   17  N   UNL     1     -21.599  -4.674  -9.057  1.00  0.00    -0.336 N 
HETATM   18  C   UNL     1     -22.740  -4.199  -9.624  1.00  0.00     0.110 A 
HETATM   19  C   UNL     1     -22.711  -3.508 -10.836  1.00  0.00     0.047 A 
HETATM   20  C   UNL     1     -21.484  -3.273 -11.450  1.00  0.00     0.020 A 
HETATM   21  C   UNL     1     -20.321  -3.737 -10.840  1.00  0.00     0.018 A 
HETATM   22  C   UNL     1     -20.400  -4.443  -9.641  1.00  0.00     0.093 A 
BRANCH  19  23
HETATM   23  C   UNL     1     -24.021  -3.103 -11.395  1.00  0.00     0.250 C 
HETATM   24  O   UNL     1     -25.039  -3.308 -10.747  1.00  0.00    -0.268 OA
HETATM   25  N   UNL     1     -24.073  -2.532 -12.633  1.00  0.00    -0.366 N 
HETATM   26  H   UNL     1     -23.293  -2.358 -13.251  1.00  0.00     0.159 HD
HETATM   27  H   UNL     1     -24.992  -2.298 -12.991  1.00  0.00     0.159 HD
ENDBRANCH  19  23
ENDBRANCH  11  17
ENDBRANCH   7   8
ENDBRANCH   6   7
ENDBRANCH   4   6
BRANCH   4  28
HETATM   28  O   UNL     1     -19.379 -10.382  -5.698  1.00  0.00    -0.307 OA
HETATM   29  H   UNL     1     -19.166 -11.176  -5.168  1.00  0.00     0.222 HD
ENDBRANCH   4  28
ENDBRANCH   3   4
ENDBRANCH   1   3
BRANCH   1  30
HETATM   30  O   UNL     1     -16.040  -9.487  -3.192  1.00  0.00    -0.307 OA
HETATM   31  H   UNL     1     -15.954  -8.653  -3.688  1.00  0.00     0.222 HD
ENDBRANCH   1  30
BRANCH   1  32
HETATM   32  O   UNL     1     -16.404 -11.878  -3.015  1.00  0.00    -0.294 OA
BRANCH  32  33
HETATM   33  C   UNL     1     -16.514 -11.529  -1.627  1.00  0.00     0.215 C 
BRANCH  33  34
HETATM   34  C   UNL     1     -17.840 -11.964  -1.086  1.00  0.00     0.180 C 
HETATM   35  C   UNL     1     -17.823 -13.232  -0.265  1.00  0.00     0.182 C 
HETATM   36  C   UNL     1     -19.239 -13.779  -0.473  1.00  0.00     0.198 C 
HETATM   37  C   UNL     1     -19.786 -13.005  -1.684  1.00  0.00     0.262 C 
HETATM   38  O   UNL     1     -18.703 -12.222  -2.195  1.00  0.00    -0.353 OA
BRANCH  35  39
HETATM   39  O   UNL     1     -17.506 -12.968   1.095  1.00  0.00    -0.390 OA
HETATM   40  H   UNL     1     -18.352 -12.877   1.575  1.00  0.00     0.210 HD
ENDBRANCH  35  39
BRANCH  36  41
HETATM   41  O   UNL     1     -20.022 -13.806   0.708  1.00  0.00    -0.388 OA
HETATM   42  H   UNL     1     -19.468 -14.140   1.434  1.00  0.00     0.210 HD
ENDBRANCH  36  41
BRANCH  37  43
HETATM   43  N   UNL     1     -20.935 -12.120  -1.677  1.00  0.00    -0.297 N 
HETATM   44  C   UNL     1     -21.432 -11.730  -2.917  1.00  0.00     0.188 C 
HETATM   45  N   UNL     1     -21.859 -10.495  -2.931  1.00  0.00    -0.346 N 
HETATM   46  C   UNL     1     -21.574 -10.036  -1.673  1.00  0.00     0.122 C 
ATOM     47  HN  UNL     1     -22.303  -9.992  -3.699  1.00  0.00     0.167 HD
HETATM   48  C   UNL     1     -21.497  -8.729  -1.193  1.00  0.00     0.131 C 
HETATM   49  C   UNL     1     -21.174 -11.059  -0.816  1.00  0.00     0.142 C 
HETATM   50  N   UNL     1     -21.222  -8.514   0.094  1.00  0.00    -0.337 N 
HETATM   51  C   UNL     1     -20.989  -9.615   0.870  1.00  0.00     0.183 C 
ATOM     52  HN  UNL     1     -21.187  -7.571   0.481  1.00  0.00     0.168 HD
HETATM   53  N   UNL     1     -20.893 -10.918   0.495  1.00  0.00    -0.336 N 
ATOM     54  HN  UNL     1     -20.642 -11.685   1.119  1.00  0.00     0.168 HD
BRANCH  48  55
HETATM   55  N   UNL     1     -21.564  -7.674  -2.087  1.00  0.00    -0.383 N 
HETATM   56  H   UNL     1     -21.090  -7.806  -2.974  1.00  0.00     0.157 HD
HETATM   57  H   UNL     1     -22.007  -6.806  -1.843  1.00  0.00     0.157 HD
ENDBRANCH  48  55
ENDBRANCH  37  43
ENDBRANCH  33  34
ENDBRANCH  32  33
ENDBRANCH   1  32
TORSDOF 18
ENDMDL
MODEL 5
REMARK VINA RESULT:      -7.5      2.104      8.567
REMARK  18 active torsions:
REMARK  status: ('A' for Active; 'I' for Inactive)
REMARK    1  A    between atoms: C_3  and  C_45 
REMARK    2  A    between atoms: N_5  and  C_7 
REMARK    3  A    between atoms: C_8  and  O_44 
REMARK    4  A    between atoms: C_9  and  O_43 
REMARK    5  A    between atoms: C_10  and  C_12 
REMARK    6  A    between atoms: C_12  and  O_13 
REMARK    7  A    between atoms: O_13  and  P_14 
REMARK    8  A    between atoms: P_14  and  O_16 
REMARK    9  A    between atoms: P_14  and  O_17 
REMARK   10  A    between atoms: O_17  and  P_18 
REMARK   11  A    between atoms: P_18  and  O_20 
REMARK   12  A    between atoms: P_18  and  O_21 
REMARK   13  A    between atoms: O_21  and  C_22 
REMARK   14  A    between atoms: C_22  and  C_23 
REMARK   15  A    between atoms: C_24  and  O_42 
REMARK   16  A    between atoms: C_25  and  O_41 
REMARK   17  A    between atoms: C_26  and  N_28 
REMARK   18  A    between atoms: C_33  and  N_40 
REMARK       I    between atoms: C_45  and  N_47 
ROOT
HETATM    1  P   UNL     1     -21.921  -7.080  -2.633  1.00  0.00     0.401 P 
HETATM    2  O   UNL     1     -21.541  -5.592  -2.613  1.00  0.00    -0.631 OA
ENDROOT
BRANCH   1   3
HETATM    3  O   UNL     1     -22.203  -6.955  -0.931  1.00  0.00    -0.195 OA
BRANCH   3   4
HETATM    4  P   UNL     1     -22.401  -8.538  -0.262  1.00  0.00     0.401 P 
HETATM    5  O   UNL     1     -23.444  -8.025   0.729  1.00  0.00    -0.631 OA
BRANCH   4   6
HETATM    6  O   UNL     1     -22.601 -10.120   0.408  1.00  0.00    -0.294 OA
BRANCH   6   7
HETATM    7  C   UNL     1     -21.375 -10.832   0.546  1.00  0.00     0.215 C 
BRANCH   7   8
HETATM    8  C   UNL     1     -21.024 -11.559  -0.761  1.00  0.00     0.180 C 
HETATM    9  C   UNL     1     -20.276 -12.885  -0.609  1.00  0.00     0.182 C 
HETATM   10  C   UNL     1     -18.805 -12.553  -0.830  1.00  0.00     0.198 C 
HETATM   11  C   UNL     1     -18.814 -11.076  -1.225  1.00  0.00     0.259 C 
HETATM   12  O   UNL     1     -20.162 -10.738  -1.590  1.00  0.00    -0.353 OA
BRANCH   9  13
HETATM   13  O   UNL     1     -20.504 -13.610   0.585  1.00  0.00    -0.390 OA
HETATM   14  H   UNL     1     -21.336 -13.315   1.018  1.00  0.00     0.210 HD
ENDBRANCH   9  13
BRANCH  10  15
HETATM   15  O   UNL     1     -18.006 -12.767   0.330  1.00  0.00    -0.388 OA
HETATM   16  H   UNL     1     -17.724 -11.885   0.656  1.00  0.00     0.210 HD
ENDBRANCH  10  15
BRANCH  11  17
HETATM   17  N   UNL     1     -17.840 -10.786  -2.314  1.00  0.00    -0.336 N 
HETATM   18  C   UNL     1     -18.330 -10.468  -3.541  1.00  0.00     0.110 A 
HETATM   19  C   UNL     1     -17.488 -10.353  -4.648  1.00  0.00     0.047 A 
HETATM   20  C   UNL     1     -16.119 -10.531  -4.475  1.00  0.00     0.020 A 
HETATM   21  C   UNL     1     -15.628 -10.824  -3.205  1.00  0.00     0.018 A 
HETATM   22  C   UNL     1     -16.509 -10.953  -2.133  1.00  0.00     0.093 A 
BRANCH  19  23
HETATM   23  C   UNL     1     -18.142 -10.077  -5.947  1.00  0.00     0.250 C 
HETATM   24  O   UNL     1     -18.540  -8.946  -6.191  1.00  0.00    -0.268 OA
HETATM   25  N   UNL     1     -18.310 -11.094  -6.841  1.00  0.00    -0.366 N 
HETATM   26  H   UNL     1     -18.048 -12.061  -6.714  1.00  0.00     0.159 HD
HETATM   27  H   UNL     1     -18.790 -10.869  -7.705  1.00  0.00     0.159 HD
ENDBRANCH  19  23
ENDBRANCH  11  17
ENDBRANCH   7   8
ENDBRANCH   6   7
ENDBRANCH   4   6
BRANCH   4  28
HETATM   28  O   UNL     1     -20.946  -8.467   0.469  1.00  0.00    -0.307 OA
HETATM   29  H   UNL     1     -20.954  -8.717   1.414  1.00  0.00     0.222 HD
ENDBRANCH   4  28
ENDBRANCH   3   4
ENDBRANCH   1   3
BRANCH   1  30
HETATM   30  O   UNL     1     -20.560  -7.917  -2.284  1.00  0.00    -0.307 OA
HETATM   31  H   UNL     1     -20.015  -8.019  -3.085  1.00  0.00     0.222 HD
ENDBRANCH   1  30
BRANCH   1  32
HETATM   32  O   UNL     1     -21.640  -7.206  -4.336  1.00  0.00    -0.294 OA
BRANCH  32  33
HETATM   33  C   UNL     1     -22.397  -6.267  -5.113  1.00  0.00     0.215 C 
BRANCH  33  34
HETATM   34  C   UNL     1     -21.598  -5.806  -6.293  1.00  0.00     0.180 C 
HETATM   35  C   UNL     1     -20.232  -5.245  -5.973  1.00  0.00     0.182 C 
HETATM   36  C   UNL     1     -19.997  -4.271  -7.132  1.00  0.00     0.198 C 
HETATM   37  C   UNL     1     -21.383  -4.074  -7.768  1.00  0.00     0.262 C 
HETATM   38  O   UNL     1     -22.321  -4.751  -6.928  1.00  0.00    -0.353 OA
BRANCH  35  39
HETATM   39  O   UNL     1     -19.255  -6.272  -5.882  1.00  0.00    -0.390 OA
HETATM   40  H   UNL     1     -19.350  -6.683  -5.002  1.00  0.00     0.210 HD
ENDBRANCH  35  39
BRANCH  36  41
HETATM   41  O   UNL     1     -18.922  -4.639  -7.980  1.00  0.00    -0.388 OA
HETATM   42  H   UNL     1     -19.292  -5.060  -8.775  1.00  0.00     0.210 HD
ENDBRANCH  36  41
BRANCH  37  43
HETATM   43  N   UNL     1     -21.752  -4.427  -9.125  1.00  0.00    -0.297 N 
HETATM   44  C   UNL     1     -20.800  -4.194 -10.114  1.00  0.00     0.188 C 
HETATM   45  N   UNL     1     -21.324  -3.794 -11.242  1.00  0.00    -0.346 N 
HETATM   46  C   UNL     1     -22.662  -3.698 -10.967  1.00  0.00     0.122 C 
ATOM     47  HN  UNL     1     -20.847  -3.599 -12.123  1.00  0.00     0.167 HD
HETATM   48  C   UNL     1     -23.672  -3.028 -11.656  1.00  0.00     0.131 C 
HETATM   49  C   UNL     1     -22.987  -4.255  -9.732  1.00  0.00     0.142 C 
HETATM   50  N   UNL     1     -24.927  -3.091 -11.212  1.00  0.00    -0.337 N 
HETATM   51  C   UNL     1     -25.142  -3.795 -10.059  1.00  0.00     0.183 C 
ATOM     52  HN  UNL     1     -25.693  -2.635 -11.708  1.00  0.00     0.168 HD
HETATM   53  N   UNL     1     -24.232  -4.364  -9.225  1.00  0.00    -0.336 N 
ATOM     54  HN  UNL     1     -24.459  -4.813  -8.338  1.00  0.00     0.168 HD
BRANCH  48  55
HETATM   55  N   UNL     1     -23.335  -2.190 -12.705  1.00  0.00    -0.383 N 
HETATM   56  H   UNL     1     -22.595  -1.519 -12.526  1.00  0.00     0.157 HD
HETATM   57  H   UNL     1     -23.840  -2.208 -13.574  1.00  0.00     0.157 HD
ENDBRANCH  48  55
ENDBRANCH  37  43
ENDBRANCH  33  34
ENDBRANCH  32  33
ENDBRANCH   1  32
TORSDOF 18
ENDMDL
MODEL 6
REMARK VINA RESULT:      -7.3      2.506      4.253
REMARK  18 active torsions:
REMARK  status: ('A' for Active; 'I' for Inactive)
REMARK    1  A    between atoms: C_3  and  C_45 
REMARK    2  A    between atoms: N_5  and  C_7 
REMARK    3  A    between atoms: C_8  and  O_44 
REMARK    4  A    between atoms: C_9  and  O_43 
REMARK    5  A    between atoms: C_10  and  C_12 
REMARK    6  A    between atoms: C_12  and  O_13 
REMARK    7  A    between atoms: O_13  and  P_14 
REMARK    8  A    between atoms: P_14  and  O_16 
REMARK    9  A    between atoms: P_14  and  O_17 
REMARK   10  A    between atoms: O_17  and  P_18 
REMARK   11  A    between atoms: P_18  and  O_20 
REMARK   12  A    between atoms: P_18  and  O_21 
REMARK   13  A    between atoms: O_21  and  C_22 
REMARK   14  A    between atoms: C_22  and  C_23 
REMARK   15  A    between atoms: C_24  and  O_42 
REMARK   16  A    between atoms: C_25  and  O_41 
REMARK   17  A    between atoms: C_26  and  N_28 
REMARK   18  A    between atoms: C_33  and  N_40 
REMARK       I    between atoms: C_45  and  N_47 
ROOT
HETATM    1  P   UNL     1     -16.754 -10.602  -3.560  1.00  0.00     0.401 P 
HETATM    2  O   UNL     1     -16.035  -9.535  -4.397  1.00  0.00    -0.631 OA
ENDROOT
BRANCH   1   3
HETATM    3  O   UNL     1     -17.464  -9.308  -2.657  1.00  0.00    -0.195 OA
BRANCH   3   4
HETATM    4  P   UNL     1     -19.021  -8.933  -3.311  1.00  0.00     0.401 P 
HETATM    5  O   UNL     1     -19.714  -9.502  -2.075  1.00  0.00    -0.631 OA
BRANCH   4   6
HETATM    6  O   UNL     1     -20.578  -8.558  -3.964  1.00  0.00    -0.294 OA
BRANCH   6   7
HETATM    7  C   UNL     1     -20.545  -8.244  -5.353  1.00  0.00     0.215 C 
BRANCH   7   8
HETATM    8  C   UNL     1     -20.133  -6.780  -5.565  1.00  0.00     0.180 C 
HETATM    9  C   UNL     1     -21.029  -5.731  -4.904  1.00  0.00     0.182 C 
HETATM   10  C   UNL     1     -21.967  -5.241  -6.002  1.00  0.00     0.198 C 
HETATM   11  C   UNL     1     -21.463  -5.948  -7.261  1.00  0.00     0.259 C 
HETATM   12  O   UNL     1     -20.144  -6.443  -6.976  1.00  0.00    -0.353 OA
BRANCH   9  13
HETATM   13  O   UNL     1     -21.714  -6.128  -3.730  1.00  0.00    -0.390 OA
HETATM   14  H   UNL     1     -22.613  -5.732  -3.701  1.00  0.00     0.210 HD
ENDBRANCH   9  13
BRANCH  10  15
HETATM   15  O   UNL     1     -23.332  -5.558  -5.749  1.00  0.00    -0.388 OA
HETATM   16  H   UNL     1     -23.612  -6.204  -6.434  1.00  0.00     0.210 HD
ENDBRANCH  10  15
BRANCH  11  17
HETATM   17  N   UNL     1     -21.490  -5.051  -8.449  1.00  0.00    -0.336 N 
HETATM   18  C   UNL     1     -22.695  -4.577  -8.864  1.00  0.00     0.110 A 
HETATM   19  C   UNL     1     -22.822  -3.875 -10.063  1.00  0.00     0.047 A 
HETATM   20  C   UNL     1     -21.682  -3.627 -10.823  1.00  0.00     0.020 A 
HETATM   21  C   UNL     1     -20.450  -4.090 -10.368  1.00  0.00     0.018 A 
HETATM   22  C   UNL     1     -20.375  -4.808  -9.176  1.00  0.00     0.093 A 
BRANCH  19  23
HETATM   23  C   UNL     1     -24.193  -3.473 -10.450  1.00  0.00     0.250 C 
HETATM   24  O   UNL     1     -24.378  -2.933 -11.532  1.00  0.00    -0.268 OA
HETATM   25  N   UNL     1     -25.224  -3.689  -9.582  1.00  0.00    -0.366 N 
HETATM   26  H   UNL     1     -25.162  -4.093  -8.659  1.00  0.00     0.159 HD
HETATM   27  H   UNL     1     -26.141  -3.370  -9.873  1.00  0.00     0.159 HD
ENDBRANCH  19  23
ENDBRANCH  11  17
ENDBRANCH   7   8
ENDBRANCH   6   7
ENDBRANCH   4   6
BRANCH   4  28
HETATM   28  O   UNL     1     -18.903 -10.131  -4.411  1.00  0.00    -0.307 OA
HETATM   29  H   UNL     1     -18.149 -10.042  -5.027  1.00  0.00     0.222 HD
ENDBRANCH   4  28
ENDBRANCH   3   4
ENDBRANCH   1   3
BRANCH   1  30
HETATM   30  O   UNL     1     -15.804 -10.903  -2.263  1.00  0.00    -0.307 OA
HETATM   31  H   UNL     1     -16.287 -10.707  -1.441  1.00  0.00     0.222 HD
ENDBRANCH   1  30
BRANCH   1  32
HETATM   32  O   UNL     1     -16.046 -11.897  -4.462  1.00  0.00    -0.294 OA
BRANCH  32  33
HETATM   33  C   UNL     1     -16.251 -11.788  -5.879  1.00  0.00     0.215 C 
BRANCH  33  34
HETATM   34  C   UNL     1     -17.367 -12.686  -6.312  1.00  0.00     0.180 C 
HETATM   35  C   UNL     1     -17.075 -13.549  -7.518  1.00  0.00     0.182 C 
HETATM   36  C   UNL     1     -18.469 -13.757  -8.119  1.00  0.00     0.198 C 
HETATM   37  C   UNL     1     -19.350 -12.690  -7.448  1.00  0.00     0.262 C 
HETATM   38  O   UNL     1     -18.478 -11.864  -6.673  1.00  0.00    -0.353 OA
BRANCH  35  39
HETATM   39  O   UNL     1     -16.425 -14.758  -7.149  1.00  0.00    -0.390 OA
HETATM   40  H   UNL     1     -15.867 -15.026  -7.904  1.00  0.00     0.210 HD
ENDBRANCH  35  39
BRANCH  36  41
HETATM   41  O   UNL     1     -18.913 -15.103  -8.085  1.00  0.00    -0.388 OA
HETATM   42  H   UNL     1     -19.123 -15.378  -8.994  1.00  0.00     0.210 HD
ENDBRANCH  36  41
BRANCH  37  43
HETATM   43  N   UNL     1     -20.497 -12.948  -6.599  1.00  0.00    -0.297 N 
HETATM   44  C   UNL     1     -21.686 -12.310  -6.942  1.00  0.00     0.188 C 
HETATM   45  N   UNL     1     -22.381 -11.933  -5.902  1.00  0.00    -0.346 N 
HETATM   46  C   UNL     1     -21.591 -12.276  -4.837  1.00  0.00     0.122 C 
ATOM     47  HN  UNL     1     -23.298 -11.487  -5.886  1.00  0.00     0.167 HD
HETATM   48  C   UNL     1     -21.640 -11.847  -3.511  1.00  0.00     0.131 C 
HETATM   49  C   UNL     1     -20.509 -13.067  -5.217  1.00  0.00     0.142 C 
HETATM   50  N   UNL     1     -20.772 -12.339  -2.627  1.00  0.00    -0.337 N 
HETATM   51  C   UNL     1     -19.843 -13.226  -3.098  1.00  0.00     0.183 C 
ATOM     52  HN  UNL     1     -20.799 -12.067  -1.644  1.00  0.00     0.168 HD
HETATM   53  N   UNL     1     -19.602 -13.609  -4.380  1.00  0.00    -0.336 N 
ATOM     54  HN  UNL     1     -18.840 -14.222  -4.668  1.00  0.00     0.168 HD
BRANCH  48  55
HETATM   55  N   UNL     1     -22.491 -10.812  -3.165  1.00  0.00    -0.383 N 
HETATM   56  H   UNL     1     -22.257 -10.302  -2.319  1.00  0.00     0.157 HD
HETATM   57  H   UNL     1     -23.325 -10.620  -3.691  1.00  0.00     0.157 HD
ENDBRANCH  48  55
ENDBRANCH  37  43
ENDBRANCH  33  34
ENDBRANCH  32  33
ENDBRANCH   1  32
TORSDOF 18
ENDMDL
MODEL 7
REMARK VINA RESULT:      -7.3      2.046      8.291
REMARK  18 active torsions:
REMARK  status: ('A' for Active; 'I' for Inactive)
REMARK    1  A    between atoms: C_3  and  C_45 
REMARK    2  A    between atoms: N_5  and  C_7 
REMARK    3  A    between atoms: C_8  and  O_44 
REMARK    4  A    between atoms: C_9  and  O_43 
REMARK    5  A    between atoms: C_10  and  C_12 
REMARK    6  A    between atoms: C_12  and  O_13 
REMARK    7  A    between atoms: O_13  and  P_14 
REMARK    8  A    between atoms: P_14  and  O_16 
REMARK    9  A    between atoms: P_14  and  O_17 
REMARK   10  A    between atoms: O_17  and  P_18 
REMARK   11  A    between atoms: P_18  and  O_20 
REMARK   12  A    between atoms: P_18  and  O_21 
REMARK   13  A    between atoms: O_21  and  C_22 
REMARK   14  A    between atoms: C_22  and  C_23 
REMARK   15  A    between atoms: C_24  and  O_42 
REMARK   16  A    between atoms: C_25  and  O_41 
REMARK   17  A    between atoms: C_26  and  N_28 
REMARK   18  A    between atoms: C_33  and  N_40 
REMARK       I    between atoms: C_45  and  N_47 
ROOT
HETATM    1  P   UNL     1     -21.916  -7.126  -2.677  1.00  0.00     0.401 P 
HETATM    2  O   UNL     1     -21.594  -5.626  -2.715  1.00  0.00    -0.631 OA
ENDROOT
BRANCH   1   3
HETATM    3  O   UNL     1     -22.099  -6.968  -0.964  1.00  0.00    -0.195 OA
BRANCH   3   4
HETATM    4  P   UNL     1     -22.432  -8.519  -0.273  1.00  0.00     0.401 P 
HETATM    5  O   UNL     1     -23.366  -7.895   0.762  1.00  0.00    -0.631 OA
BRANCH   4   6
HETATM    6  O   UNL     1     -22.767 -10.069   0.417  1.00  0.00    -0.294 OA
BRANCH   6   7
HETATM    7  C   UNL     1     -23.722 -10.822  -0.324  1.00  0.00     0.215 C 
BRANCH   7   8
HETATM    8  C   UNL     1     -23.065 -12.062  -0.948  1.00  0.00     0.180 C 
HETATM    9  C   UNL     1     -21.616 -12.329  -0.537  1.00  0.00     0.182 C 
HETATM   10  C   UNL     1     -20.758 -11.762  -1.663  1.00  0.00     0.198 C 
HETATM   11  C   UNL     1     -21.776 -11.320  -2.715  1.00  0.00     0.259 C 
HETATM   12  O   UNL     1     -23.027 -11.950  -2.394  1.00  0.00    -0.353 OA
BRANCH   9  13
HETATM   13  O   UNL     1     -21.222 -11.866   0.742  1.00  0.00    -0.390 OA
HETATM   14  H   UNL     1     -20.363 -12.263   1.006  1.00  0.00     0.210 HD
ENDBRANCH   9  13
BRANCH  10  15
HETATM   15  O   UNL     1     -19.946 -10.670  -1.246  1.00  0.00    -0.388 OA
HETATM   16  H   UNL     1     -19.316 -11.014  -0.576  1.00  0.00     0.210 HD
ENDBRANCH  10  15
BRANCH  11  17
HETATM   17  N   UNL     1     -21.318 -11.635  -4.097  1.00  0.00    -0.336 N 
HETATM   18  C   UNL     1     -20.088 -11.198  -4.477  1.00  0.00     0.110 A 
HETATM   19  C   UNL     1     -19.660 -11.304  -5.801  1.00  0.00     0.047 A 
HETATM   20  C   UNL     1     -20.500 -11.904  -6.735  1.00  0.00     0.020 A 
HETATM   21  C   UNL     1     -21.744 -12.377  -6.323  1.00  0.00     0.018 A 
HETATM   22  C   UNL     1     -22.139 -12.228  -4.994  1.00  0.00     0.093 A 
BRANCH  19  23
HETATM   23  C   UNL     1     -18.333 -10.727  -6.114  1.00  0.00     0.250 C 
HETATM   24  O   UNL     1     -17.365 -11.468  -6.214  1.00  0.00    -0.268 OA
HETATM   25  N   UNL     1     -18.209  -9.376  -6.260  1.00  0.00    -0.366 N 
HETATM   26  H   UNL     1     -18.940  -8.687  -6.160  1.00  0.00     0.159 HD
HETATM   27  H   UNL     1     -17.277  -9.020  -6.443  1.00  0.00     0.159 HD
ENDBRANCH  19  23
ENDBRANCH  11  17
ENDBRANCH   7   8
ENDBRANCH   6   7
ENDBRANCH   4   6
BRANCH   4  28
HETATM   28  O   UNL     1     -20.944  -8.602   0.386  1.00  0.00    -0.307 OA
HETATM   29  H   UNL     1     -20.913  -8.402   1.343  1.00  0.00     0.222 HD
ENDBRANCH   4  28
ENDBRANCH   3   4
ENDBRANCH   1   3
BRANCH   1  30
HETATM   30  O   UNL     1     -20.506  -7.904  -2.392  1.00  0.00    -0.307 OA
HETATM   31  H   UNL     1     -19.848  -7.660  -3.068  1.00  0.00     0.222 HD
ENDBRANCH   1  30
BRANCH   1  32
HETATM   32  O   UNL     1     -21.735  -7.286  -4.390  1.00  0.00    -0.294 OA
BRANCH  32  33
HETATM   33  C   UNL     1     -22.404  -6.258  -5.136  1.00  0.00     0.215 C 
BRANCH  33  34
HETATM   34  C   UNL     1     -21.574  -5.847  -6.312  1.00  0.00     0.180 C 
HETATM   35  C   UNL     1     -20.178  -5.371  -5.987  1.00  0.00     0.182 C 
HETATM   36  C   UNL     1     -19.878  -4.412  -7.144  1.00  0.00     0.198 C 
HETATM   37  C   UNL     1     -21.247  -4.131  -7.786  1.00  0.00     0.262 C 
HETATM   38  O   UNL     1     -22.229  -4.750  -6.949  1.00  0.00    -0.353 OA
BRANCH  35  39
HETATM   39  O   UNL     1     -19.265  -6.456  -5.893  1.00  0.00    -0.390 OA
HETATM   40  H   UNL     1     -19.751  -7.263  -6.147  1.00  0.00     0.210 HD
ENDBRANCH  35  39
BRANCH  36  41
HETATM   41  O   UNL     1     -18.825  -4.845  -7.988  1.00  0.00    -0.388 OA
HETATM   42  H   UNL     1     -18.314  -5.525  -7.515  1.00  0.00     0.210 HD
ENDBRANCH  36  41
BRANCH  37  43
HETATM   43  N   UNL     1     -21.632  -4.461  -9.144  1.00  0.00    -0.297 N 
HETATM   44  C   UNL     1     -20.701  -4.188 -10.142  1.00  0.00     0.188 C 
HETATM   45  N   UNL     1     -21.250  -3.772 -11.253  1.00  0.00    -0.346 N 
HETATM   46  C   UNL     1     -22.585  -3.707 -10.955  1.00  0.00     0.122 C 
ATOM     47  HN  UNL     1     -20.792  -3.549 -12.136  1.00  0.00     0.167 HD
HETATM   48  C   UNL     1     -23.618  -3.041 -11.612  1.00  0.00     0.131 C 
HETATM   49  C   UNL     1     -22.880  -4.297  -9.727  1.00  0.00     0.142 C 
HETATM   50  N   UNL     1     -24.865  -3.137 -11.149  1.00  0.00    -0.337 N 
HETATM   51  C   UNL     1     -25.048  -3.870 -10.009  1.00  0.00     0.183 C 
ATOM     52  HN  UNL     1     -25.646  -2.684 -11.623  1.00  0.00     0.168 HD
HETATM   53  N   UNL     1     -24.114  -4.441  -9.203  1.00  0.00    -0.336 N 
ATOM     54  HN  UNL     1     -24.318  -4.914  -8.323  1.00  0.00     0.168 HD
BRANCH  48  55
HETATM   55  N   UNL     1     -23.314  -2.174 -12.647  1.00  0.00    -0.383 N 
HETATM   56  H   UNL     1     -24.016  -1.476 -12.870  1.00  0.00     0.157 HD
HETATM   57  H   UNL     1     -22.471  -2.273 -13.184  1.00  0.00     0.157 HD
ENDBRANCH  48  55
ENDBRANCH  37  43
ENDBRANCH  33  34
ENDBRANCH  32  33
ENDBRANCH   1  32
TORSDOF 18
ENDMDL
MODEL 8
REMARK VINA RESULT:      -7.3      3.265      5.013
REMARK  18 active torsions:
REMARK  status: ('A' for Active; 'I' for Inactive)
REMARK    1  A    between atoms: C_3  and  C_45 
REMARK    2  A    between atoms: N_5  and  C_7 
REMARK    3  A    between atoms: C_8  and  O_44 
REMARK    4  A    between atoms: C_9  and  O_43 
REMARK    5  A    between atoms: C_10  and  C_12 
REMARK    6  A    between atoms: C_12  and  O_13 
REMARK    7  A    between atoms: O_13  and  P_14 
REMARK    8  A    between atoms: P_14  and  O_16 
REMARK    9  A    between atoms: P_14  and  O_17 
REMARK   10  A    between atoms: O_17  and  P_18 
REMARK   11  A    between atoms: P_18  and  O_20 
REMARK   12  A    between atoms: P_18  and  O_21 
REMARK   13  A    between atoms: O_21  and  C_22 
REMARK   14  A    between atoms: C_22  and  C_23 
REMARK   15  A    between atoms: C_24  and  O_42 
REMARK   16  A    between atoms: C_25  and  O_41 
REMARK   17  A    between atoms: C_26  and  N_28 
REMARK   18  A    between atoms: C_33  and  N_40 
REMARK       I    between atoms: C_45  and  N_47 
ROOT
HETATM    1  P   UNL     1     -20.806 -11.364  -3.878  1.00  0.00     0.401 P 
HETATM    2  O   UNL     1     -22.017 -12.143  -3.346  1.00  0.00    -0.631 OA
ENDROOT
BRANCH   1   3
HETATM    3  O   UNL     1     -21.695  -9.914  -3.564  1.00  0.00    -0.195 OA
BRANCH   3   4
HETATM    4  P   UNL     1     -21.360  -8.752  -4.802  1.00  0.00     0.401 P 
HETATM    5  O   UNL     1     -19.871  -8.771  -4.463  1.00  0.00    -0.631 OA
BRANCH   4   6
HETATM    6  O   UNL     1     -21.025  -7.591  -6.039  1.00  0.00    -0.294 OA
BRANCH   6   7
HETATM    7  C   UNL     1     -19.645  -7.254  -6.136  1.00  0.00     0.215 C 
BRANCH   7   8
HETATM    8  C   UNL     1     -19.476  -5.769  -6.495  1.00  0.00     0.180 C 
HETATM    9  C   UNL     1     -20.408  -4.796  -5.769  1.00  0.00     0.182 C 
HETATM   10  C   UNL     1     -21.550  -4.522  -6.741  1.00  0.00     0.198 C 
HETATM   11  C   UNL     1     -21.135  -5.255  -8.017  1.00  0.00     0.259 C 
HETATM   12  O   UNL     1     -19.733  -5.550  -7.905  1.00  0.00    -0.353 OA
BRANCH   9  13
HETATM   13  O   UNL     1     -20.858  -5.185  -4.485  1.00  0.00    -0.390 OA
HETATM   14  H   UNL     1     -21.501  -4.533  -4.130  1.00  0.00     0.210 HD
ENDBRANCH   9  13
BRANCH  10  15
HETATM   15  O   UNL     1     -22.808  -4.992  -6.267  1.00  0.00    -0.388 OA
HETATM   16  H   UNL     1     -22.651  -5.863  -5.841  1.00  0.00     0.210 HD
ENDBRANCH  10  15
BRANCH  11  17
HETATM   17  N   UNL     1     -21.455  -4.466  -9.239  1.00  0.00    -0.336 N 
HETATM   18  C   UNL     1     -22.758  -4.162  -9.479  1.00  0.00     0.110 A 
HETATM   19  C   UNL     1     -23.154  -3.578 -10.683  1.00  0.00     0.047 A 
HETATM   20  C   UNL     1     -22.186  -3.271 -11.634  1.00  0.00     0.020 A 
HETATM   21  C   UNL     1     -20.851  -3.558 -11.360  1.00  0.00     0.018 A 
HETATM   22  C   UNL     1     -20.504  -4.164 -10.153  1.00  0.00     0.093 A 
BRANCH  19  23
HETATM   23  C   UNL     1     -24.607  -3.360 -10.864  1.00  0.00     0.250 C 
HETATM   24  O   UNL     1     -25.029  -2.995 -11.953  1.00  0.00    -0.268 OA
HETATM   25  N   UNL     1     -25.449  -3.547  -9.806  1.00  0.00    -0.366 N 
HETATM   26  H   UNL     1     -25.189  -3.811  -8.866  1.00  0.00     0.159 HD
HETATM   27  H   UNL     1     -26.432  -3.357  -9.964  1.00  0.00     0.159 HD
ENDBRANCH  19  23
ENDBRANCH  11  17
ENDBRANCH   7   8
ENDBRANCH   6   7
ENDBRANCH   4   6
BRANCH   4  28
HETATM   28  O   UNL     1     -22.051  -7.556  -3.936  1.00  0.00    -0.307 OA
HETATM   29  H   UNL     1     -22.491  -6.868  -4.475  1.00  0.00     0.222 HD
ENDBRANCH   4  28
ENDBRANCH   3   4
ENDBRANCH   1   3
BRANCH   1  30
HETATM   30  O   UNL     1     -21.072 -11.109  -5.471  1.00  0.00    -0.307 OA
HETATM   31  H   UNL     1     -21.475 -11.899  -5.873  1.00  0.00     0.222 HD
ENDBRANCH   1  30
BRANCH   1  32
HETATM   32  O   UNL     1     -19.915 -12.813  -4.191  1.00  0.00    -0.294 OA
BRANCH  32  33
HETATM   33  C   UNL     1     -18.601 -12.815  -3.612  1.00  0.00     0.215 C 
BRANCH  33  34
HETATM   34  C   UNL     1     -18.681 -12.535  -2.144  1.00  0.00     0.180 C 
HETATM   35  C   UNL     1     -17.355 -12.477  -1.422  1.00  0.00     0.182 C 
HETATM   36  C   UNL     1     -17.737 -12.895   0.002  1.00  0.00     0.198 C 
HETATM   37  C   UNL     1     -19.133 -13.525  -0.134  1.00  0.00     0.262 C 
HETATM   38  O   UNL     1     -19.418 -13.595  -1.534  1.00  0.00    -0.353 OA
BRANCH  35  39
HETATM   39  O   UNL     1     -16.775 -11.181  -1.500  1.00  0.00    -0.390 OA
HETATM   40  H   UNL     1     -15.852 -11.260  -1.191  1.00  0.00     0.210 HD
ENDBRANCH  35  39
BRANCH  36  41
HETATM   41  O   UNL     1     -17.561 -11.871   0.967  1.00  0.00    -0.388 OA
HETATM   42  H   UNL     1     -18.342 -11.290   0.941  1.00  0.00     0.210 HD
ENDBRANCH  36  41
BRANCH  37  43
HETATM   43  N   UNL     1     -20.350 -13.035   0.485  1.00  0.00    -0.297 N 
HETATM   44  C   UNL     1     -21.431 -13.911   0.519  1.00  0.00     0.188 C 
HETATM   45  N   UNL     1     -22.579 -13.311   0.347  1.00  0.00    -0.346 N 
HETATM   46  C   UNL     1     -22.237 -12.004   0.127  1.00  0.00     0.122 C 
ATOM     47  HN  UNL     1     -23.513 -13.721   0.371  1.00  0.00     0.167 HD
HETATM   48  C   UNL     1     -22.982 -10.965  -0.428  1.00  0.00     0.131 C 
HETATM   49  C   UNL     1     -20.889 -11.762   0.386  1.00  0.00     0.142 C 
HETATM   50  N   UNL     1     -22.445  -9.748  -0.526  1.00  0.00    -0.337 N 
HETATM   51  C   UNL     1     -21.153  -9.604  -0.100  1.00  0.00     0.183 C 
ATOM     52  HN  UNL     1     -22.973  -8.960  -0.901  1.00  0.00     0.168 HD
HETATM   53  N   UNL     1     -20.283 -10.559   0.321  1.00  0.00    -0.336 N 
ATOM     54  HN  UNL     1     -19.305 -10.390   0.555  1.00  0.00     0.168 HD
BRANCH  48  55
HETATM   55  N   UNL     1     -24.210 -11.243  -1.001  1.00  0.00    -0.383 N 
HETATM   56  H   UNL     1     -24.191 -11.660  -1.926  1.00  0.00     0.157 HD
HETATM   57  H   UNL     1     -25.070 -10.988  -0.549  1.00  0.00     0.157 HD
ENDBRANCH  48  55
ENDBRANCH  37  43
ENDBRANCH  33  34
ENDBRANCH  32  33
ENDBRANCH   1  32
TORSDOF 18
ENDMDL
MODEL 9
REMARK VINA RESULT:      -7.3      2.193      3.543
REMARK  18 active torsions:
REMARK  status: ('A' for Active; 'I' for Inactive)
REMARK    1  A    between atoms: C_3  and  C_45 
REMARK    2  A    between atoms: N_5  and  C_7 
REMARK    3  A    between atoms: C_8  and  O_44 
REMARK    4  A    between atoms: C_9  and  O_43 
REMARK    5  A    between atoms: C_10  and  C_12 
REMARK    6  A    between atoms: C_12  and  O_13 
REMARK    7  A    between atoms: O_13  and  P_14 
REMARK    8  A    between atoms: P_14  and  O_16 
REMARK    9  A    between atoms: P_14  and  O_17 
REMARK   10  A    between atoms: O_17  and  P_18 
REMARK   11  A    between atoms: P_18  and  O_20 
REMARK   12  A    between atoms: P_18  and  O_21 
REMARK   13  A    between atoms: O_21  and  C_22 
REMARK   14  A    between atoms: C_22  and  C_23 
REMARK   15  A    between atoms: C_24  and  O_42 
REMARK   16  A    between atoms: C_25  and  O_41 
REMARK   17  A    between atoms: C_26  and  N_28 
REMARK   18  A    between atoms: C_33  and  N_40 
REMARK       I    between atoms: C_45  and  N_47 
ROOT
HETATM    1  P   UNL     1     -20.790  -9.303  -1.257  1.00  0.00     0.401 P 
HETATM    2  O   UNL     1     -21.102  -7.876  -0.786  1.00  0.00    -0.631 OA
ENDROOT
BRANCH   1   3
HETATM    3  O   UNL     1     -19.764  -8.602  -2.460  1.00  0.00    -0.195 OA
BRANCH   3   4
HETATM    4  P   UNL     1     -20.670  -8.344  -3.912  1.00  0.00     0.401 P 
HETATM    5  O   UNL     1     -19.387  -8.228  -4.732  1.00  0.00    -0.631 OA
BRANCH   4   6
HETATM    6  O   UNL     1     -21.576  -8.086  -5.362  1.00  0.00    -0.294 OA
BRANCH   6   7
HETATM    7  C   UNL     1     -21.747  -6.709  -5.683  1.00  0.00     0.215 C 
BRANCH   7   8
HETATM    8  C   UNL     1     -20.633  -6.233  -6.628  1.00  0.00     0.180 C 
HETATM    9  C   UNL     1     -20.011  -4.876  -6.298  1.00  0.00     0.182 C 
HETATM   10  C   UNL     1     -20.707  -3.872  -7.210  1.00  0.00     0.198 C 
HETATM   11  C   UNL     1     -21.597  -4.739  -8.102  1.00  0.00     0.259 C 
HETATM   12  O   UNL     1     -21.134  -6.094  -7.982  1.00  0.00    -0.353 OA
BRANCH   9  13
HETATM   13  O   UNL     1     -20.023  -4.485  -4.937  1.00  0.00    -0.390 OA
HETATM   14  H   UNL     1     -19.151  -4.655  -4.519  1.00  0.00     0.210 HD
ENDBRANCH   9  13
BRANCH  10  15
HETATM   15  O   UNL     1     -21.480  -2.914  -6.495  1.00  0.00    -0.388 OA
HETATM   16  H   UNL     1     -20.914  -2.564  -5.773  1.00  0.00     0.210 HD
ENDBRANCH  10  15
BRANCH  11  17
HETATM   17  N   UNL     1     -21.602  -4.262  -9.513  1.00  0.00    -0.336 N 
HETATM   18  C   UNL     1     -22.768  -3.779 -10.019  1.00  0.00     0.110 A 
HETATM   19  C   UNL     1     -22.896  -3.474 -11.375  1.00  0.00     0.047 A 
HETATM   20  C   UNL     1     -21.793  -3.635 -12.209  1.00  0.00     0.020 A 
HETATM   21  C   UNL     1     -20.596  -4.100 -11.669  1.00  0.00     0.018 A 
HETATM   22  C   UNL     1     -20.522  -4.414 -10.313  1.00  0.00     0.093 A 
BRANCH  19  23
HETATM   23  C   UNL     1     -24.232  -3.026 -11.827  1.00  0.00     0.250 C 
HETATM   24  O   UNL     1     -25.200  -3.190 -11.095  1.00  0.00    -0.268 OA
HETATM   25  N   UNL     1     -24.367  -2.461 -13.061  1.00  0.00    -0.366 N 
HETATM   26  H   UNL     1     -23.636  -2.319 -13.744  1.00  0.00     0.159 HD
HETATM   27  H   UNL     1     -25.304  -2.197 -13.344  1.00  0.00     0.159 HD
ENDBRANCH  19  23
ENDBRANCH  11  17
ENDBRANCH   7   8
ENDBRANCH   6   7
ENDBRANCH   4   6
BRANCH   4  28
HETATM   28  O   UNL     1     -21.095  -6.842  -3.439  1.00  0.00    -0.307 OA
HETATM   29  H   UNL     1     -21.743  -6.817  -2.707  1.00  0.00     0.222 HD
ENDBRANCH   4  28
ENDBRANCH   3   4
ENDBRANCH   1   3
BRANCH   1  30
HETATM   30  O   UNL     1     -21.852  -9.647  -2.451  1.00  0.00    -0.307 OA
HETATM   31  H   UNL     1     -22.763  -9.619  -2.107  1.00  0.00     0.222 HD
ENDBRANCH   1  30
BRANCH   1  32
HETATM   32  O   UNL     1     -21.814 -10.006  -0.053  1.00  0.00    -0.294 OA
BRANCH  32  33
HETATM   33  C   UNL     1     -21.168 -11.020   0.731  1.00  0.00     0.215 C 
BRANCH  33  34
HETATM   34  C   UNL     1     -20.419 -11.963  -0.158  1.00  0.00     0.180 C 
HETATM   35  C   UNL     1     -21.113 -13.275  -0.444  1.00  0.00     0.182 C 
HETATM   36  C   UNL     1     -19.936 -14.221  -0.702  1.00  0.00     0.198 C 
HETATM   37  C   UNL     1     -18.706 -13.476  -0.158  1.00  0.00     0.262 C 
HETATM   38  O   UNL     1     -19.192 -12.298   0.491  1.00  0.00    -0.353 OA
BRANCH  35  39
HETATM   39  O   UNL     1     -22.007 -13.162  -1.543  1.00  0.00    -0.390 OA
HETATM   40  H   UNL     1     -22.653 -12.465  -1.318  1.00  0.00     0.210 HD
ENDBRANCH  35  39
BRANCH  36  41
HETATM   41  O   UNL     1     -19.879 -14.716  -2.029  1.00  0.00    -0.388 OA
HETATM   42  H   UNL     1     -19.147 -15.355  -2.085  1.00  0.00     0.210 HD
ENDBRANCH  36  41
BRANCH  37  43
HETATM   43  N   UNL     1     -17.560 -13.046  -0.936  1.00  0.00    -0.297 N 
HETATM   44  C   UNL     1     -16.487 -12.512  -0.228  1.00  0.00     0.188 C 
HETATM   45  N   UNL     1     -15.901 -11.527  -0.855  1.00  0.00    -0.346 N 
HETATM   46  C   UNL     1     -16.655 -11.363  -1.986  1.00  0.00     0.122 C 
ATOM     47  HN  UNL     1     -15.074 -11.003  -0.569  1.00  0.00     0.167 HD
HETATM   48  C   UNL     1     -16.724 -10.286  -2.868  1.00  0.00     0.131 C 
HETATM   49  C   UNL     1     -17.573 -12.397  -2.161  1.00  0.00     0.142 C 
HETATM   50  N   UNL     1     -17.524 -10.355  -3.933  1.00  0.00    -0.337 N 
HETATM   51  C   UNL     1     -18.273 -11.491  -4.073  1.00  0.00     0.183 C 
ATOM     52  HN  UNL     1     -17.576  -9.595  -4.611  1.00  0.00     0.168 HD
HETATM   53  N   UNL     1     -18.402 -12.538  -3.216  1.00  0.00    -0.336 N 
ATOM     54  HN  UNL     1     -19.039 -13.323  -3.351  1.00  0.00     0.168 HD
BRANCH  48  55
HETATM   55  N   UNL     1     -16.074  -9.107  -2.549  1.00  0.00    -0.383 N 
HETATM   56  H   UNL     1     -16.607  -8.252  -2.670  1.00  0.00     0.157 HD
HETATM   57  H   UNL     1     -15.109  -9.098  -2.272  1.00  0.00     0.157 HD
ENDBRANCH  48  55
ENDBRANCH  37  43
ENDBRANCH  33  34
ENDBRANCH  32  33
ENDBRANCH   1  32
TORSDOF 18
ENDMDL
