MODEL 1
REMARK VINA RESULT:      -5.6      0.000      0.000
REMARK  17 active torsions:
REMARK  status: ('A' for Active; 'I' for Inactive)
REMARK    1  A    between atoms: C_1  and  O_37 
REMARK    2  A    between atoms: C_2  and  O_36 
REMARK    3  A    between atoms: C_3  and  C_33 
REMARK    4  A    between atoms: C_5  and  O_8 
REMARK    5  A    between atoms: C_6  and  O_7 
REMARK    6  A    between atoms: O_8  and  C_9 
REMARK    7  A    between atoms: C_10  and  O_32 
REMARK    8  A    between atoms: C_11  and  O_31 
REMARK    9  A    between atoms: C_12  and  O_18 
REMARK   10  A    between atoms: C_14  and  C_15 
REMARK   11  A    between atoms: C_15  and  O_17 
REMARK   12  A    between atoms: O_18  and  C_19 
REMARK   13  A    between atoms: C_20  and  O_30 
REMARK   14  A    between atoms: C_21  and  O_29 
REMARK   15  A    between atoms: C_22  and  O_28 
REMARK   16  A    between atoms: C_24  and  C_25 
REMARK   17  A    between atoms: C_25  and  O_26 
ROOT
HETATM    1  C   UNL     1     -19.119 -10.126  -4.563  1.00  0.00     0.195 C 
HETATM    2  C   UNL     1     -18.266  -9.789  -3.338  1.00  0.00     0.183 C 
HETATM    3  C   UNL     1     -16.826  -9.472  -3.773  1.00  0.00     0.204 C 
HETATM    4  C   UNL     1     -16.172 -10.535  -4.724  1.00  0.00     0.293 C 
HETATM    5  O   UNL     1     -17.094 -11.036  -5.695  1.00  0.00    -0.340 OA
HETATM    6  C   UNL     1     -18.414 -11.358  -5.209  1.00  0.00     0.253 C 
ENDROOT
BRANCH   4   7
HETATM    7  O   UNL     1     -15.324 -11.492  -4.071  1.00  0.00    -0.347 OA
BRANCH   7   8
HETATM    8  C   UNL     1     -15.557 -12.924  -4.215  1.00  0.00     0.195 C 
HETATM    9  C   UNL     1     -16.009 -13.451  -2.812  1.00  0.00     0.183 C 
HETATM   10  C   UNL     1     -14.831 -13.613  -1.820  1.00  0.00     0.204 C 
HETATM   11  C   UNL     1     -13.640 -14.371  -2.440  1.00  0.00     0.289 C 
HETATM   12  O   UNL     1     -13.293 -13.822  -3.710  1.00  0.00    -0.341 OA
HETATM   13  C   UNL     1     -14.402 -13.862  -4.649  1.00  0.00     0.258 C 
BRANCH   9  14
HETATM   14  O   UNL     1     -16.669 -14.724  -2.931  1.00  0.00    -0.390 OA
HETATM   15  H   UNL     1     -17.145 -14.688  -3.787  1.00  0.00     0.210 HD
ENDBRANCH   9  14
BRANCH  10  16
HETATM   16  O   UNL     1     -15.293 -14.320  -0.648  1.00  0.00    -0.388 OA
HETATM   17  H   UNL     1     -14.509 -14.662  -0.178  1.00  0.00     0.210 HD
ENDBRANCH  10  16
BRANCH  11  18
HETATM   18  O   UNL     1     -13.852 -15.779  -2.490  1.00  0.00    -0.368 OA
HETATM   19  H   UNL     1     -13.567 -16.136  -1.626  1.00  0.00     0.212 HD
ENDBRANCH  11  18
BRANCH  13  20
HETATM   20  C   UNL     1     -13.900 -13.594  -6.066  1.00  0.00     0.321 C 
HETATM   21  O   UNL     1     -12.802 -14.065  -6.455  1.00  0.00    -0.260 OA
BRANCH  20  22
HETATM   22  O   UNL     1     -14.722 -12.993  -6.858  1.00  0.00    -0.147 OA
HETATM   23 CA   UNL     2     -16.573 -12.547  -7.350  1.00  0.00     0.000 Ca
ENDBRANCH  20  22
ENDBRANCH  13  20
ENDBRANCH   7   8
ENDBRANCH   4   7
BRANCH   3  24
HETATM   24  O   UNL     1     -15.998  -9.151  -2.654  1.00  0.00    -0.388 OA
HETATM   25  H   UNL     1     -15.180  -8.756  -3.015  1.00  0.00     0.210 HD
ENDBRANCH   3  24
BRANCH   2  26
HETATM   26  O   UNL     1     -18.295 -10.898  -2.447  1.00  0.00    -0.390 OA
HETATM   27  H   UNL     1     -19.230 -11.077  -2.215  1.00  0.00     0.210 HD
ENDBRANCH   2  26
BRANCH   6  28
HETATM   28  C   UNL     1     -19.290 -11.880  -6.349  1.00  0.00     0.172 C 
HETATM   29  O   UNL     1     -19.001 -12.815  -7.080  1.00  0.00    -0.648 OA
BRANCH  28  30
HETATM   30  O   UNL     1     -20.464 -11.203  -6.466  1.00  0.00    -0.774 OA
HETATM   31  H   UNL     1     -20.475 -10.602  -7.264  1.00  0.00     0.167 HD
ENDBRANCH  28  30
ENDBRANCH   6  28
BRANCH   1  32
HETATM   32  O   UNL     1     -19.176  -9.031  -5.505  1.00  0.00    -0.347 OA
BRANCH  32  33
HETATM   33  C   UNL     1     -19.807  -7.781  -5.089  1.00  0.00     0.293 C 
HETATM   34  O   UNL     1     -20.673  -7.960  -3.971  1.00  0.00    -0.340 OA
HETATM   35  C   UNL     1     -21.079  -6.646  -3.440  1.00  0.00     0.256 C 
HETATM   36  C   UNL     1     -21.922  -5.880  -4.467  1.00  0.00     0.189 C 
HETATM   37  C   UNL     1     -21.061  -5.631  -5.704  1.00  0.00     0.183 C 
HETATM   38  C   UNL     1     -20.461  -6.940  -6.232  1.00  0.00     0.204 C 
BRANCH  35  39
HETATM   39  C   UNL     1     -21.810  -6.794  -2.087  1.00  0.00     0.206 C 
HETATM   40  O   UNL     1     -21.517  -7.825  -1.414  1.00  0.00    -0.646 OA
HETATM   41  O   UNL     1     -22.613  -5.851  -1.815  1.00  0.00    -0.646 OA
ENDBRANCH  35  39
BRANCH  36  42
HETATM   42  O   UNL     1     -23.078  -6.643  -4.848  1.00  0.00    -0.390 OA
HETATM   43  H   UNL     1     -23.778  -5.949  -4.952  1.00  0.00     0.210 HD
ENDBRANCH  36  42
BRANCH  37  44
HETATM   44  O   UNL     1     -20.002  -4.709  -5.388  1.00  0.00    -0.390 OA
HETATM   45  H   UNL     1     -19.486  -4.641  -6.217  1.00  0.00     0.210 HD
ENDBRANCH  37  44
BRANCH  38  46
HETATM   46  O   UNL     1     -19.461  -6.615  -7.223  1.00  0.00    -0.388 OA
HETATM   47  H   UNL     1     -19.274  -5.657  -7.143  1.00  0.00     0.210 HD
ENDBRANCH  38  46
ENDBRANCH  32  33
ENDBRANCH   1  32
TORSDOF 17
ENDMDL
MODEL 2
REMARK VINA RESULT:      -5.5      2.064      3.872
REMARK  17 active torsions:
REMARK  status: ('A' for Active; 'I' for Inactive)
REMARK    1  A    between atoms: C_1  and  O_37 
REMARK    2  A    between atoms: C_2  and  O_36 
REMARK    3  A    between atoms: C_3  and  C_33 
REMARK    4  A    between atoms: C_5  and  O_8 
REMARK    5  A    between atoms: C_6  and  O_7 
REMARK    6  A    between atoms: O_8  and  C_9 
REMARK    7  A    between atoms: C_10  and  O_32 
REMARK    8  A    between atoms: C_11  and  O_31 
REMARK    9  A    between atoms: C_12  and  O_18 
REMARK   10  A    between atoms: C_14  and  C_15 
REMARK   11  A    between atoms: C_15  and  O_17 
REMARK   12  A    between atoms: O_18  and  C_19 
REMARK   13  A    between atoms: C_20  and  O_30 
REMARK   14  A    between atoms: C_21  and  O_29 
REMARK   15  A    between atoms: C_22  and  O_28 
REMARK   16  A    between atoms: C_24  and  C_25 
REMARK   17  A    between atoms: C_25  and  O_26 
ROOT
HETATM    1  C   UNL     1     -18.712 -11.659  -2.767  1.00  0.00     0.195 C 
HETATM    2  C   UNL     1     -17.908 -12.768  -2.085  1.00  0.00     0.183 C 
HETATM    3  C   UNL     1     -16.497 -12.259  -1.747  1.00  0.00     0.204 C 
HETATM    4  C   UNL     1     -15.739 -11.570  -2.936  1.00  0.00     0.293 C 
HETATM    5  O   UNL     1     -16.600 -10.746  -3.725  1.00  0.00    -0.340 OA
HETATM    6  C   UNL     1     -17.892 -11.304  -4.046  1.00  0.00     0.253 C 
ENDROOT
BRANCH   4   7
HETATM    7  O   UNL     1     -14.817 -12.416  -3.640  1.00  0.00    -0.347 OA
BRANCH   7   8
HETATM    8  C   UNL     1     -15.291 -13.498  -4.494  1.00  0.00     0.195 C 
HETATM    9  C   UNL     1     -14.593 -14.807  -3.995  1.00  0.00     0.183 C 
HETATM   10  C   UNL     1     -13.118 -14.917  -4.457  1.00  0.00     0.204 C 
HETATM   11  C   UNL     1     -12.950 -14.630  -5.963  1.00  0.00     0.289 C 
HETATM   12  O   UNL     1     -13.611 -13.420  -6.327  1.00  0.00    -0.341 OA
HETATM   13  C   UNL     1     -15.033 -13.455  -6.021  1.00  0.00     0.258 C 
BRANCH   9  14
HETATM   14  O   UNL     1     -15.294 -15.972  -4.464  1.00  0.00    -0.390 OA
HETATM   15  H   UNL     1     -14.825 -16.733  -4.063  1.00  0.00     0.210 HD
ENDBRANCH   9  14
BRANCH  10  16
HETATM   16  O   UNL     1     -12.629 -16.244  -4.162  1.00  0.00    -0.388 OA
HETATM   17  H   UNL     1     -13.101 -16.871  -4.742  1.00  0.00     0.210 HD
ENDBRANCH  10  16
BRANCH  11  18
HETATM   18  O   UNL     1     -13.336 -15.734  -6.777  1.00  0.00    -0.368 OA
HETATM   19  H   UNL     1     -13.776 -15.360  -7.565  1.00  0.00     0.212 HD
ENDBRANCH  11  18
BRANCH  13  20
HETATM   20  C   UNL     1     -15.749 -12.307  -6.729  1.00  0.00     0.321 C 
HETATM   21  O   UNL     1     -16.813 -12.512  -7.364  1.00  0.00    -0.260 OA
BRANCH  20  22
HETATM   22  O   UNL     1     -15.282 -11.124  -6.513  1.00  0.00    -0.147 OA
HETATM   23 CA   UNL     2     -15.200  -9.521  -5.376  1.00  0.00     0.000 Ca
ENDBRANCH  20  22
ENDBRANCH  13  20
ENDBRANCH   7   8
ENDBRANCH   4   7
BRANCH   3  24
HETATM   24  O   UNL     1     -15.714 -13.269  -1.107  1.00  0.00    -0.388 OA
HETATM   25  H   UNL     1     -15.576 -13.976  -1.767  1.00  0.00     0.210 HD
ENDBRANCH   3  24
BRANCH   2  26
HETATM   26  O   UNL     1     -17.849 -13.887  -2.961  1.00  0.00    -0.390 OA
HETATM   27  H   UNL     1     -18.524 -14.536  -2.672  1.00  0.00     0.210 HD
ENDBRANCH   2  26
BRANCH   6  28
HETATM   28  C   UNL     1     -18.704 -10.320  -4.890  1.00  0.00     0.172 C 
HETATM   29  O   UNL     1     -19.359 -10.620  -5.876  1.00  0.00    -0.648 OA
BRANCH  28  30
HETATM   30  O   UNL     1     -18.648  -9.046  -4.417  1.00  0.00    -0.774 OA
HETATM   31  H   UNL     1     -17.729  -8.660  -4.483  1.00  0.00     0.167 HD
ENDBRANCH  28  30
ENDBRANCH   6  28
BRANCH   1  32
HETATM   32  O   UNL     1     -18.856 -10.492  -1.925  1.00  0.00    -0.347 OA
BRANCH  32  33
HETATM   33  C   UNL     1     -20.199  -9.989  -1.650  1.00  0.00     0.293 C 
HETATM   34  O   UNL     1     -20.283  -8.572  -1.784  1.00  0.00    -0.340 OA
HETATM   35  C   UNL     1     -21.694  -8.150  -1.746  1.00  0.00     0.256 C 
HETATM   36  C   UNL     1     -22.316  -8.448  -0.376  1.00  0.00     0.189 C 
HETATM   37  C   UNL     1     -22.280  -9.960  -0.153  1.00  0.00     0.183 C 
HETATM   38  C   UNL     1     -20.861 -10.512  -0.335  1.00  0.00     0.204 C 
BRANCH  35  39
HETATM   39  C   UNL     1     -21.841  -6.662  -2.136  1.00  0.00     0.206 C 
HETATM   40  O   UNL     1     -21.471  -6.361  -3.307  1.00  0.00    -0.646 OA
HETATM   41  O   UNL     1     -22.326  -5.924  -1.225  1.00  0.00    -0.646 OA
ENDBRANCH  35  39
BRANCH  36  42
HETATM   42  O   UNL     1     -21.574  -7.804   0.672  1.00  0.00    -0.390 OA
HETATM   43  H   UNL     1     -22.203  -7.110   0.995  1.00  0.00     0.210 HD
ENDBRANCH  36  42
BRANCH  37  44
HETATM   44  O   UNL     1     -23.173 -10.613  -1.073  1.00  0.00    -0.390 OA
HETATM   45  H   UNL     1     -22.619 -11.296  -1.503  1.00  0.00     0.210 HD
ENDBRANCH  37  44
BRANCH  38  46
HETATM   46  O   UNL     1     -20.935 -11.954  -0.374  1.00  0.00    -0.388 OA
HETATM   47  H   UNL     1     -20.833 -12.225  -1.310  1.00  0.00     0.210 HD
ENDBRANCH  38  46
ENDBRANCH  32  33
ENDBRANCH   1  32
TORSDOF 17
ENDMDL
MODEL 3
REMARK VINA RESULT:      -5.5      2.211      8.457
REMARK  17 active torsions:
REMARK  status: ('A' for Active; 'I' for Inactive)
REMARK    1  A    between atoms: C_1  and  O_37 
REMARK    2  A    between atoms: C_2  and  O_36 
REMARK    3  A    between atoms: C_3  and  C_33 
REMARK    4  A    between atoms: C_5  and  O_8 
REMARK    5  A    between atoms: C_6  and  O_7 
REMARK    6  A    between atoms: O_8  and  C_9 
REMARK    7  A    between atoms: C_10  and  O_32 
REMARK    8  A    between atoms: C_11  and  O_31 
REMARK    9  A    between atoms: C_12  and  O_18 
REMARK   10  A    between atoms: C_14  and  C_15 
REMARK   11  A    between atoms: C_15  and  O_17 
REMARK   12  A    between atoms: O_18  and  C_19 
REMARK   13  A    between atoms: C_20  and  O_30 
REMARK   14  A    between atoms: C_21  and  O_29 
REMARK   15  A    between atoms: C_22  and  O_28 
REMARK   16  A    between atoms: C_24  and  C_25 
REMARK   17  A    between atoms: C_25  and  O_26 
ROOT
HETATM    1  C   UNL     1     -15.900 -11.322  -3.325  1.00  0.00     0.195 C 
HETATM    2  C   UNL     1     -16.739 -10.420  -2.418  1.00  0.00     0.183 C 
HETATM    3  C   UNL     1     -18.217 -10.485  -2.838  1.00  0.00     0.204 C 
HETATM    4  C   UNL     1     -18.481 -10.262  -4.368  1.00  0.00     0.293 C 
HETATM    5  O   UNL     1     -17.501 -10.902  -5.188  1.00  0.00    -0.340 OA
HETATM    6  C   UNL     1     -16.129 -10.761  -4.763  1.00  0.00     0.253 C 
ENDROOT
BRANCH   4   7
HETATM    7  O   UNL     1     -18.866  -8.927  -4.729  1.00  0.00    -0.347 OA
BRANCH   7   8
HETATM    8  C   UNL     1     -20.160  -8.657  -5.344  1.00  0.00     0.195 C 
HETATM    9  C   UNL     1     -20.123  -7.174  -5.844  1.00  0.00     0.183 C 
HETATM   10  C   UNL     1     -20.310  -6.147  -4.700  1.00  0.00     0.204 C 
HETATM   11  C   UNL     1     -21.507  -6.492  -3.790  1.00  0.00     0.289 C 
HETATM   12  O   UNL     1     -21.457  -7.857  -3.379  1.00  0.00    -0.341 OA
HETATM   13  C   UNL     1     -21.459  -8.773  -4.508  1.00  0.00     0.258 C 
BRANCH   9  14
HETATM   14  O   UNL     1     -21.148  -6.939  -6.825  1.00  0.00    -0.390 OA
HETATM   15  H   UNL     1     -21.985  -7.208  -6.392  1.00  0.00     0.210 HD
ENDBRANCH   9  14
BRANCH  10  16
HETATM   16  O   UNL     1     -20.502  -4.834  -5.269  1.00  0.00    -0.388 OA
HETATM   17  H   UNL     1     -20.095  -4.185  -4.664  1.00  0.00     0.210 HD
ENDBRANCH  10  16
BRANCH  11  18
HETATM   18  O   UNL     1     -22.758  -6.139  -4.373  1.00  0.00    -0.368 OA
HETATM   19  H   UNL     1     -23.261  -6.969  -4.481  1.00  0.00     0.212 HD
ENDBRANCH  11  18
BRANCH  13  20
HETATM   20  C   UNL     1     -21.752 -10.193  -4.030  1.00  0.00     0.321 C 
HETATM   21  O   UNL     1     -21.833 -11.140  -4.851  1.00  0.00    -0.260 OA
BRANCH  20  22
HETATM   22  O   UNL     1     -21.763 -10.374  -2.753  1.00  0.00    -0.147 OA
HETATM   23 CA   UNL     2     -21.257  -9.757  -0.955  1.00  0.00     0.000 Ca
ENDBRANCH  20  22
ENDBRANCH  13  20
ENDBRANCH   7   8
ENDBRANCH   4   7
BRANCH   3  24
HETATM   24  O   UNL     1     -19.034  -9.654  -2.011  1.00  0.00    -0.388 OA
HETATM   25  H   UNL     1     -19.795 -10.199  -1.732  1.00  0.00     0.210 HD
ENDBRANCH   3  24
BRANCH   2  26
HETATM   26  O   UNL     1     -16.241  -9.091  -2.516  1.00  0.00    -0.390 OA
HETATM   27  H   UNL     1     -16.922  -8.483  -2.161  1.00  0.00     0.210 HD
ENDBRANCH   2  26
BRANCH   6  28
HETATM   28  C   UNL     1     -15.193 -11.492  -5.727  1.00  0.00     0.172 C 
HETATM   29  O   UNL     1     -15.448 -11.737  -6.896  1.00  0.00    -0.648 OA
BRANCH  28  30
HETATM   30  O   UNL     1     -14.008 -11.837  -5.155  1.00  0.00    -0.774 OA
HETATM   31  H   UNL     1     -13.682 -12.727  -5.469  1.00  0.00     0.167 HD
ENDBRANCH  28  30
ENDBRANCH   6  28
BRANCH   1  32
HETATM   32  O   UNL     1     -16.316 -12.705  -3.255  1.00  0.00    -0.347 OA
BRANCH  32  33
HETATM   33  C   UNL     1     -15.792 -13.540  -2.177  1.00  0.00     0.293 C 
HETATM   34  O   UNL     1     -16.545 -13.403  -0.975  1.00  0.00    -0.340 OA
HETATM   35  C   UNL     1     -16.137 -14.441  -0.010  1.00  0.00     0.256 C 
HETATM   36  C   UNL     1     -14.678 -14.245   0.419  1.00  0.00     0.189 C 
HETATM   37  C   UNL     1     -13.791 -14.389  -0.818  1.00  0.00     0.183 C 
HETATM   38  C   UNL     1     -14.251 -13.450  -1.940  1.00  0.00     0.204 C 
BRANCH  35  39
HETATM   39  C   UNL     1     -17.096 -14.483   1.201  1.00  0.00     0.206 C 
HETATM   40  O   UNL     1     -18.329 -14.542   0.924  1.00  0.00    -0.646 OA
HETATM   41  O   UNL     1     -16.520 -14.460   2.330  1.00  0.00    -0.646 OA
ENDBRANCH  35  39
BRANCH  36  42
HETATM   42  O   UNL     1     -14.484 -12.937   0.981  1.00  0.00    -0.390 OA
HETATM   43  H   UNL     1     -14.971 -12.349   0.348  1.00  0.00     0.210 HD
ENDBRANCH  36  42
BRANCH  37  44
HETATM   44  O   UNL     1     -13.820 -15.750  -1.285  1.00  0.00    -0.390 OA
HETATM   45  H   UNL     1     -13.121 -16.198  -0.767  1.00  0.00     0.210 HD
ENDBRANCH  37  44
BRANCH  38  46
HETATM   46  O   UNL     1     -13.555 -13.816  -3.152  1.00  0.00    -0.388 OA
HETATM   47  H   UNL     1     -13.828 -14.729  -3.380  1.00  0.00     0.210 HD
ENDBRANCH  38  46
ENDBRANCH  32  33
ENDBRANCH   1  32
TORSDOF 17
ENDMDL
MODEL 4
REMARK VINA RESULT:      -5.5      2.530      9.082
REMARK  17 active torsions:
REMARK  status: ('A' for Active; 'I' for Inactive)
REMARK    1  A    between atoms: C_1  and  O_37 
REMARK    2  A    between atoms: C_2  and  O_36 
REMARK    3  A    between atoms: C_3  and  C_33 
REMARK    4  A    between atoms: C_5  and  O_8 
REMARK    5  A    between atoms: C_6  and  O_7 
REMARK    6  A    between atoms: O_8  and  C_9 
REMARK    7  A    between atoms: C_10  and  O_32 
REMARK    8  A    between atoms: C_11  and  O_31 
REMARK    9  A    between atoms: C_12  and  O_18 
REMARK   10  A    between atoms: C_14  and  C_15 
REMARK   11  A    between atoms: C_15  and  O_17 
REMARK   12  A    between atoms: O_18  and  C_19 
REMARK   13  A    between atoms: C_20  and  O_30 
REMARK   14  A    between atoms: C_21  and  O_29 
REMARK   15  A    between atoms: C_22  and  O_28 
REMARK   16  A    between atoms: C_24  and  C_25 
REMARK   17  A    between atoms: C_25  and  O_26 
ROOT
HETATM    1  C   UNL     1     -17.133 -12.239  -4.217  1.00  0.00     0.195 C 
HETATM    2  C   UNL     1     -16.497 -10.848  -4.162  1.00  0.00     0.183 C 
HETATM    3  C   UNL     1     -16.816 -10.179  -2.814  1.00  0.00     0.204 C 
HETATM    4  C   UNL     1     -18.331 -10.197  -2.409  1.00  0.00     0.293 C 
HETATM    5  O   UNL     1     -18.967 -11.435  -2.734  1.00  0.00    -0.340 OA
HETATM    6  C   UNL     1     -18.660 -11.983  -4.034  1.00  0.00     0.253 C 
ENDROOT
BRANCH   4   7
HETATM    7  O   UNL     1     -19.053  -8.992  -2.708  1.00  0.00    -0.347 OA
BRANCH   7   8
HETATM    8  C   UNL     1     -20.437  -9.037  -3.163  1.00  0.00     0.195 C 
HETATM    9  C   UNL     1     -20.420  -8.708  -4.694  1.00  0.00     0.183 C 
HETATM   10  C   UNL     1     -20.241  -7.198  -4.984  1.00  0.00     0.204 C 
HETATM   11  C   UNL     1     -21.194  -6.321  -4.146  1.00  0.00     0.289 C 
HETATM   12  O   UNL     1     -21.141  -6.685  -2.767  1.00  0.00    -0.341 OA
HETATM   13  C   UNL     1     -21.491  -8.080  -2.552  1.00  0.00     0.258 C 
BRANCH   9  14
HETATM   14  O   UNL     1     -21.638  -9.141  -5.324  1.00  0.00    -0.390 OA
HETATM   15  H   UNL     1     -21.565  -8.846  -6.256  1.00  0.00     0.210 HD
ENDBRANCH   9  14
BRANCH  10  16
HETATM   16  O   UNL     1     -20.474  -6.954  -6.388  1.00  0.00    -0.388 OA
HETATM   17  H   UNL     1     -20.886  -7.755  -6.765  1.00  0.00     0.210 HD
ENDBRANCH  10  16
BRANCH  11  18
HETATM   18  O   UNL     1     -22.522  -6.309  -4.660  1.00  0.00    -0.368 OA
HETATM   19  H   UNL     1     -23.023  -5.660  -4.129  1.00  0.00     0.212 HD
ENDBRANCH  11  18
BRANCH  13  20
HETATM   20  C   UNL     1     -21.755  -8.331  -1.070  1.00  0.00     0.321 C 
HETATM   21  O   UNL     1     -21.043  -9.136  -0.420  1.00  0.00    -0.260 OA
BRANCH  20  22
HETATM   22  O   UNL     1     -22.638  -7.574  -0.512  1.00  0.00    -0.147 OA
HETATM   23 CA   UNL     2     -24.198  -7.386   0.672  1.00  0.00     0.000 Ca
ENDBRANCH  20  22
ENDBRANCH  13  20
ENDBRANCH   7   8
ENDBRANCH   4   7
BRANCH   3  24
HETATM   24  O   UNL     1     -16.236  -8.876  -2.725  1.00  0.00    -0.388 OA
HETATM   25  H   UNL     1     -16.953  -8.238  -2.910  1.00  0.00     0.210 HD
ENDBRANCH   3  24
BRANCH   2  26
HETATM   26  O   UNL     1     -17.002 -10.076  -5.244  1.00  0.00    -0.390 OA
HETATM   27  H   UNL     1     -17.258 -10.691  -5.963  1.00  0.00     0.210 HD
ENDBRANCH   2  26
BRANCH   6  28
HETATM   28  C   UNL     1     -19.406 -13.302  -4.246  1.00  0.00     0.172 C 
HETATM   29  O   UNL     1     -20.589 -13.482  -4.003  1.00  0.00    -0.648 OA
BRANCH  28  30
HETATM   30  O   UNL     1     -18.614 -14.278  -4.766  1.00  0.00    -0.774 OA
HETATM   31  H   UNL     1     -17.684 -13.958  -4.939  1.00  0.00     0.167 HD
ENDBRANCH  28  30
ENDBRANCH   6  28
BRANCH   1  32
HETATM   32  O   UNL     1     -16.641 -13.106  -3.169  1.00  0.00    -0.347 OA
BRANCH  32  33
HETATM   33  C   UNL     1     -15.302 -13.673  -3.301  1.00  0.00     0.293 C 
HETATM   34  O   UNL     1     -14.953 -13.925  -4.660  1.00  0.00    -0.340 OA
HETATM   35  C   UNL     1     -13.519 -14.253  -4.754  1.00  0.00     0.256 C 
HETATM   36  C   UNL     1     -13.210 -15.565  -4.023  1.00  0.00     0.189 C 
HETATM   37  C   UNL     1     -13.544 -15.379  -2.543  1.00  0.00     0.183 C 
HETATM   38  C   UNL     1     -14.983 -14.879  -2.361  1.00  0.00     0.204 C 
BRANCH  35  39
HETATM   39  C   UNL     1     -13.052 -14.287  -6.226  1.00  0.00     0.206 C 
HETATM   40  O   UNL     1     -12.884 -13.160  -6.777  1.00  0.00    -0.646 OA
HETATM   41  O   UNL     1     -12.887 -15.451  -6.700  1.00  0.00    -0.646 OA
ENDBRANCH  35  39
BRANCH  36  42
HETATM   42  O   UNL     1     -14.003 -16.640  -4.549  1.00  0.00    -0.390 OA
HETATM   43  H   UNL     1     -13.969 -17.317  -3.825  1.00  0.00     0.210 HD
ENDBRANCH  36  42
BRANCH  37  44
HETATM   44  O   UNL     1     -12.629 -14.443  -1.947  1.00  0.00    -0.390 OA
HETATM   45  H   UNL     1     -11.792 -14.943  -1.864  1.00  0.00     0.210 HD
ENDBRANCH  37  44
BRANCH  38  46
HETATM   46  O   UNL     1     -15.152 -14.474  -0.984  1.00  0.00    -0.388 OA
HETATM   47  H   UNL     1     -16.113 -14.483  -0.794  1.00  0.00     0.210 HD
ENDBRANCH  38  46
ENDBRANCH  32  33
ENDBRANCH   1  32
TORSDOF 17
ENDMDL
MODEL 5
REMARK VINA RESULT:      -5.4      1.812      4.117
REMARK  17 active torsions:
REMARK  status: ('A' for Active; 'I' for Inactive)
REMARK    1  A    between atoms: C_1  and  O_37 
REMARK    2  A    between atoms: C_2  and  O_36 
REMARK    3  A    between atoms: C_3  and  C_33 
REMARK    4  A    between atoms: C_5  and  O_8 
REMARK    5  A    between atoms: C_6  and  O_7 
REMARK    6  A    between atoms: O_8  and  C_9 
REMARK    7  A    between atoms: C_10  and  O_32 
REMARK    8  A    between atoms: C_11  and  O_31 
REMARK    9  A    between atoms: C_12  and  O_18 
REMARK   10  A    between atoms: C_14  and  C_15 
REMARK   11  A    between atoms: C_15  and  O_17 
REMARK   12  A    between atoms: O_18  and  C_19 
REMARK   13  A    between atoms: C_20  and  O_30 
REMARK   14  A    between atoms: C_21  and  O_29 
REMARK   15  A    between atoms: C_22  and  O_28 
REMARK   16  A    between atoms: C_24  and  C_25 
REMARK   17  A    between atoms: C_25  and  O_26 
ROOT
HETATM    1  C   UNL     1     -18.468  -9.317  -5.212  1.00  0.00     0.195 C 
HETATM    2  C   UNL     1     -17.688  -9.989  -6.344  1.00  0.00     0.183 C 
HETATM    3  C   UNL     1     -18.153 -11.446  -6.507  1.00  0.00     0.204 C 
HETATM    4  C   UNL     1     -18.186 -12.282  -5.179  1.00  0.00     0.293 C 
HETATM    5  O   UNL     1     -18.669 -11.522  -4.070  1.00  0.00    -0.340 OA
HETATM    6  C   UNL     1     -18.156 -10.179  -3.950  1.00  0.00     0.253 C 
ENDROOT
BRANCH   4   7
HETATM    7  O   UNL     1     -17.035 -13.110  -4.955  1.00  0.00    -0.347 OA
BRANCH   7   8
HETATM    8  C   UNL     1     -15.771 -12.535  -4.509  1.00  0.00     0.195 C 
HETATM    9  C   UNL     1     -14.681 -12.987  -5.538  1.00  0.00     0.183 C 
HETATM   10  C   UNL     1     -14.231 -14.455  -5.333  1.00  0.00     0.204 C 
HETATM   11  C   UNL     1     -13.898 -14.768  -3.860  1.00  0.00     0.289 C 
HETATM   12  O   UNL     1     -14.945 -14.328  -2.997  1.00  0.00    -0.341 OA
HETATM   13  C   UNL     1     -15.196 -12.901  -3.118  1.00  0.00     0.258 C 
BRANCH   9  14
HETATM   14  O   UNL     1     -13.516 -12.148  -5.451  1.00  0.00    -0.390 OA
HETATM   15  H   UNL     1     -13.664 -11.433  -6.104  1.00  0.00     0.210 HD
ENDBRANCH   9  14
BRANCH  10  16
HETATM   16  O   UNL     1     -13.071 -14.713  -6.154  1.00  0.00    -0.388 OA
HETATM   17  H   UNL     1     -12.838 -13.882  -6.610  1.00  0.00     0.210 HD
ENDBRANCH  10  16
BRANCH  11  18
HETATM   18  O   UNL     1     -12.621 -14.274  -3.470  1.00  0.00    -0.368 OA
HETATM   19  H   UNL     1     -12.324 -13.672  -4.180  1.00  0.00     0.212 HD
ENDBRANCH  11  18
BRANCH  13  20
HETATM   20  C   UNL     1     -16.060 -12.420  -1.955  1.00  0.00     0.321 C 
HETATM   21  O   UNL     1     -16.769 -13.230  -1.307  1.00  0.00    -0.260 OA
BRANCH  20  22
HETATM   22  O   UNL     1     -15.906 -11.190  -1.600  1.00  0.00    -0.147 OA
HETATM   23 CA   UNL     2     -15.763  -9.292  -2.100  1.00  0.00     0.000 Ca
ENDBRANCH  20  22
ENDBRANCH  13  20
ENDBRANCH   7   8
ENDBRANCH   4   7
BRANCH   3  24
HETATM   24  O   UNL     1     -17.446 -12.108  -7.557  1.00  0.00    -0.388 OA
HETATM   25  H   UNL     1     -16.610 -12.432  -7.171  1.00  0.00     0.210 HD
ENDBRANCH   3  24
BRANCH   2  26
HETATM   26  O   UNL     1     -16.301  -9.930  -6.035  1.00  0.00    -0.390 OA
HETATM   27  H   UNL     1     -15.819  -9.670  -6.847  1.00  0.00     0.210 HD
ENDBRANCH   2  26
BRANCH   6  28
HETATM   28  C   UNL     1     -18.755  -9.486  -2.725  1.00  0.00     0.172 C 
HETATM   29  O   UNL     1     -18.240  -8.553  -2.128  1.00  0.00    -0.648 OA
BRANCH  28  30
HETATM   30  O   UNL     1     -19.959 -10.003  -2.361  1.00  0.00    -0.774 OA
HETATM   31  H   UNL     1     -20.699  -9.691  -2.954  1.00  0.00     0.167 HD
ENDBRANCH  28  30
ENDBRANCH   6  28
BRANCH   1  32
HETATM   32  O   UNL     1     -19.891  -9.298  -5.466  1.00  0.00    -0.347 OA
BRANCH  32  33
HETATM   33  C   UNL     1     -20.558  -8.007  -5.621  1.00  0.00     0.293 C 
HETATM   34  O   UNL     1     -19.851  -7.138  -6.503  1.00  0.00    -0.340 OA
HETATM   35  C   UNL     1     -20.685  -5.964  -6.819  1.00  0.00     0.256 C 
HETATM   36  C   UNL     1     -20.941  -5.121  -5.563  1.00  0.00     0.189 C 
HETATM   37  C   UNL     1     -21.713  -5.979  -4.561  1.00  0.00     0.183 C 
HETATM   38  C   UNL     1     -20.988  -7.305  -4.295  1.00  0.00     0.204 C 
BRANCH  35  39
HETATM   39  C   UNL     1     -20.060  -5.128  -7.958  1.00  0.00     0.206 C 
HETATM   40  O   UNL     1     -18.956  -4.570  -7.690  1.00  0.00    -0.646 OA
HETATM   41  O   UNL     1     -20.734  -5.113  -9.032  1.00  0.00    -0.646 OA
ENDBRANCH  35  39
BRANCH  36  42
HETATM   42  O   UNL     1     -19.702  -4.707  -4.966  1.00  0.00    -0.390 OA
HETATM   43  H   UNL     1     -19.986  -3.999  -4.333  1.00  0.00     0.210 HD
ENDBRANCH  36  42
BRANCH  37  44
HETATM   44  O   UNL     1     -23.037  -6.245  -5.058  1.00  0.00    -0.390 OA
HETATM   45  H   UNL     1     -23.013  -5.933  -5.986  1.00  0.00     0.210 HD
ENDBRANCH  37  44
BRANCH  38  46
HETATM   46  O   UNL     1     -21.881  -8.170  -3.559  1.00  0.00    -0.388 OA
HETATM   47  H   UNL     1     -22.425  -8.653  -4.215  1.00  0.00     0.210 HD
ENDBRANCH  38  46
ENDBRANCH  32  33
ENDBRANCH   1  32
TORSDOF 17
ENDMDL
MODEL 6
REMARK VINA RESULT:      -5.4      2.018      3.408
REMARK  17 active torsions:
REMARK  status: ('A' for Active; 'I' for Inactive)
REMARK    1  A    between atoms: C_1  and  O_37 
REMARK    2  A    between atoms: C_2  and  O_36 
REMARK    3  A    between atoms: C_3  and  C_33 
REMARK    4  A    between atoms: C_5  and  O_8 
REMARK    5  A    between atoms: C_6  and  O_7 
REMARK    6  A    between atoms: O_8  and  C_9 
REMARK    7  A    between atoms: C_10  and  O_32 
REMARK    8  A    between atoms: C_11  and  O_31 
REMARK    9  A    between atoms: C_12  and  O_18 
REMARK   10  A    between atoms: C_14  and  C_15 
REMARK   11  A    between atoms: C_15  and  O_17 
REMARK   12  A    between atoms: O_18  and  C_19 
REMARK   13  A    between atoms: C_20  and  O_30 
REMARK   14  A    between atoms: C_21  and  O_29 
REMARK   15  A    between atoms: C_22  and  O_28 
REMARK   16  A    between atoms: C_24  and  C_25 
REMARK   17  A    between atoms: C_25  and  O_26 
ROOT
HETATM    1  C   UNL     1     -19.102  -9.629  -4.819  1.00  0.00     0.195 C 
HETATM    2  C   UNL     1     -17.694  -9.717  -4.225  1.00  0.00     0.183 C 
HETATM    3  C   UNL     1     -16.715 -10.263  -5.277  1.00  0.00     0.204 C 
HETATM    4  C   UNL     1     -17.181 -11.578  -5.996  1.00  0.00     0.293 C 
HETATM    5  O   UNL     1     -18.579 -11.570  -6.291  1.00  0.00    -0.340 OA
HETATM    6  C   UNL     1     -19.446 -11.090  -5.242  1.00  0.00     0.253 C 
ENDROOT
BRANCH   4   7
HETATM    7  O   UNL     1     -16.631 -12.790  -5.458  1.00  0.00    -0.347 OA
BRANCH   7   8
HETATM    8  C   UNL     1     -15.904 -13.727  -6.306  1.00  0.00     0.195 C 
HETATM    9  C   UNL     1     -16.765 -15.033  -6.378  1.00  0.00     0.183 C 
HETATM   10  C   UNL     1     -16.650 -15.902  -5.101  1.00  0.00     0.204 C 
HETATM   11  C   UNL     1     -15.185 -16.117  -4.666  1.00  0.00     0.289 C 
HETATM   12  O   UNL     1     -14.480 -14.878  -4.623  1.00  0.00    -0.341 OA
HETATM   13  C   UNL     1     -14.483 -14.197  -5.908  1.00  0.00     0.258 C 
BRANCH   9  14
HETATM   14  O   UNL     1     -16.377 -15.841  -7.503  1.00  0.00    -0.390 OA
HETATM   15  H   UNL     1     -16.278 -15.213  -8.249  1.00  0.00     0.210 HD
ENDBRANCH   9  14
BRANCH  10  16
HETATM   16  O   UNL     1     -17.273 -17.183  -5.342  1.00  0.00    -0.388 OA
HETATM   17  H   UNL     1     -17.884 -17.079  -6.096  1.00  0.00     0.210 HD
ENDBRANCH  10  16
BRANCH  11  18
HETATM   18  O   UNL     1     -14.520 -17.101  -5.452  1.00  0.00    -0.368 OA
HETATM   19  H   UNL     1     -14.331 -17.853  -4.858  1.00  0.00     0.212 HD
ENDBRANCH  11  18
BRANCH  13  20
HETATM   20  C   UNL     1     -13.447 -13.076  -5.910  1.00  0.00     0.321 C 
HETATM   21  O   UNL     1     -12.864 -12.745  -6.972  1.00  0.00    -0.260 OA
BRANCH  20  22
HETATM   22  O   UNL     1     -13.324 -12.412  -4.810  1.00  0.00    -0.147 OA
HETATM   23 CA   UNL     2     -14.144 -11.672  -3.182  1.00  0.00     0.000 Ca
ENDBRANCH  20  22
ENDBRANCH  13  20
ENDBRANCH   7   8
ENDBRANCH   4   7
BRANCH   3  24
HETATM   24  O   UNL     1     -15.387 -10.359  -4.759  1.00  0.00    -0.388 OA
HETATM   25  H   UNL     1     -15.446 -10.171  -3.802  1.00  0.00     0.210 HD
ENDBRANCH   3  24
BRANCH   2  26
HETATM   26  O   UNL     1     -17.738 -10.565  -3.083  1.00  0.00    -0.390 OA
HETATM   27  H   UNL     1     -16.930 -11.120  -3.086  1.00  0.00     0.210 HD
ENDBRANCH   2  26
BRANCH   6  28
HETATM   28  C   UNL     1     -20.907 -11.138  -5.692  1.00  0.00     0.172 C 
HETATM   29  O   UNL     1     -21.307 -11.680  -6.711  1.00  0.00    -0.648 OA
BRANCH  28  30
HETATM   30  O   UNL     1     -21.749 -10.521  -4.820  1.00  0.00    -0.774 OA
HETATM   31  H   UNL     1     -22.429 -11.149  -4.444  1.00  0.00     0.167 HD
ENDBRANCH  28  30
ENDBRANCH   6  28
BRANCH   1  32
HETATM   32  O   UNL     1     -19.156  -8.750  -5.966  1.00  0.00    -0.347 OA
BRANCH  32  33
HETATM   33  C   UNL     1     -20.131  -7.663  -5.970  1.00  0.00     0.293 C 
HETATM   34  O   UNL     1     -19.859  -6.698  -6.984  1.00  0.00    -0.340 OA
HETATM   35  C   UNL     1     -20.999  -5.771  -7.109  1.00  0.00     0.256 C 
HETATM   36  C   UNL     1     -21.178  -4.949  -5.826  1.00  0.00     0.189 C 
HETATM   37  C   UNL     1     -21.488  -5.912  -4.680  1.00  0.00     0.183 C 
HETATM   38  C   UNL     1     -20.426  -7.014  -4.581  1.00  0.00     0.204 C 
BRANCH  35  39
HETATM   39  C   UNL     1     -20.850  -4.872  -8.356  1.00  0.00     0.206 C 
HETATM   40  O   UNL     1     -21.890  -4.738  -9.065  1.00  0.00    -0.646 OA
HETATM   41  O   UNL     1     -19.696  -4.370  -8.509  1.00  0.00    -0.646 OA
ENDBRANCH  35  39
BRANCH  36  42
HETATM   42  O   UNL     1     -19.977  -4.225  -5.514  1.00  0.00    -0.390 OA
HETATM   43  H   UNL     1     -19.461  -4.275  -6.359  1.00  0.00     0.210 HD
ENDBRANCH  36  42
BRANCH  37  44
HETATM   44  O   UNL     1     -22.784  -6.507  -4.877  1.00  0.00    -0.390 OA
HETATM   45  H   UNL     1     -22.907  -7.082  -4.094  1.00  0.00     0.210 HD
ENDBRANCH  37  44
BRANCH  38  46
HETATM   46  O   UNL     1     -20.906  -8.026  -3.668  1.00  0.00    -0.388 OA
HETATM   47  H   UNL     1     -20.305  -8.029  -2.895  1.00  0.00     0.210 HD
ENDBRANCH  38  46
ENDBRANCH  32  33
ENDBRANCH   1  32
TORSDOF 17
ENDMDL
MODEL 7
REMARK VINA RESULT:      -5.4      1.653      2.253
REMARK  17 active torsions:
REMARK  status: ('A' for Active; 'I' for Inactive)
REMARK    1  A    between atoms: C_1  and  O_37 
REMARK    2  A    between atoms: C_2  and  O_36 
REMARK    3  A    between atoms: C_3  and  C_33 
REMARK    4  A    between atoms: C_5  and  O_8 
REMARK    5  A    between atoms: C_6  and  O_7 
REMARK    6  A    between atoms: O_8  and  C_9 
REMARK    7  A    between atoms: C_10  and  O_32 
REMARK    8  A    between atoms: C_11  and  O_31 
REMARK    9  A    between atoms: C_12  and  O_18 
REMARK   10  A    between atoms: C_14  and  C_15 
REMARK   11  A    between atoms: C_15  and  O_17 
REMARK   12  A    between atoms: O_18  and  C_19 
REMARK   13  A    between atoms: C_20  and  O_30 
REMARK   14  A    between atoms: C_21  and  O_29 
REMARK   15  A    between atoms: C_22  and  O_28 
REMARK   16  A    between atoms: C_24  and  C_25 
REMARK   17  A    between atoms: C_25  and  O_26 
ROOT
HETATM    1  C   UNL     1     -19.010 -10.211  -4.700  1.00  0.00     0.195 C 
HETATM    2  C   UNL     1     -17.569  -9.988  -4.234  1.00  0.00     0.183 C 
HETATM    3  C   UNL     1     -16.618 -10.018  -5.441  1.00  0.00     0.204 C 
HETATM    4  C   UNL     1     -16.791 -11.257  -6.389  1.00  0.00     0.293 C 
HETATM    5  O   UNL     1     -18.162 -11.608  -6.581  1.00  0.00    -0.340 OA
HETATM    6  C   UNL     1     -18.989 -11.606  -5.398  1.00  0.00     0.253 C 
ENDROOT
BRANCH   4   7
HETATM    7  O   UNL     1     -15.866 -12.331  -6.159  1.00  0.00    -0.347 OA
BRANCH   7   8
HETATM    8  C   UNL     1     -16.212 -13.447  -5.287  1.00  0.00     0.195 C 
HETATM    9  C   UNL     1     -15.053 -13.582  -4.244  1.00  0.00     0.183 C 
HETATM   10  C   UNL     1     -13.792 -14.265  -4.829  1.00  0.00     0.204 C 
HETATM   11  C   UNL     1     -14.126 -15.562  -5.594  1.00  0.00     0.289 C 
HETATM   12  O   UNL     1     -15.186 -15.345  -6.524  1.00  0.00    -0.341 OA
HETATM   13  C   UNL     1     -16.397 -14.868  -5.878  1.00  0.00     0.258 C 
BRANCH   9  14
HETATM   14  O   UNL     1     -15.480 -14.343  -3.100  1.00  0.00    -0.390 OA
HETATM   15  H   UNL     1     -16.459 -14.282  -3.101  1.00  0.00     0.210 HD
ENDBRANCH   9  14
BRANCH  10  16
HETATM   16  O   UNL     1     -12.874 -14.563  -3.754  1.00  0.00    -0.388 OA
HETATM   17  H   UNL     1     -12.169 -13.888  -3.768  1.00  0.00     0.210 HD
ENDBRANCH  10  16
BRANCH  11  18
HETATM   18  O   UNL     1     -14.374 -16.662  -4.724  1.00  0.00    -0.368 OA
HETATM   19  H   UNL     1     -14.950 -16.329  -4.008  1.00  0.00     0.212 HD
ENDBRANCH  11  18
BRANCH  13  20
HETATM   20  C   UNL     1     -17.581 -14.981  -6.834  1.00  0.00     0.321 C 
HETATM   21  O   UNL     1     -17.416 -14.854  -8.073  1.00  0.00    -0.260 OA
BRANCH  20  22
HETATM   22  O   UNL     1     -18.702 -15.350  -6.314  1.00  0.00    -0.147 OA
HETATM   23 CA   UNL     2     -20.115 -15.073  -4.973  1.00  0.00     0.000 Ca
ENDBRANCH  20  22
ENDBRANCH  13  20
ENDBRANCH   7   8
ENDBRANCH   4   7
BRANCH   3  24
HETATM   24  O   UNL     1     -15.260  -9.813  -5.046  1.00  0.00    -0.388 OA
HETATM   25  H   UNL     1     -14.913 -10.684  -4.774  1.00  0.00     0.210 HD
ENDBRANCH   3  24
BRANCH   2  26
HETATM   26  O   UNL     1     -17.234 -11.005  -3.297  1.00  0.00    -0.390 OA
HETATM   27  H   UNL     1     -17.472 -11.871  -3.690  1.00  0.00     0.210 HD
ENDBRANCH   2  26
BRANCH   6  28
HETATM   28  C   UNL     1     -20.425 -11.998  -5.749  1.00  0.00     0.172 C 
HETATM   29  O   UNL     1     -21.064 -12.878  -5.194  1.00  0.00    -0.648 OA
BRANCH  28  30
HETATM   30  O   UNL     1     -20.950 -11.242  -6.751  1.00  0.00    -0.774 OA
HETATM   31  H   UNL     1     -21.033 -10.280  -6.494  1.00  0.00     0.167 HD
ENDBRANCH  28  30
ENDBRANCH   6  28
BRANCH   1  32
HETATM   32  O   UNL     1     -19.447  -9.193  -5.628  1.00  0.00    -0.347 OA
BRANCH  32  33
HETATM   33  C   UNL     1     -19.958  -7.932  -5.096  1.00  0.00     0.293 C 
HETATM   34  O   UNL     1     -20.758  -8.123  -3.931  1.00  0.00    -0.340 OA
HETATM   35  C   UNL     1     -21.034  -6.821  -3.297  1.00  0.00     0.256 C 
HETATM   36  C   UNL     1     -21.887  -5.937  -4.214  1.00  0.00     0.189 C 
HETATM   37  C   UNL     1     -21.094  -5.669  -5.493  1.00  0.00     0.183 C 
HETATM   38  C   UNL     1     -20.625  -6.979  -6.138  1.00  0.00     0.204 C 
BRANCH  35  39
HETATM   39  C   UNL     1     -21.681  -7.006  -1.906  1.00  0.00     0.206 C 
HETATM   40  O   UNL     1     -21.204  -7.939  -1.197  1.00  0.00    -0.646 OA
HETATM   41  O   UNL     1     -22.613  -6.187  -1.646  1.00  0.00    -0.646 OA
ENDBRANCH  35  39
BRANCH  36  42
HETATM   42  O   UNL     1     -23.116  -6.595  -4.557  1.00  0.00    -0.390 OA
HETATM   43  H   UNL     1     -23.410  -6.108  -5.369  1.00  0.00     0.210 HD
ENDBRANCH  36  42
BRANCH  37  44
HETATM   44  O   UNL     1     -19.954  -4.841  -5.199  1.00  0.00    -0.390 OA
HETATM   45  H   UNL     1     -20.004  -4.695  -4.233  1.00  0.00     0.210 HD
ENDBRANCH  37  44
BRANCH  38  46
HETATM   46  O   UNL     1     -19.673  -6.659  -7.176  1.00  0.00    -0.388 OA
HETATM   47  H   UNL     1     -18.847  -7.146  -6.974  1.00  0.00     0.210 HD
ENDBRANCH  38  46
ENDBRANCH  32  33
ENDBRANCH   1  32
TORSDOF 17
ENDMDL
MODEL 8
REMARK VINA RESULT:      -5.4      2.506      4.779
REMARK  17 active torsions:
REMARK  status: ('A' for Active; 'I' for Inactive)
REMARK    1  A    between atoms: C_1  and  O_37 
REMARK    2  A    between atoms: C_2  and  O_36 
REMARK    3  A    between atoms: C_3  and  C_33 
REMARK    4  A    between atoms: C_5  and  O_8 
REMARK    5  A    between atoms: C_6  and  O_7 
REMARK    6  A    between atoms: O_8  and  C_9 
REMARK    7  A    between atoms: C_10  and  O_32 
REMARK    8  A    between atoms: C_11  and  O_31 
REMARK    9  A    between atoms: C_12  and  O_18 
REMARK   10  A    between atoms: C_14  and  C_15 
REMARK   11  A    between atoms: C_15  and  O_17 
REMARK   12  A    between atoms: O_18  and  C_19 
REMARK   13  A    between atoms: C_20  and  O_30 
REMARK   14  A    between atoms: C_21  and  O_29 
REMARK   15  A    between atoms: C_22  and  O_28 
REMARK   16  A    between atoms: C_24  and  C_25 
REMARK   17  A    between atoms: C_25  and  O_26 
ROOT
HETATM    1  C   UNL     1     -18.179 -10.915  -1.431  1.00  0.00     0.195 C 
HETATM    2  C   UNL     1     -18.286 -10.721  -2.945  1.00  0.00     0.183 C 
HETATM    3  C   UNL     1     -18.441 -12.084  -3.638  1.00  0.00     0.204 C 
HETATM    4  C   UNL     1     -17.387 -13.167  -3.214  1.00  0.00     0.293 C 
HETATM    5  O   UNL     1     -17.105 -13.131  -1.813  1.00  0.00    -0.340 OA
HETATM    6  C   UNL     1     -16.924 -11.821  -1.236  1.00  0.00     0.253 C 
ENDROOT
BRANCH   4   7
HETATM    7  O   UNL     1     -16.269 -13.306  -4.104  1.00  0.00    -0.347 OA
BRANCH   7   8
HETATM    8  C   UNL     1     -16.122 -14.487  -4.946  1.00  0.00     0.195 C 
HETATM    9  C   UNL     1     -15.041 -15.393  -4.268  1.00  0.00     0.183 C 
HETATM   10  C   UNL     1     -13.596 -14.888  -4.504  1.00  0.00     0.204 C 
HETATM   11  C   UNL     1     -13.323 -14.557  -5.986  1.00  0.00     0.289 C 
HETATM   12  O   UNL     1     -14.352 -13.724  -6.519  1.00  0.00    -0.341 OA
HETATM   13  C   UNL     1     -15.665 -14.340  -6.420  1.00  0.00     0.258 C 
BRANCH   9  14
HETATM   14  O   UNL     1     -15.126 -16.744  -4.757  1.00  0.00    -0.390 OA
HETATM   15  H   UNL     1     -15.681 -16.691  -5.563  1.00  0.00     0.210 HD
ENDBRANCH   9  14
BRANCH  10  16
HETATM   16  O   UNL     1     -12.663 -15.897  -4.057  1.00  0.00    -0.388 OA
HETATM   17  H   UNL     1     -11.817 -15.746  -4.520  1.00  0.00     0.210 HD
ENDBRANCH  10  16
BRANCH  11  18
HETATM   18  O   UNL     1     -13.094 -15.721  -6.774  1.00  0.00    -0.368 OA
HETATM   19  H   UNL     1     -12.446 -15.471  -7.461  1.00  0.00     0.212 HD
ENDBRANCH  11  18
BRANCH  13  20
HETATM   20  C   UNL     1     -16.664 -13.588  -7.296  1.00  0.00     0.321 C 
HETATM   21  O   UNL     1     -17.484 -14.214  -8.012  1.00  0.00    -0.260 OA
BRANCH  20  22
HETATM   22  O   UNL     1     -16.706 -12.308  -7.142  1.00  0.00    -0.147 OA
HETATM   23 CA   UNL     2     -16.737 -10.750  -5.941  1.00  0.00     0.000 Ca
ENDBRANCH  20  22
ENDBRANCH  13  20
ENDBRANCH   7   8
ENDBRANCH   4   7
BRANCH   3  24
HETATM   24  O   UNL     1     -18.545 -11.943  -5.057  1.00  0.00    -0.388 OA
HETATM   25  H   UNL     1     -19.497 -11.986  -5.273  1.00  0.00     0.210 HD
ENDBRANCH   3  24
BRANCH   2  26
HETATM   26  O   UNL     1     -17.116 -10.050  -3.399  1.00  0.00    -0.390 OA
HETATM   27  H   UNL     1     -17.329  -9.098  -3.495  1.00  0.00     0.210 HD
ENDBRANCH   2  26
BRANCH   6  28
HETATM   28  C   UNL     1     -16.630 -11.933   0.261  1.00  0.00     0.172 C 
HETATM   29  O   UNL     1     -15.601 -11.558   0.801  1.00  0.00    -0.648 OA
BRANCH  28  30
HETATM   30  O   UNL     1     -17.658 -12.485   0.961  1.00  0.00    -0.774 OA
HETATM   31  H   UNL     1     -18.203 -13.109   0.403  1.00  0.00     0.167 HD
ENDBRANCH  28  30
ENDBRANCH   6  28
BRANCH   1  32
HETATM   32  O   UNL     1     -19.351 -11.557  -0.879  1.00  0.00    -0.347 OA
BRANCH  32  33
HETATM   33  C   UNL     1     -20.627 -10.848  -0.929  1.00  0.00     0.293 C 
HETATM   34  O   UNL     1     -20.458  -9.448  -1.135  1.00  0.00    -0.340 OA
HETATM   35  C   UNL     1     -21.763  -8.826  -1.427  1.00  0.00     0.256 C 
HETATM   36  C   UNL     1     -22.701  -8.932  -0.219  1.00  0.00     0.189 C 
HETATM   37  C   UNL     1     -22.949 -10.413   0.067  1.00  0.00     0.183 C 
HETATM   38  C   UNL     1     -21.627 -11.173   0.226  1.00  0.00     0.204 C 
BRANCH  35  39
HETATM   39  C   UNL     1     -21.589  -7.365  -1.899  1.00  0.00     0.206 C 
HETATM   40  O   UNL     1     -22.234  -6.495  -1.245  1.00  0.00    -0.646 OA
HETATM   41  O   UNL     1     -20.808  -7.220  -2.888  1.00  0.00    -0.646 OA
ENDBRANCH  35  39
BRANCH  36  42
HETATM   42  O   UNL     1     -22.108  -8.326   0.941  1.00  0.00    -0.390 OA
HETATM   43  H   UNL     1     -21.402  -7.748   0.553  1.00  0.00     0.210 HD
ENDBRANCH  36  42
BRANCH  37  44
HETATM   44  O   UNL     1     -23.716 -10.997  -1.002  1.00  0.00    -0.390 OA
HETATM   45  H   UNL     1     -24.447 -11.462  -0.547  1.00  0.00     0.210 HD
ENDBRANCH  37  44
BRANCH  38  46
HETATM   46  O   UNL     1     -21.915 -12.589   0.229  1.00  0.00    -0.388 OA
HETATM   47  H   UNL     1     -21.100 -13.052  -0.058  1.00  0.00     0.210 HD
ENDBRANCH  38  46
ENDBRANCH  32  33
ENDBRANCH   1  32
TORSDOF 17
ENDMDL
MODEL 9
REMARK VINA RESULT:      -5.4      2.829      5.003
REMARK  17 active torsions:
REMARK  status: ('A' for Active; 'I' for Inactive)
REMARK    1  A    between atoms: C_1  and  O_37 
REMARK    2  A    between atoms: C_2  and  O_36 
REMARK    3  A    between atoms: C_3  and  C_33 
REMARK    4  A    between atoms: C_5  and  O_8 
REMARK    5  A    between atoms: C_6  and  O_7 
REMARK    6  A    between atoms: O_8  and  C_9 
REMARK    7  A    between atoms: C_10  and  O_32 
REMARK    8  A    between atoms: C_11  and  O_31 
REMARK    9  A    between atoms: C_12  and  O_18 
REMARK   10  A    between atoms: C_14  and  C_15 
REMARK   11  A    between atoms: C_15  and  O_17 
REMARK   12  A    between atoms: O_18  and  C_19 
REMARK   13  A    between atoms: C_20  and  O_30 
REMARK   14  A    between atoms: C_21  and  O_29 
REMARK   15  A    between atoms: C_22  and  O_28 
REMARK   16  A    between atoms: C_24  and  C_25 
REMARK   17  A    between atoms: C_25  and  O_26 
ROOT
HETATM    1  C   UNL     1     -18.768 -11.525  -2.123  1.00  0.00     0.195 C 
HETATM    2  C   UNL     1     -19.002 -13.022  -1.910  1.00  0.00     0.183 C 
HETATM    3  C   UNL     1     -18.213 -13.506  -0.682  1.00  0.00     0.204 C 
HETATM    4  C   UNL     1     -16.699 -13.095  -0.665  1.00  0.00     0.293 C 
HETATM    5  O   UNL     1     -16.491 -11.763  -1.139  1.00  0.00    -0.340 OA
HETATM    6  C   UNL     1     -17.227 -11.390  -2.323  1.00  0.00     0.253 C 
ENDROOT
BRANCH   4   7
HETATM    7  O   UNL     1     -15.791 -14.105  -1.130  1.00  0.00    -0.347 OA
BRANCH   7   8
HETATM    8  C   UNL     1     -14.496 -13.748  -1.696  1.00  0.00     0.195 C 
HETATM    9  C   UNL     1     -14.652 -13.805  -3.253  1.00  0.00     0.183 C 
HETATM   10  C   UNL     1     -14.638 -15.251  -3.808  1.00  0.00     0.204 C 
HETATM   11  C   UNL     1     -13.470 -16.086  -3.245  1.00  0.00     0.289 C 
HETATM   12  O   UNL     1     -13.407 -15.981  -1.824  1.00  0.00    -0.341 OA
HETATM   13  C   UNL     1     -13.244 -14.606  -1.380  1.00  0.00     0.258 C 
BRANCH   9  14
HETATM   14  O   UNL     1     -13.598 -13.070  -3.900  1.00  0.00    -0.390 OA
HETATM   15  H   UNL     1     -12.766 -13.426  -3.522  1.00  0.00     0.210 HD
ENDBRANCH   9  14
BRANCH  10  16
HETATM   16  O   UNL     1     -14.546 -15.204  -5.249  1.00  0.00    -0.388 OA
HETATM   17  H   UNL     1     -15.065 -14.436  -5.555  1.00  0.00     0.210 HD
ENDBRANCH  10  16
BRANCH  11  18
HETATM   18  O   UNL     1     -12.228 -15.784  -3.874  1.00  0.00    -0.368 OA
HETATM   19  H   UNL     1     -11.711 -16.613  -3.887  1.00  0.00     0.212 HD
ENDBRANCH  11  18
BRANCH  13  20
HETATM   20  C   UNL     1     -12.840 -14.574   0.091  1.00  0.00     0.321 C 
HETATM   21  O   UNL     1     -11.865 -15.253   0.501  1.00  0.00    -0.260 OA
BRANCH  20  22
HETATM   22  O   UNL     1     -13.455 -13.717   0.834  1.00  0.00    -0.147 OA
HETATM   23 CA   UNL     2     -14.413 -12.008   1.002  1.00  0.00     0.000 Ca
ENDBRANCH  20  22
ENDBRANCH  13  20
ENDBRANCH   7   8
ENDBRANCH   4   7
BRANCH   3  24
HETATM   24  O   UNL     1     -18.408 -14.902  -0.450  1.00  0.00    -0.388 OA
HETATM   25  H   UNL     1     -17.585 -15.349  -0.730  1.00  0.00     0.210 HD
ENDBRANCH   3  24
BRANCH   2  26
HETATM   26  O   UNL     1     -18.593 -13.715  -3.083  1.00  0.00    -0.390 OA
HETATM   27  H   UNL     1     -17.764 -14.196  -2.879  1.00  0.00     0.210 HD
ENDBRANCH   2  26
BRANCH   6  28
HETATM   28  C   UNL     1     -16.910  -9.945  -2.716  1.00  0.00     0.172 C 
HETATM   29  O   UNL     1     -15.805  -9.431  -2.652  1.00  0.00    -0.648 OA
BRANCH  28  30
HETATM   30  O   UNL     1     -17.999  -9.272  -3.176  1.00  0.00    -0.774 OA
HETATM   31  H   UNL     1     -18.290  -8.550  -2.549  1.00  0.00     0.167 HD
ENDBRANCH  28  30
ENDBRANCH   6  28
BRANCH   1  32
HETATM   32  O   UNL     1     -19.197 -10.738  -0.988  1.00  0.00    -0.347 OA
BRANCH  32  33
HETATM   33  C   UNL     1     -20.516 -10.113  -1.027  1.00  0.00     0.293 C 
HETATM   34  O   UNL     1     -20.456  -8.750  -1.440  1.00  0.00    -0.340 OA
HETATM   35  C   UNL     1     -21.817  -8.248  -1.705  1.00  0.00     0.256 C 
HETATM   36  C   UNL     1     -22.651  -8.229  -0.418  1.00  0.00     0.189 C 
HETATM   37  C   UNL     1     -22.779  -9.664   0.092  1.00  0.00     0.183 C 
HETATM   38  C   UNL     1     -21.401 -10.322   0.242  1.00  0.00     0.204 C 
BRANCH  35  39
HETATM   39  C   UNL     1     -21.775  -6.864  -2.389  1.00  0.00     0.206 C 
HETATM   40  O   UNL     1     -22.522  -5.977  -1.881  1.00  0.00    -0.646 OA
HETATM   41  O   UNL     1     -20.985  -6.787  -3.378  1.00  0.00    -0.646 OA
ENDBRANCH  35  39
BRANCH  36  42
HETATM   42  O   UNL     1     -22.011  -7.431   0.592  1.00  0.00    -0.390 OA
HETATM   43  H   UNL     1     -22.564  -7.606   1.396  1.00  0.00     0.210 HD
ENDBRANCH  36  42
BRANCH  37  44
HETATM   44  O   UNL     1     -23.585 -10.437  -0.815  1.00  0.00    -0.390 OA
HETATM   45  H   UNL     1     -22.940 -10.988  -1.302  1.00  0.00     0.210 HD
ENDBRANCH  37  44
BRANCH  38  46
HETATM   46  O   UNL     1     -21.596 -11.736   0.467  1.00  0.00    -0.388 OA
HETATM   47  H   UNL     1     -21.103 -11.971   1.281  1.00  0.00     0.210 HD
ENDBRANCH  38  46
ENDBRANCH  32  33
ENDBRANCH   1  32
TORSDOF 17
ENDMDL
