MODEL 1
REMARK VINA RESULT:      -8.0      0.000      0.000
REMARK  7 active torsions:
REMARK  status: ('A' for Active; 'I' for Inactive)
REMARK    1  A    between atoms: C_3  and  C_10 
REMARK    2  A    between atoms: C_11  and  C_12 
REMARK    3  A    between atoms: C_13  and  C_14 
REMARK    4  A    between atoms: C_15  and  C_16 
REMARK    5  A    between atoms: C_17  and  C_18 
REMARK    6  A    between atoms: C_18  and  O_19 
REMARK    7  A    between atoms: O_19  and  C_20 
ROOT
HETATM    1  C   UNL     1     -20.663  -9.811  -5.123  1.00  0.00    -0.062 C 
HETATM    2  C   UNL     1     -19.958  -8.893  -5.823  1.00  0.00     0.007 C 
HETATM    3  C   UNL     1     -20.593 -11.276  -5.469  1.00  0.00     0.048 C 
ENDROOT
BRANCH   1   4
HETATM    4  C   UNL     1     -21.526  -9.495  -3.993  1.00  0.00     0.007 C 
HETATM    5  C   UNL     1     -21.091  -9.492  -2.721  1.00  0.00     0.009 C 
BRANCH   5   6
HETATM    6  C   UNL     1     -21.866  -8.987  -1.585  1.00  0.00    -0.048 C 
HETATM    7  C   UNL     1     -22.029  -7.674  -1.300  1.00  0.00    -0.077 C 
HETATM    8  C   UNL     1     -21.513  -6.539  -2.146  1.00  0.00     0.044 C 
HETATM    9  C   UNL     1     -22.776  -7.192  -0.068  1.00  0.00     0.034 C 
HETATM   10  C   UNL     1     -23.134  -8.264   0.956  1.00  0.00     0.005 C 
HETATM   11  C   UNL     1     -23.543  -9.552   0.270  1.00  0.00     0.014 C 
HETATM   12  C   UNL     1     -22.445 -10.090  -0.680  1.00  0.00    -0.020 C 
HETATM   13  C   UNL     1     -23.128 -11.214  -1.485  1.00  0.00     0.020 C 
HETATM   14  C   UNL     1     -21.270 -10.662   0.145  1.00  0.00     0.020 C 
ENDBRANCH   5   6
ENDBRANCH   1   4
BRANCH   2  15
HETATM   15  C   UNL     1     -20.029  -7.447  -5.672  1.00  0.00     0.001 C 
HETATM   16  C   UNL     1     -20.852  -6.666  -6.392  1.00  0.00     0.006 C 
BRANCH  16  17
HETATM   17  C   UNL     1     -20.869  -5.210  -6.366  1.00  0.00    -0.064 C 
HETATM   18  C   UNL     1     -21.431  -4.388  -7.273  1.00  0.00     0.006 C 
HETATM   19  C   UNL     1     -20.109  -4.579  -5.227  1.00  0.00     0.048 C 
BRANCH  18  20
HETATM   20  C   UNL     1     -22.139  -4.695  -8.552  1.00  0.00     0.206 C 
BRANCH  20  21
HETATM   21  O   UNL     1     -23.385  -3.972  -8.520  1.00  0.00    -0.318 OA
BRANCH  21  22
HETATM   22  C   UNL     1     -23.974  -3.715  -9.719  1.00  0.00     0.255 C 
HETATM   23  O   UNL     1     -25.172  -3.589  -9.912  1.00  0.00    -0.266 OA
HETATM   24  C   UNL     1     -22.934  -3.593 -10.794  1.00  0.00     0.126 C 
ENDBRANCH  21  22
ENDBRANCH  20  21
ENDBRANCH  18  20
ENDBRANCH  16  17
ENDBRANCH   2  15
TORSDOF 7
ENDMDL
MODEL 2
REMARK VINA RESULT:      -7.7      0.939      2.111
REMARK  7 active torsions:
REMARK  status: ('A' for Active; 'I' for Inactive)
REMARK    1  A    between atoms: C_3  and  C_10 
REMARK    2  A    between atoms: C_11  and  C_12 
REMARK    3  A    between atoms: C_13  and  C_14 
REMARK    4  A    between atoms: C_15  and  C_16 
REMARK    5  A    between atoms: C_17  and  C_18 
REMARK    6  A    between atoms: C_18  and  O_19 
REMARK    7  A    between atoms: O_19  and  C_20 
ROOT
HETATM    1  C   UNL     1     -21.156  -9.684  -5.267  1.00  0.00    -0.062 C 
HETATM    2  C   UNL     1     -20.496  -8.741  -5.978  1.00  0.00     0.007 C 
HETATM    3  C   UNL     1     -21.175 -11.123  -5.713  1.00  0.00     0.048 C 
ENDROOT
BRANCH   1   4
HETATM    4  C   UNL     1     -21.883  -9.421  -4.033  1.00  0.00     0.007 C 
HETATM    5  C   UNL     1     -21.466  -9.858  -2.832  1.00  0.00     0.009 C 
BRANCH   5   6
HETATM    6  C   UNL     1     -22.052  -9.446  -1.555  1.00  0.00    -0.048 C 
HETATM    7  C   UNL     1     -23.052 -10.109  -0.929  1.00  0.00    -0.077 C 
HETATM    8  C   UNL     1     -23.653 -11.408  -1.403  1.00  0.00     0.044 C 
HETATM    9  C   UNL     1     -23.686  -9.608   0.358  1.00  0.00     0.034 C 
HETATM   10  C   UNL     1     -23.298  -8.196   0.784  1.00  0.00     0.005 C 
HETATM   11  C   UNL     1     -21.834  -7.928   0.499  1.00  0.00     0.014 C 
HETATM   12  C   UNL     1     -21.475  -8.134  -0.993  1.00  0.00    -0.020 C 
HETATM   13  C   UNL     1     -19.934  -8.099  -1.043  1.00  0.00     0.020 C 
HETATM   14  C   UNL     1     -22.062  -6.982  -1.839  1.00  0.00     0.020 C 
ENDBRANCH   5   6
ENDBRANCH   1   4
BRANCH   2  15
HETATM   15  C   UNL     1     -20.498  -7.307  -5.727  1.00  0.00     0.001 C 
HETATM   16  C   UNL     1     -21.070  -6.412  -6.550  1.00  0.00     0.006 C 
BRANCH  16  17
HETATM   17  C   UNL     1     -20.991  -4.965  -6.406  1.00  0.00    -0.064 C 
HETATM   18  C   UNL     1     -21.658  -4.039  -7.122  1.00  0.00     0.006 C 
HETATM   19  C   UNL     1     -19.994  -4.474  -5.387  1.00  0.00     0.048 C 
BRANCH  18  20
HETATM   20  C   UNL     1     -22.609  -4.198  -8.263  1.00  0.00     0.206 C 
BRANCH  20  21
HETATM   21  O   UNL     1     -21.824  -4.134  -9.469  1.00  0.00    -0.318 OA
BRANCH  21  22
HETATM   22  C   UNL     1     -22.468  -3.731 -10.599  1.00  0.00     0.255 C 
HETATM   23  O   UNL     1     -23.599  -3.279 -10.652  1.00  0.00    -0.266 OA
HETATM   24  C   UNL     1     -21.580  -3.911 -11.795  1.00  0.00     0.126 C 
ENDBRANCH  21  22
ENDBRANCH  20  21
ENDBRANCH  18  20
ENDBRANCH  16  17
ENDBRANCH   2  15
TORSDOF 7
ENDMDL
MODEL 3
REMARK VINA RESULT:      -7.6      1.738      4.079
REMARK  7 active torsions:
REMARK  status: ('A' for Active; 'I' for Inactive)
REMARK    1  A    between atoms: C_3  and  C_10 
REMARK    2  A    between atoms: C_11  and  C_12 
REMARK    3  A    between atoms: C_13  and  C_14 
REMARK    4  A    between atoms: C_15  and  C_16 
REMARK    5  A    between atoms: C_17  and  C_18 
REMARK    6  A    between atoms: C_18  and  O_19 
REMARK    7  A    between atoms: O_19  and  C_20 
ROOT
HETATM    1  C   UNL     1     -22.411  -7.741  -0.623  1.00  0.00    -0.062 C 
HETATM    2  C   UNL     1     -22.168  -6.677  -1.422  1.00  0.00     0.007 C 
HETATM    3  C   UNL     1     -23.176  -7.587   0.666  1.00  0.00     0.048 C 
ENDROOT
BRANCH   1   4
HETATM    4  C   UNL     1     -21.986  -9.102  -0.918  1.00  0.00     0.007 C 
HETATM    5  C   UNL     1     -22.803 -10.163  -0.805  1.00  0.00     0.009 C 
BRANCH   5   6
HETATM    6  C   UNL     1     -22.479 -11.510  -1.283  1.00  0.00    -0.048 C 
HETATM    7  C   UNL     1     -22.504 -11.882  -2.583  1.00  0.00    -0.077 C 
HETATM    8  C   UNL     1     -22.785 -10.955  -3.738  1.00  0.00     0.044 C 
HETATM    9  C   UNL     1     -22.236 -13.308  -3.031  1.00  0.00     0.034 C 
HETATM   10  C   UNL     1     -22.166 -14.352  -1.922  1.00  0.00     0.005 C 
HETATM   11  C   UNL     1     -21.473 -13.793  -0.696  1.00  0.00     0.014 C 
HETATM   12  C   UNL     1     -22.160 -12.513  -0.160  1.00  0.00    -0.020 C 
HETATM   13  C   UNL     1     -21.180 -11.939   0.883  1.00  0.00     0.020 C 
HETATM   14  C   UNL     1     -23.502 -12.880   0.514  1.00  0.00     0.020 C 
ENDBRANCH   5   6
ENDBRANCH   1   4
BRANCH   2  15
HETATM   15  C   UNL     1     -21.345  -6.666  -2.622  1.00  0.00     0.001 C 
HETATM   16  C   UNL     1     -21.850  -6.708  -3.867  1.00  0.00     0.006 C 
BRANCH  16  17
HETATM   17  C   UNL     1     -21.068  -6.824  -5.091  1.00  0.00    -0.064 C 
HETATM   18  C   UNL     1     -21.191  -6.080  -6.207  1.00  0.00     0.006 C 
HETATM   19  C   UNL     1     -20.067  -7.951  -5.109  1.00  0.00     0.048 C 
BRANCH  18  20
HETATM   20  C   UNL     1     -22.152  -4.987  -6.541  1.00  0.00     0.206 C 
BRANCH  20  21
HETATM   21  O   UNL     1     -21.447  -4.061  -7.391  1.00  0.00    -0.318 OA
BRANCH  21  22
HETATM   22  C   UNL     1     -21.789  -4.056  -8.708  1.00  0.00     0.255 C 
HETATM   23  O   UNL     1     -21.010  -4.077  -9.647  1.00  0.00    -0.266 OA
HETATM   24  C   UNL     1     -23.282  -4.031  -8.857  1.00  0.00     0.126 C 
ENDBRANCH  21  22
ENDBRANCH  20  21
ENDBRANCH  18  20
ENDBRANCH  16  17
ENDBRANCH   2  15
TORSDOF 7
ENDMDL
MODEL 4
REMARK VINA RESULT:      -7.5      1.855      4.149
REMARK  7 active torsions:
REMARK  status: ('A' for Active; 'I' for Inactive)
REMARK    1  A    between atoms: C_3  and  C_10 
REMARK    2  A    between atoms: C_11  and  C_12 
REMARK    3  A    between atoms: C_13  and  C_14 
REMARK    4  A    between atoms: C_15  and  C_16 
REMARK    5  A    between atoms: C_17  and  C_18 
REMARK    6  A    between atoms: C_18  and  O_19 
REMARK    7  A    between atoms: O_19  and  C_20 
ROOT
HETATM    1  C   UNL     1     -21.946  -7.373  -1.148  1.00  0.00    -0.062 C 
HETATM    2  C   UNL     1     -22.191  -6.475  -2.129  1.00  0.00     0.007 C 
HETATM    3  C   UNL     1     -22.793  -7.414   0.098  1.00  0.00     0.048 C 
ENDROOT
BRANCH   1   4
HETATM    4  C   UNL     1     -20.884  -8.368  -1.193  1.00  0.00     0.007 C 
HETATM    5  C   UNL     1     -21.072  -9.617  -1.652  1.00  0.00     0.009 C 
BRANCH   5   6
HETATM    6  C   UNL     1     -19.993 -10.576  -1.902  1.00  0.00    -0.048 C 
HETATM    7  C   UNL     1     -19.499 -11.424  -0.971  1.00  0.00    -0.077 C 
HETATM    8  C   UNL     1     -20.034 -11.570   0.431  1.00  0.00     0.044 C 
HETATM    9  C   UNL     1     -18.327 -12.350  -1.248  1.00  0.00     0.034 C 
HETATM   10  C   UNL     1     -17.584 -12.110  -2.558  1.00  0.00     0.005 C 
HETATM   11  C   UNL     1     -18.549 -11.745  -3.668  1.00  0.00     0.014 C 
HETATM   12  C   UNL     1     -19.405 -10.501  -3.323  1.00  0.00    -0.020 C 
HETATM   13  C   UNL     1     -20.496 -10.452  -4.411  1.00  0.00     0.020 C 
HETATM   14  C   UNL     1     -18.531  -9.228  -3.385  1.00  0.00     0.020 C 
ENDBRANCH   5   6
ENDBRANCH   1   4
BRANCH   2  15
HETATM   15  C   UNL     1     -21.382  -6.249  -3.318  1.00  0.00     0.001 C 
HETATM   16  C   UNL     1     -21.872  -6.300  -4.568  1.00  0.00     0.006 C 
BRANCH  16  17
HETATM   17  C   UNL     1     -21.082  -6.205  -5.788  1.00  0.00    -0.064 C 
HETATM   18  C   UNL     1     -21.347  -5.450  -6.871  1.00  0.00     0.006 C 
HETATM   19  C   UNL     1     -19.881  -7.114  -5.847  1.00  0.00     0.048 C 
BRANCH  18  20
HETATM   20  C   UNL     1     -22.502  -4.550  -7.165  1.00  0.00     0.206 C 
BRANCH  20  21
HETATM   21  O   UNL     1     -22.116  -3.733  -8.287  1.00  0.00    -0.318 OA
BRANCH  21  22
HETATM   22  C   UNL     1     -22.367  -4.235  -9.527  1.00  0.00     0.255 C 
HETATM   23  O   UNL     1     -23.409  -4.758  -9.887  1.00  0.00    -0.266 OA
HETATM   24  C   UNL     1     -21.172  -4.049 -10.415  1.00  0.00     0.126 C 
ENDBRANCH  21  22
ENDBRANCH  20  21
ENDBRANCH  18  20
ENDBRANCH  16  17
ENDBRANCH   2  15
TORSDOF 7
ENDMDL
MODEL 5
REMARK VINA RESULT:      -7.3      2.703      5.018
REMARK  7 active torsions:
REMARK  status: ('A' for Active; 'I' for Inactive)
REMARK    1  A    between atoms: C_3  and  C_10 
REMARK    2  A    between atoms: C_11  and  C_12 
REMARK    3  A    between atoms: C_13  and  C_14 
REMARK    4  A    between atoms: C_15  and  C_16 
REMARK    5  A    between atoms: C_17  and  C_18 
REMARK    6  A    between atoms: C_18  and  O_19 
REMARK    7  A    between atoms: O_19  and  C_20 
ROOT
HETATM    1  C   UNL     1     -20.603  -8.458  -3.871  1.00  0.00    -0.062 C 
HETATM    2  C   UNL     1     -21.305  -7.524  -4.552  1.00  0.00     0.007 C 
HETATM    3  C   UNL     1     -21.147  -9.072  -2.607  1.00  0.00     0.048 C 
ENDROOT
BRANCH   1   4
HETATM    4  C   UNL     1     -19.299  -8.963  -4.279  1.00  0.00     0.007 C 
HETATM    5  C   UNL     1     -18.760 -10.086  -3.774  1.00  0.00     0.009 C 
BRANCH   5   6
HETATM    6  C   UNL     1     -17.555 -10.732  -4.300  1.00  0.00    -0.048 C 
HETATM    7  C   UNL     1     -16.293 -10.370  -3.971  1.00  0.00    -0.077 C 
HETATM    8  C   UNL     1     -15.938  -9.311  -2.959  1.00  0.00     0.044 C 
HETATM    9  C   UNL     1     -15.068 -11.014  -4.597  1.00  0.00     0.034 C 
HETATM   10  C   UNL     1     -15.333 -11.930  -5.787  1.00  0.00     0.005 C 
HETATM   11  C   UNL     1     -16.598 -12.738  -5.578  1.00  0.00     0.014 C 
HETATM   12  C   UNL     1     -17.837 -11.842  -5.329  1.00  0.00    -0.020 C 
HETATM   13  C   UNL     1     -18.944 -12.810  -4.864  1.00  0.00     0.020 C 
HETATM   14  C   UNL     1     -18.255 -11.145  -6.643  1.00  0.00     0.020 C 
ENDBRANCH   5   6
ENDBRANCH   1   4
BRANCH   2  15
HETATM   15  C   UNL     1     -20.847  -6.769  -5.709  1.00  0.00     0.001 C 
HETATM   16  C   UNL     1     -21.009  -5.441  -5.840  1.00  0.00     0.006 C 
BRANCH  16  17
HETATM   17  C   UNL     1     -20.681  -4.665  -7.028  1.00  0.00    -0.064 C 
HETATM   18  C   UNL     1     -21.543  -4.152  -7.926  1.00  0.00     0.006 C 
HETATM   19  C   UNL     1     -19.208  -4.491  -7.295  1.00  0.00     0.048 C 
BRANCH  18  20
HETATM   20  C   UNL     1     -23.031  -4.253  -8.007  1.00  0.00     0.206 C 
BRANCH  20  21
HETATM   21  O   UNL     1     -23.453  -3.336  -9.036  1.00  0.00    -0.318 OA
BRANCH  21  22
HETATM   22  C   UNL     1     -24.359  -3.803  -9.939  1.00  0.00     0.255 C 
HETATM   23  O   UNL     1     -25.447  -3.307 -10.178  1.00  0.00    -0.266 OA
HETATM   24  C   UNL     1     -23.826  -5.027 -10.623  1.00  0.00     0.126 C 
ENDBRANCH  21  22
ENDBRANCH  20  21
ENDBRANCH  18  20
ENDBRANCH  16  17
ENDBRANCH   2  15
TORSDOF 7
ENDMDL
MODEL 6
REMARK VINA RESULT:      -7.3      3.025      5.585
REMARK  7 active torsions:
REMARK  status: ('A' for Active; 'I' for Inactive)
REMARK    1  A    between atoms: C_3  and  C_10 
REMARK    2  A    between atoms: C_11  and  C_12 
REMARK    3  A    between atoms: C_13  and  C_14 
REMARK    4  A    between atoms: C_15  and  C_16 
REMARK    5  A    between atoms: C_17  and  C_18 
REMARK    6  A    between atoms: C_18  and  O_19 
REMARK    7  A    between atoms: O_19  and  C_20 
ROOT
HETATM    1  C   UNL     1     -22.377  -7.727  -0.664  1.00  0.00    -0.062 C 
HETATM    2  C   UNL     1     -22.204  -6.556  -1.318  1.00  0.00     0.007 C 
HETATM    3  C   UNL     1     -23.155  -7.791   0.625  1.00  0.00     0.048 C 
ENDROOT
BRANCH   1   4
HETATM    4  C   UNL     1     -21.859  -9.008  -1.125  1.00  0.00     0.007 C 
HETATM    5  C   UNL     1     -22.017 -10.150  -0.434  1.00  0.00     0.009 C 
BRANCH   5   6
HETATM    6  C   UNL     1     -21.694 -11.481  -0.955  1.00  0.00    -0.048 C 
HETATM    7  C   UNL     1     -20.494 -12.087  -0.798  1.00  0.00    -0.077 C 
HETATM    8  C   UNL     1     -19.345 -11.529   0.000  1.00  0.00     0.044 C 
HETATM    9  C   UNL     1     -20.173 -13.436  -1.419  1.00  0.00     0.034 C 
HETATM   10  C   UNL     1     -21.191 -13.966  -2.423  1.00  0.00     0.005 C 
HETATM   11  C   UNL     1     -22.605 -13.646  -1.981  1.00  0.00     0.014 C 
HETATM   12  C   UNL     1     -22.829 -12.129  -1.768  1.00  0.00    -0.020 C 
HETATM   13  C   UNL     1     -24.196 -12.021  -1.063  1.00  0.00     0.020 C 
HETATM   14  C   UNL     1     -22.875 -11.408  -3.135  1.00  0.00     0.020 C 
ENDBRANCH   5   6
ENDBRANCH   1   4
BRANCH   2  15
HETATM   15  C   UNL     1     -21.379  -6.336  -2.497  1.00  0.00     0.001 C 
HETATM   16  C   UNL     1     -21.812  -6.540  -3.753  1.00  0.00     0.006 C 
BRANCH  16  17
HETATM   17  C   UNL     1     -20.990  -6.454  -4.952  1.00  0.00    -0.064 C 
HETATM   18  C   UNL     1     -20.171  -7.403  -5.446  1.00  0.00     0.006 C 
HETATM   19  C   UNL     1     -21.025  -5.124  -5.660  1.00  0.00     0.048 C 
BRANCH  18  20
HETATM   20  C   UNL     1     -19.831  -8.758  -4.918  1.00  0.00     0.206 C 
BRANCH  20  21
HETATM   21  O   UNL     1     -20.638  -9.702  -5.648  1.00  0.00    -0.318 OA
BRANCH  21  22
HETATM   22  C   UNL     1     -20.129 -10.954  -5.803  1.00  0.00     0.255 C 
HETATM   23  O   UNL     1     -20.189 -11.628  -6.818  1.00  0.00    -0.266 OA
HETATM   24  C   UNL     1     -19.460 -11.403  -4.536  1.00  0.00     0.126 C 
ENDBRANCH  21  22
ENDBRANCH  20  21
ENDBRANCH  18  20
ENDBRANCH  16  17
ENDBRANCH   2  15
TORSDOF 7
ENDMDL
MODEL 7
REMARK VINA RESULT:      -7.3      4.213      6.555
REMARK  7 active torsions:
REMARK  status: ('A' for Active; 'I' for Inactive)
REMARK    1  A    between atoms: C_3  and  C_10 
REMARK    2  A    between atoms: C_11  and  C_12 
REMARK    3  A    between atoms: C_13  and  C_14 
REMARK    4  A    between atoms: C_15  and  C_16 
REMARK    5  A    between atoms: C_17  and  C_18 
REMARK    6  A    between atoms: C_18  and  O_19 
REMARK    7  A    between atoms: O_19  and  C_20 
ROOT
HETATM    1  C   UNL     1     -23.065 -12.508  -0.587  1.00  0.00    -0.062 C 
HETATM    2  C   UNL     1     -22.818 -13.476  -1.498  1.00  0.00     0.007 C 
HETATM    3  C   UNL     1     -23.382 -12.851   0.846  1.00  0.00     0.048 C 
ENDROOT
BRANCH   1   4
HETATM    4  C   UNL     1     -23.039 -11.081  -0.877  1.00  0.00     0.007 C 
HETATM    5  C   UNL     1     -21.922 -10.339  -0.795  1.00  0.00     0.009 C 
BRANCH   5   6
HETATM    6  C   UNL     1     -21.811  -8.958  -1.271  1.00  0.00    -0.048 C 
HETATM    7  C   UNL     1     -22.391  -7.896  -0.665  1.00  0.00    -0.077 C 
HETATM    8  C   UNL     1     -23.163  -7.959   0.628  1.00  0.00     0.044 C 
HETATM    9  C   UNL     1     -22.316  -6.489  -1.234  1.00  0.00     0.034 C 
HETATM   10  C   UNL     1     -21.752  -6.371  -2.645  1.00  0.00     0.005 C 
HETATM   11  C   UNL     1     -20.606  -7.340  -2.853  1.00  0.00     0.014 C 
HETATM   12  C   UNL     1     -21.017  -8.809  -2.582  1.00  0.00    -0.020 C 
HETATM   13  C   UNL     1     -19.693  -9.598  -2.562  1.00  0.00     0.020 C 
HETATM   14  C   UNL     1     -21.926  -9.319  -3.723  1.00  0.00     0.020 C 
ENDBRANCH   5   6
ENDBRANCH   1   4
BRANCH   2  15
HETATM   15  C   UNL     1     -22.619 -13.289  -2.928  1.00  0.00     0.001 C 
HETATM   16  C   UNL     1     -21.431 -12.982  -3.477  1.00  0.00     0.006 C 
BRANCH  16  17
HETATM   17  C   UNL     1     -21.209 -12.664  -4.881  1.00  0.00    -0.064 C 
HETATM   18  C   UNL     1     -20.038 -12.349  -5.467  1.00  0.00     0.006 C 
HETATM   19  C   UNL     1     -22.451 -12.621  -5.734  1.00  0.00     0.048 C 
BRANCH  18  20
HETATM   20  C   UNL     1     -18.673 -12.192  -4.881  1.00  0.00     0.206 C 
BRANCH  20  21
HETATM   21  O   UNL     1     -17.848 -11.603  -5.905  1.00  0.00    -0.318 OA
BRANCH  21  22
HETATM   22  C   UNL     1     -17.601 -10.268  -5.801  1.00  0.00     0.255 C 
HETATM   23  O   UNL     1     -18.255  -9.380  -6.322  1.00  0.00    -0.266 OA
HETATM   24  C   UNL     1     -16.399 -10.028  -4.936  1.00  0.00     0.126 C 
ENDBRANCH  21  22
ENDBRANCH  20  21
ENDBRANCH  18  20
ENDBRANCH  16  17
ENDBRANCH   2  15
TORSDOF 7
ENDMDL
MODEL 8
REMARK VINA RESULT:      -7.3      1.886      3.520
REMARK  7 active torsions:
REMARK  status: ('A' for Active; 'I' for Inactive)
REMARK    1  A    between atoms: C_3  and  C_10 
REMARK    2  A    between atoms: C_11  and  C_12 
REMARK    3  A    between atoms: C_13  and  C_14 
REMARK    4  A    between atoms: C_15  and  C_16 
REMARK    5  A    between atoms: C_17  and  C_18 
REMARK    6  A    between atoms: C_18  and  O_19 
REMARK    7  A    between atoms: O_19  and  C_20 
ROOT
HETATM    1  C   UNL     1     -21.797  -7.097  -2.402  1.00  0.00    -0.062 C 
HETATM    2  C   UNL     1     -22.061  -6.236  -3.412  1.00  0.00     0.007 C 
HETATM    3  C   UNL     1     -22.274  -6.820  -1.000  1.00  0.00     0.048 C 
ENDROOT
BRANCH   1   4
HETATM    4  C   UNL     1     -21.062  -8.344  -2.558  1.00  0.00     0.007 C 
HETATM    5  C   UNL     1     -20.220  -8.818  -1.624  1.00  0.00     0.009 C 
BRANCH   5   6
HETATM    6  C   UNL     1     -19.624 -10.156  -1.652  1.00  0.00    -0.048 C 
HETATM    7  C   UNL     1     -18.526 -10.483  -2.372  1.00  0.00    -0.077 C 
HETATM    8  C   UNL     1     -17.707  -9.513  -3.183  1.00  0.00     0.044 C 
HETATM    9  C   UNL     1     -17.983 -11.901  -2.436  1.00  0.00     0.034 C 
HETATM   10  C   UNL     1     -18.873 -12.982  -1.833  1.00  0.00     0.005 C 
HETATM   11  C   UNL     1     -19.558 -12.482  -0.577  1.00  0.00     0.014 C 
HETATM   12  C   UNL     1     -20.395 -11.203  -0.829  1.00  0.00    -0.020 C 
HETATM   13  C   UNL     1     -20.773 -10.689   0.575  1.00  0.00     0.020 C 
HETATM   14  C   UNL     1     -21.669 -11.559  -1.628  1.00  0.00     0.020 C 
ENDBRANCH   5   6
ENDBRANCH   1   4
BRANCH   2  15
HETATM   15  C   UNL     1     -21.561  -6.322  -4.776  1.00  0.00     0.001 C 
HETATM   16  C   UNL     1     -21.199  -5.250  -5.502  1.00  0.00     0.006 C 
BRANCH  16  17
HETATM   17  C   UNL     1     -20.813  -5.274  -6.906  1.00  0.00    -0.064 C 
HETATM   18  C   UNL     1     -21.529  -4.823  -7.953  1.00  0.00     0.006 C 
HETATM   19  C   UNL     1     -19.495  -5.945  -7.198  1.00  0.00     0.048 C 
BRANCH  18  20
HETATM   20  C   UNL     1     -22.898  -4.226  -8.006  1.00  0.00     0.206 C 
BRANCH  20  21
HETATM   21  O   UNL     1     -22.981  -3.489  -9.241  1.00  0.00    -0.318 OA
BRANCH  21  22
HETATM   22  C   UNL     1     -23.926  -3.893 -10.133  1.00  0.00     0.255 C 
HETATM   23  O   UNL     1     -24.768  -4.753  -9.939  1.00  0.00    -0.266 OA
HETATM   24  C   UNL     1     -23.798  -3.117 -11.412  1.00  0.00     0.126 C 
ENDBRANCH  21  22
ENDBRANCH  20  21
ENDBRANCH  18  20
ENDBRANCH  16  17
ENDBRANCH   2  15
TORSDOF 7
ENDMDL
MODEL 9
REMARK VINA RESULT:      -7.2      3.073      5.683
REMARK  7 active torsions:
REMARK  status: ('A' for Active; 'I' for Inactive)
REMARK    1  A    between atoms: C_3  and  C_10 
REMARK    2  A    between atoms: C_11  and  C_12 
REMARK    3  A    between atoms: C_13  and  C_14 
REMARK    4  A    between atoms: C_15  and  C_16 
REMARK    5  A    between atoms: C_17  and  C_18 
REMARK    6  A    between atoms: C_18  and  O_19 
REMARK    7  A    between atoms: O_19  and  C_20 
ROOT
HETATM    1  C   UNL     1     -22.493  -7.889  -0.456  1.00  0.00    -0.062 C 
HETATM    2  C   UNL     1     -22.185  -6.762  -1.137  1.00  0.00     0.007 C 
HETATM    3  C   UNL     1     -23.273  -7.830   0.832  1.00  0.00     0.048 C 
ENDROOT
BRANCH   1   4
HETATM    4  C   UNL     1     -22.128  -9.232  -0.884  1.00  0.00     0.007 C 
HETATM    5  C   UNL     1     -21.452 -10.090  -0.100  1.00  0.00     0.009 C 
BRANCH   5   6
HETATM    6  C   UNL     1     -21.246 -11.506  -0.413  1.00  0.00    -0.048 C 
HETATM    7  C   UNL     1     -22.176 -12.470  -0.224  1.00  0.00    -0.077 C 
HETATM    8  C   UNL     1     -23.585 -12.225   0.253  1.00  0.00     0.044 C 
HETATM    9  C   UNL     1     -21.897 -13.940  -0.488  1.00  0.00     0.034 C 
HETATM   10  C   UNL     1     -20.440 -14.303  -0.755  1.00  0.00     0.005 C 
HETATM   11  C   UNL     1     -19.760 -13.234  -1.587  1.00  0.00     0.014 C 
HETATM   12  C   UNL     1     -19.832 -11.835  -0.926  1.00  0.00    -0.020 C 
HETATM   13  C   UNL     1     -19.357 -10.853  -2.016  1.00  0.00     0.020 C 
HETATM   14  C   UNL     1     -18.883 -11.780   0.293  1.00  0.00     0.020 C 
ENDBRANCH   5   6
ENDBRANCH   1   4
BRANCH   2  15
HETATM   15  C   UNL     1     -21.341  -6.668  -2.319  1.00  0.00     0.001 C 
HETATM   16  C   UNL     1     -21.824  -6.569  -3.570  1.00  0.00     0.006 C 
BRANCH  16  17
HETATM   17  C   UNL     1     -21.026  -6.598  -4.787  1.00  0.00    -0.064 C 
HETATM   18  C   UNL     1     -20.489  -7.681  -5.381  1.00  0.00     0.006 C 
HETATM   19  C   UNL     1     -20.723  -5.249  -5.389  1.00  0.00     0.048 C 
BRANCH  18  20
HETATM   20  C   UNL     1     -20.505  -9.117  -4.973  1.00  0.00     0.206 C 
BRANCH  20  21
HETATM   21  O   UNL     1     -21.090  -9.853  -6.065  1.00  0.00    -0.318 OA
BRANCH  21  22
HETATM   22  C   UNL     1     -20.800 -11.180  -6.135  1.00  0.00     0.255 C 
HETATM   23  O   UNL     1     -20.122 -11.717  -6.995  1.00  0.00    -0.266 OA
HETATM   24  C   UNL     1     -21.430 -11.911  -4.986  1.00  0.00     0.126 C 
ENDBRANCH  21  22
ENDBRANCH  20  21
ENDBRANCH  18  20
ENDBRANCH  16  17
ENDBRANCH   2  15
TORSDOF 7
ENDMDL
