MODEL 1
REMARK VINA RESULT:      -7.9      0.000      0.000
REMARK  6 active torsions:
REMARK  status: ('A' for Active; 'I' for Inactive)
REMARK    1  A    between atoms: C_2  and  C_4 
REMARK    2  A    between atoms: C_4  and  C_5 
REMARK    3  A    between atoms: C_5  and  C_6 
REMARK    4  A    between atoms: C_6  and  C_7 
REMARK    5  A    between atoms: C_7  and  C_9 
REMARK    6  A    between atoms: C_24  and  O_26 
ROOT
HETATM    1  C   UNL     1     -22.325  -8.503  -1.109  1.00  0.00    -0.002 C 
HETATM    2  C   UNL     1     -21.514  -8.159   0.194  1.00  0.00     0.006 C 
HETATM    3  C   UNL     1     -21.055  -9.488   0.800  1.00  0.00     0.006 C 
HETATM    4  C   UNL     1     -21.442 -10.603  -0.176  1.00  0.00    -0.001 C 
HETATM    5  C   UNL     1     -22.797 -10.062  -0.697  1.00  0.00    -0.036 C 
HETATM    6  C   UNL     1     -23.382 -11.359  -1.340  1.00  0.00     0.010 C 
HETATM    7  C   UNL     1     -22.700 -12.066  -2.466  1.00  0.00     0.007 C 
HETATM    8  C   UNL     1     -21.174 -11.932  -2.508  1.00  0.00     0.003 C 
HETATM    9  C   UNL     1     -20.632 -10.849  -1.501  1.00  0.00    -0.001 C 
HETATM   10  C   UNL     1     -19.115 -10.947  -1.420  1.00  0.00     0.033 C 
HETATM   11  C   UNL     1     -18.562 -10.744  -2.816  1.00  0.00    -0.023 C 
HETATM   12  C   UNL     1     -19.288 -10.909  -3.947  1.00  0.00    -0.072 C 
HETATM   13  C   UNL     1     -20.642 -11.645  -3.994  1.00  0.00    -0.017 C 
HETATM   14  C   UNL     1     -20.293 -12.938  -4.789  1.00  0.00     0.016 C 
HETATM   15  C   UNL     1     -19.779 -12.603  -6.213  1.00  0.00     0.033 C 
HETATM   16  C   UNL     1     -18.566 -11.660  -6.193  1.00  0.00     0.122 C 
HETATM   17  C   UNL     1     -18.764 -10.445  -5.284  1.00  0.00     0.066 C 
HETATM   18  C   UNL     1     -21.748 -10.940  -4.854  1.00  0.00     0.020 C 
HETATM   19  C   UNL     1     -23.950  -9.793   0.351  1.00  0.00     0.016 C 
ENDROOT
BRANCH   1  20
HETATM   20  C   UNL     1     -21.515  -7.679  -2.278  1.00  0.00    -0.014 C 
HETATM   21  C   UNL     1     -21.579  -6.158  -2.173  1.00  0.00     0.010 C 
BRANCH  20  22
HETATM   22  C   UNL     1     -21.575  -8.101  -3.797  1.00  0.00     0.005 C 
BRANCH  22  23
HETATM   23  C   UNL     1     -20.627  -7.436  -4.820  1.00  0.00     0.001 C 
BRANCH  23  24
HETATM   24  C   UNL     1     -21.235  -6.945  -6.133  1.00  0.00     0.004 C 
BRANCH  24  25
HETATM   25  C   UNL     1     -21.184  -5.430  -6.396  1.00  0.00    -0.023 C 
HETATM   26  C   UNL     1     -20.075  -4.734  -5.593  1.00  0.00     0.009 C 
HETATM   27  C   UNL     1     -20.955  -5.183  -7.887  1.00  0.00     0.009 C 
ENDBRANCH  24  25
ENDBRANCH  23  24
ENDBRANCH  22  23
ENDBRANCH  20  22
ENDBRANCH   1  20
BRANCH  16  28
HETATM   28  O   UNL     1     -18.290 -11.211  -7.524  1.00  0.00    -0.395 OA
HETATM   29  H   UNL     1     -17.334 -11.049  -7.608  1.00  0.00     0.210 HD
ENDBRANCH  16  28
TORSDOF 6
ENDMDL
MODEL 2
REMARK VINA RESULT:      -7.8      1.790      3.426
REMARK  6 active torsions:
REMARK  status: ('A' for Active; 'I' for Inactive)
REMARK    1  A    between atoms: C_2  and  C_4 
REMARK    2  A    between atoms: C_4  and  C_5 
REMARK    3  A    between atoms: C_5  and  C_6 
REMARK    4  A    between atoms: C_6  and  C_7 
REMARK    5  A    between atoms: C_7  and  C_9 
REMARK    6  A    between atoms: C_24  and  O_26 
ROOT
HETATM    1  C   UNL     1     -22.801 -12.214  -2.083  1.00  0.00    -0.002 C 
HETATM    2  C   UNL     1     -23.821 -11.136  -1.564  1.00  0.00     0.006 C 
HETATM    3  C   UNL     1     -23.280 -10.614  -0.230  1.00  0.00     0.006 C 
HETATM    4  C   UNL     1     -21.901 -11.240  -0.009  1.00  0.00    -0.001 C 
HETATM    5  C   UNL     1     -22.135 -12.652  -0.603  1.00  0.00    -0.036 C 
HETATM    6  C   UNL     1     -20.908 -13.410  -0.005  1.00  0.00     0.010 C 
HETATM    7  C   UNL     1     -19.501 -13.007  -0.305  1.00  0.00     0.007 C 
HETATM    8  C   UNL     1     -19.284 -11.519  -0.602  1.00  0.00     0.003 C 
HETATM    9  C   UNL     1     -20.637 -10.736  -0.796  1.00  0.00    -0.001 C 
HETATM   10  C   UNL     1     -20.354  -9.240  -0.839  1.00  0.00     0.033 C 
HETATM   11  C   UNL     1     -19.388  -8.984  -1.977  1.00  0.00    -0.023 C 
HETATM   12  C   UNL     1     -18.596  -9.936  -2.524  1.00  0.00    -0.072 C 
HETATM   13  C   UNL     1     -18.313 -11.299  -1.860  1.00  0.00    -0.017 C 
HETATM   14  C   UNL     1     -16.810 -11.176  -1.469  1.00  0.00     0.016 C 
HETATM   15  C   UNL     1     -15.919 -10.958  -2.719  1.00  0.00     0.033 C 
HETATM   16  C   UNL     1     -16.347  -9.731  -3.540  1.00  0.00     0.122 C 
HETATM   17  C   UNL     1     -17.851  -9.686  -3.813  1.00  0.00     0.066 C 
HETATM   18  C   UNL     1     -18.368 -12.531  -2.828  1.00  0.00     0.020 C 
HETATM   19  C   UNL     1     -23.277 -13.548   0.022  1.00  0.00     0.016 C 
ENDROOT
BRANCH   1  20
HETATM   20  C   UNL     1     -22.367 -11.634  -3.559  1.00  0.00    -0.014 C 
HETATM   21  C   UNL     1     -21.251 -12.402  -4.263  1.00  0.00     0.010 C 
BRANCH  20  22
HETATM   22  C   UNL     1     -22.197 -10.091  -3.837  1.00  0.00     0.005 C 
BRANCH  22  23
HETATM   23  C   UNL     1     -21.371  -9.614  -5.053  1.00  0.00     0.001 C 
BRANCH  23  24
HETATM   24  C   UNL     1     -20.937  -8.149  -5.083  1.00  0.00     0.004 C 
BRANCH  24  25
HETATM   25  C   UNL     1     -21.988  -7.106  -4.668  1.00  0.00    -0.023 C 
HETATM   26  C   UNL     1     -21.712  -6.517  -3.277  1.00  0.00     0.009 C 
HETATM   27  C   UNL     1     -22.011  -5.975  -5.697  1.00  0.00     0.009 C 
ENDBRANCH  24  25
ENDBRANCH  23  24
ENDBRANCH  22  23
ENDBRANCH  20  22
ENDBRANCH   1  20
BRANCH  16  28
HETATM   28  O   UNL     1     -15.642  -9.721  -4.785  1.00  0.00    -0.395 OA
HETATM   29  H   UNL     1     -14.836  -9.184  -4.686  1.00  0.00     0.210 HD
ENDBRANCH  16  28
TORSDOF 6
ENDMDL
MODEL 3
REMARK VINA RESULT:      -7.7      2.093      5.092
REMARK  6 active torsions:
REMARK  status: ('A' for Active; 'I' for Inactive)
REMARK    1  A    between atoms: C_2  and  C_4 
REMARK    2  A    between atoms: C_4  and  C_5 
REMARK    3  A    between atoms: C_5  and  C_6 
REMARK    4  A    between atoms: C_6  and  C_7 
REMARK    5  A    between atoms: C_7  and  C_9 
REMARK    6  A    between atoms: C_24  and  O_26 
ROOT
HETATM    1  C   UNL     1     -21.176 -10.647   0.310  1.00  0.00    -0.002 C 
HETATM    2  C   UNL     1     -22.570 -11.368   0.415  1.00  0.00     0.006 C 
HETATM    3  C   UNL     1     -23.509 -10.673  -0.575  1.00  0.00     0.006 C 
HETATM    4  C   UNL     1     -22.681  -9.659  -1.369  1.00  0.00    -0.001 C 
HETATM    5  C   UNL     1     -21.713  -9.162  -0.266  1.00  0.00    -0.036 C 
HETATM    6  C   UNL     1     -21.175  -7.859  -0.937  1.00  0.00     0.010 C 
HETATM    7  C   UNL     1     -20.432  -7.880  -2.233  1.00  0.00     0.007 C 
HETATM    8  C   UNL     1     -20.797  -9.019  -3.191  1.00  0.00     0.003 C 
HETATM    9  C   UNL     1     -21.703 -10.115  -2.512  1.00  0.00    -0.001 C 
HETATM   10  C   UNL     1     -22.223 -11.072  -3.577  1.00  0.00     0.033 C 
HETATM   11  C   UNL     1     -21.025 -11.685  -4.272  1.00  0.00    -0.023 C 
HETATM   12  C   UNL     1     -19.785 -11.142  -4.260  1.00  0.00    -0.072 C 
HETATM   13  C   UNL     1     -19.493  -9.686  -3.846  1.00  0.00    -0.017 C 
HETATM   14  C   UNL     1     -19.074  -9.031  -5.196  1.00  0.00     0.016 C 
HETATM   15  C   UNL     1     -17.815  -9.716  -5.788  1.00  0.00     0.033 C 
HETATM   16  C   UNL     1     -18.004 -11.229  -5.979  1.00  0.00     0.122 C 
HETATM   17  C   UNL     1     -18.587 -11.922  -4.746  1.00  0.00     0.066 C 
HETATM   18  C   UNL     1     -18.245  -9.500  -2.914  1.00  0.00     0.020 C 
HETATM   19  C   UNL     1     -22.329  -8.506   1.034  1.00  0.00     0.016 C 
ENDROOT
BRANCH   1  20
HETATM   20  C   UNL     1     -20.152 -11.874  -0.076  1.00  0.00    -0.014 C 
HETATM   21  C   UNL     1     -20.624 -13.271   0.318  1.00  0.00     0.010 C 
BRANCH  20  22
HETATM   22  C   UNL     1     -18.594 -11.767   0.143  1.00  0.00     0.005 C 
BRANCH  22  23
HETATM   23  C   UNL     1     -17.629 -12.513  -0.806  1.00  0.00     0.001 C 
BRANCH  23  24
HETATM   24  C   UNL     1     -16.224 -11.938  -0.983  1.00  0.00     0.004 C 
BRANCH  24  25
HETATM   25  C   UNL     1     -15.373 -12.529  -2.119  1.00  0.00    -0.023 C 
HETATM   26  C   UNL     1     -16.015 -13.775  -2.745  1.00  0.00     0.009 C 
HETATM   27  C   UNL     1     -15.171 -11.469  -3.203  1.00  0.00     0.009 C 
ENDBRANCH  24  25
ENDBRANCH  23  24
ENDBRANCH  22  23
ENDBRANCH  20  22
ENDBRANCH   1  20
BRANCH  16  28
HETATM   28  O   UNL     1     -16.746 -11.829  -6.304  1.00  0.00    -0.395 OA
HETATM   29  H   UNL     1     -16.280 -11.256  -6.938  1.00  0.00     0.210 HD
ENDBRANCH  16  28
TORSDOF 6
ENDMDL
MODEL 4
REMARK VINA RESULT:      -7.7      2.171      5.174
REMARK  6 active torsions:
REMARK  status: ('A' for Active; 'I' for Inactive)
REMARK    1  A    between atoms: C_2  and  C_4 
REMARK    2  A    between atoms: C_4  and  C_5 
REMARK    3  A    between atoms: C_5  and  C_6 
REMARK    4  A    between atoms: C_6  and  C_7 
REMARK    5  A    between atoms: C_7  and  C_9 
REMARK    6  A    between atoms: C_24  and  O_26 
ROOT
HETATM    1  C   UNL     1     -19.573 -12.531  -1.358  1.00  0.00    -0.002 C 
HETATM    2  C   UNL     1     -20.191 -13.786  -2.076  1.00  0.00     0.006 C 
HETATM    3  C   UNL     1     -21.713 -13.675  -1.940  1.00  0.00     0.006 C 
HETATM    4  C   UNL     1     -22.025 -12.324  -1.292  1.00  0.00    -0.001 C 
HETATM    5  C   UNL     1     -20.839 -12.207  -0.301  1.00  0.00    -0.036 C 
HETATM    6  C   UNL     1     -21.373 -11.079   0.637  1.00  0.00     0.010 C 
HETATM    7  C   UNL     1     -21.694  -9.710   0.132  1.00  0.00     0.007 C 
HETATM    8  C   UNL     1     -22.146  -9.629  -1.330  1.00  0.00     0.003 C 
HETATM    9  C   UNL     1     -21.932 -10.983  -2.107  1.00  0.00    -0.001 C 
HETATM   10  C   UNL     1     -22.624 -10.904  -3.461  1.00  0.00     0.033 C 
HETATM   11  C   UNL     1     -22.038  -9.726  -4.212  1.00  0.00    -0.023 C 
HETATM   12  C   UNL     1     -21.385  -8.700  -3.617  1.00  0.00    -0.072 C 
HETATM   13  C   UNL     1     -21.444  -8.412  -2.104  1.00  0.00    -0.017 C 
HETATM   14  C   UNL     1     -22.262  -7.087  -2.046  1.00  0.00     0.016 C 
HETATM   15  C   UNL     1     -21.543  -5.947  -2.814  1.00  0.00     0.033 C 
HETATM   16  C   UNL     1     -21.250  -6.317  -4.276  1.00  0.00     0.122 C 
HETATM   17  C   UNL     1     -20.605  -7.696  -4.430  1.00  0.00     0.066 C 
HETATM   18  C   UNL     1     -20.068  -8.054  -1.444  1.00  0.00     0.020 C 
HETATM   19  C   UNL     1     -20.658 -13.337   0.789  1.00  0.00     0.016 C 
ENDROOT
BRANCH   1  20
HETATM   20  C   UNL     1     -18.686 -11.822  -2.547  1.00  0.00    -0.014 C 
HETATM   21  C   UNL     1     -18.238 -12.750  -3.673  1.00  0.00     0.010 C 
BRANCH  20  22
HETATM   22  C   UNL     1     -17.538 -10.787  -2.234  1.00  0.00     0.005 C 
BRANCH  22  23
HETATM   23  C   UNL     1     -17.257  -9.627  -3.216  1.00  0.00     0.001 C 
BRANCH  23  24
HETATM   24  C   UNL     1     -15.945  -9.663  -3.998  1.00  0.00     0.004 C 
BRANCH  24  25
HETATM   25  C   UNL     1     -16.050  -9.878  -5.518  1.00  0.00    -0.023 C 
HETATM   26  C   UNL     1     -15.502 -11.245  -5.955  1.00  0.00     0.009 C 
HETATM   27  C   UNL     1     -17.514  -9.764  -5.944  1.00  0.00     0.009 C 
ENDBRANCH  24  25
ENDBRANCH  23  24
ENDBRANCH  22  23
ENDBRANCH  20  22
ENDBRANCH   1  20
BRANCH  16  28
HETATM   28  O   UNL     1     -20.391  -5.329  -4.855  1.00  0.00    -0.395 OA
HETATM   29  H   UNL     1     -19.483  -5.481  -4.541  1.00  0.00     0.210 HD
ENDBRANCH  16  28
TORSDOF 6
ENDMDL
MODEL 5
REMARK VINA RESULT:      -7.6     17.273     19.243
REMARK  6 active torsions:
REMARK  status: ('A' for Active; 'I' for Inactive)
REMARK    1  A    between atoms: C_2  and  C_4 
REMARK    2  A    between atoms: C_4  and  C_5 
REMARK    3  A    between atoms: C_5  and  C_6 
REMARK    4  A    between atoms: C_6  and  C_7 
REMARK    5  A    between atoms: C_7  and  C_9 
REMARK    6  A    between atoms: C_24  and  O_26 
ROOT
HETATM    1  C   UNL     1     -23.469  10.699   0.462  1.00  0.00    -0.002 C 
HETATM    2  C   UNL     1     -22.086  10.218   1.035  1.00  0.00     0.006 C 
HETATM    3  C   UNL     1     -22.265   8.763   1.476  1.00  0.00     0.006 C 
HETATM    4  C   UNL     1     -23.667   8.317   1.052  1.00  0.00    -0.001 C 
HETATM    5  C   UNL     1     -24.462   9.626   1.291  1.00  0.00    -0.036 C 
HETATM    6  C   UNL     1     -25.921   9.069   1.277  1.00  0.00     0.010 C 
HETATM    7  C   UNL     1     -26.499   8.386   0.081  1.00  0.00     0.007 C 
HETATM    8  C   UNL     1     -25.497   7.648  -0.814  1.00  0.00     0.003 C 
HETATM    9  C   UNL     1     -24.000   7.975  -0.445  1.00  0.00    -0.001 C 
HETATM   10  C   UNL     1     -23.075   7.030  -1.200  1.00  0.00     0.033 C 
HETATM   11  C   UNL     1     -23.341   7.206  -2.681  1.00  0.00    -0.023 C 
HETATM   12  C   UNL     1     -24.477   7.742  -3.186  1.00  0.00    -0.072 C 
HETATM   13  C   UNL     1     -25.773   7.924  -2.370  1.00  0.00    -0.017 C 
HETATM   14  C   UNL     1     -26.730   6.883  -3.024  1.00  0.00     0.016 C 
HETATM   15  C   UNL     1     -26.957   7.192  -4.526  1.00  0.00     0.033 C 
HETATM   16  C   UNL     1     -25.641   7.260  -5.318  1.00  0.00     0.122 C 
HETATM   17  C   UNL     1     -24.578   8.127  -4.641  1.00  0.00     0.066 C 
HETATM   18  C   UNL     1     -26.493   9.302  -2.571  1.00  0.00     0.020 C 
HETATM   19  C   UNL     1     -24.473  10.242   2.747  1.00  0.00     0.016 C 
ENDROOT
BRANCH   1  20
HETATM   20  C   UNL     1     -23.093  11.173  -1.067  1.00  0.00    -0.014 C 
HETATM   21  C   UNL     1     -24.281  11.356  -2.007  1.00  0.00     0.010 C 
BRANCH  20  22
HETATM   22  C   UNL     1     -21.885  10.548  -1.866  1.00  0.00     0.005 C 
BRANCH  22  23
HETATM   23  C   UNL     1     -21.929  10.490  -3.409  1.00  0.00     0.001 C 
BRANCH  23  24
HETATM   24  C   UNL     1     -20.634  10.145  -4.143  1.00  0.00     0.004 C 
BRANCH  24  25
HETATM   25  C   UNL     1     -20.070  11.215  -5.093  1.00  0.00    -0.023 C 
HETATM   26  C   UNL     1     -20.703  12.596  -4.861  1.00  0.00     0.009 C 
HETATM   27  C   UNL     1     -18.557  11.317  -4.899  1.00  0.00     0.009 C 
ENDBRANCH  24  25
ENDBRANCH  23  24
ENDBRANCH  22  23
ENDBRANCH  20  22
ENDBRANCH   1  20
BRANCH  16  28
HETATM   28  O   UNL     1     -25.900   7.771  -6.629  1.00  0.00    -0.395 OA
HETATM   29  H   UNL     1     -26.662   7.297  -7.006  1.00  0.00     0.210 HD
ENDBRANCH  16  28
TORSDOF 6
ENDMDL
MODEL 6
REMARK VINA RESULT:      -7.6      2.305      5.990
REMARK  6 active torsions:
REMARK  status: ('A' for Active; 'I' for Inactive)
REMARK    1  A    between atoms: C_2  and  C_4 
REMARK    2  A    between atoms: C_4  and  C_5 
REMARK    3  A    between atoms: C_5  and  C_6 
REMARK    4  A    between atoms: C_6  and  C_7 
REMARK    5  A    between atoms: C_7  and  C_9 
REMARK    6  A    between atoms: C_24  and  O_26 
ROOT
HETATM    1  C   UNL     1     -21.208 -10.608   0.307  1.00  0.00    -0.002 C 
HETATM    2  C   UNL     1     -22.630 -11.275   0.397  1.00  0.00     0.006 C 
HETATM    3  C   UNL     1     -23.522 -10.567  -0.627  1.00  0.00     0.006 C 
HETATM    4  C   UNL     1     -22.641  -9.601  -1.424  1.00  0.00    -0.001 C 
HETATM    5  C   UNL     1     -21.678  -9.117  -0.310  1.00  0.00    -0.036 C 
HETATM    6  C   UNL     1     -21.079  -7.848  -0.996  1.00  0.00     0.010 C 
HETATM    7  C   UNL     1     -20.311  -7.923  -2.275  1.00  0.00     0.007 C 
HETATM    8  C   UNL     1     -20.697  -9.069  -3.217  1.00  0.00     0.003 C 
HETATM    9  C   UNL     1     -21.657 -10.117  -2.536  1.00  0.00    -0.001 C 
HETATM   10  C   UNL     1     -22.190 -11.077  -3.591  1.00  0.00     0.033 C 
HETATM   11  C   UNL     1     -21.001 -11.748  -4.248  1.00  0.00    -0.023 C 
HETATM   12  C   UNL     1     -19.742 -11.250  -4.221  1.00  0.00    -0.072 C 
HETATM   13  C   UNL     1     -19.405  -9.797  -3.831  1.00  0.00    -0.017 C 
HETATM   14  C   UNL     1     -18.935  -9.186  -5.184  1.00  0.00     0.016 C 
HETATM   15  C   UNL     1     -17.690  -9.929  -5.735  1.00  0.00     0.033 C 
HETATM   16  C   UNL     1     -17.930 -11.438  -5.899  1.00  0.00     0.122 C 
HETATM   17  C   UNL     1     -18.564 -12.082  -4.665  1.00  0.00     0.066 C 
HETATM   18  C   UNL     1     -18.172  -9.637  -2.877  1.00  0.00     0.020 C 
HETATM   19  C   UNL     1     -22.297  -8.411   0.962  1.00  0.00     0.016 C 
ENDROOT
BRANCH   1  20
HETATM   20  C   UNL     1     -20.223 -11.879  -0.032  1.00  0.00    -0.014 C 
HETATM   21  C   UNL     1     -18.831 -11.512  -0.541  1.00  0.00     0.010 C 
BRANCH  20  22
HETATM   22  C   UNL     1     -20.737 -13.160  -0.794  1.00  0.00     0.005 C 
BRANCH  22  23
HETATM   23  C   UNL     1     -20.678 -14.542  -0.105  1.00  0.00     0.001 C 
BRANCH  23  24
HETATM   24  C   UNL     1     -21.915 -15.004   0.663  1.00  0.00     0.004 C 
BRANCH  24  25
HETATM   25  C   UNL     1     -22.083 -14.467   2.095  1.00  0.00    -0.023 C 
HETATM   26  C   UNL     1     -23.544 -14.130   2.427  1.00  0.00     0.009 C 
HETATM   27  C   UNL     1     -21.569 -15.509   3.089  1.00  0.00     0.009 C 
ENDBRANCH  24  25
ENDBRANCH  23  24
ENDBRANCH  22  23
ENDBRANCH  20  22
ENDBRANCH   1  20
BRANCH  16  28
HETATM   28  O   UNL     1     -16.689 -12.090  -6.185  1.00  0.00    -0.395 OA
HETATM   29  H   UNL     1     -16.730 -13.003  -5.850  1.00  0.00     0.210 HD
ENDBRANCH  16  28
TORSDOF 6
ENDMDL
MODEL 7
REMARK VINA RESULT:      -7.5      2.897      5.295
REMARK  6 active torsions:
REMARK  status: ('A' for Active; 'I' for Inactive)
REMARK    1  A    between atoms: C_2  and  C_4 
REMARK    2  A    between atoms: C_4  and  C_5 
REMARK    3  A    between atoms: C_5  and  C_6 
REMARK    4  A    between atoms: C_6  and  C_7 
REMARK    5  A    between atoms: C_7  and  C_9 
REMARK    6  A    between atoms: C_24  and  O_26 
ROOT
HETATM    1  C   UNL     1     -21.582  -8.814  -2.896  1.00  0.00    -0.002 C 
HETATM    2  C   UNL     1     -20.092  -8.314  -2.939  1.00  0.00     0.006 C 
HETATM    3  C   UNL     1     -19.627  -8.166  -1.488  1.00  0.00     0.006 C 
HETATM    4  C   UNL     1     -20.742  -8.698  -0.584  1.00  0.00    -0.001 C 
HETATM    5  C   UNL     1     -21.991  -8.229  -1.374  1.00  0.00    -0.036 C 
HETATM    6  C   UNL     1     -23.087  -8.383  -0.273  1.00  0.00     0.010 C 
HETATM    7  C   UNL     1     -23.403  -9.700   0.356  1.00  0.00     0.007 C 
HETATM    8  C   UNL     1     -22.242 -10.698   0.429  1.00  0.00     0.003 C 
HETATM    9  C   UNL     1     -20.995 -10.241  -0.418  1.00  0.00    -0.001 C 
HETATM   10  C   UNL     1     -19.810 -11.143  -0.101  1.00  0.00     0.033 C 
HETATM   11  C   UNL     1     -20.214 -12.568  -0.421  1.00  0.00    -0.023 C 
HETATM   12  C   UNL     1     -21.499 -12.985  -0.517  1.00  0.00    -0.072 C 
HETATM   13  C   UNL     1     -22.702 -12.178   0.012  1.00  0.00    -0.017 C 
HETATM   14  C   UNL     1     -23.181 -13.041   1.217  1.00  0.00     0.016 C 
HETATM   15  C   UNL     1     -23.606 -14.460   0.760  1.00  0.00     0.033 C 
HETATM   16  C   UNL     1     -22.487 -15.195   0.004  1.00  0.00     0.122 C 
HETATM   17  C   UNL     1     -21.838 -14.340  -1.086  1.00  0.00     0.066 C 
HETATM   18  C   UNL     1     -23.938 -12.125  -0.951  1.00  0.00     0.020 C 
HETATM   19  C   UNL     1     -22.166  -6.682  -1.649  1.00  0.00     0.016 C 
ENDROOT
BRANCH   1  20
HETATM   20  C   UNL     1     -21.530 -10.214  -3.756  1.00  0.00    -0.014 C 
HETATM   21  C   UNL     1     -22.835 -11.003  -3.805  1.00  0.00     0.010 C 
BRANCH  20  22
HETATM   22  C   UNL     1     -20.316 -11.215  -3.655  1.00  0.00     0.005 C 
BRANCH  22  23
HETATM   23  C   UNL     1     -18.913 -10.779  -4.134  1.00  0.00     0.001 C 
BRANCH  23  24
HETATM   24  C   UNL     1     -17.702 -11.400  -3.440  1.00  0.00     0.004 C 
BRANCH  24  25
HETATM   25  C   UNL     1     -16.983 -10.533  -2.392  1.00  0.00    -0.023 C 
HETATM   26  C   UNL     1     -16.113 -11.367  -1.440  1.00  0.00     0.009 C 
HETATM   27  C   UNL     1     -16.105  -9.504  -3.104  1.00  0.00     0.009 C 
ENDBRANCH  24  25
ENDBRANCH  23  24
ENDBRANCH  22  23
ENDBRANCH  20  22
ENDBRANCH   1  20
BRANCH  16  28
HETATM   28  O   UNL     1     -23.013 -16.388  -0.584  1.00  0.00    -0.395 OA
HETATM   29  H   UNL     1     -23.508 -16.881   0.094  1.00  0.00     0.210 HD
ENDBRANCH  16  28
TORSDOF 6
ENDMDL
MODEL 8
REMARK VINA RESULT:      -7.5     17.280     20.071
REMARK  6 active torsions:
REMARK  status: ('A' for Active; 'I' for Inactive)
REMARK    1  A    between atoms: C_2  and  C_4 
REMARK    2  A    between atoms: C_4  and  C_5 
REMARK    3  A    between atoms: C_5  and  C_6 
REMARK    4  A    between atoms: C_6  and  C_7 
REMARK    5  A    between atoms: C_7  and  C_9 
REMARK    6  A    between atoms: C_24  and  O_26 
ROOT
HETATM    1  C   UNL     1     -26.755   8.441  -3.858  1.00  0.00    -0.002 C 
HETATM    2  C   UNL     1     -26.749   6.963  -4.396  1.00  0.00     0.006 C 
HETATM    3  C   UNL     1     -25.308   6.641  -4.804  1.00  0.00     0.006 C 
HETATM    4  C   UNL     1     -24.431   7.826  -4.392  1.00  0.00    -0.001 C 
HETATM    5  C   UNL     1     -25.398   9.003  -4.676  1.00  0.00    -0.036 C 
HETATM    6  C   UNL     1     -24.390  10.195  -4.671  1.00  0.00     0.010 C 
HETATM    7  C   UNL     1     -23.575  10.543  -3.468  1.00  0.00     0.007 C 
HETATM    8  C   UNL     1     -23.228   9.374  -2.540  1.00  0.00     0.003 C 
HETATM    9  C   UNL     1     -24.026   8.062  -2.892  1.00  0.00    -0.001 C 
HETATM   10  C   UNL     1     -23.453   6.894  -2.100  1.00  0.00     0.033 C 
HETATM   11  C   UNL     1     -23.559   7.238  -0.628  1.00  0.00    -0.023 C 
HETATM   12  C   UNL     1     -23.697   8.499  -0.154  1.00  0.00    -0.072 C 
HETATM   13  C   UNL     1     -23.425   9.762  -0.995  1.00  0.00    -0.017 C 
HETATM   14  C   UNL     1     -22.137  10.336  -0.331  1.00  0.00     0.016 C 
HETATM   15  C   UNL     1     -22.381  10.688   1.159  1.00  0.00     0.033 C 
HETATM   16  C   UNL     1     -22.895   9.488   1.970  1.00  0.00     0.122 C 
HETATM   17  C   UNL     1     -24.053   8.755   1.289  1.00  0.00     0.066 C 
HETATM   18  C   UNL     1     -24.489  10.903  -0.840  1.00  0.00     0.020 C 
HETATM   19  C   UNL     1     -25.950   9.183  -6.147  1.00  0.00     0.016 C 
ENDROOT
BRANCH   1  20
HETATM   20  C   UNL     1     -27.353   8.279  -2.335  1.00  0.00    -0.014 C 
HETATM   21  C   UNL     1     -28.792   7.777  -2.246  1.00  0.00     0.010 C 
BRANCH  20  22
HETATM   22  C   UNL     1     -27.108   9.363  -1.217  1.00  0.00     0.005 C 
BRANCH  22  23
HETATM   23  C   UNL     1     -28.012   9.399   0.035  1.00  0.00     0.001 C 
BRANCH  23  24
HETATM   24  C   UNL     1     -27.657   8.467   1.193  1.00  0.00     0.004 C 
BRANCH  24  25
HETATM   25  C   UNL     1     -28.150   8.880   2.590  1.00  0.00    -0.023 C 
HETATM   26  C   UNL     1     -28.681   7.687   3.399  1.00  0.00     0.009 C 
HETATM   27  C   UNL     1     -27.002   9.536   3.358  1.00  0.00     0.009 C 
ENDBRANCH  24  25
ENDBRANCH  23  24
ENDBRANCH  22  23
ENDBRANCH  20  22
ENDBRANCH   1  20
BRANCH  16  28
HETATM   28  O   UNL     1     -23.315   9.932   3.264  1.00  0.00    -0.395 OA
HETATM   29  H   UNL     1     -24.129  10.456   3.167  1.00  0.00     0.210 HD
ENDBRANCH  16  28
TORSDOF 6
ENDMDL
MODEL 9
REMARK VINA RESULT:      -7.4     16.200     20.304
REMARK  6 active torsions:
REMARK  status: ('A' for Active; 'I' for Inactive)
REMARK    1  A    between atoms: C_2  and  C_4 
REMARK    2  A    between atoms: C_4  and  C_5 
REMARK    3  A    between atoms: C_5  and  C_6 
REMARK    4  A    between atoms: C_6  and  C_7 
REMARK    5  A    between atoms: C_7  and  C_9 
REMARK    6  A    between atoms: C_24  and  O_26 
ROOT
HETATM    1  C   UNL     1     -24.783   7.370  -0.578  1.00  0.00    -0.002 C 
HETATM    2  C   UNL     1     -23.296   7.854  -0.418  1.00  0.00     0.006 C 
HETATM    3  C   UNL     1     -22.713   7.985  -1.828  1.00  0.00     0.006 C 
HETATM    4  C   UNL     1     -23.847   7.734  -2.826  1.00  0.00    -0.001 C 
HETATM    5  C   UNL     1     -24.638   6.630  -2.080  1.00  0.00    -0.036 C 
HETATM    6  C   UNL     1     -25.516   6.083  -3.250  1.00  0.00     0.010 C 
HETATM    7  C   UNL     1     -26.495   6.943  -3.979  1.00  0.00     0.007 C 
HETATM    8  C   UNL     1     -26.147   8.434  -4.050  1.00  0.00     0.003 C 
HETATM    9  C   UNL     1     -24.947   8.822  -3.106  1.00  0.00    -0.001 C 
HETATM   10  C   UNL     1     -24.501  10.246  -3.412  1.00  0.00     0.033 C 
HETATM   11  C   UNL     1     -25.695  11.157  -3.208  1.00  0.00    -0.023 C 
HETATM   12  C   UNL     1     -26.980  10.732  -3.212  1.00  0.00    -0.072 C 
HETATM   13  C   UNL     1     -27.424   9.359  -3.756  1.00  0.00    -0.017 C 
HETATM   14  C   UNL     1     -28.218   9.747  -5.039  1.00  0.00     0.016 C 
HETATM   15  C   UNL     1     -29.436  10.644  -4.699  1.00  0.00     0.033 C 
HETATM   16  C   UNL     1     -29.035  11.913  -3.930  1.00  0.00     0.122 C 
HETATM   17  C   UNL     1     -28.101  11.631  -2.752  1.00  0.00     0.066 C 
HETATM   18  C   UNL     1     -28.466   8.600  -2.864  1.00  0.00     0.020 C 
HETATM   19  C   UNL     1     -23.888   5.286  -1.716  1.00  0.00     0.016 C 
ENDROOT
BRANCH   1  20
HETATM   20  C   UNL     1     -25.640   8.543   0.192  1.00  0.00    -0.014 C 
HETATM   21  C   UNL     1     -24.977   9.132   1.434  1.00  0.00     0.010 C 
BRANCH  20  22
HETATM   22  C   UNL     1     -27.193   8.424   0.436  1.00  0.00     0.005 C 
BRANCH  22  23
HETATM   23  C   UNL     1     -27.792   8.823   1.803  1.00  0.00     0.001 C 
BRANCH  23  24
HETATM   24  C   UNL     1     -28.597   7.768   2.560  1.00  0.00     0.004 C 
BRANCH  24  25
HETATM   25  C   UNL     1     -28.997   8.107   4.006  1.00  0.00    -0.023 C 
HETATM   26  C   UNL     1     -29.343   6.856   4.827  1.00  0.00     0.009 C 
HETATM   27  C   UNL     1     -27.849   8.853   4.686  1.00  0.00     0.009 C 
ENDBRANCH  24  25
ENDBRANCH  23  24
ENDBRANCH  22  23
ENDBRANCH  20  22
ENDBRANCH   1  20
BRANCH  16  28
HETATM   28  O   UNL     1     -30.211  12.571  -3.451  1.00  0.00    -0.395 OA
HETATM   29  H   UNL     1     -30.602  13.086  -4.179  1.00  0.00     0.210 HD
ENDBRANCH  16  28
TORSDOF 6
ENDMDL
