MODEL 1
REMARK VINA RESULT:      -7.6      0.000      0.000
REMARK  4 active torsions:
REMARK  status: ('A' for Active; 'I' for Inactive)
REMARK    1  A    between atoms: C_2  and  C_14 
REMARK    2  A    between atoms: C_6  and  O_13 
REMARK    3  A    between atoms: C_8  and  O_12 
REMARK    4  A    between atoms: C_17  and  O_20 
ROOT
HETATM    1  C   UNL     1     -19.677  -3.733  -8.458  1.00  0.00     0.121 C 
HETATM    2  C   UNL     1     -20.567  -3.854  -7.232  1.00  0.00     0.169 C 
HETATM    3  O   UNL     1     -21.811  -3.163  -7.462  1.00  0.00    -0.340 OA
HETATM    4  C   UNL     1     -22.468  -3.553  -8.601  1.00  0.00     0.089 A 
HETATM    5  C   UNL     1     -23.836  -3.268  -8.628  1.00  0.00     0.074 A 
HETATM    6  C   UNL     1     -24.595  -3.678  -9.717  1.00  0.00     0.071 A 
HETATM    7  C   UNL     1     -24.011  -4.367 -10.775  1.00  0.00     0.074 A 
HETATM    8  C   UNL     1     -22.639  -4.623 -10.760  1.00  0.00     0.085 A 
HETATM    9  C   UNL     1     -21.852  -4.192  -9.685  1.00  0.00     0.076 A 
HETATM   10  C   UNL     1     -20.373  -4.342  -9.644  1.00  0.00     0.167 C 
HETATM   11  O   UNL     1     -19.720  -4.876 -10.535  1.00  0.00    -0.292 OA
ENDROOT
BRANCH   2  12
HETATM   12  C   UNL     1     -20.801  -5.245  -6.644  1.00  0.00    -0.028 A 
HETATM   13  C   UNL     1     -19.841  -6.270  -6.693  1.00  0.00     0.012 A 
HETATM   14  C   UNL     1     -20.086  -7.517  -6.107  1.00  0.00     0.037 A 
HETATM   15  C   UNL     1     -21.291  -7.746  -5.459  1.00  0.00     0.065 A 
HETATM   16  C   UNL     1     -22.258  -6.753  -5.394  1.00  0.00     0.037 A 
HETATM   17  C   UNL     1     -22.015  -5.508  -5.982  1.00  0.00     0.012 A 
BRANCH  15  18
HETATM   18  O   UNL     1     -21.560  -8.942  -4.865  1.00  0.00    -0.361 OA
HETATM   19  H   UNL     1     -20.935  -9.070  -4.133  1.00  0.00     0.217 HD
ENDBRANCH  15  18
ENDBRANCH   2  12
BRANCH   8  20
HETATM   20  O   UNL     1     -22.087  -5.301 -11.809  1.00  0.00    -0.360 OA
HETATM   21  H   UNL     1     -21.495  -5.996 -11.483  1.00  0.00     0.217 HD
ENDBRANCH   8  20
BRANCH   6  22
HETATM   22  O   UNL     1     -25.933  -3.429  -9.786  1.00  0.00    -0.361 OA
HETATM   23  H   UNL     1     -26.417  -4.250  -9.593  1.00  0.00     0.217 HD
ENDBRANCH   6  22
TORSDOF 4
ENDMDL
MODEL 2
REMARK VINA RESULT:      -6.3     14.136     16.363
REMARK  4 active torsions:
REMARK  status: ('A' for Active; 'I' for Inactive)
REMARK    1  A    between atoms: C_2  and  C_14 
REMARK    2  A    between atoms: C_6  and  O_13 
REMARK    3  A    between atoms: C_8  and  O_12 
REMARK    4  A    between atoms: C_17  and  O_20 
ROOT
HETATM    1  C   UNL     1     -24.790  12.102 -11.915  1.00  0.00     0.121 C 
HETATM    2  C   UNL     1     -24.290  10.848 -12.613  1.00  0.00     0.169 C 
HETATM    3  O   UNL     1     -22.881  10.974 -12.891  1.00  0.00    -0.340 OA
HETATM    4  C   UNL     1     -22.116  11.278 -11.793  1.00  0.00     0.089 A 
HETATM    5  C   UNL     1     -20.759  10.966 -11.906  1.00  0.00     0.074 A 
HETATM    6  C   UNL     1     -19.918  11.185 -10.823  1.00  0.00     0.071 A 
HETATM    7  C   UNL     1     -20.410  11.707  -9.632  1.00  0.00     0.074 A 
HETATM    8  C   UNL     1     -21.760  12.048  -9.531  1.00  0.00     0.085 A 
HETATM    9  C   UNL     1     -22.618  11.861 -10.622  1.00  0.00     0.076 A 
HETATM   10  C   UNL     1     -24.042  12.289 -10.623  1.00  0.00     0.167 C 
HETATM   11  O   UNL     1     -24.593  12.817  -9.663  1.00  0.00    -0.292 OA
ENDROOT
BRANCH   2  12
HETATM   12  C   UNL     1     -24.617   9.493 -11.986  1.00  0.00    -0.028 A 
HETATM   13  C   UNL     1     -25.707   9.290 -11.123  1.00  0.00     0.012 A 
HETATM   14  C   UNL     1     -25.989   8.023 -10.603  1.00  0.00     0.037 A 
HETATM   15  C   UNL     1     -25.187   6.945 -10.949  1.00  0.00     0.065 A 
HETATM   16  C   UNL     1     -24.104   7.114 -11.798  1.00  0.00     0.037 A 
HETATM   17  C   UNL     1     -23.820   8.381 -12.316  1.00  0.00     0.012 A 
BRANCH  15  18
HETATM   18  O   UNL     1     -25.439   5.693 -10.473  1.00  0.00    -0.361 OA
HETATM   19  H   UNL     1     -26.214   5.735  -9.888  1.00  0.00     0.217 HD
ENDBRANCH  15  18
ENDBRANCH   2  12
BRANCH   8  20
HETATM   20  O   UNL     1     -22.221  12.559  -8.352  1.00  0.00    -0.360 OA
HETATM   21  H   UNL     1     -21.524  12.526  -7.678  1.00  0.00     0.217 HD
ENDBRANCH   8  20
BRANCH   6  22
HETATM   22  O   UNL     1     -18.589  10.890 -10.883  1.00  0.00    -0.361 OA
HETATM   23  H   UNL     1     -18.479   9.924 -10.890  1.00  0.00     0.217 HD
ENDBRANCH   6  22
TORSDOF 4
ENDMDL
MODEL 3
REMARK VINA RESULT:      -6.3      6.646      9.458
REMARK  4 active torsions:
REMARK  status: ('A' for Active; 'I' for Inactive)
REMARK    1  A    between atoms: C_2  and  C_14 
REMARK    2  A    between atoms: C_6  and  O_13 
REMARK    3  A    between atoms: C_8  and  O_12 
REMARK    4  A    between atoms: C_17  and  O_20 
ROOT
HETATM    1  C   UNL     1     -19.431 -11.080   0.132  1.00  0.00     0.121 C 
HETATM    2  C   UNL     1     -20.801 -10.916   0.769  1.00  0.00     0.169 C 
HETATM    3  O   UNL     1     -21.160  -9.520   0.802  1.00  0.00    -0.340 OA
HETATM    4  C   UNL     1     -21.092  -8.893  -0.417  1.00  0.00     0.089 A 
HETATM    5  C   UNL     1     -21.841  -7.719  -0.526  1.00  0.00     0.074 A 
HETATM    6  C   UNL     1     -21.880  -7.047  -1.741  1.00  0.00     0.071 A 
HETATM    7  C   UNL     1     -21.186  -7.529  -2.846  1.00  0.00     0.074 A 
HETATM    8  C   UNL     1     -20.413  -8.686  -2.726  1.00  0.00     0.085 A 
HETATM    9  C   UNL     1     -20.338  -9.362  -1.502  1.00  0.00     0.076 A 
HETATM   10  C   UNL     1     -19.462 -10.541  -1.272  1.00  0.00     0.167 C 
HETATM   11  O   UNL     1     -18.750 -11.036  -2.139  1.00  0.00    -0.292 OA
ENDROOT
BRANCH   2  12
HETATM   12  C   UNL     1     -21.950 -11.775   0.241  1.00  0.00    -0.028 A 
HETATM   13  C   UNL     1     -23.159 -11.235  -0.229  1.00  0.00     0.012 A 
HETATM   14  C   UNL     1     -24.168 -12.060  -0.738  1.00  0.00     0.037 A 
HETATM   15  C   UNL     1     -23.973 -13.432  -0.788  1.00  0.00     0.065 A 
HETATM   16  C   UNL     1     -22.790 -13.995  -0.331  1.00  0.00     0.037 A 
HETATM   17  C   UNL     1     -21.782 -13.172   0.181  1.00  0.00     0.012 A 
BRANCH  15  18
HETATM   18  O   UNL     1     -24.927 -14.266  -1.290  1.00  0.00    -0.361 OA
HETATM   19  H   UNL     1     -24.620 -14.606  -2.146  1.00  0.00     0.217 HD
ENDBRANCH  15  18
ENDBRANCH   2  12
BRANCH   8  20
HETATM   20  O   UNL     1     -19.740  -9.142  -3.823  1.00  0.00    -0.360 OA
HETATM   21  H   UNL     1     -19.435 -10.051  -3.674  1.00  0.00     0.217 HD
ENDBRANCH   8  20
BRANCH   6  22
HETATM   22  O   UNL     1     -22.601  -5.902  -1.899  1.00  0.00    -0.361 OA
HETATM   23  H   UNL     1     -23.214  -5.808  -1.150  1.00  0.00     0.217 HD
ENDBRANCH   6  22
TORSDOF 4
ENDMDL
MODEL 4
REMARK VINA RESULT:      -6.2      5.127      7.168
REMARK  4 active torsions:
REMARK  status: ('A' for Active; 'I' for Inactive)
REMARK    1  A    between atoms: C_2  and  C_14 
REMARK    2  A    between atoms: C_6  and  O_13 
REMARK    3  A    between atoms: C_8  and  O_12 
REMARK    4  A    between atoms: C_17  and  O_20 
ROOT
HETATM    1  C   UNL     1     -18.860  -9.010  -5.116  1.00  0.00     0.121 C 
HETATM    2  C   UNL     1     -19.290 -10.138  -4.192  1.00  0.00     0.169 C 
HETATM    3  O   UNL     1     -19.491  -9.627  -2.860  1.00  0.00    -0.340 OA
HETATM    4  C   UNL     1     -20.354  -8.563  -2.790  1.00  0.00     0.089 A 
HETATM    5  C   UNL     1     -20.923  -8.337  -1.533  1.00  0.00     0.074 A 
HETATM    6  C   UNL     1     -21.853  -7.317  -1.381  1.00  0.00     0.071 A 
HETATM    7  C   UNL     1     -22.225  -6.523  -2.460  1.00  0.00     0.074 A 
HETATM    8  C   UNL     1     -21.633  -6.730  -3.708  1.00  0.00     0.085 A 
HETATM    9  C   UNL     1     -20.672  -7.735  -3.875  1.00  0.00     0.076 A 
HETATM   10  C   UNL     1     -19.928  -7.951  -5.145  1.00  0.00     0.167 C 
HETATM   11  O   UNL     1     -20.111  -7.287  -6.159  1.00  0.00    -0.292 OA
ENDROOT
BRANCH   2  12
HETATM   12  C   UNL     1     -20.452 -11.028  -4.631  1.00  0.00    -0.028 A 
HETATM   13  C   UNL     1     -21.390 -11.563  -3.732  1.00  0.00     0.012 A 
HETATM   14  C   UNL     1     -22.460 -12.342  -4.184  1.00  0.00     0.037 A 
HETATM   15  C   UNL     1     -22.606 -12.585  -5.542  1.00  0.00     0.065 A 
HETATM   16  C   UNL     1     -21.696 -12.071  -6.454  1.00  0.00     0.037 A 
HETATM   17  C   UNL     1     -20.625 -11.295  -6.002  1.00  0.00     0.012 A 
BRANCH  15  18
HETATM   18  O   UNL     1     -23.643 -13.328  -6.022  1.00  0.00    -0.361 OA
HETATM   19  H   UNL     1     -23.594 -13.336  -6.992  1.00  0.00     0.217 HD
ENDBRANCH  15  18
ENDBRANCH   2  12
BRANCH   8  20
HETATM   20  O   UNL     1     -22.013  -5.939  -4.754  1.00  0.00    -0.360 OA
HETATM   21  H   UNL     1     -22.811  -5.439  -4.521  1.00  0.00     0.217 HD
ENDBRANCH   8  20
BRANCH   6  22
HETATM   22  O   UNL     1     -22.440  -7.063  -0.178  1.00  0.00    -0.361 OA
HETATM   23  H   UNL     1     -22.217  -7.779   0.441  1.00  0.00     0.217 HD
ENDBRANCH   6  22
TORSDOF 4
ENDMDL
MODEL 5
REMARK VINA RESULT:      -6.2     13.946     15.669
REMARK  4 active torsions:
REMARK  status: ('A' for Active; 'I' for Inactive)
REMARK    1  A    between atoms: C_2  and  C_14 
REMARK    2  A    between atoms: C_6  and  O_13 
REMARK    3  A    between atoms: C_8  and  O_12 
REMARK    4  A    between atoms: C_17  and  O_20 
ROOT
HETATM    1  C   UNL     1     -24.578   6.277  -2.524  1.00  0.00     0.121 C 
HETATM    2  C   UNL     1     -23.560   6.859  -1.557  1.00  0.00     0.169 C 
HETATM    3  O   UNL     1     -22.517   7.529  -2.292  1.00  0.00    -0.340 OA
HETATM    4  C   UNL     1     -22.971   8.476  -3.176  1.00  0.00     0.089 A 
HETATM    5  C   UNL     1     -22.031   9.438  -3.555  1.00  0.00     0.074 A 
HETATM    6  C   UNL     1     -22.417  10.469  -4.401  1.00  0.00     0.071 A 
HETATM    7  C   UNL     1     -23.723  10.556  -4.871  1.00  0.00     0.074 A 
HETATM    8  C   UNL     1     -24.653   9.577  -4.515  1.00  0.00     0.085 A 
HETATM    9  C   UNL     1     -24.276   8.513  -3.687  1.00  0.00     0.076 A 
HETATM   10  C   UNL     1     -25.180   7.384  -3.345  1.00  0.00     0.167 C 
HETATM   11  O   UNL     1     -26.339   7.300  -3.738  1.00  0.00    -0.292 OA
ENDROOT
BRANCH   2  12
HETATM   12  C   UNL     1     -24.071   7.719  -0.402  1.00  0.00    -0.028 A 
HETATM   13  C   UNL     1     -25.437   7.918  -0.140  1.00  0.00     0.012 A 
HETATM   14  C   UNL     1     -25.858   8.684   0.953  1.00  0.00     0.037 A 
HETATM   15  C   UNL     1     -24.915   9.250   1.798  1.00  0.00     0.065 A 
HETATM   16  C   UNL     1     -23.559   9.072   1.565  1.00  0.00     0.037 A 
HETATM   17  C   UNL     1     -23.138   8.309   0.471  1.00  0.00     0.012 A 
BRANCH  15  18
HETATM   18  O   UNL     1     -25.287   9.991   2.880  1.00  0.00    -0.361 OA
HETATM   19  H   UNL     1     -25.861  10.713   2.577  1.00  0.00     0.217 HD
ENDBRANCH  15  18
ENDBRANCH   2  12
BRANCH   8  20
HETATM   20  O   UNL     1     -25.929   9.682  -4.988  1.00  0.00    -0.360 OA
HETATM   21  H   UNL     1     -26.021  10.485  -5.525  1.00  0.00     0.217 HD
ENDBRANCH   8  20
BRANCH   6  22
HETATM   22  O   UNL     1     -21.539  11.434  -4.794  1.00  0.00    -0.361 OA
HETATM   23  H   UNL     1     -20.632  11.124  -4.628  1.00  0.00     0.217 HD
ENDBRANCH   6  22
TORSDOF 4
ENDMDL
MODEL 6
REMARK VINA RESULT:      -6.1      5.763      8.894
REMARK  4 active torsions:
REMARK  status: ('A' for Active; 'I' for Inactive)
REMARK    1  A    between atoms: C_2  and  C_14 
REMARK    2  A    between atoms: C_6  and  O_13 
REMARK    3  A    between atoms: C_8  and  O_12 
REMARK    4  A    between atoms: C_17  and  O_20 
ROOT
HETATM    1  C   UNL     1     -20.121 -10.803  -5.395  1.00  0.00     0.121 C 
HETATM    2  C   UNL     1     -20.773 -10.685  -4.027  1.00  0.00     0.169 C 
HETATM    3  O   UNL     1     -20.020 -11.445  -3.061  1.00  0.00    -0.340 OA
HETATM    4  C   UNL     1     -18.686 -11.128  -3.012  1.00  0.00     0.089 A 
HETATM    5  C   UNL     1     -18.032 -11.481  -1.829  1.00  0.00     0.074 A 
HETATM    6  C   UNL     1     -16.693 -11.148  -1.666  1.00  0.00     0.071 A 
HETATM    7  C   UNL     1     -16.001 -10.468  -2.662  1.00  0.00     0.074 A 
HETATM    8  C   UNL     1     -16.648 -10.142  -3.856  1.00  0.00     0.085 A 
HETATM    9  C   UNL     1     -17.989 -10.496  -4.051  1.00  0.00     0.076 A 
HETATM   10  C   UNL     1     -18.716 -10.271  -5.329  1.00  0.00     0.167 C 
HETATM   11  O   UNL     1     -18.212  -9.736  -6.310  1.00  0.00    -0.292 OA
ENDROOT
BRANCH   2  12
HETATM   12  C   UNL     1     -21.105  -9.288  -3.503  1.00  0.00    -0.028 A 
HETATM   13  C   UNL     1     -21.273  -8.174  -4.343  1.00  0.00     0.012 A 
HETATM   14  C   UNL     1     -21.613  -6.922  -3.821  1.00  0.00     0.037 A 
HETATM   15  C   UNL     1     -21.797  -6.775  -2.453  1.00  0.00     0.065 A 
HETATM   16  C   UNL     1     -21.637  -7.856  -1.599  1.00  0.00     0.037 A 
HETATM   17  C   UNL     1     -21.294  -9.107  -2.120  1.00  0.00     0.012 A 
BRANCH  15  18
HETATM   18  O   UNL     1     -22.142  -5.574  -1.910  1.00  0.00    -0.361 OA
HETATM   19  H   UNL     1     -22.711  -5.736  -1.140  1.00  0.00     0.217 HD
ENDBRANCH  15  18
ENDBRANCH   2  12
BRANCH   8  20
HETATM   20  O   UNL     1     -15.950  -9.474  -4.820  1.00  0.00    -0.360 OA
HETATM   21  H   UNL     1     -15.797 -10.053  -5.584  1.00  0.00     0.217 HD
ENDBRANCH   8  20
BRANCH   6  22
HETATM   22  O   UNL     1     -16.014 -11.465  -0.529  1.00  0.00    -0.361 OA
HETATM   23  H   UNL     1     -15.270 -12.048  -0.757  1.00  0.00     0.217 HD
ENDBRANCH   6  22
TORSDOF 4
ENDMDL
MODEL 7
REMARK VINA RESULT:      -5.9      6.392      8.585
REMARK  4 active torsions:
REMARK  status: ('A' for Active; 'I' for Inactive)
REMARK    1  A    between atoms: C_2  and  C_14 
REMARK    2  A    between atoms: C_6  and  O_13 
REMARK    3  A    between atoms: C_8  and  O_12 
REMARK    4  A    between atoms: C_17  and  O_20 
ROOT
HETATM    1  C   UNL     1     -21.688 -11.397  -3.421  1.00  0.00     0.121 C 
HETATM    2  C   UNL     1     -20.644 -10.516  -4.088  1.00  0.00     0.169 C 
HETATM    3  O   UNL     1     -21.148  -9.171  -4.210  1.00  0.00    -0.340 OA
HETATM    4  C   UNL     1     -21.588  -8.626  -3.030  1.00  0.00     0.089 A 
HETATM    5  C   UNL     1     -21.647  -7.230  -3.003  1.00  0.00     0.074 A 
HETATM    6  C   UNL     1     -22.026  -6.588  -1.832  1.00  0.00     0.071 A 
HETATM    7  C   UNL     1     -22.342  -7.315  -0.689  1.00  0.00     0.074 A 
HETATM    8  C   UNL     1     -22.312  -8.711  -0.727  1.00  0.00     0.085 A 
HETATM    9  C   UNL     1     -21.961  -9.377  -1.908  1.00  0.00     0.076 A 
HETATM   10  C   UNL     1     -22.000 -10.857  -2.053  1.00  0.00     0.167 C 
HETATM   11  O   UNL     1     -22.318 -11.619  -1.147  1.00  0.00    -0.292 OA
ENDROOT
BRANCH   2  12
HETATM   12  C   UNL     1     -19.222 -10.531  -3.529  1.00  0.00    -0.028 A 
HETATM   13  C   UNL     1     -18.305  -9.486  -3.736  1.00  0.00     0.012 A 
HETATM   14  C   UNL     1     -17.025  -9.527  -3.172  1.00  0.00     0.037 A 
HETATM   15  C   UNL     1     -16.654 -10.611  -2.390  1.00  0.00     0.065 A 
HETATM   16  C   UNL     1     -17.537 -11.657  -2.168  1.00  0.00     0.037 A 
HETATM   17  C   UNL     1     -18.815 -11.618  -2.733  1.00  0.00     0.012 A 
BRANCH  15  18
HETATM   18  O   UNL     1     -15.422 -10.679  -1.813  1.00  0.00    -0.361 OA
HETATM   19  H   UNL     1     -15.460 -11.313  -1.078  1.00  0.00     0.217 HD
ENDBRANCH  15  18
ENDBRANCH   2  12
BRANCH   8  20
HETATM   20  O   UNL     1     -22.626  -9.405   0.406  1.00  0.00    -0.360 OA
HETATM   21  H   UNL     1     -21.830  -9.546   0.942  1.00  0.00     0.217 HD
ENDBRANCH   8  20
BRANCH   6  22
HETATM   22  O   UNL     1     -22.093  -5.229  -1.754  1.00  0.00    -0.361 OA
HETATM   23  H   UNL     1     -22.115  -4.966  -0.818  1.00  0.00     0.217 HD
ENDBRANCH   6  22
TORSDOF 4
ENDMDL
MODEL 8
REMARK VINA RESULT:      -5.8      6.191      8.399
REMARK  4 active torsions:
REMARK  status: ('A' for Active; 'I' for Inactive)
REMARK    1  A    between atoms: C_2  and  C_14 
REMARK    2  A    between atoms: C_6  and  O_13 
REMARK    3  A    between atoms: C_8  and  O_12 
REMARK    4  A    between atoms: C_17  and  O_20 
ROOT
HETATM    1  C   UNL     1     -21.158  -9.303  -5.153  1.00  0.00     0.121 C 
HETATM    2  C   UNL     1     -20.009  -8.503  -4.562  1.00  0.00     0.169 C 
HETATM    3  O   UNL     1     -20.482  -7.724  -3.445  1.00  0.00    -0.340 OA
HETATM    4  C   UNL     1     -21.134  -8.456  -2.485  1.00  0.00     0.089 A 
HETATM    5  C   UNL     1     -21.198  -7.860  -1.222  1.00  0.00     0.074 A 
HETATM    6  C   UNL     1     -21.789  -8.552  -0.173  1.00  0.00     0.071 A 
HETATM    7  C   UNL     1     -22.312  -9.827  -0.363  1.00  0.00     0.074 A 
HETATM    8  C   UNL     1     -22.274 -10.408  -1.633  1.00  0.00     0.085 A 
HETATM    9  C   UNL     1     -21.709  -9.714  -2.710  1.00  0.00     0.076 A 
HETATM   10  C   UNL     1     -21.720 -10.225  -4.106  1.00  0.00     0.167 C 
HETATM   11  O   UNL     1     -22.201 -11.305  -4.429  1.00  0.00    -0.292 OA
ENDROOT
BRANCH   2  12
HETATM   12  C   UNL     1     -18.716  -9.242  -4.219  1.00  0.00    -0.028 A 
HETATM   13  C   UNL     1     -18.108  -9.179  -2.954  1.00  0.00     0.012 A 
HETATM   14  C   UNL     1     -16.944  -9.903  -2.676  1.00  0.00     0.037 A 
HETATM   15  C   UNL     1     -16.382 -10.704  -3.659  1.00  0.00     0.065 A 
HETATM   16  C   UNL     1     -16.959 -10.787  -4.918  1.00  0.00     0.037 A 
HETATM   17  C   UNL     1     -18.121 -10.061  -5.198  1.00  0.00     0.012 A 
BRANCH  15  18
HETATM   18  O   UNL     1     -15.257 -11.435  -3.421  1.00  0.00    -0.361 OA
HETATM   19  H   UNL     1     -14.808 -11.065  -2.643  1.00  0.00     0.217 HD
ENDBRANCH  15  18
ENDBRANCH   2  12
BRANCH   8  20
HETATM   20  O   UNL     1     -22.794 -11.659  -1.797  1.00  0.00    -0.360 OA
HETATM   21  H   UNL     1     -22.300 -12.139  -2.480  1.00  0.00     0.217 HD
ENDBRANCH   8  20
BRANCH   6  22
HETATM   22  O   UNL     1     -21.870  -8.017   1.078  1.00  0.00    -0.361 OA
HETATM   23  H   UNL     1     -22.013  -7.058   1.002  1.00  0.00     0.217 HD
ENDBRANCH   6  22
TORSDOF 4
ENDMDL
MODEL 9
REMARK VINA RESULT:      -5.7      4.437      7.339
REMARK  4 active torsions:
REMARK  status: ('A' for Active; 'I' for Inactive)
REMARK    1  A    between atoms: C_2  and  C_14 
REMARK    2  A    between atoms: C_6  and  O_13 
REMARK    3  A    between atoms: C_8  and  O_12 
REMARK    4  A    between atoms: C_17  and  O_20 
ROOT
HETATM    1  C   UNL     1     -21.509 -10.834  -3.939  1.00  0.00     0.121 C 
HETATM    2  C   UNL     1     -20.268 -10.618  -4.789  1.00  0.00     0.169 C 
HETATM    3  O   UNL     1     -20.444  -9.455  -5.623  1.00  0.00    -0.340 OA
HETATM    4  C   UNL     1     -20.789  -8.318  -4.936  1.00  0.00     0.089 A 
HETATM    5  C   UNL     1     -20.527  -7.117  -5.600  1.00  0.00     0.074 A 
HETATM    6  C   UNL     1     -20.789  -5.914  -4.959  1.00  0.00     0.071 A 
HETATM    7  C   UNL     1     -21.305  -5.891  -3.668  1.00  0.00     0.074 A 
HETATM    8  C   UNL     1     -21.594  -7.092  -3.017  1.00  0.00     0.085 A 
HETATM    9  C   UNL     1     -21.364  -8.315  -3.658  1.00  0.00     0.076 A 
HETATM   10  C   UNL     1     -21.737  -9.628  -3.069  1.00  0.00     0.167 C 
HETATM   11  O   UNL     1     -22.254  -9.754  -1.964  1.00  0.00    -0.292 OA
ENDROOT
BRANCH   2  12
HETATM   12  C   UNL     1     -18.908 -10.604  -4.092  1.00  0.00    -0.028 A 
HETATM   13  C   UNL     1     -17.827  -9.823  -4.534  1.00  0.00     0.012 A 
HETATM   14  C   UNL     1     -16.612  -9.814  -3.841  1.00  0.00     0.037 A 
HETATM   15  C   UNL     1     -16.470 -10.581  -2.694  1.00  0.00     0.065 A 
HETATM   16  C   UNL     1     -17.519 -11.363  -2.233  1.00  0.00     0.037 A 
HETATM   17  C   UNL     1     -18.733 -11.374  -2.927  1.00  0.00     0.012 A 
BRANCH  15  18
HETATM   18  O   UNL     1     -15.307 -10.588  -1.985  1.00  0.00    -0.361 OA
HETATM   19  H   UNL     1     -15.406  -9.992  -1.224  1.00  0.00     0.217 HD
ENDBRANCH  15  18
ENDBRANCH   2  12
BRANCH   8  20
HETATM   20  O   UNL     1     -22.100  -7.045  -1.750  1.00  0.00    -0.360 OA
HETATM   21  H   UNL     1     -21.971  -7.899  -1.307  1.00  0.00     0.217 HD
ENDBRANCH   8  20
BRANCH   6  22
HETATM   22  O   UNL     1     -20.545  -4.717  -5.563  1.00  0.00    -0.361 OA
HETATM   23  H   UNL     1     -19.597  -4.655  -5.772  1.00  0.00     0.217 HD
ENDBRANCH   6  22
TORSDOF 4
ENDMDL
