MODEL 1
REMARK VINA RESULT:      -7.3      0.000      0.000
REMARK  21 active torsions:
REMARK  status: ('A' for Active; 'I' for Inactive)
REMARK    1  A    between atoms: CB_2  and  CA_4 
REMARK    2  A    between atoms: CA_4  and  C_5 
REMARK    3  A    between atoms: CA_4  and  N_20 
REMARK       I    between atoms: C_5  and  N_7 
REMARK    4  A    between atoms: N_7  and  CA_8 
REMARK    5  A    between atoms: CA_8  and  CB_9 
REMARK    6  A    between atoms: CA_8  and  C_17 
REMARK    7  A    between atoms: CB_9  and  CG_10 
REMARK    8  A    between atoms: CZ_13  and  OH_16 
REMARK    9  A    between atoms: C_17  and  OXT_19 
REMARK       I    between atoms: N_20  and  C_21 
REMARK   10  A    between atoms: C_21  and  CA_23 
REMARK   11  A    between atoms: CA_23  and  CB_24 
REMARK   12  A    between atoms: CA_23  and  N_28 
REMARK   13  A    between atoms: CB_24  and  CG_25 
REMARK   14  A    between atoms: CG_25  and  OD2_27 
REMARK       I    between atoms: N_28  and  C_29 
REMARK   15  A    between atoms: C_29  and  CA_31 
REMARK   16  A    between atoms: CA_31  and  CB_32 
REMARK   17  A    between atoms: CA_31  and  N_37 
REMARK   18  A    between atoms: CB_32  and  CG_33 
REMARK   19  A    between atoms: CG_33  and  CD_34 
REMARK   20  A    between atoms: CD_34  and  CE_35 
REMARK   21  A    between atoms: CE_35  and  NZ_36 
REMARK       I    between atoms: N_37  and  C_47 
ROOT
ATOM      1  N   LYS A   1     -20.980  -9.479  -4.025  1.00  0.00    -0.346 N 
ATOM      2  C   LYS A   1     -21.718 -10.600  -3.711  1.00  0.00     0.241 C 
ATOM      3  O   LYS A   1     -22.931 -10.557  -3.533  1.00  0.00    -0.271 OA
ATOM      4  H   LYS A   1     -19.967  -9.561  -3.978  1.00  0.00     0.163 HD
ENDROOT
BRANCH   2   5
ATOM      5  CA  LYS A   1     -20.899 -11.910  -3.558  1.00  0.00     0.186 C 
BRANCH   5   6
ATOM      6  CB  LYS A   1     -20.974 -12.768  -4.825  1.00  0.00     0.144 C 
BRANCH   6   7
ATOM      7  CG  LYS A   1     -19.877 -12.401  -5.784  1.00  0.00     0.141 C 
ATOM      8  OD1 LYS A   1     -18.885 -13.087  -5.981  1.00  0.00    -0.650 OA
BRANCH   7   9
ATOM      9  OD2 LYS A   1     -20.067 -11.215  -6.408  1.00  0.00    -0.776 OA
ATOM     10  HD2 LYS A   1     -20.102 -10.445  -5.804  1.00  0.00     0.167 HD
ENDBRANCH   7   9
ENDBRANCH   6   7
ENDBRANCH   5   6
BRANCH   5  11
ATOM     11  N   LYS A   1     -19.539 -11.583  -3.104  1.00  0.00    -0.346 N 
ATOM     12  C   LYS A   1     -18.808 -12.361  -2.241  1.00  0.00     0.241 C 
ATOM     13  O   LYS A   1     -19.263 -13.404  -1.775  1.00  0.00    -0.271 OA
ATOM     14  H   LYS A   1     -19.117 -10.721  -3.454  1.00  0.00     0.163 HD
BRANCH  12  15
ATOM     15  CA  LYS A   1     -17.387 -11.837  -1.927  1.00  0.00     0.176 C 
BRANCH  15  16
ATOM     16  CB  LYS A   1     -17.286 -10.354  -2.308  1.00  0.00     0.035 C 
BRANCH  16  17
ATOM     17  CG  LYS A   1     -15.954  -9.949  -2.951  1.00  0.00     0.004 C 
BRANCH  17  18
ATOM     18  CD  LYS A   1     -15.554 -10.848  -4.126  1.00  0.00     0.030 C 
BRANCH  18  19
ATOM     19  CE  LYS A   1     -15.763 -10.189  -5.489  1.00  0.00     0.267 C 
BRANCH  19  20
ATOM     20  NZ  LYS A   1     -17.128 -10.350  -5.972  1.00  0.00     0.078 N 
ATOM     21  HZ1 LYS A   1     -17.708  -9.589  -5.617  1.00  0.00     0.312 HD
ATOM     22  HZ2 LYS A   1     -17.522 -11.207  -5.587  1.00  0.00     0.312 HD
ENDBRANCH  19  20
ENDBRANCH  18  19
ENDBRANCH  17  18
ENDBRANCH  16  17
ENDBRANCH  15  16
BRANCH  15  23
ATOM     23  N   LYS A   1     -17.072 -12.014  -0.511  1.00  0.00    -0.348 N 
HETATM   24  C   UNK A   0     -15.897 -12.581  -0.087  1.00  0.00     0.214 C 
HETATM   25  O   UNK A   0     -15.074 -13.059  -0.862  1.00  0.00    -0.274 OA
HETATM   26  C   UNK A   0     -15.680 -12.527   1.405  1.00  0.00     0.117 C 
ATOM     27  H   LYS A   1     -17.761 -11.727   0.174  1.00  0.00     0.163 HD
ENDBRANCH  15  23
ENDBRANCH  12  15
ENDBRANCH   5  11
ENDBRANCH   2   5
BRANCH   1  28
ATOM     28  CA  LYS A   1     -21.567  -8.141  -4.150  1.00  0.00     0.180 C 
BRANCH  28  29
ATOM     29  CB  LYS A   1     -21.110  -7.222  -2.979  1.00  0.00     0.009 C 
ATOM     30  CG1 LYS A   1     -22.286  -6.480  -2.331  1.00  0.00     0.012 C 
ATOM     31  CG2 LYS A   1     -20.342  -7.966  -1.883  1.00  0.00     0.012 C 
ENDBRANCH  28  29
BRANCH  28  32
ATOM     32  C   LYS A   1     -21.040  -7.494  -5.450  1.00  0.00     0.241 C 
ATOM     33  O   LYS A   1     -20.080  -7.966  -6.061  1.00  0.00    -0.271 OA
ATOM     34  N   LYS A   1     -21.637  -6.318  -5.824  1.00  0.00    -0.345 N 
ATOM     35  H   LYS A   1     -22.489  -6.008  -5.372  1.00  0.00     0.163 HD
BRANCH  34  36
ATOM     36  CA  LYS A   1     -21.117  -5.477  -6.910  1.00  0.00     0.186 C 
BRANCH  36  37
ATOM     37  CB  LYS A   1     -22.148  -4.523  -7.530  1.00  0.00     0.074 C 
BRANCH  37  38
ATOM     38  CG  LYS A   1     -22.098  -4.382  -9.029  1.00  0.00    -0.056 A 
ATOM     39  CD1 LYS A   1     -23.253  -4.537  -9.807  1.00  0.00     0.010 A 
ATOM     40  CE1 LYS A   1     -23.210  -4.320 -11.185  1.00  0.00     0.037 A 
ATOM     41  CZ  LYS A   1     -22.006  -3.954 -11.784  1.00  0.00     0.065 A 
ATOM     42  CE2 LYS A   1     -20.849  -3.837 -11.036  1.00  0.00     0.037 A 
ATOM     43  CD2 LYS A   1     -20.891  -4.050  -9.660  1.00  0.00     0.010 A 
BRANCH  41  44
ATOM     44  OH  LYS A   1     -21.934  -3.693 -13.121  1.00  0.00    -0.361 OA
ATOM     45  HH  LYS A   1     -21.335  -4.339 -13.528  1.00  0.00     0.217 HD
ENDBRANCH  41  44
ENDBRANCH  37  38
ENDBRANCH  36  37
BRANCH  36  46
ATOM     46  C   LYS A   1     -19.856  -4.735  -6.435  1.00  0.00     0.163 C 
ATOM     47  O   LYS A   1     -18.901  -4.485  -7.159  1.00  0.00    -0.648 OA
BRANCH  46  48
ATOM     48  OXT LYS A   1     -19.896  -4.314  -5.147  1.00  0.00    -0.775 OA
ATOM     49  HXT LYS A   1     -19.493  -4.918  -4.493  1.00  0.00     0.167 HD
ENDBRANCH  46  48
ENDBRANCH  36  46
ENDBRANCH  34  36
ENDBRANCH  28  32
ENDBRANCH   1  28
TORSDOF 21
ENDMDL
MODEL 2
REMARK VINA RESULT:      -7.1      2.242      4.807
REMARK  21 active torsions:
REMARK  status: ('A' for Active; 'I' for Inactive)
REMARK    1  A    between atoms: CB_2  and  CA_4 
REMARK    2  A    between atoms: CA_4  and  C_5 
REMARK    3  A    between atoms: CA_4  and  N_20 
REMARK       I    between atoms: C_5  and  N_7 
REMARK    4  A    between atoms: N_7  and  CA_8 
REMARK    5  A    between atoms: CA_8  and  CB_9 
REMARK    6  A    between atoms: CA_8  and  C_17 
REMARK    7  A    between atoms: CB_9  and  CG_10 
REMARK    8  A    between atoms: CZ_13  and  OH_16 
REMARK    9  A    between atoms: C_17  and  OXT_19 
REMARK       I    between atoms: N_20  and  C_21 
REMARK   10  A    between atoms: C_21  and  CA_23 
REMARK   11  A    between atoms: CA_23  and  CB_24 
REMARK   12  A    between atoms: CA_23  and  N_28 
REMARK   13  A    between atoms: CB_24  and  CG_25 
REMARK   14  A    between atoms: CG_25  and  OD2_27 
REMARK       I    between atoms: N_28  and  C_29 
REMARK   15  A    between atoms: C_29  and  CA_31 
REMARK   16  A    between atoms: CA_31  and  CB_32 
REMARK   17  A    between atoms: CA_31  and  N_37 
REMARK   18  A    between atoms: CB_32  and  CG_33 
REMARK   19  A    between atoms: CG_33  and  CD_34 
REMARK   20  A    between atoms: CD_34  and  CE_35 
REMARK   21  A    between atoms: CE_35  and  NZ_36 
REMARK       I    between atoms: N_37  and  C_47 
ROOT
ATOM      1  N   LYS A   1     -20.065 -10.071  -0.930  1.00  0.00    -0.346 N 
ATOM      2  C   LYS A   1     -19.561 -11.353  -0.981  1.00  0.00     0.241 C 
ATOM      3  O   LYS A   1     -20.285 -12.337  -1.098  1.00  0.00    -0.271 OA
ATOM      4  H   LYS A   1     -19.424  -9.331  -0.651  1.00  0.00     0.163 HD
ENDROOT
BRANCH   2   5
ATOM      5  CA  LYS A   1     -18.019 -11.464  -0.837  1.00  0.00     0.186 C 
BRANCH   5   6
ATOM      6  CB  LYS A   1     -17.627 -12.568   0.151  1.00  0.00     0.144 C 
BRANCH   6   7
ATOM      7  CG  LYS A   1     -16.341 -12.226   0.849  1.00  0.00     0.141 C 
ATOM      8  OD1 LYS A   1     -15.466 -11.526   0.362  1.00  0.00    -0.650 OA
BRANCH   7   9
ATOM      9  OD2 LYS A   1     -16.215 -12.786   2.075  1.00  0.00    -0.776 OA
ATOM     10  HD2 LYS A   1     -17.039 -12.782   2.604  1.00  0.00     0.167 HD
ENDBRANCH   7   9
ENDBRANCH   6   7
ENDBRANCH   5   6
BRANCH   5  11
ATOM     11  N   LYS A   1     -17.413 -11.576  -2.172  1.00  0.00    -0.346 N 
ATOM     12  C   LYS A   1     -17.157 -10.505  -2.992  1.00  0.00     0.241 C 
ATOM     13  O   LYS A   1     -17.436  -9.356  -2.654  1.00  0.00    -0.271 OA
ATOM     14  H   LYS A   1     -17.170 -12.509  -2.506  1.00  0.00     0.163 HD
BRANCH  12  15
ATOM     15  CA  LYS A   1     -16.485 -10.855  -4.340  1.00  0.00     0.176 C 
BRANCH  15  16
ATOM     16  CB  LYS A   1     -15.168 -11.601  -4.084  1.00  0.00     0.035 C 
BRANCH  16  17
ATOM     17  CG  LYS A   1     -14.312 -11.834  -5.334  1.00  0.00     0.004 C 
BRANCH  17  18
ATOM     18  CD  LYS A   1     -13.556 -13.167  -5.307  1.00  0.00     0.030 C 
BRANCH  18  19
ATOM     19  CE  LYS A   1     -13.839 -13.996  -4.055  1.00  0.00     0.267 C 
BRANCH  19  20
ATOM     20  NZ  LYS A   1     -12.687 -14.052  -3.164  1.00  0.00     0.078 N 
ATOM     21  HZ1 LYS A   1     -12.268 -13.125  -3.089  1.00  0.00     0.312 HD
ATOM     22  HZ2 LYS A   1     -11.973 -14.651  -3.575  1.00  0.00     0.312 HD
ENDBRANCH  19  20
ENDBRANCH  18  19
ENDBRANCH  17  18
ENDBRANCH  16  17
ENDBRANCH  15  16
BRANCH  15  23
ATOM     23  N   LYS A   1     -17.373 -11.672  -5.164  1.00  0.00    -0.348 N 
HETATM   24  C   UNK A   0     -18.025 -11.168  -6.262  1.00  0.00     0.214 C 
HETATM   25  O   UNK A   0     -17.979  -9.982  -6.573  1.00  0.00    -0.274 OA
HETATM   26  C   UNK A   0     -18.762 -12.200  -7.079  1.00  0.00     0.117 C 
ATOM     27  H   LYS A   1     -17.526 -12.637  -4.895  1.00  0.00     0.163 HD
ENDBRANCH  15  23
ENDBRANCH  12  15
ENDBRANCH   5  11
ENDBRANCH   2   5
BRANCH   1  28
ATOM     28  CA  LYS A   1     -21.499  -9.769  -0.986  1.00  0.00     0.180 C 
BRANCH  28  29
ATOM     29  CB  LYS A   1     -21.864  -8.619  -0.002  1.00  0.00     0.009 C 
ATOM     30  CG1 LYS A   1     -23.363  -8.588   0.321  1.00  0.00     0.012 C 
ATOM     31  CG2 LYS A   1     -21.083  -8.670   1.314  1.00  0.00     0.012 C 
ENDBRANCH  28  29
BRANCH  28  32
ATOM     32  C   LYS A   1     -21.837  -9.260  -2.405  1.00  0.00     0.241 C 
ATOM     33  O   LYS A   1     -22.362  -9.995  -3.244  1.00  0.00    -0.271 OA
ATOM     34  N   LYS A   1     -21.432  -7.986  -2.702  1.00  0.00    -0.345 N 
ATOM     35  H   LYS A   1     -21.103  -7.367  -1.971  1.00  0.00     0.163 HD
BRANCH  34  36
ATOM     36  CA  LYS A   1     -21.491  -7.433  -4.062  1.00  0.00     0.186 C 
BRANCH  36  37
ATOM     37  CB  LYS A   1     -21.162  -5.936  -4.159  1.00  0.00     0.074 C 
BRANCH  37  38
ATOM     38  CG  LYS A   1     -20.987  -5.388  -5.552  1.00  0.00    -0.056 A 
ATOM     39  CD1 LYS A   1     -19.730  -4.970  -6.009  1.00  0.00     0.010 A 
ATOM     40  CE1 LYS A   1     -19.566  -4.546  -7.328  1.00  0.00     0.037 A 
ATOM     41  CZ  LYS A   1     -20.663  -4.532  -8.186  1.00  0.00     0.065 A 
ATOM     42  CE2 LYS A   1     -21.918  -4.902  -7.738  1.00  0.00     0.037 A 
ATOM     43  CD2 LYS A   1     -22.084  -5.331  -6.423  1.00  0.00     0.010 A 
BRANCH  41  44
ATOM     44  OH  LYS A   1     -20.534  -4.163  -9.493  1.00  0.00    -0.361 OA
ATOM     45  HH  LYS A   1     -19.953  -3.386  -9.537  1.00  0.00     0.217 HD
ENDBRANCH  41  44
ENDBRANCH  37  38
ENDBRANCH  36  37
BRANCH  36  46
ATOM     46  C   LYS A   1     -20.619  -8.279  -5.006  1.00  0.00     0.163 C 
ATOM     47  O   LYS A   1     -21.042  -8.822  -6.017  1.00  0.00    -0.648 OA
BRANCH  46  48
ATOM     48  OXT LYS A   1     -19.307  -8.336  -4.668  1.00  0.00    -0.775 OA
ATOM     49  HXT LYS A   1     -18.678  -8.093  -5.375  1.00  0.00     0.167 HD
ENDBRANCH  46  48
ENDBRANCH  36  46
ENDBRANCH  34  36
ENDBRANCH  28  32
ENDBRANCH   1  28
TORSDOF 21
ENDMDL
MODEL 3
REMARK VINA RESULT:      -6.9      2.514      8.649
REMARK  21 active torsions:
REMARK  status: ('A' for Active; 'I' for Inactive)
REMARK    1  A    between atoms: CB_2  and  CA_4 
REMARK    2  A    between atoms: CA_4  and  C_5 
REMARK    3  A    between atoms: CA_4  and  N_20 
REMARK       I    between atoms: C_5  and  N_7 
REMARK    4  A    between atoms: N_7  and  CA_8 
REMARK    5  A    between atoms: CA_8  and  CB_9 
REMARK    6  A    between atoms: CA_8  and  C_17 
REMARK    7  A    between atoms: CB_9  and  CG_10 
REMARK    8  A    between atoms: CZ_13  and  OH_16 
REMARK    9  A    between atoms: C_17  and  OXT_19 
REMARK       I    between atoms: N_20  and  C_21 
REMARK   10  A    between atoms: C_21  and  CA_23 
REMARK   11  A    between atoms: CA_23  and  CB_24 
REMARK   12  A    between atoms: CA_23  and  N_28 
REMARK   13  A    between atoms: CB_24  and  CG_25 
REMARK   14  A    between atoms: CG_25  and  OD2_27 
REMARK       I    between atoms: N_28  and  C_29 
REMARK   15  A    between atoms: C_29  and  CA_31 
REMARK   16  A    between atoms: CA_31  and  CB_32 
REMARK   17  A    between atoms: CA_31  and  N_37 
REMARK   18  A    between atoms: CB_32  and  CG_33 
REMARK   19  A    between atoms: CG_33  and  CD_34 
REMARK   20  A    between atoms: CD_34  and  CE_35 
REMARK   21  A    between atoms: CE_35  and  NZ_36 
REMARK       I    between atoms: N_37  and  C_47 
ROOT
ATOM      1  N   LYS A   1     -20.827 -11.794  -2.027  1.00  0.00    -0.346 N 
ATOM      2  C   LYS A   1     -20.238 -10.649  -2.521  1.00  0.00     0.241 C 
ATOM      3  O   LYS A   1     -19.451  -9.980  -1.860  1.00  0.00    -0.271 OA
ATOM      4  H   LYS A   1     -21.599 -12.187  -2.562  1.00  0.00     0.163 HD
ENDROOT
BRANCH   2   5
ATOM      5  CA  LYS A   1     -20.676 -10.246  -3.955  1.00  0.00     0.186 C 
BRANCH   5   6
ATOM      6  CB  LYS A   1     -21.610 -11.293  -4.570  1.00  0.00     0.144 C 
BRANCH   6   7
ATOM      7  CG  LYS A   1     -21.257 -11.544  -6.009  1.00  0.00     0.141 C 
ATOM      8  OD1 LYS A   1     -21.875 -12.302  -6.741  1.00  0.00    -0.650 OA
BRANCH   7   9
ATOM      9  OD2 LYS A   1     -20.164 -10.868  -6.433  1.00  0.00    -0.776 OA
ATOM     10  HD2 LYS A   1     -19.517 -11.417  -6.921  1.00  0.00     0.167 HD
ENDBRANCH   7   9
ENDBRANCH   6   7
ENDBRANCH   5   6
BRANCH   5  11
ATOM     11  N   LYS A   1     -21.201  -8.873  -3.936  1.00  0.00    -0.346 N 
ATOM     12  C   LYS A   1     -20.770  -7.872  -4.771  1.00  0.00     0.241 C 
ATOM     13  O   LYS A   1     -19.886  -8.068  -5.604  1.00  0.00    -0.271 OA
ATOM     14  H   LYS A   1     -21.931  -8.654  -3.257  1.00  0.00     0.163 HD
BRANCH  12  15
ATOM     15  CA  LYS A   1     -21.488  -6.514  -4.594  1.00  0.00     0.176 C 
BRANCH  15  16
ATOM     16  CB  LYS A   1     -21.252  -5.985  -3.173  1.00  0.00     0.035 C 
BRANCH  16  17
ATOM     17  CG  LYS A   1     -22.386  -6.282  -2.185  1.00  0.00     0.004 C 
BRANCH  17  18
ATOM     18  CD  LYS A   1     -21.892  -6.889  -0.867  1.00  0.00     0.030 C 
BRANCH  18  19
ATOM     19  CE  LYS A   1     -22.567  -8.217  -0.523  1.00  0.00     0.267 C 
BRANCH  19  20
ATOM     20  NZ  LYS A   1     -23.509  -8.082   0.582  1.00  0.00     0.078 N 
ATOM     21  HZ1 LYS A   1     -24.370  -7.651   0.245  1.00  0.00     0.312 HD
ATOM     22  HZ2 LYS A   1     -23.125  -7.440   1.274  1.00  0.00     0.312 HD
ENDBRANCH  19  20
ENDBRANCH  18  19
ENDBRANCH  17  18
ENDBRANCH  16  17
ENDBRANCH  15  16
BRANCH  15  23
ATOM     23  N   LYS A   1     -21.009  -5.545  -5.577  1.00  0.00    -0.348 N 
HETATM   24  C   UNK A   0     -21.863  -4.834  -6.383  1.00  0.00     0.214 C 
HETATM   25  O   UNK A   0     -23.075  -5.028  -6.398  1.00  0.00    -0.274 OA
HETATM   26  C   UNK A   0     -21.195  -3.766  -7.212  1.00  0.00     0.117 C 
ATOM     27  H   LYS A   1     -20.009  -5.415  -5.676  1.00  0.00     0.163 HD
ENDBRANCH  15  23
ENDBRANCH  12  15
ENDBRANCH   5  11
ENDBRANCH   2   5
BRANCH   1  28
ATOM     28  CA  LYS A   1     -20.587 -12.298  -0.672  1.00  0.00     0.180 C 
BRANCH  28  29
ATOM     29  CB  LYS A   1     -21.707 -13.290  -0.241  1.00  0.00     0.009 C 
ATOM     30  CG1 LYS A   1     -22.091 -13.126   1.235  1.00  0.00     0.012 C 
ATOM     31  CG2 LYS A   1     -22.978 -13.182  -1.089  1.00  0.00     0.012 C 
ENDBRANCH  28  29
BRANCH  28  32
ATOM     32  C   LYS A   1     -19.266 -13.098  -0.673  1.00  0.00     0.241 C 
ATOM     33  O   LYS A   1     -19.258 -14.329  -0.735  1.00  0.00    -0.271 OA
ATOM     34  N   LYS A   1     -18.118 -12.369  -0.502  1.00  0.00    -0.345 N 
ATOM     35  H   LYS A   1     -18.138 -11.358  -0.562  1.00  0.00     0.163 HD
BRANCH  34  36
ATOM     36  CA  LYS A   1     -16.809 -12.996  -0.273  1.00  0.00     0.186 C 
BRANCH  36  37
ATOM     37  CB  LYS A   1     -15.681 -12.466  -1.171  1.00  0.00     0.074 C 
BRANCH  37  38
ATOM     38  CG  LYS A   1     -16.116 -11.744  -2.419  1.00  0.00    -0.056 A 
ATOM     39  CD1 LYS A   1     -16.752 -12.428  -3.464  1.00  0.00     0.010 A 
ATOM     40  CE1 LYS A   1     -17.226 -11.731  -4.576  1.00  0.00     0.037 A 
ATOM     41  CZ  LYS A   1     -17.056 -10.351  -4.645  1.00  0.00     0.065 A 
ATOM     42  CE2 LYS A   1     -16.394  -9.667  -3.642  1.00  0.00     0.037 A 
ATOM     43  CD2 LYS A   1     -15.924 -10.359  -2.528  1.00  0.00     0.010 A 
BRANCH  41  44
ATOM     44  OH  LYS A   1     -17.542  -9.630  -5.697  1.00  0.00    -0.361 OA
ATOM     45  HH  LYS A   1     -16.979  -8.850  -5.821  1.00  0.00     0.217 HD
ENDBRANCH  41  44
ENDBRANCH  37  38
ENDBRANCH  36  37
BRANCH  36  46
ATOM     46  C   LYS A   1     -16.447 -12.913   1.220  1.00  0.00     0.163 C 
ATOM     47  O   LYS A   1     -16.517 -13.861   1.989  1.00  0.00    -0.648 OA
BRANCH  46  48
ATOM     48  OXT LYS A   1     -15.978 -11.707   1.625  1.00  0.00    -0.775 OA
ATOM     49  HXT LYS A   1     -15.005 -11.618   1.648  1.00  0.00     0.167 HD
ENDBRANCH  46  48
ENDBRANCH  36  46
ENDBRANCH  34  36
ENDBRANCH  28  32
ENDBRANCH   1  28
TORSDOF 21
ENDMDL
MODEL 4
REMARK VINA RESULT:      -6.8      3.497      7.641
REMARK  21 active torsions:
REMARK  status: ('A' for Active; 'I' for Inactive)
REMARK    1  A    between atoms: CB_2  and  CA_4 
REMARK    2  A    between atoms: CA_4  and  C_5 
REMARK    3  A    between atoms: CA_4  and  N_20 
REMARK       I    between atoms: C_5  and  N_7 
REMARK    4  A    between atoms: N_7  and  CA_8 
REMARK    5  A    between atoms: CA_8  and  CB_9 
REMARK    6  A    between atoms: CA_8  and  C_17 
REMARK    7  A    between atoms: CB_9  and  CG_10 
REMARK    8  A    between atoms: CZ_13  and  OH_16 
REMARK    9  A    between atoms: C_17  and  OXT_19 
REMARK       I    between atoms: N_20  and  C_21 
REMARK   10  A    between atoms: C_21  and  CA_23 
REMARK   11  A    between atoms: CA_23  and  CB_24 
REMARK   12  A    between atoms: CA_23  and  N_28 
REMARK   13  A    between atoms: CB_24  and  CG_25 
REMARK   14  A    between atoms: CG_25  and  OD2_27 
REMARK       I    between atoms: N_28  and  C_29 
REMARK   15  A    between atoms: C_29  and  CA_31 
REMARK   16  A    between atoms: CA_31  and  CB_32 
REMARK   17  A    between atoms: CA_31  and  N_37 
REMARK   18  A    between atoms: CB_32  and  CG_33 
REMARK   19  A    between atoms: CG_33  and  CD_34 
REMARK   20  A    between atoms: CD_34  and  CE_35 
REMARK   21  A    between atoms: CE_35  and  NZ_36 
REMARK       I    between atoms: N_37  and  C_47 
ROOT
ATOM      1  N   LYS A   1     -19.287  -8.582  -5.709  1.00  0.00    -0.346 N 
ATOM      2  C   LYS A   1     -18.331  -9.332  -5.057  1.00  0.00     0.241 C 
ATOM      3  O   LYS A   1     -18.121  -9.221  -3.853  1.00  0.00    -0.271 OA
ATOM      4  H   LYS A   1     -19.276  -8.598  -6.726  1.00  0.00     0.163 HD
ENDROOT
BRANCH   2   5
ATOM      5  CA  LYS A   1     -17.514 -10.293  -5.962  1.00  0.00     0.186 C 
BRANCH   5   6
ATOM      6  CB  LYS A   1     -16.006 -10.076  -5.790  1.00  0.00     0.144 C 
BRANCH   6   7
ATOM      7  CG  LYS A   1     -15.291 -11.391  -5.659  1.00  0.00     0.141 C 
ATOM      8  OD1 LYS A   1     -14.900 -11.852  -4.597  1.00  0.00    -0.650 OA
BRANCH   7   9
ATOM      9  OD2 LYS A   1     -15.089 -12.027  -6.837  1.00  0.00    -0.776 OA
ATOM     10  HD2 LYS A   1     -14.546 -11.523  -7.477  1.00  0.00     0.167 HD
ENDBRANCH   7   9
ENDBRANCH   6   7
ENDBRANCH   5   6
BRANCH   5  11
ATOM     11  N   LYS A   1     -17.976 -11.672  -5.749  1.00  0.00    -0.346 N 
ATOM     12  C   LYS A   1     -18.873 -12.317  -6.564  1.00  0.00     0.241 C 
ATOM     13  O   LYS A   1     -19.365 -11.761  -7.544  1.00  0.00    -0.271 OA
ATOM     14  H   LYS A   1     -17.605 -12.178  -4.943  1.00  0.00     0.163 HD
BRANCH  12  15
ATOM     15  CA  LYS A   1     -19.191 -13.778  -6.165  1.00  0.00     0.176 C 
BRANCH  15  16
ATOM     16  CB  LYS A   1     -20.702 -14.025  -6.267  1.00  0.00     0.035 C 
BRANCH  16  17
ATOM     17  CG  LYS A   1     -21.415 -14.185  -4.919  1.00  0.00     0.004 C 
BRANCH  17  18
ATOM     18  CD  LYS A   1     -21.828 -12.849  -4.293  1.00  0.00     0.030 C 
BRANCH  18  19
ATOM     19  CE  LYS A   1     -21.182 -12.595  -2.931  1.00  0.00     0.267 C 
BRANCH  19  20
ATOM     20  NZ  LYS A   1     -20.147 -11.571  -2.998  1.00  0.00     0.078 N 
ATOM     21  HZ1 LYS A   1     -20.570 -10.650  -2.890  1.00  0.00     0.312 HD
ATOM     22  HZ2 LYS A   1     -19.725 -11.581  -3.926  1.00  0.00     0.312 HD
ENDBRANCH  19  20
ENDBRANCH  18  19
ENDBRANCH  17  18
ENDBRANCH  16  17
ENDBRANCH  15  16
BRANCH  15  23
ATOM     23  N   LYS A   1     -18.470 -14.715  -7.022  1.00  0.00    -0.348 N 
HETATM   24  C   UNK A   0     -17.170 -15.081  -6.778  1.00  0.00     0.214 C 
HETATM   25  O   UNK A   0     -16.498 -14.580  -5.882  1.00  0.00    -0.274 OA
HETATM   26  C   UNK A   0     -16.652 -16.181  -7.670  1.00  0.00     0.117 C 
ATOM     27  H   LYS A   1     -18.946 -15.086  -7.836  1.00  0.00     0.163 HD
ENDBRANCH  15  23
ENDBRANCH  12  15
ENDBRANCH   5  11
ENDBRANCH   2   5
BRANCH   1  28
ATOM     28  CA  LYS A   1     -20.115  -7.577  -5.035  1.00  0.00     0.180 C 
BRANCH  28  29
ATOM     29  CB  LYS A   1     -21.111  -6.917  -6.033  1.00  0.00     0.009 C 
ATOM     30  CG1 LYS A   1     -22.192  -6.098  -5.317  1.00  0.00     0.012 C 
ATOM     31  CG2 LYS A   1     -20.431  -6.022  -7.073  1.00  0.00     0.012 C 
ENDBRANCH  28  29
BRANCH  28  32
ATOM     32  C   LYS A   1     -20.970  -8.286  -3.961  1.00  0.00     0.241 C 
ATOM     33  O   LYS A   1     -21.776  -9.169  -4.260  1.00  0.00    -0.271 OA
ATOM     34  N   LYS A   1     -20.851  -7.808  -2.682  1.00  0.00    -0.345 N 
ATOM     35  H   LYS A   1     -20.110  -7.161  -2.442  1.00  0.00     0.163 HD
BRANCH  34  36
ATOM     36  CA  LYS A   1     -21.743  -8.231  -1.594  1.00  0.00     0.186 C 
BRANCH  36  37
ATOM     37  CB  LYS A   1     -21.058  -9.044  -0.486  1.00  0.00     0.074 C 
BRANCH  37  38
ATOM     38  CG  LYS A   1     -21.769 -10.302  -0.056  1.00  0.00    -0.056 A 
ATOM     39  CD1 LYS A   1     -23.125 -10.498  -0.347  1.00  0.00     0.010 A 
ATOM     40  CE1 LYS A   1     -23.748 -11.703  -0.019  1.00  0.00     0.037 A 
ATOM     41  CZ  LYS A   1     -23.014 -12.707   0.608  1.00  0.00     0.065 A 
ATOM     42  CE2 LYS A   1     -21.685 -12.512   0.938  1.00  0.00     0.037 A 
ATOM     43  CD2 LYS A   1     -21.060 -11.313   0.608  1.00  0.00     0.010 A 
BRANCH  41  44
ATOM     44  OH  LYS A   1     -23.578 -13.913   0.907  1.00  0.00    -0.361 OA
ATOM     45  HH  LYS A   1     -24.179 -13.793   1.660  1.00  0.00     0.217 HD
ENDBRANCH  41  44
ENDBRANCH  37  38
ENDBRANCH  36  37
BRANCH  36  46
ATOM     46  C   LYS A   1     -22.495  -7.011  -1.034  1.00  0.00     0.163 C 
ATOM     47  O   LYS A   1     -23.055  -6.998   0.053  1.00  0.00    -0.648 OA
BRANCH  46  48
ATOM     48  OXT LYS A   1     -22.446  -5.905  -1.817  1.00  0.00    -0.775 OA
ATOM     49  HXT LYS A   1     -23.238  -5.740  -2.365  1.00  0.00     0.167 HD
ENDBRANCH  46  48
ENDBRANCH  36  46
ENDBRANCH  34  36
ENDBRANCH  28  32
ENDBRANCH   1  28
TORSDOF 21
ENDMDL
MODEL 5
REMARK VINA RESULT:      -6.7      3.092      5.093
REMARK  21 active torsions:
REMARK  status: ('A' for Active; 'I' for Inactive)
REMARK    1  A    between atoms: CB_2  and  CA_4 
REMARK    2  A    between atoms: CA_4  and  C_5 
REMARK    3  A    between atoms: CA_4  and  N_20 
REMARK       I    between atoms: C_5  and  N_7 
REMARK    4  A    between atoms: N_7  and  CA_8 
REMARK    5  A    between atoms: CA_8  and  CB_9 
REMARK    6  A    between atoms: CA_8  and  C_17 
REMARK    7  A    between atoms: CB_9  and  CG_10 
REMARK    8  A    between atoms: CZ_13  and  OH_16 
REMARK    9  A    between atoms: C_17  and  OXT_19 
REMARK       I    between atoms: N_20  and  C_21 
REMARK   10  A    between atoms: C_21  and  CA_23 
REMARK   11  A    between atoms: CA_23  and  CB_24 
REMARK   12  A    between atoms: CA_23  and  N_28 
REMARK   13  A    between atoms: CB_24  and  CG_25 
REMARK   14  A    between atoms: CG_25  and  OD2_27 
REMARK       I    between atoms: N_28  and  C_29 
REMARK   15  A    between atoms: C_29  and  CA_31 
REMARK   16  A    between atoms: CA_31  and  CB_32 
REMARK   17  A    between atoms: CA_31  and  N_37 
REMARK   18  A    between atoms: CB_32  and  CG_33 
REMARK   19  A    between atoms: CG_33  and  CD_34 
REMARK   20  A    between atoms: CD_34  and  CE_35 
REMARK   21  A    between atoms: CE_35  and  NZ_36 
REMARK       I    between atoms: N_37  and  C_47 
ROOT
ATOM      1  N   LYS A   1     -22.176 -12.344  -2.215  1.00  0.00    -0.346 N 
ATOM      2  C   LYS A   1     -21.804 -11.997  -3.497  1.00  0.00     0.241 C 
ATOM      3  O   LYS A   1     -22.416 -11.162  -4.153  1.00  0.00    -0.271 OA
ATOM      4  H   LYS A   1     -21.735 -13.166  -1.809  1.00  0.00     0.163 HD
ENDROOT
BRANCH   2   5
ATOM      5  CA  LYS A   1     -20.582 -12.771  -4.062  1.00  0.00     0.186 C 
BRANCH   5   6
ATOM      6  CB  LYS A   1     -20.682 -12.943  -5.581  1.00  0.00     0.144 C 
BRANCH   6   7
ATOM      7  CG  LYS A   1     -19.573 -12.204  -6.276  1.00  0.00     0.141 C 
ATOM      8  OD1 LYS A   1     -19.651 -11.038  -6.632  1.00  0.00    -0.650 OA
BRANCH   7   9
ATOM      9  OD2 LYS A   1     -18.469 -12.953  -6.501  1.00  0.00    -0.776 OA
ATOM     10  HD2 LYS A   1     -17.717 -12.747  -5.908  1.00  0.00     0.167 HD
ENDBRANCH   7   9
ENDBRANCH   6   7
ENDBRANCH   5   6
BRANCH   5  11
ATOM     11  N   LYS A   1     -19.343 -12.138  -3.584  1.00  0.00    -0.346 N 
ATOM     12  C   LYS A   1     -18.743 -12.431  -2.385  1.00  0.00     0.241 C 
ATOM     13  O   LYS A   1     -19.224 -13.258  -1.611  1.00  0.00    -0.271 OA
ATOM     14  H   LYS A   1     -18.906 -11.437  -4.184  1.00  0.00     0.163 HD
BRANCH  12  15
ATOM     15  CA  LYS A   1     -17.428 -11.666  -2.103  1.00  0.00     0.176 C 
BRANCH  15  16
ATOM     16  CB  LYS A   1     -17.603 -10.185  -2.465  1.00  0.00     0.035 C 
BRANCH  16  17
ATOM     17  CG  LYS A   1     -16.533  -9.627  -3.409  1.00  0.00     0.004 C 
BRANCH  17  18
ATOM     18  CD  LYS A   1     -15.543 -10.692  -3.895  1.00  0.00     0.030 C 
BRANCH  18  19
ATOM     19  CE  LYS A   1     -15.726 -11.060  -5.367  1.00  0.00     0.267 C 
BRANCH  19  20
ATOM     20  NZ  LYS A   1     -16.721 -10.220  -6.022  1.00  0.00     0.078 N 
ATOM     21  HZ1 LYS A   1     -16.605 -10.279  -7.033  1.00  0.00     0.312 HD
ATOM     22  HZ2 LYS A   1     -16.553  -9.246  -5.775  1.00  0.00     0.312 HD
ENDBRANCH  19  20
ENDBRANCH  18  19
ENDBRANCH  17  18
ENDBRANCH  16  17
ENDBRANCH  15  16
BRANCH  15  23
ATOM     23  N   LYS A   1     -17.043 -11.799  -0.700  1.00  0.00    -0.348 N 
HETATM   24  C   UNK A   0     -15.867 -12.392  -0.316  1.00  0.00     0.214 C 
HETATM   25  O   UNK A   0     -15.105 -12.930  -1.113  1.00  0.00    -0.274 OA
HETATM   26  C   UNK A   0     -15.567 -12.287   1.159  1.00  0.00     0.117 C 
ATOM     27  H   LYS A   1     -17.683 -11.459   0.008  1.00  0.00     0.163 HD
ENDBRANCH  15  23
ENDBRANCH  12  15
ENDBRANCH   5  11
ENDBRANCH   2   5
BRANCH   1  28
ATOM     28  CA  LYS A   1     -23.341 -11.768  -1.536  1.00  0.00     0.180 C 
BRANCH  28  29
ATOM     29  CB  LYS A   1     -23.886 -12.739  -0.448  1.00  0.00     0.009 C 
ATOM     30  CG1 LYS A   1     -24.306 -14.092  -1.036  1.00  0.00     0.012 C 
ATOM     31  CG2 LYS A   1     -22.899 -12.992   0.695  1.00  0.00     0.012 C 
ENDBRANCH  28  29
BRANCH  28  32
ATOM     32  C   LYS A   1     -22.895 -10.486  -0.798  1.00  0.00     0.241 C 
ATOM     33  O   LYS A   1     -23.684  -9.824  -0.122  1.00  0.00    -0.271 OA
ATOM     34  N   LYS A   1     -21.606 -10.078  -1.022  1.00  0.00    -0.345 N 
ATOM     35  H   LYS A   1     -20.947 -10.689  -1.490  1.00  0.00     0.163 HD
BRANCH  34  36
ATOM     36  CA  LYS A   1     -21.096  -8.778  -0.567  1.00  0.00     0.186 C 
BRANCH  36  37
ATOM     37  CB  LYS A   1     -21.679  -7.567  -1.309  1.00  0.00     0.074 C 
BRANCH  37  38
ATOM     38  CG  LYS A   1     -21.171  -7.345  -2.710  1.00  0.00    -0.056 A 
ATOM     39  CD1 LYS A   1     -20.436  -8.335  -3.376  1.00  0.00     0.010 A 
ATOM     40  CE1 LYS A   1     -20.046  -8.151  -4.703  1.00  0.00     0.037 A 
ATOM     41  CZ  LYS A   1     -20.385  -6.971  -5.360  1.00  0.00     0.065 A 
ATOM     42  CE2 LYS A   1     -21.074  -5.967  -4.704  1.00  0.00     0.037 A 
ATOM     43  CD2 LYS A   1     -21.469  -6.151  -3.381  1.00  0.00     0.010 A 
BRANCH  41  44
ATOM     44  OH  LYS A   1     -20.058  -6.771  -6.669  1.00  0.00    -0.361 OA
ATOM     45  HH  LYS A   1     -19.134  -7.039  -6.798  1.00  0.00     0.217 HD
ENDBRANCH  41  44
ENDBRANCH  37  38
ENDBRANCH  36  37
BRANCH  36  46
ATOM     46  C   LYS A   1     -21.266  -8.658   0.958  1.00  0.00     0.163 C 
ATOM     47  O   LYS A   1     -20.597  -9.287   1.767  1.00  0.00    -0.648 OA
BRANCH  46  48
ATOM     48  OXT LYS A   1     -22.185  -7.745   1.358  1.00  0.00    -0.775 OA
ATOM     49  HXT LYS A   1     -22.959  -8.106   1.832  1.00  0.00     0.167 HD
ENDBRANCH  46  48
ENDBRANCH  36  46
ENDBRANCH  34  36
ENDBRANCH  28  32
ENDBRANCH   1  28
TORSDOF 21
ENDMDL
MODEL 6
REMARK VINA RESULT:      -6.7      3.083      8.372
REMARK  21 active torsions:
REMARK  status: ('A' for Active; 'I' for Inactive)
REMARK    1  A    between atoms: CB_2  and  CA_4 
REMARK    2  A    between atoms: CA_4  and  C_5 
REMARK    3  A    between atoms: CA_4  and  N_20 
REMARK       I    between atoms: C_5  and  N_7 
REMARK    4  A    between atoms: N_7  and  CA_8 
REMARK    5  A    between atoms: CA_8  and  CB_9 
REMARK    6  A    between atoms: CA_8  and  C_17 
REMARK    7  A    between atoms: CB_9  and  CG_10 
REMARK    8  A    between atoms: CZ_13  and  OH_16 
REMARK    9  A    between atoms: C_17  and  OXT_19 
REMARK       I    between atoms: N_20  and  C_21 
REMARK   10  A    between atoms: C_21  and  CA_23 
REMARK   11  A    between atoms: CA_23  and  CB_24 
REMARK   12  A    between atoms: CA_23  and  N_28 
REMARK   13  A    between atoms: CB_24  and  CG_25 
REMARK   14  A    between atoms: CG_25  and  OD2_27 
REMARK       I    between atoms: N_28  and  C_29 
REMARK   15  A    between atoms: C_29  and  CA_31 
REMARK   16  A    between atoms: CA_31  and  CB_32 
REMARK   17  A    between atoms: CA_31  and  N_37 
REMARK   18  A    between atoms: CB_32  and  CG_33 
REMARK   19  A    between atoms: CG_33  and  CD_34 
REMARK   20  A    between atoms: CD_34  and  CE_35 
REMARK   21  A    between atoms: CE_35  and  NZ_36 
REMARK       I    between atoms: N_37  and  C_47 
ROOT
ATOM      1  N   LYS A   1     -21.304 -11.199  -0.556  1.00  0.00    -0.346 N 
ATOM      2  C   LYS A   1     -21.382  -9.863  -0.224  1.00  0.00     0.241 C 
ATOM      3  O   LYS A   1     -21.048  -9.442   0.879  1.00  0.00    -0.271 OA
ATOM      4  H   LYS A   1     -21.765 -11.492  -1.414  1.00  0.00     0.163 HD
ENDROOT
BRANCH   2   5
ATOM      5  CA  LYS A   1     -21.961  -8.939  -1.330  1.00  0.00     0.186 C 
BRANCH   5   6
ATOM      6  CB  LYS A   1     -22.114  -7.499  -0.832  1.00  0.00     0.144 C 
BRANCH   6   7
ATOM      7  CG  LYS A   1     -21.849  -6.520  -1.941  1.00  0.00     0.141 C 
ATOM      8  OD1 LYS A   1     -20.748  -6.332  -2.436  1.00  0.00    -0.650 OA
BRANCH   7   9
ATOM      9  OD2 LYS A   1     -22.944  -5.832  -2.341  1.00  0.00    -0.776 OA
ATOM     10  HD2 LYS A   1     -23.051  -5.777  -3.313  1.00  0.00     0.167 HD
ENDBRANCH   7   9
ENDBRANCH   6   7
ENDBRANCH   5   6
BRANCH   5  11
ATOM     11  N   LYS A   1     -21.167  -9.096  -2.558  1.00  0.00    -0.346 N 
ATOM     12  C   LYS A   1     -21.493  -9.952  -3.580  1.00  0.00     0.241 C 
ATOM     13  O   LYS A   1     -22.492 -10.668  -3.525  1.00  0.00    -0.271 OA
ATOM     14  H   LYS A   1     -20.322  -8.531  -2.651  1.00  0.00     0.163 HD
BRANCH  12  15
ATOM     15  CA  LYS A   1     -20.530  -9.928  -4.790  1.00  0.00     0.176 C 
BRANCH  15  16
ATOM     16  CB  LYS A   1     -19.647  -8.674  -4.724  1.00  0.00     0.035 C 
BRANCH  16  17
ATOM     17  CG  LYS A   1     -19.945  -7.624  -5.799  1.00  0.00     0.004 C 
BRANCH  17  18
ATOM     18  CD  LYS A   1     -21.359  -7.042  -5.696  1.00  0.00     0.030 C 
BRANCH  18  19
ATOM     19  CE  LYS A   1     -21.411  -5.534  -5.942  1.00  0.00     0.267 C 
BRANCH  19  20
ATOM     20  NZ  LYS A   1     -20.380  -4.822  -5.197  1.00  0.00     0.078 N 
ATOM     21  HZ1 LYS A   1     -19.990  -5.437  -4.482  1.00  0.00     0.312 HD
ATOM     22  HZ2 LYS A   1     -20.805  -4.042  -4.697  1.00  0.00     0.312 HD
ENDBRANCH  19  20
ENDBRANCH  18  19
ENDBRANCH  17  18
ENDBRANCH  16  17
ENDBRANCH  15  16
BRANCH  15  23
ATOM     23  N   LYS A   1     -19.699 -11.128  -4.814  1.00  0.00    -0.348 N 
HETATM   24  C   UNK A   0     -19.429 -11.811  -5.973  1.00  0.00     0.214 C 
HETATM   25  O   UNK A   0     -19.939 -11.516  -7.050  1.00  0.00    -0.274 OA
HETATM   26  C   UNK A   0     -18.421 -12.923  -5.823  1.00  0.00     0.117 C 
ATOM     27  H   LYS A   1     -19.331 -11.475  -3.936  1.00  0.00     0.163 HD
ENDBRANCH  15  23
ENDBRANCH  12  15
ENDBRANCH   5  11
ENDBRANCH   2   5
BRANCH   1  28
ATOM     28  CA  LYS A   1     -20.843 -12.232   0.377  1.00  0.00     0.180 C 
BRANCH  28  29
ATOM     29  CB  LYS A   1     -21.846 -13.421   0.431  1.00  0.00     0.009 C 
ATOM     30  CG1 LYS A   1     -22.455 -13.603   1.827  1.00  0.00     0.012 C 
ATOM     31  CG2 LYS A   1     -22.985 -13.305  -0.586  1.00  0.00     0.012 C 
ENDBRANCH  28  29
BRANCH  28  32
ATOM     32  C   LYS A   1     -19.507 -12.805  -0.147  1.00  0.00     0.241 C 
ATOM     33  O   LYS A   1     -19.450 -13.906  -0.696  1.00  0.00    -0.271 OA
ATOM     34  N   LYS A   1     -18.385 -12.065   0.123  1.00  0.00    -0.345 N 
ATOM     35  H   LYS A   1     -18.466 -11.119   0.476  1.00  0.00     0.163 HD
BRANCH  34  36
ATOM     36  CA  LYS A   1     -17.027 -12.569  -0.121  1.00  0.00     0.186 C 
BRANCH  36  37
ATOM     37  CB  LYS A   1     -16.002 -11.489  -0.497  1.00  0.00     0.074 C 
BRANCH  37  38
ATOM     38  CG  LYS A   1     -15.836 -11.221  -1.970  1.00  0.00    -0.056 A 
ATOM     39  CD1 LYS A   1     -15.229 -12.164  -2.811  1.00  0.00     0.010 A 
ATOM     40  CE1 LYS A   1     -15.159 -11.940  -4.186  1.00  0.00     0.037 A 
ATOM     41  CZ  LYS A   1     -15.690 -10.767  -4.718  1.00  0.00     0.065 A 
ATOM     42  CE2 LYS A   1     -16.255  -9.809  -3.897  1.00  0.00     0.037 A 
ATOM     43  CD2 LYS A   1     -16.331 -10.032  -2.524  1.00  0.00     0.010 A 
BRANCH  41  44
ATOM     44  OH  LYS A   1     -15.678 -10.532  -6.062  1.00  0.00    -0.361 OA
ATOM     45  HH  LYS A   1     -15.419 -11.351  -6.514  1.00  0.00     0.217 HD
ENDBRANCH  41  44
ENDBRANCH  37  38
ENDBRANCH  36  37
BRANCH  36  46
ATOM     46  C   LYS A   1     -16.563 -13.415   1.077  1.00  0.00     0.163 C 
ATOM     47  O   LYS A   1     -16.598 -14.638   1.099  1.00  0.00    -0.648 OA
BRANCH  46  48
ATOM     48  OXT LYS A   1     -16.046 -12.703   2.109  1.00  0.00    -0.775 OA
ATOM     49  HXT LYS A   1     -15.133 -12.935   2.366  1.00  0.00     0.167 HD
ENDBRANCH  46  48
ENDBRANCH  36  46
ENDBRANCH  34  36
ENDBRANCH  28  32
ENDBRANCH   1  28
TORSDOF 21
ENDMDL
MODEL 7
REMARK VINA RESULT:      -6.7      1.491      3.384
REMARK  21 active torsions:
REMARK  status: ('A' for Active; 'I' for Inactive)
REMARK    1  A    between atoms: CB_2  and  CA_4 
REMARK    2  A    between atoms: CA_4  and  C_5 
REMARK    3  A    between atoms: CA_4  and  N_20 
REMARK       I    between atoms: C_5  and  N_7 
REMARK    4  A    between atoms: N_7  and  CA_8 
REMARK    5  A    between atoms: CA_8  and  CB_9 
REMARK    6  A    between atoms: CA_8  and  C_17 
REMARK    7  A    between atoms: CB_9  and  CG_10 
REMARK    8  A    between atoms: CZ_13  and  OH_16 
REMARK    9  A    between atoms: C_17  and  OXT_19 
REMARK       I    between atoms: N_20  and  C_21 
REMARK   10  A    between atoms: C_21  and  CA_23 
REMARK   11  A    between atoms: CA_23  and  CB_24 
REMARK   12  A    between atoms: CA_23  and  N_28 
REMARK   13  A    between atoms: CB_24  and  CG_25 
REMARK   14  A    between atoms: CG_25  and  OD2_27 
REMARK       I    between atoms: N_28  and  C_29 
REMARK   15  A    between atoms: C_29  and  CA_31 
REMARK   16  A    between atoms: CA_31  and  CB_32 
REMARK   17  A    between atoms: CA_31  and  N_37 
REMARK   18  A    between atoms: CB_32  and  CG_33 
REMARK   19  A    between atoms: CG_33  and  CD_34 
REMARK   20  A    between atoms: CD_34  and  CE_35 
REMARK   21  A    between atoms: CE_35  and  NZ_36 
REMARK       I    between atoms: N_37  and  C_47 
ROOT
ATOM      1  N   LYS A   1     -21.005  -9.499  -3.844  1.00  0.00    -0.346 N 
ATOM      2  C   LYS A   1     -21.781 -10.632  -3.717  1.00  0.00     0.241 C 
ATOM      3  O   LYS A   1     -23.006 -10.590  -3.713  1.00  0.00    -0.271 OA
ATOM      4  H   LYS A   1     -20.010  -9.593  -3.657  1.00  0.00     0.163 HD
ENDROOT
BRANCH   2   5
ATOM      5  CA  LYS A   1     -20.991 -11.957  -3.537  1.00  0.00     0.186 C 
BRANCH   5   6
ATOM      6  CB  LYS A   1     -21.917 -13.175  -3.608  1.00  0.00     0.144 C 
BRANCH   6   7
ATOM      7  CG  LYS A   1     -21.928 -13.913  -2.299  1.00  0.00     0.141 C 
ATOM      8  OD1 LYS A   1     -22.789 -14.718  -1.978  1.00  0.00    -0.650 OA
BRANCH   7   9
ATOM      9  OD2 LYS A   1     -20.901 -13.593  -1.478  1.00  0.00    -0.776 OA
ATOM     10  HD2 LYS A   1     -20.855 -12.642  -1.246  1.00  0.00     0.167 HD
ENDBRANCH   7   9
ENDBRANCH   6   7
ENDBRANCH   5   6
BRANCH   5  11
ATOM     11  N   LYS A   1     -19.856 -11.977  -4.472  1.00  0.00    -0.346 N 
ATOM     12  C   LYS A   1     -18.671 -12.625  -4.230  1.00  0.00     0.241 C 
ATOM     13  O   LYS A   1     -18.477 -13.238  -3.181  1.00  0.00    -0.271 OA
ATOM     14  H   LYS A   1     -19.961 -11.476  -5.356  1.00  0.00     0.163 HD
BRANCH  12  15
ATOM     15  CA  LYS A   1     -17.629 -12.539  -5.370  1.00  0.00     0.176 C 
BRANCH  15  16
ATOM     16  CB  LYS A   1     -16.274 -13.064  -4.875  1.00  0.00     0.035 C 
BRANCH  16  17
ATOM     17  CG  LYS A   1     -15.251 -11.973  -4.539  1.00  0.00     0.004 C 
BRANCH  17  18
ATOM     18  CD  LYS A   1     -14.927 -11.892  -3.043  1.00  0.00     0.030 C 
BRANCH  18  19
ATOM     19  CE  LYS A   1     -15.772 -10.860  -2.297  1.00  0.00     0.267 C 
BRANCH  19  20
ATOM     20  NZ  LYS A   1     -16.689 -11.484  -1.351  1.00  0.00     0.078 N 
ATOM     21  HZ1 LYS A   1     -16.161 -12.047  -0.684  1.00  0.00     0.312 HD
ATOM     22  HZ2 LYS A   1     -17.295 -12.133  -1.851  1.00  0.00     0.312 HD
ENDBRANCH  19  20
ENDBRANCH  18  19
ENDBRANCH  17  18
ENDBRANCH  16  17
ENDBRANCH  15  16
BRANCH  15  23
ATOM     23  N   LYS A   1     -18.071 -13.306  -6.532  1.00  0.00    -0.348 N 
HETATM   24  C   UNK A   0     -18.735 -12.727  -7.584  1.00  0.00     0.214 C 
HETATM   25  O   UNK A   0     -19.084 -11.550  -7.580  1.00  0.00    -0.274 OA
HETATM   26  C   UNK A   0     -18.961 -13.642  -8.761  1.00  0.00     0.117 C 
ATOM     27  H   LYS A   1     -17.896 -14.304  -6.544  1.00  0.00     0.163 HD
ENDBRANCH  15  23
ENDBRANCH  12  15
ENDBRANCH   5  11
ENDBRANCH   2   5
BRANCH   1  28
ATOM     28  CA  LYS A   1     -21.570  -8.150  -3.962  1.00  0.00     0.180 C 
BRANCH  28  29
ATOM     29  CB  LYS A   1     -21.085  -7.242  -2.794  1.00  0.00     0.009 C 
ATOM     30  CG1 LYS A   1     -22.238  -6.461  -2.150  1.00  0.00     0.012 C 
ATOM     31  CG2 LYS A   1     -20.340  -8.005  -1.695  1.00  0.00     0.012 C 
ENDBRANCH  28  29
BRANCH  28  32
ATOM     32  C   LYS A   1     -21.044  -7.511  -5.266  1.00  0.00     0.241 C 
ATOM     33  O   LYS A   1     -20.088  -7.990  -5.879  1.00  0.00    -0.271 OA
ATOM     34  N   LYS A   1     -21.637  -6.334  -5.643  1.00  0.00    -0.345 N 
ATOM     35  H   LYS A   1     -22.485  -6.018  -5.189  1.00  0.00     0.163 HD
BRANCH  34  36
ATOM     36  CA  LYS A   1     -21.116  -5.499  -6.734  1.00  0.00     0.186 C 
BRANCH  36  37
ATOM     37  CB  LYS A   1     -22.155  -4.576  -7.385  1.00  0.00     0.074 C 
BRANCH  37  38
ATOM     38  CG  LYS A   1     -22.083  -4.455  -8.885  1.00  0.00    -0.056 A 
ATOM     39  CD1 LYS A   1     -23.223  -4.638  -9.679  1.00  0.00     0.010 A 
ATOM     40  CE1 LYS A   1     -23.160  -4.439 -11.059  1.00  0.00     0.037 A 
ATOM     41  CZ  LYS A   1     -21.952  -4.065 -11.643  1.00  0.00     0.065 A 
ATOM     42  CE2 LYS A   1     -20.809  -3.922 -10.879  1.00  0.00     0.037 A 
ATOM     43  CD2 LYS A   1     -20.870  -4.115  -9.501  1.00  0.00     0.010 A 
BRANCH  41  44
ATOM     44  OH  LYS A   1     -21.861  -3.822 -12.983  1.00  0.00    -0.361 OA
ATOM     45  HH  LYS A   1     -22.759  -3.751 -13.344  1.00  0.00     0.217 HD
ENDBRANCH  41  44
ENDBRANCH  37  38
ENDBRANCH  36  37
BRANCH  36  46
ATOM     46  C   LYS A   1     -19.877  -4.725  -6.251  1.00  0.00     0.163 C 
ATOM     47  O   LYS A   1     -19.750  -4.285  -5.117  1.00  0.00    -0.648 OA
BRANCH  46  48
ATOM     48  OXT LYS A   1     -18.885  -4.611  -7.169  1.00  0.00    -0.775 OA
ATOM     49  HXT LYS A   1     -18.410  -5.438  -7.382  1.00  0.00     0.167 HD
ENDBRANCH  46  48
ENDBRANCH  36  46
ENDBRANCH  34  36
ENDBRANCH  28  32
ENDBRANCH   1  28
TORSDOF 21
ENDMDL
MODEL 8
REMARK VINA RESULT:      -6.6      3.291      5.710
REMARK  21 active torsions:
REMARK  status: ('A' for Active; 'I' for Inactive)
REMARK    1  A    between atoms: CB_2  and  CA_4 
REMARK    2  A    between atoms: CA_4  and  C_5 
REMARK    3  A    between atoms: CA_4  and  N_20 
REMARK       I    between atoms: C_5  and  N_7 
REMARK    4  A    between atoms: N_7  and  CA_8 
REMARK    5  A    between atoms: CA_8  and  CB_9 
REMARK    6  A    between atoms: CA_8  and  C_17 
REMARK    7  A    between atoms: CB_9  and  CG_10 
REMARK    8  A    between atoms: CZ_13  and  OH_16 
REMARK    9  A    between atoms: C_17  and  OXT_19 
REMARK       I    between atoms: N_20  and  C_21 
REMARK   10  A    between atoms: C_21  and  CA_23 
REMARK   11  A    between atoms: CA_23  and  CB_24 
REMARK   12  A    between atoms: CA_23  and  N_28 
REMARK   13  A    between atoms: CB_24  and  CG_25 
REMARK   14  A    between atoms: CG_25  and  OD2_27 
REMARK       I    between atoms: N_28  and  C_29 
REMARK   15  A    between atoms: C_29  and  CA_31 
REMARK   16  A    between atoms: CA_31  and  CB_32 
REMARK   17  A    between atoms: CA_31  and  N_37 
REMARK   18  A    between atoms: CB_32  and  CG_33 
REMARK   19  A    between atoms: CG_33  and  CD_34 
REMARK   20  A    between atoms: CD_34  and  CE_35 
REMARK   21  A    between atoms: CE_35  and  NZ_36 
REMARK       I    between atoms: N_37  and  C_47 
ROOT
ATOM      1  N   LYS A   1     -22.315 -12.303  -2.219  1.00  0.00    -0.346 N 
ATOM      2  C   LYS A   1     -22.016 -11.836  -3.481  1.00  0.00     0.241 C 
ATOM      3  O   LYS A   1     -22.648 -10.927  -4.009  1.00  0.00    -0.271 OA
ATOM      4  H   LYS A   1     -21.869 -13.171  -1.927  1.00  0.00     0.163 HD
ENDROOT
BRANCH   2   5
ATOM      5  CA  LYS A   1     -20.854 -12.572  -4.201  1.00  0.00     0.186 C 
BRANCH   5   6
ATOM      6  CB  LYS A   1     -21.262 -13.023  -5.607  1.00  0.00     0.144 C 
BRANCH   6   7
ATOM      7  CG  LYS A   1     -20.701 -12.095  -6.648  1.00  0.00     0.141 C 
ATOM      8  OD1 LYS A   1     -19.787 -12.391  -7.404  1.00  0.00    -0.650 OA
BRANCH   7   9
ATOM      9  OD2 LYS A   1     -21.283 -10.874  -6.667  1.00  0.00    -0.776 OA
ATOM     10  HD2 LYS A   1     -21.317 -10.460  -7.554  1.00  0.00     0.167 HD
ENDBRANCH   7   9
ENDBRANCH   6   7
ENDBRANCH   5   6
BRANCH   5  11
ATOM     11  N   LYS A   1     -19.641 -11.743  -4.136  1.00  0.00    -0.346 N 
ATOM     12  C   LYS A   1     -18.395 -12.226  -3.817  1.00  0.00     0.241 C 
ATOM     13  O   LYS A   1     -18.216 -13.413  -3.549  1.00  0.00    -0.271 OA
ATOM     14  H   LYS A   1     -19.735 -10.747  -4.341  1.00  0.00     0.163 HD
BRANCH  12  15
ATOM     15  CA  LYS A   1     -17.258 -11.178  -3.842  1.00  0.00     0.176 C 
BRANCH  15  16
ATOM     16  CB  LYS A   1     -17.116 -10.535  -2.456  1.00  0.00     0.035 C 
BRANCH  16  17
ATOM     17  CG  LYS A   1     -15.903 -11.014  -1.651  1.00  0.00     0.004 C 
BRANCH  17  18
ATOM     18  CD  LYS A   1     -16.242 -12.129  -0.655  1.00  0.00     0.030 C 
BRANCH  18  19
ATOM     19  CE  LYS A   1     -15.454 -12.033   0.651  1.00  0.00     0.267 C 
BRANCH  19  20
ATOM     20  NZ  LYS A   1     -16.247 -12.448   1.801  1.00  0.00     0.078 N 
ATOM     21  HZ1 LYS A   1     -16.818 -11.666   2.122  1.00  0.00     0.312 HD
ATOM     22  HZ2 LYS A   1     -15.624 -12.678   2.573  1.00  0.00     0.312 HD
ENDBRANCH  19  20
ENDBRANCH  18  19
ENDBRANCH  17  18
ENDBRANCH  16  17
ENDBRANCH  15  16
BRANCH  15  23
ATOM     23  N   LYS A   1     -15.996 -11.794  -4.242  1.00  0.00    -0.348 N 
HETATM   24  C   UNK A   0     -15.299 -11.385  -5.351  1.00  0.00     0.214 C 
HETATM   25  O   UNK A   0     -15.730 -10.540  -6.130  1.00  0.00    -0.274 OA
HETATM   26  C   UNK A   0     -13.942 -12.024  -5.507  1.00  0.00     0.117 C 
ATOM     27  H   LYS A   1     -15.641 -12.566  -3.689  1.00  0.00     0.163 HD
ENDBRANCH  15  23
ENDBRANCH  12  15
ENDBRANCH   5  11
ENDBRANCH   2   5
BRANCH   1  28
ATOM     28  CA  LYS A   1     -23.418 -11.777  -1.409  1.00  0.00     0.180 C 
BRANCH  28  29
ATOM     29  CB  LYS A   1     -23.812 -12.782  -0.287  1.00  0.00     0.009 C 
ATOM     30  CG1 LYS A   1     -24.198 -14.157  -0.848  1.00  0.00     0.012 C 
ATOM     31  CG2 LYS A   1     -22.720 -12.977   0.769  1.00  0.00     0.012 C 
ENDBRANCH  28  29
BRANCH  28  32
ATOM     32  C   LYS A   1     -22.937 -10.491  -0.701  1.00  0.00     0.241 C 
ATOM     33  O   LYS A   1     -23.704  -9.803  -0.026  1.00  0.00    -0.271 OA
ATOM     34  N   LYS A   1     -21.643 -10.113  -0.949  1.00  0.00    -0.345 N 
ATOM     35  H   LYS A   1     -21.003 -10.745  -1.414  1.00  0.00     0.163 HD
BRANCH  34  36
ATOM     36  CA  LYS A   1     -21.102  -8.815  -0.523  1.00  0.00     0.186 C 
BRANCH  36  37
ATOM     37  CB  LYS A   1     -21.675  -7.606  -1.276  1.00  0.00     0.074 C 
BRANCH  37  38
ATOM     38  CG  LYS A   1     -21.261  -7.471  -2.719  1.00  0.00    -0.056 A 
ATOM     39  CD1 LYS A   1     -21.781  -6.451  -3.526  1.00  0.00     0.010 A 
ATOM     40  CE1 LYS A   1     -21.325  -6.285  -4.834  1.00  0.00     0.037 A 
ATOM     41  CZ  LYS A   1     -20.353  -7.148  -5.336  1.00  0.00     0.065 A 
ATOM     42  CE2 LYS A   1     -19.860  -8.185  -4.566  1.00  0.00     0.037 A 
ATOM     43  CD2 LYS A   1     -20.311  -8.349  -3.258  1.00  0.00     0.010 A 
BRANCH  41  44
ATOM     44  OH  LYS A   1     -19.852  -6.992  -6.595  1.00  0.00    -0.361 OA
ATOM     45  HH  LYS A   1     -18.981  -6.569  -6.530  1.00  0.00     0.217 HD
ENDBRANCH  41  44
ENDBRANCH  37  38
ENDBRANCH  36  37
BRANCH  36  46
ATOM     46  C   LYS A   1     -21.244  -8.667   1.002  1.00  0.00     0.163 C 
ATOM     47  O   LYS A   1     -20.566  -9.286   1.810  1.00  0.00    -0.648 OA
BRANCH  46  48
ATOM     48  OXT LYS A   1     -22.151  -7.742   1.401  1.00  0.00    -0.775 OA
ATOM     49  HXT LYS A   1     -22.571  -7.908   2.267  1.00  0.00     0.167 HD
ENDBRANCH  46  48
ENDBRANCH  36  46
ENDBRANCH  34  36
ENDBRANCH  28  32
ENDBRANCH   1  28
TORSDOF 21
ENDMDL
MODEL 9
REMARK VINA RESULT:      -6.6      3.158      5.612
REMARK  21 active torsions:
REMARK  status: ('A' for Active; 'I' for Inactive)
REMARK    1  A    between atoms: CB_2  and  CA_4 
REMARK    2  A    between atoms: CA_4  and  C_5 
REMARK    3  A    between atoms: CA_4  and  N_20 
REMARK       I    between atoms: C_5  and  N_7 
REMARK    4  A    between atoms: N_7  and  CA_8 
REMARK    5  A    between atoms: CA_8  and  CB_9 
REMARK    6  A    between atoms: CA_8  and  C_17 
REMARK    7  A    between atoms: CB_9  and  CG_10 
REMARK    8  A    between atoms: CZ_13  and  OH_16 
REMARK    9  A    between atoms: C_17  and  OXT_19 
REMARK       I    between atoms: N_20  and  C_21 
REMARK   10  A    between atoms: C_21  and  CA_23 
REMARK   11  A    between atoms: CA_23  and  CB_24 
REMARK   12  A    between atoms: CA_23  and  N_28 
REMARK   13  A    between atoms: CB_24  and  CG_25 
REMARK   14  A    between atoms: CG_25  and  OD2_27 
REMARK       I    between atoms: N_28  and  C_29 
REMARK   15  A    between atoms: C_29  and  CA_31 
REMARK   16  A    between atoms: CA_31  and  CB_32 
REMARK   17  A    between atoms: CA_31  and  N_37 
REMARK   18  A    between atoms: CB_32  and  CG_33 
REMARK   19  A    between atoms: CG_33  and  CD_34 
REMARK   20  A    between atoms: CD_34  and  CE_35 
REMARK   21  A    between atoms: CE_35  and  NZ_36 
REMARK       I    between atoms: N_37  and  C_47 
ROOT
ATOM      1  N   LYS A   1     -20.176 -11.233  -3.384  1.00  0.00    -0.346 N 
ATOM      2  C   LYS A   1     -19.182 -12.059  -2.901  1.00  0.00     0.241 C 
ATOM      3  O   LYS A   1     -18.317 -12.536  -3.628  1.00  0.00    -0.271 OA
ATOM      4  H   LYS A   1     -20.953 -11.027  -2.760  1.00  0.00     0.163 HD
ENDROOT
BRANCH   2   5
ATOM      5  CA  LYS A   1     -19.263 -12.374  -1.383  1.00  0.00     0.186 C 
BRANCH   5   6
ATOM      6  CB  LYS A   1     -18.364 -11.438  -0.569  1.00  0.00     0.144 C 
BRANCH   6   7
ATOM      7  CG  LYS A   1     -17.317 -12.218   0.175  1.00  0.00     0.141 C 
ATOM      8  OD1 LYS A   1     -16.295 -11.726   0.630  1.00  0.00    -0.650 OA
BRANCH   7   9
ATOM      9  OD2 LYS A   1     -17.588 -13.539   0.282  1.00  0.00    -0.776 OA
ATOM     10  HD2 LYS A   1     -18.139 -13.896  -0.446  1.00  0.00     0.167 HD
ENDBRANCH   7   9
ENDBRANCH   6   7
ENDBRANCH   5   6
BRANCH   5  11
ATOM     11  N   LYS A   1     -20.674 -12.405  -0.968  1.00  0.00    -0.346 N 
ATOM     12  C   LYS A   1     -21.157 -13.180   0.057  1.00  0.00     0.241 C 
ATOM     13  O   LYS A   1     -20.419 -13.923   0.702  1.00  0.00    -0.271 OA
ATOM     14  H   LYS A   1     -21.331 -11.813  -1.477  1.00  0.00     0.163 HD
BRANCH  12  15
ATOM     15  CA  LYS A   1     -22.670 -13.028   0.339  1.00  0.00     0.176 C 
BRANCH  15  16
ATOM     16  CB  LYS A   1     -23.331 -12.231  -0.795  1.00  0.00     0.035 C 
BRANCH  16  17
ATOM     17  CG  LYS A   1     -23.903 -10.874  -0.372  1.00  0.00     0.004 C 
BRANCH  17  18
ATOM     18  CD  LYS A   1     -22.858  -9.753  -0.370  1.00  0.00     0.030 C 
BRANCH  18  19
ATOM     19  CE  LYS A   1     -23.313  -8.504   0.385  1.00  0.00     0.267 C 
BRANCH  19  20
ATOM     20  NZ  LYS A   1     -22.214  -7.577   0.621  1.00  0.00     0.078 N 
ATOM     21  HZ1 LYS A   1     -21.388  -8.096   0.919  1.00  0.00     0.312 HD
ATOM     22  HZ2 LYS A   1     -22.455  -6.962   1.397  1.00  0.00     0.312 HD
ENDBRANCH  19  20
ENDBRANCH  18  19
ENDBRANCH  17  18
ENDBRANCH  16  17
ENDBRANCH  15  16
BRANCH  15  23
ATOM     23  N   LYS A   1     -23.305 -14.337   0.470  1.00  0.00    -0.348 N 
HETATM   24  C   UNK A   0     -23.804 -14.794   1.664  1.00  0.00     0.214 C 
HETATM   25  O   UNK A   0     -23.671 -14.178   2.717  1.00  0.00    -0.274 OA
HETATM   26  C   UNK A   0     -24.569 -16.090   1.566  1.00  0.00     0.117 C 
ATOM     27  H   LYS A   1     -23.355 -14.931  -0.349  1.00  0.00     0.163 HD
ENDBRANCH  15  23
ENDBRANCH  12  15
ENDBRANCH   5  11
ENDBRANCH   2   5
BRANCH   1  28
ATOM     28  CA  LYS A   1     -20.302 -10.872  -4.799  1.00  0.00     0.180 C 
BRANCH  28  29
ATOM     29  CB  LYS A   1     -21.686 -11.309  -5.363  1.00  0.00     0.009 C 
ATOM     30  CG1 LYS A   1     -21.559 -12.060  -6.694  1.00  0.00     0.012 C 
ATOM     31  CG2 LYS A   1     -22.496 -12.173  -4.392  1.00  0.00     0.012 C 
ENDBRANCH  28  29
BRANCH  28  32
ATOM     32  C   LYS A   1     -20.241  -9.333  -4.921  1.00  0.00     0.241 C 
ATOM     33  O   LYS A   1     -19.283  -8.766  -5.449  1.00  0.00    -0.271 OA
ATOM     34  N   LYS A   1     -21.260  -8.640  -4.322  1.00  0.00    -0.345 N 
ATOM     35  H   LYS A   1     -22.086  -9.124  -3.990  1.00  0.00     0.163 HD
BRANCH  34  36
ATOM     36  CA  LYS A   1     -21.240  -7.179  -4.168  1.00  0.00     0.186 C 
BRANCH  36  37
ATOM     37  CB  LYS A   1     -22.261  -6.430  -5.036  1.00  0.00     0.074 C 
BRANCH  37  38
ATOM     38  CG  LYS A   1     -21.696  -5.663  -6.204  1.00  0.00    -0.056 A 
ATOM     39  CD1 LYS A   1     -20.351  -5.797  -6.572  1.00  0.00     0.010 A 
ATOM     40  CE1 LYS A   1     -19.863  -5.148  -7.706  1.00  0.00     0.037 A 
ATOM     41  CZ  LYS A   1     -20.721  -4.358  -8.468  1.00  0.00     0.065 A 
ATOM     42  CE2 LYS A   1     -22.041  -4.184  -8.095  1.00  0.00     0.037 A 
ATOM     43  CD2 LYS A   1     -22.532  -4.834  -6.966  1.00  0.00     0.010 A 
BRANCH  41  44
ATOM     44  OH  LYS A   1     -20.290  -3.742  -9.606  1.00  0.00    -0.361 OA
ATOM     45  HH  LYS A   1     -20.756  -4.133 -10.363  1.00  0.00     0.217 HD
ENDBRANCH  41  44
ENDBRANCH  37  38
ENDBRANCH  36  37
BRANCH  36  46
ATOM     46  C   LYS A   1     -21.368  -6.811  -2.679  1.00  0.00     0.163 C 
ATOM     47  O   LYS A   1     -22.184  -6.010  -2.245  1.00  0.00    -0.648 OA
BRANCH  46  48
ATOM     48  OXT LYS A   1     -20.536  -7.491  -1.853  1.00  0.00    -0.775 OA
ATOM     49  HXT LYS A   1     -20.812  -8.402  -1.631  1.00  0.00     0.167 HD
ENDBRANCH  46  48
ENDBRANCH  36  46
ENDBRANCH  34  36
ENDBRANCH  28  32
ENDBRANCH   1  28
TORSDOF 21
ENDMDL
