MODEL 1
REMARK VINA RESULT:      -6.6      0.000      0.000
REMARK  12 active torsions:
REMARK  status: ('A' for Active; 'I' for Inactive)
REMARK    1  A    between atoms: C_2  and  C_3 
REMARK    2  A    between atoms: C_3  and  C_4 
REMARK    3  A    between atoms: C_4  and  C_5 
REMARK    4  A    between atoms: C_5  and  C_6 
REMARK    5  A    between atoms: C_6  and  C_7 
REMARK    6  A    between atoms: C_7  and  C_8 
REMARK    7  A    between atoms: C_8  and  O_10 
REMARK    8  A    between atoms: O_10  and  C_11 
REMARK    9  A    between atoms: C_11  and  C_12 
REMARK   10  A    between atoms: C_12  and  C_13 
REMARK   11  A    between atoms: C_12  and  O_15 
REMARK   12  A    between atoms: C_13  and  O_14 
ROOT
HETATM    1  C   UNL     1     -24.339  -3.341 -11.225  1.00  0.00     0.258 C 
HETATM    2  O   UNL     1     -25.191  -3.304 -10.347  1.00  0.00    -0.265 OA
ENDROOT
BRANCH   1   3
HETATM    3  C   UNL     1     -23.122  -4.230 -11.212  1.00  0.00     0.111 C 
BRANCH   3   4
HETATM    4  C   UNL     1     -22.206  -3.850 -10.050  1.00  0.00     0.010 C 
BRANCH   4   5
HETATM    5  C   UNL     1     -22.220  -4.887  -8.932  1.00  0.00     0.000 C 
BRANCH   5   6
HETATM    6  C   UNL     1     -22.494  -4.210  -7.588  1.00  0.00     0.000 C 
BRANCH   6   7
HETATM    7  C   UNL     1     -21.222  -3.613  -6.994  1.00  0.00    -0.000 C 
BRANCH   7   8
HETATM    8  C   UNL     1     -20.183  -4.696  -6.710  1.00  0.00    -0.005 C 
HETATM    9  C   UNL     1     -18.883  -4.414  -7.444  1.00  0.00     0.005 C 
ENDBRANCH   7   8
ENDBRANCH   6   7
ENDBRANCH   5   6
ENDBRANCH   4   5
ENDBRANCH   3   4
ENDBRANCH   1   3
BRANCH   1  10
HETATM   10  O   UNL     1     -24.401  -2.632 -12.386  1.00  0.00    -0.319 OA
BRANCH  10  11
HETATM   11  C   UNL     1     -23.193  -2.661 -13.161  1.00  0.00     0.212 C 
BRANCH  11  12
HETATM   12  C   UNL     1     -23.386  -2.482 -14.672  1.00  0.00     0.166 C 
BRANCH  12  13
HETATM   13  C   UNL     1     -23.628  -1.022 -15.064  1.00  0.00     0.198 C 
BRANCH  13  14
HETATM   14  O   UNL     1     -24.919  -0.610 -14.616  1.00  0.00    -0.398 OA
HETATM   15  H   UNL     1     -25.395  -1.427 -14.365  1.00  0.00     0.209 HD
ENDBRANCH  13  14
ENDBRANCH  12  13
BRANCH  12  16
HETATM   16  O   UNL     1     -22.216  -2.945 -15.372  1.00  0.00    -0.391 OA
HETATM   17  H   UNL     1     -21.537  -2.251 -15.323  1.00  0.00     0.210 HD
ENDBRANCH  12  16
ENDBRANCH  11  12
ENDBRANCH  10  11
ENDBRANCH   1  10
TORSDOF 12
ENDMDL
MODEL 2
REMARK VINA RESULT:      -6.4     11.737     12.947
REMARK  12 active torsions:
REMARK  status: ('A' for Active; 'I' for Inactive)
REMARK    1  A    between atoms: C_2  and  C_3 
REMARK    2  A    between atoms: C_3  and  C_4 
REMARK    3  A    between atoms: C_4  and  C_5 
REMARK    4  A    between atoms: C_5  and  C_6 
REMARK    5  A    between atoms: C_6  and  C_7 
REMARK    6  A    between atoms: C_7  and  C_8 
REMARK    7  A    between atoms: C_8  and  O_10 
REMARK    8  A    between atoms: O_10  and  C_11 
REMARK    9  A    between atoms: C_11  and  C_12 
REMARK   10  A    between atoms: C_12  and  C_13 
REMARK   11  A    between atoms: C_12  and  O_15 
REMARK   12  A    between atoms: C_13  and  O_14 
ROOT
HETATM    1  C   UNL     1     -35.598  -0.767 -12.542  1.00  0.00     0.258 C 
HETATM    2  O   UNL     1     -35.368   0.303 -11.992  1.00  0.00    -0.265 OA
ENDROOT
BRANCH   1   3
HETATM    3  C   UNL     1     -34.729  -1.994 -12.443  1.00  0.00     0.111 C 
BRANCH   3   4
HETATM    4  C   UNL     1     -33.904  -1.952 -11.158  1.00  0.00     0.010 C 
BRANCH   4   5
HETATM    5  C   UNL     1     -33.666  -3.340 -10.571  1.00  0.00     0.000 C 
BRANCH   5   6
HETATM    6  C   UNL     1     -33.381  -4.344 -11.690  1.00  0.00     0.000 C 
BRANCH   6   7
HETATM    7  C   UNL     1     -33.364  -5.776 -11.162  1.00  0.00    -0.000 C 
BRANCH   7   8
HETATM    8  C   UNL     1     -34.566  -6.047 -10.261  1.00  0.00    -0.005 C 
HETATM    9  C   UNL     1     -34.783  -7.539 -10.072  1.00  0.00     0.005 C 
ENDBRANCH   7   8
ENDBRANCH   6   7
ENDBRANCH   5   6
ENDBRANCH   4   5
ENDBRANCH   3   4
ENDBRANCH   1   3
BRANCH   1  10
HETATM   10  O   UNL     1     -36.718  -1.031 -13.270  1.00  0.00    -0.319 OA
BRANCH  10  11
HETATM   11  C   UNL     1     -37.100   0.020 -14.170  1.00  0.00     0.212 C 
BRANCH  11  12
HETATM   12  C   UNL     1     -36.052   0.379 -15.231  1.00  0.00     0.166 C 
BRANCH  12  13
HETATM   13  C   UNL     1     -35.782  -0.773 -16.201  1.00  0.00     0.198 C 
BRANCH  13  14
HETATM   14  O   UNL     1     -36.710  -0.719 -17.284  1.00  0.00    -0.398 OA
HETATM   15  H   UNL     1     -36.734   0.213 -17.579  1.00  0.00     0.209 HD
ENDBRANCH  13  14
ENDBRANCH  12  13
BRANCH  12  16
HETATM   16  O   UNL     1     -36.501   1.513 -15.996  1.00  0.00    -0.391 OA
HETATM   17  H   UNL     1     -36.246   2.323 -15.519  1.00  0.00     0.210 HD
ENDBRANCH  12  16
ENDBRANCH  11  12
ENDBRANCH  10  11
ENDBRANCH   1  10
TORSDOF 12
ENDMDL
MODEL 3
REMARK VINA RESULT:      -6.0      1.391      1.639
REMARK  12 active torsions:
REMARK  status: ('A' for Active; 'I' for Inactive)
REMARK    1  A    between atoms: C_2  and  C_3 
REMARK    2  A    between atoms: C_3  and  C_4 
REMARK    3  A    between atoms: C_4  and  C_5 
REMARK    4  A    between atoms: C_5  and  C_6 
REMARK    5  A    between atoms: C_6  and  C_7 
REMARK    6  A    between atoms: C_7  and  C_8 
REMARK    7  A    between atoms: C_8  and  O_10 
REMARK    8  A    between atoms: O_10  and  C_11 
REMARK    9  A    between atoms: C_11  and  C_12 
REMARK   10  A    between atoms: C_12  and  C_13 
REMARK   11  A    between atoms: C_12  and  O_15 
REMARK   12  A    between atoms: C_13  and  O_14 
ROOT
HETATM    1  C   UNL     1     -21.787  -3.579 -11.509  1.00  0.00     0.258 C 
HETATM    2  O   UNL     1     -20.664  -4.008 -11.280  1.00  0.00    -0.265 OA
ENDROOT
BRANCH   1   3
HETATM    3  C   UNL     1     -23.044  -4.029 -10.808  1.00  0.00     0.111 C 
BRANCH   3   4
HETATM    4  C   UNL     1     -22.690  -4.864  -9.579  1.00  0.00     0.010 C 
BRANCH   4   5
HETATM    5  C   UNL     1     -22.962  -4.126  -8.273  1.00  0.00     0.000 C 
BRANCH   5   6
HETATM    6  C   UNL     1     -21.646  -3.678  -7.635  1.00  0.00     0.000 C 
BRANCH   6   7
HETATM    7  C   UNL     1     -21.251  -4.586  -6.474  1.00  0.00    -0.000 C 
BRANCH   7   8
HETATM    8  C   UNL     1     -19.770  -4.955  -6.541  1.00  0.00    -0.005 C 
HETATM    9  C   UNL     1     -19.110  -4.350  -7.768  1.00  0.00     0.005 C 
ENDBRANCH   7   8
ENDBRANCH   6   7
ENDBRANCH   5   6
ENDBRANCH   4   5
ENDBRANCH   3   4
ENDBRANCH   1   3
BRANCH   1  10
HETATM   10  O   UNL     1     -22.062  -2.572 -12.384  1.00  0.00    -0.319 OA
BRANCH  10  11
HETATM   11  C   UNL     1     -23.403  -2.584 -12.896  1.00  0.00     0.212 C 
BRANCH  11  12
HETATM   12  C   UNL     1     -23.516  -2.524 -14.424  1.00  0.00     0.166 C 
BRANCH  12  13
HETATM   13  C   UNL     1     -23.633  -1.090 -14.947  1.00  0.00     0.198 C 
BRANCH  13  14
HETATM   14  O   UNL     1     -24.930  -0.573 -14.649  1.00  0.00    -0.398 OA
HETATM   15  H   UNL     1     -25.562  -1.094 -15.182  1.00  0.00     0.209 HD
ENDBRANCH  13  14
ENDBRANCH  12  13
BRANCH  12  16
HETATM   16  O   UNL     1     -22.353  -3.125 -15.024  1.00  0.00    -0.391 OA
HETATM   17  H   UNL     1     -21.913  -3.674 -14.351  1.00  0.00     0.210 HD
ENDBRANCH  12  16
ENDBRANCH  11  12
ENDBRANCH  10  11
ENDBRANCH   1  10
TORSDOF 12
ENDMDL
MODEL 4
REMARK VINA RESULT:      -5.7     11.375     12.953
REMARK  12 active torsions:
REMARK  status: ('A' for Active; 'I' for Inactive)
REMARK    1  A    between atoms: C_2  and  C_3 
REMARK    2  A    between atoms: C_3  and  C_4 
REMARK    3  A    between atoms: C_4  and  C_5 
REMARK    4  A    between atoms: C_5  and  C_6 
REMARK    5  A    between atoms: C_6  and  C_7 
REMARK    6  A    between atoms: C_7  and  C_8 
REMARK    7  A    between atoms: C_8  and  O_10 
REMARK    8  A    between atoms: O_10  and  C_11 
REMARK    9  A    between atoms: C_11  and  C_12 
REMARK   10  A    between atoms: C_12  and  C_13 
REMARK   11  A    between atoms: C_12  and  O_15 
REMARK   12  A    between atoms: C_13  and  O_14 
ROOT
HETATM    1  C   UNL     1     -34.590  -2.810 -13.474  1.00  0.00     0.258 C 
HETATM    2  O   UNL     1     -33.992  -3.762 -13.958  1.00  0.00    -0.265 OA
ENDROOT
BRANCH   1   3
HETATM    3  C   UNL     1     -34.759  -2.556 -11.997  1.00  0.00     0.111 C 
BRANCH   3   4
HETATM    4  C   UNL     1     -33.490  -2.957 -11.247  1.00  0.00     0.010 C 
BRANCH   4   5
HETATM    5  C   UNL     1     -33.686  -4.205 -10.394  1.00  0.00     0.000 C 
BRANCH   5   6
HETATM    6  C   UNL     1     -34.993  -4.905 -10.775  1.00  0.00     0.000 C 
BRANCH   6   7
HETATM    7  C   UNL     1     -34.771  -6.391 -11.046  1.00  0.00    -0.000 C 
BRANCH   7   8
HETATM    8  C   UNL     1     -34.833  -7.203  -9.755  1.00  0.00    -0.005 C 
HETATM    9  C   UNL     1     -34.068  -8.509  -9.892  1.00  0.00     0.005 C 
ENDBRANCH   7   8
ENDBRANCH   6   7
ENDBRANCH   5   6
ENDBRANCH   4   5
ENDBRANCH   3   4
ENDBRANCH   1   3
BRANCH   1  10
HETATM   10  O   UNL     1     -35.133  -1.793 -14.199  1.00  0.00    -0.319 OA
BRANCH  10  11
HETATM   11  C   UNL     1     -35.649  -0.712 -13.408  1.00  0.00     0.212 C 
BRANCH  11  12
HETATM   12  C   UNL     1     -36.857   0.015 -14.010  1.00  0.00     0.166 C 
BRANCH  12  13
HETATM   13  C   UNL     1     -36.769   0.136 -15.533  1.00  0.00     0.198 C 
BRANCH  13  14
HETATM   14  O   UNL     1     -37.137   1.456 -15.934  1.00  0.00    -0.398 OA
HETATM   15  H   UNL     1     -36.669   2.066 -15.329  1.00  0.00     0.209 HD
ENDBRANCH  13  14
ENDBRANCH  12  13
BRANCH  12  16
HETATM   16  O   UNL     1     -38.066  -0.698 -13.687  1.00  0.00    -0.391 OA
HETATM   17  H   UNL     1     -38.819  -0.202 -14.053  1.00  0.00     0.210 HD
ENDBRANCH  12  16
ENDBRANCH  11  12
ENDBRANCH  10  11
ENDBRANCH   1  10
TORSDOF 12
ENDMDL
MODEL 5
REMARK VINA RESULT:      -5.7      1.633      2.473
REMARK  12 active torsions:
REMARK  status: ('A' for Active; 'I' for Inactive)
REMARK    1  A    between atoms: C_2  and  C_3 
REMARK    2  A    between atoms: C_3  and  C_4 
REMARK    3  A    between atoms: C_4  and  C_5 
REMARK    4  A    between atoms: C_5  and  C_6 
REMARK    5  A    between atoms: C_6  and  C_7 
REMARK    6  A    between atoms: C_7  and  C_8 
REMARK    7  A    between atoms: C_8  and  O_10 
REMARK    8  A    between atoms: O_10  and  C_11 
REMARK    9  A    between atoms: C_11  and  C_12 
REMARK   10  A    between atoms: C_12  and  C_13 
REMARK   11  A    between atoms: C_12  and  O_15 
REMARK   12  A    between atoms: C_13  and  O_14 
ROOT
HETATM    1  C   UNL     1     -24.151  -3.734 -10.151  1.00  0.00     0.258 C 
HETATM    2  O   UNL     1     -24.897  -4.660  -9.858  1.00  0.00    -0.265 OA
ENDROOT
BRANCH   1   3
HETATM    3  C   UNL     1     -22.736  -3.574  -9.655  1.00  0.00     0.111 C 
BRANCH   3   4
HETATM    4  C   UNL     1     -22.548  -4.344  -8.349  1.00  0.00     0.010 C 
BRANCH   4   5
HETATM    5  C   UNL     1     -21.114  -4.278  -7.834  1.00  0.00     0.000 C 
BRANCH   5   6
HETATM    6  C   UNL     1     -20.769  -5.557  -7.068  1.00  0.00     0.000 C 
BRANCH   6   7
HETATM    7  C   UNL     1     -20.675  -5.300  -5.567  1.00  0.00    -0.000 C 
BRANCH   7   8
HETATM    8  C   UNL     1     -20.883  -6.587  -4.772  1.00  0.00    -0.005 C 
HETATM    9  C   UNL     1     -21.522  -6.301  -3.424  1.00  0.00     0.005 C 
ENDBRANCH   7   8
ENDBRANCH   6   7
ENDBRANCH   5   6
ENDBRANCH   4   5
ENDBRANCH   3   4
ENDBRANCH   1   3
BRANCH   1  10
HETATM   10  O   UNL     1     -24.464  -2.744 -11.032  1.00  0.00    -0.319 OA
BRANCH  10  11
HETATM   11  C   UNL     1     -24.455  -3.153 -12.408  1.00  0.00     0.212 C 
BRANCH  11  12
HETATM   12  C   UNL     1     -23.873  -2.125 -13.387  1.00  0.00     0.166 C 
BRANCH  12  13
HETATM   13  C   UNL     1     -23.029  -2.775 -14.486  1.00  0.00     0.198 C 
BRANCH  13  14
HETATM   14  O   UNL     1     -23.691  -3.940 -14.977  1.00  0.00    -0.398 OA
HETATM   15  H   UNL     1     -24.014  -3.715 -15.872  1.00  0.00     0.209 HD
ENDBRANCH  13  14
ENDBRANCH  12  13
BRANCH  12  16
HETATM   16  O   UNL     1     -24.940  -1.392 -14.017  1.00  0.00    -0.391 OA
HETATM   17  H   UNL     1     -24.824  -0.448 -13.811  1.00  0.00     0.210 HD
ENDBRANCH  12  16
ENDBRANCH  11  12
ENDBRANCH  10  11
ENDBRANCH   1  10
TORSDOF 12
ENDMDL
MODEL 6
REMARK VINA RESULT:      -5.7      2.341      3.686
REMARK  12 active torsions:
REMARK  status: ('A' for Active; 'I' for Inactive)
REMARK    1  A    between atoms: C_2  and  C_3 
REMARK    2  A    between atoms: C_3  and  C_4 
REMARK    3  A    between atoms: C_4  and  C_5 
REMARK    4  A    between atoms: C_5  and  C_6 
REMARK    5  A    between atoms: C_6  and  C_7 
REMARK    6  A    between atoms: C_7  and  C_8 
REMARK    7  A    between atoms: C_8  and  O_10 
REMARK    8  A    between atoms: O_10  and  C_11 
REMARK    9  A    between atoms: C_11  and  C_12 
REMARK   10  A    between atoms: C_12  and  C_13 
REMARK   11  A    between atoms: C_12  and  O_15 
REMARK   12  A    between atoms: C_13  and  O_14 
ROOT
HETATM    1  C   UNL     1     -22.581  -4.113  -8.212  1.00  0.00     0.258 C 
HETATM    2  O   UNL     1     -23.182  -4.447  -7.199  1.00  0.00    -0.265 OA
ENDROOT
BRANCH   1   3
HETATM    3  C   UNL     1     -21.081  -4.018  -8.334  1.00  0.00     0.111 C 
BRANCH   3   4
HETATM    4  C   UNL     1     -20.419  -4.459  -7.030  1.00  0.00     0.010 C 
BRANCH   4   5
HETATM    5  C   UNL     1     -19.924  -5.900  -7.084  1.00  0.00     0.000 C 
BRANCH   5   6
HETATM    6  C   UNL     1     -20.176  -6.595  -5.744  1.00  0.00     0.000 C 
BRANCH   6   7
HETATM    7  C   UNL     1     -20.987  -5.710  -4.801  1.00  0.00    -0.000 C 
BRANCH   7   8
HETATM    8  C   UNL     1     -21.946  -6.542  -3.952  1.00  0.00    -0.005 C 
HETATM    9  C   UNL     1     -21.771  -6.241  -2.473  1.00  0.00     0.005 C 
ENDBRANCH   7   8
ENDBRANCH   6   7
ENDBRANCH   5   6
ENDBRANCH   4   5
ENDBRANCH   3   4
ENDBRANCH   1   3
BRANCH   1  10
HETATM   10  O   UNL     1     -23.176  -3.847  -9.407  1.00  0.00    -0.319 OA
BRANCH  10  11
HETATM   11  C   UNL     1     -22.258  -3.582 -10.478  1.00  0.00     0.212 C 
BRANCH  11  12
HETATM   12  C   UNL     1     -22.792  -3.889 -11.883  1.00  0.00     0.166 C 
BRANCH  12  13
HETATM   13  C   UNL     1     -23.948  -2.969 -12.283  1.00  0.00     0.198 C 
BRANCH  13  14
HETATM   14  O   UNL     1     -25.029  -3.124 -11.364  1.00  0.00    -0.398 OA
HETATM   15  H   UNL     1     -25.054  -2.306 -10.830  1.00  0.00     0.209 HD
ENDBRANCH  13  14
ENDBRANCH  12  13
BRANCH  12  16
HETATM   16  O   UNL     1     -21.739  -3.731 -12.852  1.00  0.00    -0.391 OA
HETATM   17  H   UNL     1     -20.886  -3.834 -12.394  1.00  0.00     0.210 HD
ENDBRANCH  12  16
ENDBRANCH  11  12
ENDBRANCH  10  11
ENDBRANCH   1  10
TORSDOF 12
ENDMDL
MODEL 7
REMARK VINA RESULT:      -5.6      4.740      6.853
REMARK  12 active torsions:
REMARK  status: ('A' for Active; 'I' for Inactive)
REMARK    1  A    between atoms: C_2  and  C_3 
REMARK    2  A    between atoms: C_3  and  C_4 
REMARK    3  A    between atoms: C_4  and  C_5 
REMARK    4  A    between atoms: C_5  and  C_6 
REMARK    5  A    between atoms: C_6  and  C_7 
REMARK    6  A    between atoms: C_7  and  C_8 
REMARK    7  A    between atoms: C_8  and  O_10 
REMARK    8  A    between atoms: O_10  and  C_11 
REMARK    9  A    between atoms: C_11  and  C_12 
REMARK   10  A    between atoms: C_12  and  C_13 
REMARK   11  A    between atoms: C_12  and  O_15 
REMARK   12  A    between atoms: C_13  and  O_14 
ROOT
HETATM    1  C   UNL     1     -21.065  -5.918  -6.533  1.00  0.00     0.258 C 
HETATM    2  O   UNL     1     -20.132  -6.672  -6.779  1.00  0.00    -0.265 OA
ENDROOT
BRANCH   1   3
HETATM    3  C   UNL     1     -22.065  -6.116  -5.422  1.00  0.00     0.111 C 
BRANCH   3   4
HETATM    4  C   UNL     1     -21.412  -6.847  -4.251  1.00  0.00     0.010 C 
BRANCH   4   5
HETATM    5  C   UNL     1     -21.283  -5.968  -3.012  1.00  0.00     0.000 C 
BRANCH   5   6
HETATM    6  C   UNL     1     -22.159  -6.515  -1.883  1.00  0.00     0.000 C 
BRANCH   6   7
HETATM    7  C   UNL     1     -21.589  -7.810  -1.311  1.00  0.00    -0.000 C 
BRANCH   7   8
HETATM    8  C   UNL     1     -21.800  -7.887   0.199  1.00  0.00    -0.005 C 
HETATM    9  C   UNL     1     -23.257  -8.157   0.535  1.00  0.00     0.005 C 
ENDBRANCH   7   8
ENDBRANCH   6   7
ENDBRANCH   5   6
ENDBRANCH   4   5
ENDBRANCH   3   4
ENDBRANCH   1   3
BRANCH   1  10
HETATM   10  O   UNL     1     -21.295  -4.743  -7.181  1.00  0.00    -0.319 OA
BRANCH  10  11
HETATM   11  C   UNL     1     -21.953  -4.887  -8.449  1.00  0.00     0.212 C 
BRANCH  11  12
HETATM   12  C   UNL     1     -23.204  -4.019  -8.634  1.00  0.00     0.166 C 
BRANCH  12  13
HETATM   13  C   UNL     1     -24.039  -4.443  -9.844  1.00  0.00     0.198 C 
BRANCH  13  14
HETATM   14  O   UNL     1     -25.394  -4.031  -9.665  1.00  0.00    -0.398 OA
HETATM   15  H   UNL     1     -25.450  -3.662  -8.761  1.00  0.00     0.209 HD
ENDBRANCH  13  14
ENDBRANCH  12  13
BRANCH  12  16
HETATM   16  O   UNL     1     -24.038  -4.108  -7.462  1.00  0.00    -0.391 OA
HETATM   17  H   UNL     1     -24.321  -3.209  -7.222  1.00  0.00     0.210 HD
ENDBRANCH  12  16
ENDBRANCH  11  12
ENDBRANCH  10  11
ENDBRANCH   1  10
TORSDOF 12
ENDMDL
MODEL 8
REMARK VINA RESULT:      -5.4      2.260      3.881
REMARK  12 active torsions:
REMARK  status: ('A' for Active; 'I' for Inactive)
REMARK    1  A    between atoms: C_2  and  C_3 
REMARK    2  A    between atoms: C_3  and  C_4 
REMARK    3  A    between atoms: C_4  and  C_5 
REMARK    4  A    between atoms: C_5  and  C_6 
REMARK    5  A    between atoms: C_6  and  C_7 
REMARK    6  A    between atoms: C_7  and  C_8 
REMARK    7  A    between atoms: C_8  and  O_10 
REMARK    8  A    between atoms: O_10  and  C_11 
REMARK    9  A    between atoms: C_11  and  C_12 
REMARK   10  A    between atoms: C_12  and  C_13 
REMARK   11  A    between atoms: C_12  and  O_15 
REMARK   12  A    between atoms: C_13  and  O_14 
ROOT
HETATM    1  C   UNL     1     -20.935  -4.061 -10.398  1.00  0.00     0.258 C 
HETATM    2  O   UNL     1     -20.041  -4.277 -11.206  1.00  0.00    -0.265 OA
ENDROOT
BRANCH   1   3
HETATM    3  C   UNL     1     -20.999  -4.636  -9.005  1.00  0.00     0.111 C 
BRANCH   3   4
HETATM    4  C   UNL     1     -19.765  -4.218  -8.208  1.00  0.00     0.010 C 
BRANCH   4   5
HETATM    5  C   UNL     1     -19.823  -4.682  -6.756  1.00  0.00     0.000 C 
BRANCH   5   6
HETATM    6  C   UNL     1     -21.164  -5.364  -6.474  1.00  0.00     0.000 C 
BRANCH   6   7
HETATM    7  C   UNL     1     -20.968  -6.721  -5.803  1.00  0.00    -0.000 C 
BRANCH   7   8
HETATM    8  C   UNL     1     -21.952  -6.914  -4.651  1.00  0.00    -0.005 C 
HETATM    9  C   UNL     1     -21.462  -6.222  -3.390  1.00  0.00     0.005 C 
ENDBRANCH   7   8
ENDBRANCH   6   7
ENDBRANCH   5   6
ENDBRANCH   4   5
ENDBRANCH   3   4
ENDBRANCH   1   3
BRANCH   1  10
HETATM   10  O   UNL     1     -21.974  -3.206 -10.611  1.00  0.00    -0.319 OA
BRANCH  10  11
HETATM   11  C   UNL     1     -22.600  -3.345 -11.895  1.00  0.00     0.212 C 
BRANCH  11  12
HETATM   12  C   UNL     1     -24.125  -3.504 -11.860  1.00  0.00     0.166 C 
BRANCH  12  13
HETATM   13  C   UNL     1     -24.704  -3.304 -10.458  1.00  0.00     0.198 C 
BRANCH  13  14
HETATM   14  O   UNL     1     -24.802  -4.563  -9.792  1.00  0.00    -0.398 OA
HETATM   15  H   UNL     1     -24.982  -4.363  -8.852  1.00  0.00     0.209 HD
ENDBRANCH  13  14
ENDBRANCH  12  13
BRANCH  12  16
HETATM   16  O   UNL     1     -24.737  -2.541 -12.739  1.00  0.00    -0.391 OA
HETATM   17  H   UNL     1     -24.452  -2.735 -13.649  1.00  0.00     0.210 HD
ENDBRANCH  12  16
ENDBRANCH  11  12
ENDBRANCH  10  11
ENDBRANCH   1  10
TORSDOF 12
ENDMDL
MODEL 9
REMARK VINA RESULT:      -5.3      7.857     10.250
REMARK  12 active torsions:
REMARK  status: ('A' for Active; 'I' for Inactive)
REMARK    1  A    between atoms: C_2  and  C_3 
REMARK    2  A    between atoms: C_3  and  C_4 
REMARK    3  A    between atoms: C_4  and  C_5 
REMARK    4  A    between atoms: C_5  and  C_6 
REMARK    5  A    between atoms: C_6  and  C_7 
REMARK    6  A    between atoms: C_7  and  C_8 
REMARK    7  A    between atoms: C_8  and  O_10 
REMARK    8  A    between atoms: O_10  and  C_11 
REMARK    9  A    between atoms: C_11  and  C_12 
REMARK   10  A    between atoms: C_12  and  C_13 
REMARK   11  A    between atoms: C_12  and  O_15 
REMARK   12  A    between atoms: C_13  and  O_14 
ROOT
HETATM    1  C   UNL     1     -25.032  -7.303 -16.524  1.00  0.00     0.258 C 
HETATM    2  O   UNL     1     -24.244  -8.182 -16.201  1.00  0.00    -0.265 OA
ENDROOT
BRANCH   1   3
HETATM    3  C   UNL     1     -26.256  -6.908 -15.736  1.00  0.00     0.111 C 
BRANCH   3   4
HETATM    4  C   UNL     1     -27.357  -6.430 -16.680  1.00  0.00     0.010 C 
BRANCH   4   5
HETATM    5  C   UNL     1     -28.753  -6.781 -16.175  1.00  0.00     0.000 C 
BRANCH   5   6
HETATM    6  C   UNL     1     -29.588  -7.383 -17.307  1.00  0.00     0.000 C 
BRANCH   6   7
HETATM    7  C   UNL     1     -30.973  -6.746 -17.377  1.00  0.00    -0.000 C 
BRANCH   7   8
HETATM    8  C   UNL     1     -30.908  -5.248 -17.084  1.00  0.00    -0.005 C 
HETATM    9  C   UNL     1     -32.287  -4.691 -16.776  1.00  0.00     0.005 C 
ENDBRANCH   7   8
ENDBRANCH   6   7
ENDBRANCH   5   6
ENDBRANCH   4   5
ENDBRANCH   3   4
ENDBRANCH   1   3
BRANCH   1  10
HETATM   10  O   UNL     1     -24.882  -6.496 -17.611  1.00  0.00    -0.319 OA
BRANCH  10  11
HETATM   11  C   UNL     1     -24.300  -7.144 -18.752  1.00  0.00     0.212 C 
BRANCH  11  12
HETATM   12  C   UNL     1     -25.043  -6.921 -20.075  1.00  0.00     0.166 C 
BRANCH  12  13
HETATM   13  C   UNL     1     -24.589  -7.886 -21.173  1.00  0.00     0.198 C 
BRANCH  13  14
HETATM   14  O   UNL     1     -25.704  -8.647 -21.637  1.00  0.00    -0.398 OA
HETATM   15  H   UNL     1     -26.456  -8.413 -21.058  1.00  0.00     0.209 HD
ENDBRANCH  13  14
ENDBRANCH  12  13
BRANCH  12  16
HETATM   16  O   UNL     1     -26.458  -7.103 -19.876  1.00  0.00    -0.391 OA
HETATM   17  H   UNL     1     -26.908  -6.275 -20.117  1.00  0.00     0.210 HD
ENDBRANCH  12  16
ENDBRANCH  11  12
ENDBRANCH  10  11
ENDBRANCH   1  10
TORSDOF 12
ENDMDL
