MODEL 1
REMARK VINA RESULT:      -4.2      0.000      0.000
REMARK  4 active torsions:
REMARK  status: ('A' for Active; 'I' for Inactive)
REMARK    1  A    between atoms: C_2  and  N_3 
REMARK    2  A    between atoms: C_2  and  P_4 
REMARK    3  A    between atoms: P_4  and  O_5 
REMARK    4  A    between atoms: P_4  and  O_7 
ROOT
HETATM    1  C   UNL     1     -24.102  -3.322 -11.829  1.00  0.00     0.052 C 
HETATM    2  C   UNL     1     -22.867  -2.796 -12.538  1.00  0.00     0.295 C 
ENDROOT
BRANCH   2   3
HETATM    3  N   UNL     1     -21.768  -3.778 -12.581  1.00  0.00     0.091 N 
HETATM    4  H   UNL     1     -20.985  -3.405 -12.036  1.00  0.00     0.313 HD
HETATM    5  H   UNL     1     -21.413  -3.813 -13.541  1.00  0.00     0.313 HD
ENDBRANCH   2   3
BRANCH   2   6
HETATM    6  P   UNL     1     -23.132  -2.490 -14.357  1.00  0.00     0.197 P 
BRANCH   6   7
HETATM    7  O   UNL     1     -23.872  -3.703 -14.687  1.00  0.00    -0.348 OA
ATOM      8  HO  UNL     1     -23.301  -4.046 -15.364  1.00  0.00     0.217 HD
ENDBRANCH   6   7
BRANCH   6   9
HETATM    9  O   UNL     1     -24.406  -1.492 -14.249  1.00  0.00    -0.348 OA
HETATM   10  H   UNL     1     -25.188  -2.018 -14.531  1.00  0.00     0.217 HD
ENDBRANCH   6   9
ENDBRANCH   2   6
TORSDOF 4
ENDMDL
MODEL 2
REMARK VINA RESULT:      -4.0     14.691     15.045
REMARK  4 active torsions:
REMARK  status: ('A' for Active; 'I' for Inactive)
REMARK    1  A    between atoms: C_2  and  N_3 
REMARK    2  A    between atoms: C_2  and  P_4 
REMARK    3  A    between atoms: P_4  and  O_5 
REMARK    4  A    between atoms: P_4  and  O_7 
ROOT
HETATM    1  C   UNL     1     -31.205 -14.811 -21.548  1.00  0.00     0.052 C 
HETATM    2  C   UNL     1     -29.801 -14.958 -20.987  1.00  0.00     0.295 C 
ENDROOT
BRANCH   2   3
HETATM    3  N   UNL     1     -28.837 -14.028 -21.601  1.00  0.00     0.091 N 
HETATM    4  H   UNL     1     -28.002 -14.560 -21.864  1.00  0.00     0.313 HD
HETATM    5  H   UNL     1     -28.509 -13.386 -20.872  1.00  0.00     0.313 HD
ENDBRANCH   2   3
BRANCH   2   6
HETATM    6  P   UNL     1     -29.667 -14.467 -19.194  1.00  0.00     0.197 P 
BRANCH   6   7
HETATM    7  O   UNL     1     -29.246 -13.081 -19.368  1.00  0.00    -0.348 OA
ATOM      8  HO  UNL     1     -29.955 -12.652 -18.904  1.00  0.00     0.217 HD
ENDBRANCH   6   7
BRANCH   6   9
HETATM    9  O   UNL     1     -31.236 -14.173 -18.907  1.00  0.00    -0.348 OA
HETATM   10  H   UNL     1     -31.277 -13.270 -18.521  1.00  0.00     0.217 HD
ENDBRANCH   6   9
ENDBRANCH   2   6
TORSDOF 4
ENDMDL
MODEL 3
REMARK VINA RESULT:      -4.0      1.498      1.586
REMARK  4 active torsions:
REMARK  status: ('A' for Active; 'I' for Inactive)
REMARK    1  A    between atoms: C_2  and  N_3 
REMARK    2  A    between atoms: C_2  and  P_4 
REMARK    3  A    between atoms: P_4  and  O_5 
REMARK    4  A    between atoms: P_4  and  O_7 
ROOT
HETATM    1  C   UNL     1     -22.274  -3.356 -11.238  1.00  0.00     0.052 C 
HETATM    2  C   UNL     1     -23.370  -3.677 -12.238  1.00  0.00     0.295 C 
ENDROOT
BRANCH   2   3
HETATM    3  N   UNL     1     -24.702  -3.226 -11.795  1.00  0.00     0.091 N 
HETATM    4  H   UNL     1     -25.405  -3.831 -12.228  1.00  0.00     0.313 HD
HETATM    5  H   UNL     1     -24.875  -2.303 -12.203  1.00  0.00     0.313 HD
ENDBRANCH   2   3
BRANCH   2   6
HETATM    6  P   UNL     1     -23.203  -2.743 -13.843  1.00  0.00     0.197 P 
BRANCH   6   7
HETATM    7  O   UNL     1     -23.753  -3.745 -14.749  1.00  0.00    -0.348 OA
ATOM      8  HO  UNL     1     -24.638  -3.786 -14.405  1.00  0.00     0.217 HD
ENDBRANCH   6   7
BRANCH   6   9
HETATM    9  O   UNL     1     -24.530  -1.819 -13.723  1.00  0.00    -0.348 OA
HETATM   10  H   UNL     1     -25.161  -2.162 -14.395  1.00  0.00     0.217 HD
ENDBRANCH   6   9
ENDBRANCH   2   6
TORSDOF 4
ENDMDL
MODEL 4
REMARK VINA RESULT:      -4.0      1.359      1.903
REMARK  4 active torsions:
REMARK  status: ('A' for Active; 'I' for Inactive)
REMARK    1  A    between atoms: C_2  and  N_3 
REMARK    2  A    between atoms: C_2  and  P_4 
REMARK    3  A    between atoms: P_4  and  O_5 
REMARK    4  A    between atoms: P_4  and  O_7 
ROOT
HETATM    1  C   UNL     1     -22.509  -3.671 -10.628  1.00  0.00     0.052 C 
HETATM    2  C   UNL     1     -22.651  -2.971 -11.968  1.00  0.00     0.295 C 
ENDROOT
BRANCH   2   3
HETATM    3  N   UNL     1     -21.860  -3.610 -13.036  1.00  0.00     0.091 N 
HETATM    4  H   UNL     1     -20.868  -3.441 -12.844  1.00  0.00     0.313 HD
HETATM    5  H   UNL     1     -22.039  -3.103 -13.908  1.00  0.00     0.313 HD
ENDBRANCH   2   3
BRANCH   2   6
HETATM    6  P   UNL     1     -24.367  -3.091 -12.686  1.00  0.00     0.197 P 
BRANCH   6   7
HETATM    7  O   UNL     1     -24.344  -1.903 -13.531  1.00  0.00    -0.348 OA
ATOM      8  HO  UNL     1     -23.800  -2.232 -14.236  1.00  0.00     0.217 HD
ENDBRANCH   6   7
BRANCH   6   9
HETATM    9  O   UNL     1     -24.064  -4.180 -13.850  1.00  0.00    -0.348 OA
HETATM   10  H   UNL     1     -24.539  -4.999 -13.586  1.00  0.00     0.217 HD
ENDBRANCH   6   9
ENDBRANCH   2   6
TORSDOF 4
ENDMDL
MODEL 5
REMARK VINA RESULT:      -3.9     14.508     14.894
REMARK  4 active torsions:
REMARK  status: ('A' for Active; 'I' for Inactive)
REMARK    1  A    between atoms: C_2  and  N_3 
REMARK    2  A    between atoms: C_2  and  P_4 
REMARK    3  A    between atoms: P_4  and  O_5 
REMARK    4  A    between atoms: P_4  and  O_7 
ROOT
HETATM    1  C   UNL     1     -28.738 -13.641 -18.864  1.00  0.00     0.052 C 
HETATM    2  C   UNL     1     -29.615 -14.813 -19.269  1.00  0.00     0.295 C 
ENDROOT
BRANCH   2   3
HETATM    3  N   UNL     1     -31.008 -14.674 -18.808  1.00  0.00     0.091 N 
HETATM    4  H   UNL     1     -31.619 -15.128 -19.492  1.00  0.00     0.313 HD
HETATM    5  H   UNL     1     -31.261 -13.682 -18.861  1.00  0.00     0.313 HD
ENDBRANCH   2   3
BRANCH   2   6
HETATM    6  P   UNL     1     -29.869 -14.943 -21.111  1.00  0.00     0.197 P 
BRANCH   6   7
HETATM    7  O   UNL     1     -31.117 -14.198 -21.223  1.00  0.00    -0.348 OA
ATOM      8  HO  UNL     1     -31.554 -14.522 -20.444  1.00  0.00     0.217 HD
ENDBRANCH   6   7
BRANCH   6   9
HETATM    9  O   UNL     1     -28.872 -13.751 -21.576  1.00  0.00    -0.348 OA
HETATM   10  H   UNL     1     -28.308 -13.550 -20.797  1.00  0.00     0.217 HD
ENDBRANCH   6   9
ENDBRANCH   2   6
TORSDOF 4
ENDMDL
MODEL 6
REMARK VINA RESULT:      -3.9      3.930      4.029
REMARK  4 active torsions:
REMARK  status: ('A' for Active; 'I' for Inactive)
REMARK    1  A    between atoms: C_2  and  N_3 
REMARK    2  A    between atoms: C_2  and  P_4 
REMARK    3  A    between atoms: P_4  and  O_5 
REMARK    4  A    between atoms: P_4  and  O_7 
ROOT
HETATM    1  C   UNL     1     -22.351  -3.426 -11.877  1.00  0.00     0.052 C 
HETATM    2  C   UNL     1     -23.710  -2.973 -11.373  1.00  0.00     0.295 C 
ENDROOT
BRANCH   2   3
HETATM    3  N   UNL     1     -24.787  -3.183 -12.357  1.00  0.00     0.091 N 
HETATM    4  H   UNL     1     -24.432  -2.919 -13.281  1.00  0.00     0.313 HD
HETATM    5  H   UNL     1     -25.527  -2.501 -12.166  1.00  0.00     0.313 HD
ENDBRANCH   2   3
BRANCH   2   6
HETATM    6  P   UNL     1     -24.343  -3.988  -9.943  1.00  0.00     0.197 P 
BRANCH   6   7
HETATM    7  O   UNL     1     -23.623  -3.329  -8.859  1.00  0.00    -0.348 OA
ATOM      8  HO  UNL     1     -22.751  -3.333  -9.236  1.00  0.00     0.217 HD
ENDBRANCH   6   7
BRANCH   6   9
HETATM    9  O   UNL     1     -25.767  -3.241  -9.730  1.00  0.00    -0.348 OA
HETATM   10  H   UNL     1     -25.569  -2.279  -9.709  1.00  0.00     0.217 HD
ENDBRANCH   6   9
ENDBRANCH   2   6
TORSDOF 4
ENDMDL
MODEL 7
REMARK VINA RESULT:      -3.6      7.630      7.734
REMARK  4 active torsions:
REMARK  status: ('A' for Active; 'I' for Inactive)
REMARK    1  A    between atoms: C_2  and  N_3 
REMARK    2  A    between atoms: C_2  and  P_4 
REMARK    3  A    between atoms: P_4  and  O_5 
REMARK    4  A    between atoms: P_4  and  O_7 
ROOT
HETATM    1  C   UNL     1     -28.993  -6.233 -18.482  1.00  0.00     0.052 C 
HETATM    2  C   UNL     1     -29.343  -6.969 -17.201  1.00  0.00     0.295 C 
ENDROOT
BRANCH   2   3
HETATM    3  N   UNL     1     -29.325  -8.435 -17.358  1.00  0.00     0.091 N 
HETATM    4  H   UNL     1     -29.749  -8.851 -16.524  1.00  0.00     0.313 HD
HETATM    5  H   UNL     1     -28.348  -8.743 -17.325  1.00  0.00     0.313 HD
ENDBRANCH   2   3
BRANCH   2   6
HETATM    6  P   UNL     1     -28.078  -6.745 -15.851  1.00  0.00     0.197 P 
BRANCH   6   7
HETATM    7  O   UNL     1     -27.072  -6.002 -16.602  1.00  0.00    -0.348 OA
ATOM      8  HO  UNL     1     -27.649  -5.488 -17.154  1.00  0.00     0.217 HD
ENDBRANCH   6   7
BRANCH   6   9
HETATM    9  O   UNL     1     -28.753  -5.478 -15.097  1.00  0.00    -0.348 OA
HETATM   10  H   UNL     1     -29.158  -4.926 -15.802  1.00  0.00     0.217 HD
ENDBRANCH   6   9
ENDBRANCH   2   6
TORSDOF 4
ENDMDL
MODEL 8
REMARK VINA RESULT:      -3.6     14.978     15.246
REMARK  4 active torsions:
REMARK  status: ('A' for Active; 'I' for Inactive)
REMARK    1  A    between atoms: C_2  and  N_3 
REMARK    2  A    between atoms: C_2  and  P_4 
REMARK    3  A    between atoms: P_4  and  O_5 
REMARK    4  A    between atoms: P_4  and  O_7 
ROOT
HETATM    1  C   UNL     1     -29.260 -14.611 -21.537  1.00  0.00     0.052 C 
HETATM    2  C   UNL     1     -30.497 -14.804 -20.677  1.00  0.00     0.295 C 
ENDROOT
BRANCH   2   3
HETATM    3  N   UNL     1     -30.952 -16.205 -20.631  1.00  0.00     0.091 N 
HETATM    4  H   UNL     1     -30.970 -16.568 -21.589  1.00  0.00     0.313 HD
HETATM    5  H   UNL     1     -31.934 -16.209 -20.341  1.00  0.00     0.313 HD
ENDBRANCH   2   3
BRANCH   2   6
HETATM    6  P   UNL     1     -30.198 -14.475 -18.867  1.00  0.00     0.197 P 
BRANCH   6   7
HETATM    7  O   UNL     1     -29.057 -15.359 -18.660  1.00  0.00    -0.348 OA
ATOM      8  HO  UNL     1     -29.272 -16.030 -19.297  1.00  0.00     0.217 HD
ENDBRANCH   6   7
BRANCH   6   9
HETATM    9  O   UNL     1     -29.364 -13.090 -19.010  1.00  0.00    -0.348 OA
HETATM   10  H   UNL     1     -28.443 -13.350 -19.234  1.00  0.00     0.217 HD
ENDBRANCH   6   9
ENDBRANCH   2   6
TORSDOF 4
ENDMDL
MODEL 9
REMARK VINA RESULT:      -3.5     15.950     16.215
REMARK  4 active torsions:
REMARK  status: ('A' for Active; 'I' for Inactive)
REMARK    1  A    between atoms: C_2  and  N_3 
REMARK    2  A    between atoms: C_2  and  P_4 
REMARK    3  A    between atoms: P_4  and  O_5 
REMARK    4  A    between atoms: P_4  and  O_7 
ROOT
HETATM    1  C   UNL     1     -29.849 -14.560 -19.491  1.00  0.00     0.052 C 
HETATM    2  C   UNL     1     -29.963 -14.553 -21.006  1.00  0.00     0.295 C 
ENDROOT
BRANCH   2   3
HETATM    3  N   UNL     1     -28.779 -13.974 -21.667  1.00  0.00     0.091 N 
HETATM    4  H   UNL     1     -28.240 -14.738 -22.085  1.00  0.00     0.313 HD
HETATM    5  H   UNL     1     -28.164 -13.597 -20.940  1.00  0.00     0.313 HD
ENDBRANCH   2   3
BRANCH   2   6
HETATM    6  P   UNL     1     -29.980 -16.260 -21.754  1.00  0.00     0.197 P 
BRANCH   6   7
HETATM    7  O   UNL     1     -29.243 -16.972 -20.716  1.00  0.00    -0.348 OA
ATOM      8  HO  UNL     1     -28.386 -16.586 -20.852  1.00  0.00     0.217 HD
ENDBRANCH   6   7
BRANCH   6   9
HETATM    9  O   UNL     1     -31.470 -16.707 -21.295  1.00  0.00    -0.348 OA
HETATM   10  H   UNL     1     -31.357 -17.211 -20.459  1.00  0.00     0.217 HD
ENDBRANCH   6   9
ENDBRANCH   2   6
TORSDOF 4
ENDMDL
