MODEL 1
REMARK VINA RESULT:      -5.3      0.000      0.000
REMARK  1 active torsions:
REMARK  status: ('A' for Active; 'I' for Inactive)
REMARK    1  A    between atoms: C_7  and  O_9 
ROOT
HETATM    1  C   UNL     1     -22.268  -7.147  -1.691  1.00  0.00     0.016 C 
HETATM    2  C   UNL     1     -21.487  -8.171  -0.835  1.00  0.00    -0.034 C 
HETATM    3  C   UNL     1     -21.547  -7.909   0.691  1.00  0.00    -0.004 C 
HETATM    4  C   UNL     1     -23.052  -8.039   1.015  1.00  0.00     0.006 C 
HETATM    5  C   UNL     1     -23.511  -9.163   0.068  1.00  0.00     0.013 C 
HETATM    6  C   UNL     1     -22.196  -9.557  -0.670  1.00  0.00    -0.011 C 
HETATM    7  C   UNL     1     -21.347 -10.302   0.408  1.00  0.00     0.127 C 
HETATM    8  C   UNL     1     -20.848  -9.152   1.301  1.00  0.00     0.038 C 
HETATM    9  C   UNL     1     -22.446 -10.348  -1.939  1.00  0.00     0.018 C 
HETATM   10  C   UNL     1     -20.057  -8.180  -1.408  1.00  0.00     0.016 C 
ENDROOT
BRANCH   7  11
HETATM   11  O   UNL     1     -20.280 -11.083  -0.099  1.00  0.00    -0.395 OA
HETATM   12  H   UNL     1     -20.389 -11.205  -1.055  1.00  0.00     0.210 HD
ENDBRANCH   7  11
TORSDOF 1
ENDMDL
MODEL 2
REMARK VINA RESULT:      -5.2      1.194      2.634
REMARK  1 active torsions:
REMARK  status: ('A' for Active; 'I' for Inactive)
REMARK    1  A    between atoms: C_7  and  O_9 
ROOT
HETATM    1  C   UNL     1     -20.786  -8.604   1.645  1.00  0.00     0.016 C 
HETATM    2  C   UNL     1     -21.351  -9.442   0.475  1.00  0.00    -0.034 C 
HETATM    3  C   UNL     1     -22.890  -9.614   0.495  1.00  0.00    -0.004 C 
HETATM    4  C   UNL     1     -23.412  -8.166   0.362  1.00  0.00     0.006 C 
HETATM    5  C   UNL     1     -22.384  -7.517  -0.584  1.00  0.00     0.013 C 
HETATM    6  C   UNL     1     -21.407  -8.691  -0.896  1.00  0.00    -0.011 C 
HETATM    7  C   UNL     1     -22.221  -9.643  -1.829  1.00  0.00     0.127 C 
HETATM    8  C   UNL     1     -23.194 -10.324  -0.851  1.00  0.00     0.038 C 
HETATM    9  C   UNL     1     -20.084  -8.221  -1.469  1.00  0.00     0.018 C 
HETATM   10  C   UNL     1     -20.577 -10.774   0.513  1.00  0.00     0.016 C 
ENDROOT
BRANCH   7  11
HETATM   11  O   UNL     1     -21.448 -10.583  -2.552  1.00  0.00    -0.395 OA
HETATM   12  H   UNL     1     -22.033 -11.157  -3.071  1.00  0.00     0.210 HD
ENDBRANCH   7  11
TORSDOF 1
ENDMDL
MODEL 3
REMARK VINA RESULT:      -4.9      1.133      2.606
REMARK  1 active torsions:
REMARK  status: ('A' for Active; 'I' for Inactive)
REMARK    1  A    between atoms: C_7  and  O_9 
ROOT
HETATM    1  C   UNL     1     -23.567 -10.327  -0.024  1.00  0.00     0.016 C 
HETATM    2  C   UNL     1     -22.411  -9.764  -0.882  1.00  0.00    -0.034 C 
HETATM    3  C   UNL     1     -22.353  -8.216  -0.943  1.00  0.00    -0.004 C 
HETATM    4  C   UNL     1     -22.118  -7.812   0.530  1.00  0.00     0.006 C 
HETATM    5  C   UNL     1     -21.200  -8.933   1.052  1.00  0.00     0.013 C 
HETATM    6  C   UNL     1     -21.002  -9.834  -0.204  1.00  0.00    -0.011 C 
HETATM    7  C   UNL     1     -20.075  -9.002  -1.145  1.00  0.00     0.127 C 
HETATM    8  C   UNL     1     -21.030  -7.932  -1.701  1.00  0.00     0.038 C 
HETATM    9  C   UNL     1     -20.481 -11.217   0.138  1.00  0.00     0.018 C 
HETATM   10  C   UNL     1     -22.559 -10.433  -2.261  1.00  0.00     0.016 C 
ENDROOT
BRANCH   7  11
HETATM   11  O   UNL     1     -19.444  -9.739  -2.176  1.00  0.00    -0.395 OA
HETATM   12  H   UNL     1     -19.666  -9.353  -3.037  1.00  0.00     0.210 HD
ENDBRANCH   7  11
TORSDOF 1
ENDMDL
MODEL 4
REMARK VINA RESULT:      -4.8     18.884     20.003
REMARK  1 active torsions:
REMARK  status: ('A' for Active; 'I' for Inactive)
REMARK    1  A    between atoms: C_7  and  O_9 
ROOT
HETATM    1  C   UNL     1     -13.135  10.038   1.525  1.00  0.00     0.016 C 
HETATM    2  C   UNL     1     -14.515  10.025   2.221  1.00  0.00    -0.034 C 
HETATM    3  C   UNL     1     -15.621   9.276   1.437  1.00  0.00    -0.004 C 
HETATM    4  C   UNL     1     -15.089   7.827   1.368  1.00  0.00     0.006 C 
HETATM    5  C   UNL     1     -14.388   7.655   2.729  1.00  0.00     0.013 C 
HETATM    6  C   UNL     1     -14.629   9.030   3.423  1.00  0.00    -0.011 C 
HETATM    7  C   UNL     1     -16.148   9.028   3.784  1.00  0.00     0.127 C 
HETATM    8  C   UNL     1     -16.821   9.266   2.421  1.00  0.00     0.038 C 
HETATM    9  C   UNL     1     -13.699   9.270   4.596  1.00  0.00     0.018 C 
HETATM   10  C   UNL     1     -14.847  11.503   2.502  1.00  0.00     0.016 C 
ENDROOT
BRANCH   7  11
HETATM   11  O   UNL     1     -16.540   9.990   4.746  1.00  0.00    -0.395 OA
HETATM   12  H   UNL     1     -17.505   9.983   4.841  1.00  0.00     0.210 HD
ENDBRANCH   7  11
TORSDOF 1
ENDMDL
MODEL 5
REMARK VINA RESULT:      -4.8      1.155      2.358
REMARK  1 active torsions:
REMARK  status: ('A' for Active; 'I' for Inactive)
REMARK    1  A    between atoms: C_7  and  O_9 
ROOT
HETATM    1  C   UNL     1     -22.731  -8.000  -0.169  1.00  0.00     0.016 C 
HETATM    2  C   UNL     1     -21.923  -9.282   0.133  1.00  0.00    -0.034 C 
HETATM    3  C   UNL     1     -22.787 -10.552   0.337  1.00  0.00    -0.004 C 
HETATM    4  C   UNL     1     -23.494 -10.723  -1.026  1.00  0.00     0.006 C 
HETATM    5  C   UNL     1     -22.418 -10.267  -2.030  1.00  0.00     0.013 C 
HETATM    6  C   UNL     1     -21.211  -9.912  -1.110  1.00  0.00    -0.011 C 
HETATM    7  C   UNL     1     -20.684 -11.290  -0.600  1.00  0.00     0.127 C 
HETATM    8  C   UNL     1     -21.740 -11.691   0.445  1.00  0.00     0.038 C 
HETATM    9  C   UNL     1     -20.172  -9.053  -1.806  1.00  0.00     0.018 C 
HETATM   10  C   UNL     1     -21.037  -8.934   1.345  1.00  0.00     0.016 C 
ENDROOT
BRANCH   7  11
HETATM   11  O   UNL     1     -19.377 -11.272  -0.056  1.00  0.00    -0.395 OA
HETATM   12  H   UNL     1     -19.034 -10.365  -0.059  1.00  0.00     0.210 HD
ENDBRANCH   7  11
TORSDOF 1
ENDMDL
MODEL 6
REMARK VINA RESULT:      -4.7      1.540      3.339
REMARK  1 active torsions:
REMARK  status: ('A' for Active; 'I' for Inactive)
REMARK    1  A    between atoms: C_7  and  O_9 
ROOT
HETATM    1  C   UNL     1     -21.527 -11.928   0.811  1.00  0.00     0.016 C 
HETATM    2  C   UNL     1     -21.305 -10.941  -0.359  1.00  0.00    -0.034 C 
HETATM    3  C   UNL     1     -22.248 -11.158  -1.568  1.00  0.00    -0.004 C 
HETATM    4  C   UNL     1     -23.652 -10.910  -0.972  1.00  0.00     0.006 C 
HETATM    5  C   UNL     1     -23.399  -9.781   0.044  1.00  0.00     0.013 C 
HETATM    6  C   UNL     1     -21.873  -9.504  -0.115  1.00  0.00    -0.011 C 
HETATM    7  C   UNL     1     -21.743  -8.794  -1.500  1.00  0.00     0.127 C 
HETATM    8  C   UNL     1     -21.935  -9.953  -2.494  1.00  0.00     0.038 C 
HETATM    9  C   UNL     1     -21.289  -8.730   1.051  1.00  0.00     0.018 C 
HETATM   10  C   UNL     1     -19.809 -11.052  -0.711  1.00  0.00     0.016 C 
ENDROOT
BRANCH   7  11
HETATM   11  O   UNL     1     -20.524  -8.107  -1.713  1.00  0.00    -0.395 OA
HETATM   12  H   UNL     1     -19.780  -8.719  -1.604  1.00  0.00     0.210 HD
ENDBRANCH   7  11
TORSDOF 1
ENDMDL
MODEL 7
REMARK VINA RESULT:      -4.7     16.151     17.548
REMARK  1 active torsions:
REMARK  status: ('A' for Active; 'I' for Inactive)
REMARK    1  A    between atoms: C_7  and  O_9 
ROOT
HETATM    1  C   UNL     1     -25.292   6.119  -3.467  1.00  0.00     0.016 C 
HETATM    2  C   UNL     1     -25.230   7.334  -2.513  1.00  0.00    -0.034 C 
HETATM    3  C   UNL     1     -24.783   6.994  -1.069  1.00  0.00    -0.004 C 
HETATM    4  C   UNL     1     -23.352   6.442  -1.261  1.00  0.00     0.006 C 
HETATM    5  C   UNL     1     -22.804   7.303  -2.413  1.00  0.00     0.013 C 
HETATM    6  C   UNL     1     -23.990   8.266  -2.724  1.00  0.00    -0.011 C 
HETATM    7  C   UNL     1     -24.030   9.248  -1.512  1.00  0.00     0.127 C 
HETATM    8  C   UNL     1     -24.640   8.383  -0.395  1.00  0.00     0.038 C 
HETATM    9  C   UNL     1     -23.867   8.935  -4.080  1.00  0.00     0.018 C 
HETATM   10  C   UNL     1     -26.621   7.991  -2.593  1.00  0.00     0.016 C 
ENDROOT
BRANCH   7  11
HETATM   11  O   UNL     1     -24.765  10.439  -1.725  1.00  0.00    -0.395 OA
HETATM   12  H   UNL     1     -25.694  10.298  -1.483  1.00  0.00     0.210 HD
ENDBRANCH   7  11
TORSDOF 1
ENDMDL
MODEL 8
REMARK VINA RESULT:      -4.7     15.830     17.396
REMARK  1 active torsions:
REMARK  status: ('A' for Active; 'I' for Inactive)
REMARK    1  A    between atoms: C_7  and  O_9 
ROOT
HETATM    1  C   UNL     1     -25.695   7.872  -0.290  1.00  0.00     0.016 C 
HETATM    2  C   UNL     1     -24.884   8.319  -1.529  1.00  0.00    -0.034 C 
HETATM    3  C   UNL     1     -23.350   8.163  -1.382  1.00  0.00    -0.004 C 
HETATM    4  C   UNL     1     -23.164   6.641  -1.193  1.00  0.00     0.006 C 
HETATM    5  C   UNL     1     -24.254   6.046  -2.105  1.00  0.00     0.013 C 
HETATM    6  C   UNL     1     -24.917   7.313  -2.727  1.00  0.00    -0.011 C 
HETATM    7  C   UNL     1     -23.854   7.864  -3.728  1.00  0.00     0.127 C 
HETATM    8  C   UNL     1     -22.813   8.508  -2.795  1.00  0.00     0.038 C 
HETATM    9  C   UNL     1     -26.276   7.027  -3.338  1.00  0.00     0.018 C 
HETATM   10  C   UNL     1     -25.336   9.764  -1.816  1.00  0.00     0.016 C 
ENDROOT
BRANCH   7  11
HETATM   11  O   UNL     1     -24.347   8.781  -4.687  1.00  0.00    -0.395 OA
HETATM   12  H   UNL     1     -23.714   8.864  -5.417  1.00  0.00     0.210 HD
ENDBRANCH   7  11
TORSDOF 1
ENDMDL
MODEL 9
REMARK VINA RESULT:      -4.6     15.597     17.305
REMARK  1 active torsions:
REMARK  status: ('A' for Active; 'I' for Inactive)
REMARK    1  A    between atoms: C_7  and  O_9 
ROOT
HETATM    1  C   UNL     1     -23.547   8.260   0.188  1.00  0.00     0.016 C 
HETATM    2  C   UNL     1     -24.439   8.107  -1.066  1.00  0.00    -0.034 C 
HETATM    3  C   UNL     1     -24.251   9.222  -2.125  1.00  0.00    -0.004 C 
HETATM    4  C   UNL     1     -22.773   9.066  -2.547  1.00  0.00     0.006 C 
HETATM    5  C   UNL     1     -22.561   7.541  -2.498  1.00  0.00     0.013 C 
HETATM    6  C   UNL     1     -23.963   7.008  -2.073  1.00  0.00    -0.011 C 
HETATM    7  C   UNL     1     -24.863   7.218  -3.331  1.00  0.00     0.127 C 
HETATM    8  C   UNL     1     -25.112   8.736  -3.320  1.00  0.00     0.038 C 
HETATM    9  C   UNL     1     -23.921   5.583  -1.554  1.00  0.00     0.018 C 
HETATM   10  C   UNL     1     -25.880   7.993  -0.534  1.00  0.00     0.016 C 
ENDROOT
BRANCH   7  11
HETATM   11  O   UNL     1     -26.072   6.481  -3.338  1.00  0.00    -0.395 OA
HETATM   12  H   UNL     1     -26.693   6.877  -3.969  1.00  0.00     0.210 HD
ENDBRANCH   7  11
TORSDOF 1
ENDMDL
