MODEL 1
REMARK VINA RESULT:      -6.9      0.000      0.000
REMARK  15 active torsions:
REMARK  status: ('A' for Active; 'I' for Inactive)
REMARK    1  A    between atoms: C_2  and  C_3 
REMARK    2  A    between atoms: C_3  and  C_4 
REMARK    3  A    between atoms: C_4  and  C_5 
REMARK    4  A    between atoms: C_5  and  C_6 
REMARK    5  A    between atoms: C_6  and  C_7 
REMARK    6  A    between atoms: C_7  and  C_8 
REMARK    7  A    between atoms: C_8  and  O_10 
REMARK    8  A    between atoms: O_10  and  C_11 
REMARK    9  A    between atoms: C_11  and  C_12 
REMARK   10  A    between atoms: C_12  and  C_13 
REMARK   11  A    between atoms: C_12  and  C_16 
REMARK   12  A    between atoms: C_13  and  C_14 
REMARK   13  A    between atoms: C_16  and  C_17 
REMARK   14  A    between atoms: C_17  and  C_18 
REMARK   15  A    between atoms: C_18  and  C_19 
ROOT
HETATM    1  O   UNL     1     -35.839  -2.750 -11.903  1.00  0.00    -0.321 OA
ENDROOT
BRANCH   1   2
HETATM    2  C   UNL     1     -34.647  -2.951 -12.542  1.00  0.00     0.258 C 
HETATM    3  O   UNL     1     -34.462  -2.904 -13.748  1.00  0.00    -0.265 OA
BRANCH   2   4
HETATM    4  C   UNL     1     -33.537  -3.100 -11.531  1.00  0.00     0.111 C 
BRANCH   4   5
HETATM    5  C   UNL     1     -32.635  -4.272 -11.871  1.00  0.00     0.010 C 
BRANCH   5   6
HETATM    6  C   UNL     1     -33.206  -5.598 -11.374  1.00  0.00     0.000 C 
BRANCH   6   7
HETATM    7  C   UNL     1     -34.366  -5.336 -10.414  1.00  0.00     0.000 C 
BRANCH   7   8
HETATM    8  C   UNL     1     -34.618  -6.529  -9.499  1.00  0.00    -0.000 C 
BRANCH   8   9
HETATM    9  C   UNL     1     -34.832  -7.806 -10.308  1.00  0.00    -0.005 C 
HETATM   10  C   UNL     1     -33.898  -8.911  -9.842  1.00  0.00     0.005 C 
ENDBRANCH   8   9
ENDBRANCH   7   8
ENDBRANCH   6   7
ENDBRANCH   5   6
ENDBRANCH   4   5
ENDBRANCH   2   4
ENDBRANCH   1   2
BRANCH   1  11
HETATM   11  C   UNL     1     -35.856  -1.639 -11.005  1.00  0.00     0.183 C 
BRANCH  11  12
HETATM   12  C   UNL     1     -36.970  -0.615 -11.301  1.00  0.00     0.010 C 
BRANCH  12  13
HETATM   13  C   UNL     1     -37.105   0.414 -10.151  1.00  0.00     0.006 C 
BRANCH  13  14
HETATM   14  C   UNL     1     -37.038  -0.209  -8.748  1.00  0.00    -0.004 C 
HETATM   15  C   UNL     1     -36.506   0.769  -7.716  1.00  0.00     0.005 C 
ENDBRANCH  13  14
ENDBRANCH  12  13
BRANCH  12  16
HETATM   16  C   UNL     1     -36.670   0.093 -12.644  1.00  0.00     0.007 C 
BRANCH  16  17
HETATM   17  C   UNL     1     -35.234   0.609 -12.747  1.00  0.00     0.000 C 
BRANCH  17  18
HETATM   18  C   UNL     1     -34.774   0.702 -14.197  1.00  0.00    -0.000 C 
BRANCH  18  19
HETATM   19  C   UNL     1     -35.969   0.553 -15.136  1.00  0.00    -0.005 C 
HETATM   20  C   UNL     1     -35.791  -0.630 -16.068  1.00  0.00     0.005 C 
ENDBRANCH  18  19
ENDBRANCH  17  18
ENDBRANCH  16  17
ENDBRANCH  12  16
ENDBRANCH  11  12
ENDBRANCH   1  11
TORSDOF 15
ENDMDL
MODEL 2
REMARK VINA RESULT:      -6.7     13.183     15.328
REMARK  15 active torsions:
REMARK  status: ('A' for Active; 'I' for Inactive)
REMARK    1  A    between atoms: C_2  and  C_3 
REMARK    2  A    between atoms: C_3  and  C_4 
REMARK    3  A    between atoms: C_4  and  C_5 
REMARK    4  A    between atoms: C_5  and  C_6 
REMARK    5  A    between atoms: C_6  and  C_7 
REMARK    6  A    between atoms: C_7  and  C_8 
REMARK    7  A    between atoms: C_8  and  O_10 
REMARK    8  A    between atoms: O_10  and  C_11 
REMARK    9  A    between atoms: C_11  and  C_12 
REMARK   10  A    between atoms: C_12  and  C_13 
REMARK   11  A    between atoms: C_12  and  C_16 
REMARK   12  A    between atoms: C_13  and  C_14 
REMARK   13  A    between atoms: C_16  and  C_17 
REMARK   14  A    between atoms: C_17  and  C_18 
REMARK   15  A    between atoms: C_18  and  C_19 
ROOT
HETATM    1  O   UNL     1     -20.650  -6.335  -7.237  1.00  0.00    -0.321 OA
ENDROOT
BRANCH   1   2
HETATM    2  C   UNL     1     -20.407  -6.815  -5.980  1.00  0.00     0.258 C 
HETATM    3  O   UNL     1     -19.755  -7.811  -5.706  1.00  0.00    -0.265 OA
BRANCH   2   4
HETATM    4  C   UNL     1     -20.939  -5.854  -4.947  1.00  0.00     0.111 C 
BRANCH   4   5
HETATM    5  C   UNL     1     -21.958  -6.524  -4.043  1.00  0.00     0.010 C 
BRANCH   5   6
HETATM    6  C   UNL     1     -21.734  -6.179  -2.572  1.00  0.00     0.000 C 
BRANCH   6   7
HETATM    7  C   UNL     1     -21.672  -7.461  -1.742  1.00  0.00     0.000 C 
BRANCH   7   8
HETATM    8  C   UNL     1     -22.307  -7.272  -0.369  1.00  0.00    -0.000 C 
BRANCH   8   9
HETATM    9  C   UNL     1     -22.307  -8.580   0.420  1.00  0.00    -0.005 C 
HETATM   10  C   UNL     1     -21.145  -8.627   1.400  1.00  0.00     0.005 C 
ENDBRANCH   8   9
ENDBRANCH   7   8
ENDBRANCH   6   7
ENDBRANCH   5   6
ENDBRANCH   4   5
ENDBRANCH   2   4
ENDBRANCH   1   2
BRANCH   1  11
HETATM   11  C   UNL     1     -21.576  -5.249  -7.292  1.00  0.00     0.183 C 
BRANCH  11  12
HETATM   12  C   UNL     1     -21.798  -4.689  -8.711  1.00  0.00     0.010 C 
BRANCH  12  13
HETATM   13  C   UNL     1     -22.812  -3.518  -8.700  1.00  0.00     0.006 C 
BRANCH  13  14
HETATM   14  C   UNL     1     -24.147  -3.846  -9.385  1.00  0.00    -0.004 C 
HETATM   15  C   UNL     1     -24.098  -5.174 -10.120  1.00  0.00     0.005 C 
ENDBRANCH  13  14
ENDBRANCH  12  13
BRANCH  12  16
HETATM   16  C   UNL     1     -20.440  -4.239  -9.301  1.00  0.00     0.007 C 
BRANCH  16  17
HETATM   17  C   UNL     1     -20.374  -4.356 -10.824  1.00  0.00     0.000 C 
BRANCH  17  18
HETATM   18  C   UNL     1     -20.944  -3.118 -11.507  1.00  0.00    -0.000 C 
BRANCH  18  19
HETATM   19  C   UNL     1     -22.044  -3.519 -12.487  1.00  0.00    -0.005 C 
HETATM   20  C   UNL     1     -23.106  -2.442 -12.592  1.00  0.00     0.005 C 
ENDBRANCH  18  19
ENDBRANCH  17  18
ENDBRANCH  16  17
ENDBRANCH  12  16
ENDBRANCH  11  12
ENDBRANCH   1  11
TORSDOF 15
ENDMDL
MODEL 3
REMARK VINA RESULT:      -6.6     14.292     17.760
REMARK  15 active torsions:
REMARK  status: ('A' for Active; 'I' for Inactive)
REMARK    1  A    between atoms: C_2  and  C_3 
REMARK    2  A    between atoms: C_3  and  C_4 
REMARK    3  A    between atoms: C_4  and  C_5 
REMARK    4  A    between atoms: C_5  and  C_6 
REMARK    5  A    between atoms: C_6  and  C_7 
REMARK    6  A    between atoms: C_7  and  C_8 
REMARK    7  A    between atoms: C_8  and  O_10 
REMARK    8  A    between atoms: O_10  and  C_11 
REMARK    9  A    between atoms: C_11  and  C_12 
REMARK   10  A    between atoms: C_12  and  C_13 
REMARK   11  A    between atoms: C_12  and  C_16 
REMARK   12  A    between atoms: C_13  and  C_14 
REMARK   13  A    between atoms: C_16  and  C_17 
REMARK   14  A    between atoms: C_17  and  C_18 
REMARK   15  A    between atoms: C_18  and  C_19 
ROOT
HETATM    1  O   UNL     1     -22.009  -6.195  -4.481  1.00  0.00    -0.321 OA
ENDROOT
BRANCH   1   2
HETATM    2  C   UNL     1     -21.128  -6.222  -5.526  1.00  0.00     0.258 C 
HETATM    3  O   UNL     1     -21.013  -7.122  -6.344  1.00  0.00    -0.265 OA
BRANCH   2   4
HETATM    4  C   UNL     1     -20.400  -4.905  -5.624  1.00  0.00     0.111 C 
BRANCH   4   5
HETATM    5  C   UNL     1     -19.470  -4.876  -6.824  1.00  0.00     0.010 C 
BRANCH   5   6
HETATM    6  C   UNL     1     -19.947  -3.898  -7.895  1.00  0.00     0.000 C 
BRANCH   6   7
HETATM    7  C   UNL     1     -20.246  -4.651  -9.190  1.00  0.00     0.000 C 
BRANCH   7   8
HETATM    8  C   UNL     1     -21.661  -4.377  -9.687  1.00  0.00    -0.000 C 
BRANCH   8   9
HETATM    9  C   UNL     1     -21.717  -4.378 -11.213  1.00  0.00    -0.005 C 
HETATM   10  C   UNL     1     -21.845  -2.964 -11.756  1.00  0.00     0.005 C 
ENDBRANCH   8   9
ENDBRANCH   7   8
ENDBRANCH   6   7
ENDBRANCH   5   6
ENDBRANCH   4   5
ENDBRANCH   2   4
ENDBRANCH   1   2
BRANCH   1  11
HETATM   11  C   UNL     1     -21.405  -6.048  -3.195  1.00  0.00     0.183 C 
BRANCH  11  12
HETATM   12  C   UNL     1     -21.615  -7.259  -2.264  1.00  0.00     0.010 C 
BRANCH  12  13
HETATM   13  C   UNL     1     -20.269  -7.950  -1.931  1.00  0.00     0.006 C 
BRANCH  13  14
HETATM   14  C   UNL     1     -19.838  -9.002  -2.965  1.00  0.00    -0.004 C 
HETATM   15  C   UNL     1     -19.111 -10.168  -2.319  1.00  0.00     0.005 C 
ENDBRANCH  13  14
ENDBRANCH  12  13
BRANCH  12  16
HETATM   16  C   UNL     1     -22.331  -6.793  -0.973  1.00  0.00     0.007 C 
BRANCH  16  17
HETATM   17  C   UNL     1     -22.152  -7.758   0.199  1.00  0.00     0.000 C 
BRANCH  17  18
HETATM   18  C   UNL     1     -23.387  -8.628   0.403  1.00  0.00    -0.000 C 
BRANCH  18  19
HETATM   19  C   UNL     1     -23.185  -9.989  -0.257  1.00  0.00    -0.005 C 
HETATM   20  C   UNL     1     -21.874 -10.619   0.174  1.00  0.00     0.005 C 
ENDBRANCH  18  19
ENDBRANCH  17  18
ENDBRANCH  16  17
ENDBRANCH  12  16
ENDBRANCH  11  12
ENDBRANCH   1  11
TORSDOF 15
ENDMDL
MODEL 4
REMARK VINA RESULT:      -6.3     13.121     15.437
REMARK  15 active torsions:
REMARK  status: ('A' for Active; 'I' for Inactive)
REMARK    1  A    between atoms: C_2  and  C_3 
REMARK    2  A    between atoms: C_3  and  C_4 
REMARK    3  A    between atoms: C_4  and  C_5 
REMARK    4  A    between atoms: C_5  and  C_6 
REMARK    5  A    between atoms: C_6  and  C_7 
REMARK    6  A    between atoms: C_7  and  C_8 
REMARK    7  A    between atoms: C_8  and  O_10 
REMARK    8  A    between atoms: O_10  and  C_11 
REMARK    9  A    between atoms: C_11  and  C_12 
REMARK   10  A    between atoms: C_12  and  C_13 
REMARK   11  A    between atoms: C_12  and  C_16 
REMARK   12  A    between atoms: C_13  and  C_14 
REMARK   13  A    between atoms: C_16  and  C_17 
REMARK   14  A    between atoms: C_17  and  C_18 
REMARK   15  A    between atoms: C_18  and  C_19 
ROOT
HETATM    1  O   UNL     1     -21.474  -6.145  -6.446  1.00  0.00    -0.321 OA
ENDROOT
BRANCH   1   2
HETATM    2  C   UNL     1     -22.173  -6.293  -5.280  1.00  0.00     0.258 C 
HETATM    3  O   UNL     1     -23.354  -6.030  -5.113  1.00  0.00    -0.265 OA
BRANCH   2   4
HETATM    4  C   UNL     1     -21.312  -6.972  -4.245  1.00  0.00     0.111 C 
BRANCH   4   5
HETATM    5  C   UNL     1     -21.599  -6.438  -2.853  1.00  0.00     0.010 C 
BRANCH   5   6
HETATM    6  C   UNL     1     -21.014  -7.335  -1.763  1.00  0.00     0.000 C 
BRANCH   6   7
HETATM    7  C   UNL     1     -21.739  -8.680  -1.754  1.00  0.00     0.000 C 
BRANCH   7   8
HETATM    8  C   UNL     1     -22.500  -8.899  -0.451  1.00  0.00    -0.000 C 
BRANCH   8   9
HETATM    9  C   UNL     1     -21.913  -8.053   0.677  1.00  0.00    -0.005 C 
HETATM   10  C   UNL     1     -20.952  -8.868   1.528  1.00  0.00     0.005 C 
ENDBRANCH   8   9
ENDBRANCH   7   8
ENDBRANCH   6   7
ENDBRANCH   5   6
ENDBRANCH   4   5
ENDBRANCH   2   4
ENDBRANCH   1   2
BRANCH   1  11
HETATM   11  C   UNL     1     -20.798  -4.894  -6.582  1.00  0.00     0.183 C 
BRANCH  11  12
HETATM   12  C   UNL     1     -21.153  -4.129  -7.873  1.00  0.00     0.010 C 
BRANCH  12  13
HETATM   13  C   UNL     1     -19.942  -4.061  -8.836  1.00  0.00     0.006 C 
BRANCH  13  14
HETATM   14  C   UNL     1     -20.246  -4.572 -10.253  1.00  0.00    -0.004 C 
HETATM   15  C   UNL     1     -20.432  -3.432 -11.240  1.00  0.00     0.005 C 
ENDBRANCH  13  14
ENDBRANCH  12  13
BRANCH  12  16
HETATM   16  C   UNL     1     -22.364  -4.811  -8.554  1.00  0.00     0.007 C 
BRANCH  16  17
HETATM   17  C   UNL     1     -23.694  -4.120  -8.254  1.00  0.00     0.000 C 
BRANCH  17  18
HETATM   18  C   UNL     1     -24.240  -3.396  -9.480  1.00  0.00    -0.000 C 
BRANCH  18  19
HETATM   19  C   UNL     1     -23.973  -4.221 -10.737  1.00  0.00    -0.005 C 
HETATM   20  C   UNL     1     -24.108  -3.375 -11.988  1.00  0.00     0.005 C 
ENDBRANCH  18  19
ENDBRANCH  17  18
ENDBRANCH  16  17
ENDBRANCH  12  16
ENDBRANCH  11  12
ENDBRANCH   1  11
TORSDOF 15
ENDMDL
MODEL 5
REMARK VINA RESULT:      -6.3     14.214     17.568
REMARK  15 active torsions:
REMARK  status: ('A' for Active; 'I' for Inactive)
REMARK    1  A    between atoms: C_2  and  C_3 
REMARK    2  A    between atoms: C_3  and  C_4 
REMARK    3  A    between atoms: C_4  and  C_5 
REMARK    4  A    between atoms: C_5  and  C_6 
REMARK    5  A    between atoms: C_6  and  C_7 
REMARK    6  A    between atoms: C_7  and  C_8 
REMARK    7  A    between atoms: C_8  and  O_10 
REMARK    8  A    between atoms: O_10  and  C_11 
REMARK    9  A    between atoms: C_11  and  C_12 
REMARK   10  A    between atoms: C_12  and  C_13 
REMARK   11  A    between atoms: C_12  and  C_16 
REMARK   12  A    between atoms: C_13  and  C_14 
REMARK   13  A    between atoms: C_16  and  C_17 
REMARK   14  A    between atoms: C_17  and  C_18 
REMARK   15  A    between atoms: C_18  and  C_19 
ROOT
HETATM    1  O   UNL     1     -20.491  -7.211  -5.162  1.00  0.00    -0.321 OA
ENDROOT
BRANCH   1   2
HETATM    2  C   UNL     1     -21.257  -6.081  -5.241  1.00  0.00     0.258 C 
HETATM    3  O   UNL     1     -22.464  -6.018  -5.073  1.00  0.00    -0.265 OA
BRANCH   2   4
HETATM    4  C   UNL     1     -20.374  -4.872  -5.427  1.00  0.00     0.111 C 
BRANCH   4   5
HETATM    5  C   UNL     1     -20.241  -4.507  -6.895  1.00  0.00     0.010 C 
BRANCH   5   6
HETATM    6  C   UNL     1     -21.441  -3.708  -7.398  1.00  0.00     0.000 C 
BRANCH   6   7
HETATM    7  C   UNL     1     -21.702  -4.032  -8.868  1.00  0.00     0.000 C 
BRANCH   7   8
HETATM    8  C   UNL     1     -20.403  -4.250  -9.635  1.00  0.00    -0.000 C 
BRANCH   8   9
HETATM    9  C   UNL     1     -20.624  -4.118 -11.140  1.00  0.00    -0.005 C 
HETATM   10  C   UNL     1     -21.568  -2.969 -11.455  1.00  0.00     0.005 C 
ENDBRANCH   8   9
ENDBRANCH   7   8
ENDBRANCH   6   7
ENDBRANCH   5   6
ENDBRANCH   4   5
ENDBRANCH   2   4
ENDBRANCH   1   2
BRANCH   1  11
HETATM   11  C   UNL     1     -21.232  -8.427  -5.043  1.00  0.00     0.183 C 
BRANCH  11  12
HETATM   12  C   UNL     1     -21.436  -8.893  -3.587  1.00  0.00     0.010 C 
BRANCH  12  13
HETATM   13  C   UNL     1     -21.673 -10.422  -3.517  1.00  0.00     0.006 C 
BRANCH  13  14
HETATM   14  C   UNL     1     -22.821 -10.830  -2.579  1.00  0.00    -0.004 C 
HETATM   15  C   UNL     1     -22.309 -11.326  -1.238  1.00  0.00     0.005 C 
ENDBRANCH  13  14
ENDBRANCH  12  13
BRANCH  12  16
HETATM   16  C   UNL     1     -20.206  -8.485  -2.743  1.00  0.00     0.007 C 
BRANCH  16  17
HETATM   17  C   UNL     1     -20.570  -7.998  -1.340  1.00  0.00     0.000 C 
BRANCH  17  18
HETATM   18  C   UNL     1     -21.891  -7.236  -1.337  1.00  0.00    -0.000 C 
BRANCH  18  19
HETATM   19  C   UNL     1     -22.734  -7.656  -0.135  1.00  0.00    -0.005 C 
HETATM   20  C   UNL     1     -21.865  -8.191   0.986  1.00  0.00     0.005 C 
ENDBRANCH  18  19
ENDBRANCH  17  18
ENDBRANCH  16  17
ENDBRANCH  12  16
ENDBRANCH  11  12
ENDBRANCH   1  11
TORSDOF 15
ENDMDL
MODEL 6
REMARK VINA RESULT:      -6.3     13.385     16.880
REMARK  15 active torsions:
REMARK  status: ('A' for Active; 'I' for Inactive)
REMARK    1  A    between atoms: C_2  and  C_3 
REMARK    2  A    between atoms: C_3  and  C_4 
REMARK    3  A    between atoms: C_4  and  C_5 
REMARK    4  A    between atoms: C_5  and  C_6 
REMARK    5  A    between atoms: C_6  and  C_7 
REMARK    6  A    between atoms: C_7  and  C_8 
REMARK    7  A    between atoms: C_8  and  O_10 
REMARK    8  A    between atoms: O_10  and  C_11 
REMARK    9  A    between atoms: C_11  and  C_12 
REMARK   10  A    between atoms: C_12  and  C_13 
REMARK   11  A    between atoms: C_12  and  C_16 
REMARK   12  A    between atoms: C_13  and  C_14 
REMARK   13  A    between atoms: C_16  and  C_17 
REMARK   14  A    between atoms: C_17  and  C_18 
REMARK   15  A    between atoms: C_18  and  C_19 
ROOT
HETATM    1  O   UNL     1     -21.385  -5.569  -5.889  1.00  0.00    -0.321 OA
ENDROOT
BRANCH   1   2
HETATM    2  C   UNL     1     -20.348  -5.613  -6.780  1.00  0.00     0.258 C 
HETATM    3  O   UNL     1     -19.712  -6.608  -7.092  1.00  0.00    -0.265 OA
BRANCH   2   4
HETATM    4  C   UNL     1     -20.182  -4.270  -7.447  1.00  0.00     0.111 C 
BRANCH   4   5
HETATM    5  C   UNL     1     -21.144  -4.110  -8.610  1.00  0.00     0.010 C 
BRANCH   5   6
HETATM    6  C   UNL     1     -20.464  -4.357  -9.954  1.00  0.00     0.000 C 
BRANCH   6   7
HETATM    7  C   UNL     1     -21.252  -3.670 -11.069  1.00  0.00     0.000 C 
BRANCH   7   8
HETATM    8  C   UNL     1     -22.616  -4.317 -11.274  1.00  0.00    -0.000 C 
BRANCH   8   9
HETATM    9  C   UNL     1     -23.733  -3.278 -11.207  1.00  0.00    -0.005 C 
HETATM   10  C   UNL     1     -24.531  -3.415  -9.920  1.00  0.00     0.005 C 
ENDBRANCH   8   9
ENDBRANCH   7   8
ENDBRANCH   6   7
ENDBRANCH   5   6
ENDBRANCH   4   5
ENDBRANCH   2   4
ENDBRANCH   1   2
BRANCH   1  11
HETATM   11  C   UNL     1     -21.012  -5.785  -4.527  1.00  0.00     0.183 C 
BRANCH  11  12
HETATM   12  C   UNL     1     -21.791  -6.925  -3.840  1.00  0.00     0.010 C 
BRANCH  12  13
HETATM   13  C   UNL     1     -21.654  -8.252  -4.628  1.00  0.00     0.006 C 
BRANCH  13  14
HETATM   14  C   UNL     1     -21.217  -9.445  -3.763  1.00  0.00    -0.004 C 
HETATM   15  C   UNL     1     -22.280 -10.528  -3.711  1.00  0.00     0.005 C 
ENDBRANCH  13  14
ENDBRANCH  12  13
BRANCH  12  16
HETATM   16  C   UNL     1     -21.281  -7.089  -2.388  1.00  0.00     0.007 C 
BRANCH  16  17
HETATM   17  C   UNL     1     -22.341  -6.760  -1.335  1.00  0.00     0.000 C 
BRANCH  17  18
HETATM   18  C   UNL     1     -22.067  -7.480  -0.020  1.00  0.00    -0.000 C 
BRANCH  18  19
HETATM   19  C   UNL     1     -21.925  -8.981  -0.264  1.00  0.00    -0.005 C 
HETATM   20  C   UNL     1     -23.269  -9.680  -0.183  1.00  0.00     0.005 C 
ENDBRANCH  18  19
ENDBRANCH  17  18
ENDBRANCH  16  17
ENDBRANCH  12  16
ENDBRANCH  11  12
ENDBRANCH   1  11
TORSDOF 15
ENDMDL
MODEL 7
REMARK VINA RESULT:      -6.3     13.349     15.528
REMARK  15 active torsions:
REMARK  status: ('A' for Active; 'I' for Inactive)
REMARK    1  A    between atoms: C_2  and  C_3 
REMARK    2  A    between atoms: C_3  and  C_4 
REMARK    3  A    between atoms: C_4  and  C_5 
REMARK    4  A    between atoms: C_5  and  C_6 
REMARK    5  A    between atoms: C_6  and  C_7 
REMARK    6  A    between atoms: C_7  and  C_8 
REMARK    7  A    between atoms: C_8  and  O_10 
REMARK    8  A    between atoms: O_10  and  C_11 
REMARK    9  A    between atoms: C_11  and  C_12 
REMARK   10  A    between atoms: C_12  and  C_13 
REMARK   11  A    between atoms: C_12  and  C_16 
REMARK   12  A    between atoms: C_13  and  C_14 
REMARK   13  A    between atoms: C_16  and  C_17 
REMARK   14  A    between atoms: C_17  and  C_18 
REMARK   15  A    between atoms: C_18  and  C_19 
ROOT
HETATM    1  O   UNL     1     -22.378  -5.642  -5.652  1.00  0.00    -0.321 OA
ENDROOT
BRANCH   1   2
HETATM    2  C   UNL     1     -21.976  -6.633  -4.800  1.00  0.00     0.258 C 
HETATM    3  O   UNL     1     -22.013  -7.832  -5.025  1.00  0.00    -0.265 OA
BRANCH   2   4
HETATM    4  C   UNL     1     -21.335  -6.031  -3.574  1.00  0.00     0.111 C 
BRANCH   4   5
HETATM    5  C   UNL     1     -21.943  -6.593  -2.302  1.00  0.00     0.010 C 
BRANCH   5   6
HETATM    6  C   UNL     1     -21.011  -7.588  -1.613  1.00  0.00     0.000 C 
BRANCH   6   7
HETATM    7  C   UNL     1     -21.826  -8.546  -0.744  1.00  0.00     0.000 C 
BRANCH   7   8
HETATM    8  C   UNL     1     -21.315  -8.574   0.692  1.00  0.00    -0.000 C 
BRANCH   8   9
HETATM    9  C   UNL     1     -20.821  -9.968   1.072  1.00  0.00    -0.005 C 
HETATM   10  C   UNL     1     -21.666 -11.046   0.414  1.00  0.00     0.005 C 
ENDBRANCH   8   9
ENDBRANCH   7   8
ENDBRANCH   6   7
ENDBRANCH   5   6
ENDBRANCH   4   5
ENDBRANCH   2   4
ENDBRANCH   1   2
BRANCH   1  11
HETATM   11  C   UNL     1     -21.352  -5.137  -6.508  1.00  0.00     0.183 C 
BRANCH  11  12
HETATM   12  C   UNL     1     -21.817  -4.877  -7.955  1.00  0.00     0.010 C 
BRANCH  12  13
HETATM   13  C   UNL     1     -23.239  -4.264  -7.985  1.00  0.00     0.006 C 
BRANCH  13  14
HETATM   14  C   UNL     1     -23.978  -4.473  -9.316  1.00  0.00    -0.004 C 
HETATM   15  C   UNL     1     -24.796  -3.256  -9.709  1.00  0.00     0.005 C 
ENDBRANCH  13  14
ENDBRANCH  12  13
BRANCH  12  16
HETATM   16  C   UNL     1     -20.799  -3.947  -8.659  1.00  0.00     0.007 C 
BRANCH  16  17
HETATM   17  C   UNL     1     -20.076  -4.618  -9.828  1.00  0.00     0.000 C 
BRANCH  17  18
HETATM   18  C   UNL     1     -20.875  -4.504 -11.121  1.00  0.00    -0.000 C 
BRANCH  18  19
HETATM   19  C   UNL     1     -21.276  -3.050 -11.362  1.00  0.00    -0.005 C 
HETATM   20  C   UNL     1     -22.368  -2.948 -12.411  1.00  0.00     0.005 C 
ENDBRANCH  18  19
ENDBRANCH  17  18
ENDBRANCH  16  17
ENDBRANCH  12  16
ENDBRANCH  11  12
ENDBRANCH   1  11
TORSDOF 15
ENDMDL
MODEL 8
REMARK VINA RESULT:      -6.2     14.467     17.825
REMARK  15 active torsions:
REMARK  status: ('A' for Active; 'I' for Inactive)
REMARK    1  A    between atoms: C_2  and  C_3 
REMARK    2  A    between atoms: C_3  and  C_4 
REMARK    3  A    between atoms: C_4  and  C_5 
REMARK    4  A    between atoms: C_5  and  C_6 
REMARK    5  A    between atoms: C_6  and  C_7 
REMARK    6  A    between atoms: C_7  and  C_8 
REMARK    7  A    between atoms: C_8  and  O_10 
REMARK    8  A    between atoms: O_10  and  C_11 
REMARK    9  A    between atoms: C_11  and  C_12 
REMARK   10  A    between atoms: C_12  and  C_13 
REMARK   11  A    between atoms: C_12  and  C_16 
REMARK   12  A    between atoms: C_13  and  C_14 
REMARK   13  A    between atoms: C_16  and  C_17 
REMARK   14  A    between atoms: C_17  and  C_18 
REMARK   15  A    between atoms: C_18  and  C_19 
ROOT
HETATM    1  O   UNL     1     -21.414  -7.158  -4.747  1.00  0.00    -0.321 OA
ENDROOT
BRANCH   1   2
HETATM    2  C   UNL     1     -20.471  -6.707  -5.629  1.00  0.00     0.258 C 
HETATM    3  O   UNL     1     -19.745  -7.402  -6.321  1.00  0.00    -0.265 OA
BRANCH   2   4
HETATM    4  C   UNL     1     -20.548  -5.205  -5.744  1.00  0.00     0.111 C 
BRANCH   4   5
HETATM    5  C   UNL     1     -19.554  -4.678  -6.763  1.00  0.00     0.010 C 
BRANCH   5   6
HETATM    6  C   UNL     1     -20.203  -4.434  -8.123  1.00  0.00     0.000 C 
BRANCH   6   7
HETATM    7  C   UNL     1     -21.678  -4.075  -7.938  1.00  0.00     0.000 C 
BRANCH   7   8
HETATM    8  C   UNL     1     -22.340  -3.718  -9.263  1.00  0.00    -0.000 C 
BRANCH   8   9
HETATM    9  C   UNL     1     -21.404  -3.995 -10.438  1.00  0.00    -0.005 C 
HETATM   10  C   UNL     1     -21.738  -3.106 -11.624  1.00  0.00     0.005 C 
ENDBRANCH   8   9
ENDBRANCH   7   8
ENDBRANCH   6   7
ENDBRANCH   5   6
ENDBRANCH   4   5
ENDBRANCH   2   4
ENDBRANCH   1   2
BRANCH   1  11
HETATM   11  C   UNL     1     -21.604  -6.328  -3.600  1.00  0.00     0.183 C 
BRANCH  11  12
HETATM   12  C   UNL     1     -21.228  -7.007  -2.268  1.00  0.00     0.010 C 
BRANCH  12  13
HETATM   13  C   UNL     1     -22.303  -6.748  -1.183  1.00  0.00     0.006 C 
BRANCH  13  14
HETATM   14  C   UNL     1     -22.103  -7.572   0.098  1.00  0.00    -0.004 C 
HETATM   15  C   UNL     1     -23.315  -8.430   0.416  1.00  0.00     0.005 C 
ENDBRANCH  13  14
ENDBRANCH  12  13
BRANCH  12  16
HETATM   16  C   UNL     1     -21.037  -8.525  -2.505  1.00  0.00     0.007 C 
BRANCH  16  17
HETATM   17  C   UNL     1     -19.594  -8.990  -2.304  1.00  0.00     0.000 C 
BRANCH  17  18
HETATM   18  C   UNL     1     -19.529 -10.462  -1.911  1.00  0.00    -0.000 C 
BRANCH  18  19
HETATM   19  C   UNL     1     -20.748 -10.835  -1.072  1.00  0.00    -0.005 C 
HETATM   20  C   UNL     1     -20.406 -10.877   0.405  1.00  0.00     0.005 C 
ENDBRANCH  18  19
ENDBRANCH  17  18
ENDBRANCH  16  17
ENDBRANCH  12  16
ENDBRANCH  11  12
ENDBRANCH   1  11
TORSDOF 15
ENDMDL
MODEL 9
REMARK VINA RESULT:      -6.1     13.531     15.808
REMARK  15 active torsions:
REMARK  status: ('A' for Active; 'I' for Inactive)
REMARK    1  A    between atoms: C_2  and  C_3 
REMARK    2  A    between atoms: C_3  and  C_4 
REMARK    3  A    between atoms: C_4  and  C_5 
REMARK    4  A    between atoms: C_5  and  C_6 
REMARK    5  A    between atoms: C_6  and  C_7 
REMARK    6  A    between atoms: C_7  and  C_8 
REMARK    7  A    between atoms: C_8  and  O_10 
REMARK    8  A    between atoms: O_10  and  C_11 
REMARK    9  A    between atoms: C_11  and  C_12 
REMARK   10  A    between atoms: C_12  and  C_13 
REMARK   11  A    between atoms: C_12  and  C_16 
REMARK   12  A    between atoms: C_13  and  C_14 
REMARK   13  A    between atoms: C_16  and  C_17 
REMARK   14  A    between atoms: C_17  and  C_18 
REMARK   15  A    between atoms: C_18  and  C_19 
ROOT
HETATM    1  O   UNL     1     -21.144  -6.127  -5.132  1.00  0.00    -0.321 OA
ENDROOT
BRANCH   1   2
HETATM    2  C   UNL     1     -21.418  -7.102  -4.214  1.00  0.00     0.258 C 
HETATM    3  O   UNL     1     -21.810  -8.232  -4.462  1.00  0.00    -0.265 OA
BRANCH   2   4
HETATM    4  C   UNL     1     -21.028  -6.636  -2.833  1.00  0.00     0.111 C 
BRANCH   4   5
HETATM    5  C   UNL     1     -22.245  -6.214  -2.030  1.00  0.00     0.010 C 
BRANCH   5   6
HETATM    6  C   UNL     1     -22.381  -7.012  -0.734  1.00  0.00     0.000 C 
BRANCH   6   7
HETATM    7  C   UNL     1     -21.503  -8.261  -0.799  1.00  0.00     0.000 C 
BRANCH   7   8
HETATM    8  C   UNL     1     -21.594  -9.079   0.484  1.00  0.00    -0.000 C 
BRANCH   8   9
HETATM    9  C   UNL     1     -22.132 -10.481   0.205  1.00  0.00    -0.005 C 
HETATM   10  C   UNL     1     -23.566 -10.427  -0.294  1.00  0.00     0.005 C 
ENDBRANCH   8   9
ENDBRANCH   7   8
ENDBRANCH   6   7
ENDBRANCH   5   6
ENDBRANCH   4   5
ENDBRANCH   2   4
ENDBRANCH   1   2
BRANCH   1  11
HETATM   11  C   UNL     1     -22.247  -5.761  -5.962  1.00  0.00     0.183 C 
BRANCH  11  12
HETATM   12  C   UNL     1     -21.897  -4.718  -7.043  1.00  0.00     0.010 C 
BRANCH  12  13
HETATM   13  C   UNL     1     -20.850  -5.274  -8.040  1.00  0.00     0.006 C 
BRANCH  13  14
HETATM   14  C   UNL     1     -19.610  -4.381  -8.202  1.00  0.00    -0.004 C 
HETATM   15  C   UNL     1     -18.690  -4.464  -6.996  1.00  0.00     0.005 C 
ENDBRANCH  13  14
ENDBRANCH  12  13
BRANCH  12  16
HETATM   16  C   UNL     1     -23.189  -4.291  -7.778  1.00  0.00     0.007 C 
BRANCH  16  17
HETATM   17  C   UNL     1     -22.926  -3.665  -9.148  1.00  0.00     0.000 C 
BRANCH  17  18
HETATM   18  C   UNL     1     -23.597  -4.456 -10.265  1.00  0.00    -0.000 C 
BRANCH  18  19
HETATM   19  C   UNL     1     -22.684  -4.513 -11.488  1.00  0.00    -0.005 C 
HETATM   20  C   UNL     1     -21.524  -3.547 -11.353  1.00  0.00     0.005 C 
ENDBRANCH  18  19
ENDBRANCH  17  18
ENDBRANCH  16  17
ENDBRANCH  12  16
ENDBRANCH  11  12
ENDBRANCH   1  11
TORSDOF 15
ENDMDL
