MODEL 1
REMARK VINA RESULT:      -1.2      0.000      0.000
REMARK  13 active torsions:
REMARK  status: ('A' for Active; 'I' for Inactive)
REMARK    1  A    between atoms: C_1  and  C_2 
REMARK    2  A    between atoms: C_1  and  N_12 
REMARK    3  A    between atoms: C_2  and  N_3 
REMARK    4  A    between atoms: N_3  and  C_4 
REMARK    5  A    between atoms: N_3  and  C_8 
REMARK    6  A    between atoms: C_4  and  C_5 
REMARK    7  A    between atoms: C_5  and  O_7 
REMARK    8  A    between atoms: C_8  and  C_9 
REMARK    9  A    between atoms: N_12  and  C_13 
REMARK   10  A    between atoms: N_12  and  C_17 
REMARK   11  A    between atoms: C_13  and  C_14 
REMARK   12  A    between atoms: C_14  and  O_16 
REMARK   13  A    between atoms: C_17  and  C_18 
ROOT
HETATM    1  O   HOH     2     -30.555 -13.619 -19.114  1.00  0.00     0.000 OA
ENDROOT
TORSDOF 13
ENDMDL
MODEL 2
REMARK VINA RESULT:      -1.2     10.788     10.788
REMARK  13 active torsions:
REMARK  status: ('A' for Active; 'I' for Inactive)
REMARK    1  A    between atoms: C_1  and  C_2 
REMARK    2  A    between atoms: C_1  and  N_12 
REMARK    3  A    between atoms: C_2  and  N_3 
REMARK    4  A    between atoms: N_3  and  C_4 
REMARK    5  A    between atoms: N_3  and  C_8 
REMARK    6  A    between atoms: C_4  and  C_5 
REMARK    7  A    between atoms: C_5  and  O_7 
REMARK    8  A    between atoms: C_8  and  C_9 
REMARK    9  A    between atoms: N_12  and  C_13 
REMARK   10  A    between atoms: N_12  and  C_17 
REMARK   11  A    between atoms: C_13  and  C_14 
REMARK   12  A    between atoms: C_14  and  O_16 
REMARK   13  A    between atoms: C_17  and  C_18 
ROOT
HETATM    1  O   HOH     2     -31.343  -2.975 -17.544  1.00  0.00     0.000 OA
ENDROOT
TORSDOF 13
ENDMDL
MODEL 3
REMARK VINA RESULT:      -1.2     14.910     14.910
REMARK  13 active torsions:
REMARK  status: ('A' for Active; 'I' for Inactive)
REMARK    1  A    between atoms: C_1  and  C_2 
REMARK    2  A    between atoms: C_1  and  N_12 
REMARK    3  A    between atoms: C_2  and  N_3 
REMARK    4  A    between atoms: N_3  and  C_4 
REMARK    5  A    between atoms: N_3  and  C_8 
REMARK    6  A    between atoms: C_4  and  C_5 
REMARK    7  A    between atoms: C_5  and  O_7 
REMARK    8  A    between atoms: C_8  and  C_9 
REMARK    9  A    between atoms: N_12  and  C_13 
REMARK   10  A    between atoms: N_12  and  C_17 
REMARK   11  A    between atoms: C_13  and  C_14 
REMARK   12  A    between atoms: C_14  and  O_16 
REMARK   13  A    between atoms: C_17  and  C_18 
ROOT
HETATM    1  O   HOH     2     -24.685  -0.525 -15.065  1.00  0.00     0.000 OA
ENDROOT
TORSDOF 13
ENDMDL
MODEL 4
REMARK VINA RESULT:      -1.2     19.914     19.914
REMARK  13 active torsions:
REMARK  status: ('A' for Active; 'I' for Inactive)
REMARK    1  A    between atoms: C_1  and  C_2 
REMARK    2  A    between atoms: C_1  and  N_12 
REMARK    3  A    between atoms: C_2  and  N_3 
REMARK    4  A    between atoms: N_3  and  C_4 
REMARK    5  A    between atoms: N_3  and  C_8 
REMARK    6  A    between atoms: C_4  and  C_5 
REMARK    7  A    between atoms: C_5  and  O_7 
REMARK    8  A    between atoms: C_8  and  C_9 
REMARK    9  A    between atoms: N_12  and  C_13 
REMARK   10  A    between atoms: N_12  and  C_17 
REMARK   11  A    between atoms: C_13  and  C_14 
REMARK   12  A    between atoms: C_14  and  O_16 
REMARK   13  A    between atoms: C_17  and  C_18 
ROOT
HETATM    1  O   HOH     2     -34.361  -5.058  -1.542  1.00  0.00     0.000 OA
ENDROOT
TORSDOF 13
ENDMDL
MODEL 5
REMARK VINA RESULT:      -1.1      5.550      5.550
REMARK  13 active torsions:
REMARK  status: ('A' for Active; 'I' for Inactive)
REMARK    1  A    between atoms: C_1  and  C_2 
REMARK    2  A    between atoms: C_1  and  N_12 
REMARK    3  A    between atoms: C_2  and  N_3 
REMARK    4  A    between atoms: N_3  and  C_4 
REMARK    5  A    between atoms: N_3  and  C_8 
REMARK    6  A    between atoms: C_4  and  C_5 
REMARK    7  A    between atoms: C_5  and  O_7 
REMARK    8  A    between atoms: C_8  and  C_9 
REMARK    9  A    between atoms: N_12  and  C_13 
REMARK   10  A    between atoms: N_12  and  C_17 
REMARK   11  A    between atoms: C_13  and  C_14 
REMARK   12  A    between atoms: C_14  and  O_16 
REMARK   13  A    between atoms: C_17  and  C_18 
ROOT
HETATM    1  O   HOH     2     -28.021  -9.312 -21.530  1.00  0.00     0.000 OA
ENDROOT
TORSDOF 13
ENDMDL
MODEL 6
REMARK VINA RESULT:      -1.1      5.003      5.003
REMARK  13 active torsions:
REMARK  status: ('A' for Active; 'I' for Inactive)
REMARK    1  A    between atoms: C_1  and  C_2 
REMARK    2  A    between atoms: C_1  and  N_12 
REMARK    3  A    between atoms: C_2  and  N_3 
REMARK    4  A    between atoms: N_3  and  C_4 
REMARK    5  A    between atoms: N_3  and  C_8 
REMARK    6  A    between atoms: C_4  and  C_5 
REMARK    7  A    between atoms: C_5  and  O_7 
REMARK    8  A    between atoms: C_8  and  C_9 
REMARK    9  A    between atoms: N_12  and  C_13 
REMARK   10  A    between atoms: N_12  and  C_17 
REMARK   11  A    between atoms: C_13  and  C_14 
REMARK   12  A    between atoms: C_14  and  O_16 
REMARK   13  A    between atoms: C_17  and  C_18 
ROOT
HETATM    1  O   HOH     2     -29.944  -8.654 -19.163  1.00  0.00     0.000 OA
ENDROOT
TORSDOF 13
ENDMDL
MODEL 7
REMARK VINA RESULT:      -1.1     14.780     14.780
REMARK  13 active torsions:
REMARK  status: ('A' for Active; 'I' for Inactive)
REMARK    1  A    between atoms: C_1  and  C_2 
REMARK    2  A    between atoms: C_1  and  N_12 
REMARK    3  A    between atoms: C_2  and  N_3 
REMARK    4  A    between atoms: N_3  and  C_4 
REMARK    5  A    between atoms: N_3  and  C_8 
REMARK    6  A    between atoms: C_4  and  C_5 
REMARK    7  A    between atoms: C_5  and  O_7 
REMARK    8  A    between atoms: C_8  and  C_9 
REMARK    9  A    between atoms: N_12  and  C_13 
REMARK   10  A    between atoms: N_12  and  C_17 
REMARK   11  A    between atoms: C_13  and  C_14 
REMARK   12  A    between atoms: C_14  and  O_16 
REMARK   13  A    between atoms: C_17  and  C_18 
ROOT
HETATM    1  O   HOH     2     -25.669  -3.140  -9.907  1.00  0.00     0.000 OA
ENDROOT
TORSDOF 13
ENDMDL
MODEL 8
REMARK VINA RESULT:      -1.1      9.147      9.147
REMARK  13 active torsions:
REMARK  status: ('A' for Active; 'I' for Inactive)
REMARK    1  A    between atoms: C_1  and  C_2 
REMARK    2  A    between atoms: C_1  and  N_12 
REMARK    3  A    between atoms: C_2  and  N_3 
REMARK    4  A    between atoms: N_3  and  C_4 
REMARK    5  A    between atoms: N_3  and  C_8 
REMARK    6  A    between atoms: C_4  and  C_5 
REMARK    7  A    between atoms: C_5  and  O_7 
REMARK    8  A    between atoms: C_8  and  C_9 
REMARK    9  A    between atoms: N_12  and  C_13 
REMARK   10  A    between atoms: N_12  and  C_17 
REMARK   11  A    between atoms: C_13  and  C_14 
REMARK   12  A    between atoms: C_14  and  O_16 
REMARK   13  A    between atoms: C_17  and  C_18 
ROOT
HETATM    1  O   HOH     2     -26.416  -5.736 -17.014  1.00  0.00     0.000 OA
ENDROOT
TORSDOF 13
ENDMDL
MODEL 9
REMARK VINA RESULT:      -1.1     21.255     21.255
REMARK  13 active torsions:
REMARK  status: ('A' for Active; 'I' for Inactive)
REMARK    1  A    between atoms: C_1  and  C_2 
REMARK    2  A    between atoms: C_1  and  N_12 
REMARK    3  A    between atoms: C_2  and  N_3 
REMARK    4  A    between atoms: N_3  and  C_4 
REMARK    5  A    between atoms: N_3  and  C_8 
REMARK    6  A    between atoms: C_4  and  C_5 
REMARK    7  A    between atoms: C_5  and  O_7 
REMARK    8  A    between atoms: C_8  and  C_9 
REMARK    9  A    between atoms: N_12  and  C_13 
REMARK   10  A    between atoms: N_12  and  C_17 
REMARK   11  A    between atoms: C_13  and  C_14 
REMARK   12  A    between atoms: C_14  and  O_16 
REMARK   13  A    between atoms: C_17  and  C_18 
ROOT
HETATM    1  O   HOH     2     -33.169  -4.318  -0.182  1.00  0.00     0.000 OA
ENDROOT
TORSDOF 13
ENDMDL
