MODEL 1
REMARK VINA RESULT:      -8.5      0.000      0.000
REMARK  10 active torsions:
REMARK  status: ('A' for Active; 'I' for Inactive)
REMARK    1  A    between atoms: C_2  and  C_4 
REMARK    2  A    between atoms: C_5  and  C_6 
REMARK    3  A    between atoms: C_6  and  C_7 
REMARK    4  A    between atoms: C_7  and  C_8 
REMARK    5  A    between atoms: C_8  and  C_9 
REMARK    6  A    between atoms: C_9  and  C_10 
REMARK       I    between atoms: C_10  and  N_12 
REMARK    7  A    between atoms: N_12  and  C_13 
REMARK    8  A    between atoms: C_13  and  C_14 
REMARK    9  A    between atoms: C_16  and  O_21 
REMARK   10  A    between atoms: C_17  and  O_20 
ROOT
HETATM    1  C   UNL     1     -20.216  -5.341  -7.063  1.00  0.00     0.217 C 
HETATM    2  O   UNL     1     -19.723  -6.325  -7.611  1.00  0.00    -0.274 OA
HETATM    3  N   UNL     1     -20.648  -4.238  -7.760  1.00  0.00    -0.357 N 
HETATM    4  H   UNL     1     -20.979  -3.423  -7.262  1.00  0.00     0.162 HD
ENDROOT
BRANCH   3   5
HETATM    5  C   UNL     1     -20.456  -4.140  -9.191  1.00  0.00     0.161 C 
BRANCH   5   6
HETATM    6  C   UNL     1     -21.743  -3.843  -9.921  1.00  0.00    -0.038 A 
HETATM    7  C   UNL     1     -21.727  -3.232 -11.185  1.00  0.00     0.048 A 
HETATM    8  C   UNL     1     -22.908  -2.935 -11.896  1.00  0.00     0.101 A 
HETATM    9  C   UNL     1     -24.128  -3.255 -11.296  1.00  0.00     0.099 A 
HETATM   10  C   UNL     1     -24.154  -3.859 -10.033  1.00  0.00     0.040 A 
HETATM   11  C   UNL     1     -22.974  -4.152  -9.346  1.00  0.00     0.012 A 
BRANCH   8  12
HETATM   12  O   UNL     1     -22.633  -2.351 -13.099  1.00  0.00    -0.353 OA
HETATM   13  C   UNL     1     -22.992  -2.966 -14.320  1.00  0.00     0.210 C 
ENDBRANCH   8  12
BRANCH   9  14
HETATM   14  O   UNL     1     -25.377  -3.036 -11.803  1.00  0.00    -0.358 OA
HETATM   15  H   UNL     1     -25.742  -2.217 -11.453  1.00  0.00     0.217 HD
ENDBRANCH   9  14
ENDBRANCH   5   6
ENDBRANCH   3   5
BRANCH   1  16
HETATM   16  C   UNL     1     -20.465  -5.279  -5.570  1.00  0.00     0.103 C 
BRANCH  16  17
HETATM   17  C   UNL     1     -20.905  -6.646  -5.044  1.00  0.00     0.010 C 
BRANCH  17  18
HETATM   18  C   UNL     1     -22.076  -6.549  -4.067  1.00  0.00     0.004 C 
BRANCH  18  19
HETATM   19  C   UNL     1     -21.579  -6.184  -2.665  1.00  0.00     0.027 C 
BRANCH  19  20
HETATM   20  C   UNL     1     -21.797  -7.302  -1.685  1.00  0.00    -0.030 C 
HETATM   21  C   UNL     1     -22.310  -7.128  -0.456  1.00  0.00    -0.027 C 
BRANCH  21  22
HETATM   22  C   UNL     1     -22.555  -8.254   0.520  1.00  0.00    -0.001 C 
HETATM   23  C   UNL     1     -23.018  -9.509  -0.215  1.00  0.00     0.013 C 
HETATM   24  C   UNL     1     -21.290  -8.550   1.327  1.00  0.00     0.013 C 
ENDBRANCH  21  22
ENDBRANCH  19  20
ENDBRANCH  18  19
ENDBRANCH  17  18
ENDBRANCH  16  17
ENDBRANCH   1  16
TORSDOF 10
ENDMDL
MODEL 2
REMARK VINA RESULT:      -8.4      1.327      2.288
REMARK  10 active torsions:
REMARK  status: ('A' for Active; 'I' for Inactive)
REMARK    1  A    between atoms: C_2  and  C_4 
REMARK    2  A    between atoms: C_5  and  C_6 
REMARK    3  A    between atoms: C_6  and  C_7 
REMARK    4  A    between atoms: C_7  and  C_8 
REMARK    5  A    between atoms: C_8  and  C_9 
REMARK    6  A    between atoms: C_9  and  C_10 
REMARK       I    between atoms: C_10  and  N_12 
REMARK    7  A    between atoms: N_12  and  C_13 
REMARK    8  A    between atoms: C_13  and  C_14 
REMARK    9  A    between atoms: C_16  and  O_21 
REMARK   10  A    between atoms: C_17  and  O_20 
ROOT
HETATM    1  C   UNL     1     -20.694  -6.273  -6.478  1.00  0.00     0.217 C 
HETATM    2  O   UNL     1     -19.631  -6.508  -7.051  1.00  0.00    -0.274 OA
HETATM    3  N   UNL     1     -21.330  -5.057  -6.557  1.00  0.00    -0.357 N 
HETATM    4  H   UNL     1     -22.163  -4.887  -6.011  1.00  0.00     0.162 HD
ENDROOT
BRANCH   3   5
HETATM    5  C   UNL     1     -20.723  -3.944  -7.255  1.00  0.00     0.161 C 
BRANCH   5   6
HETATM    6  C   UNL     1     -21.064  -3.937  -8.724  1.00  0.00    -0.038 A 
HETATM    7  C   UNL     1     -22.402  -3.903  -9.150  1.00  0.00     0.048 A 
HETATM    8  C   UNL     1     -22.761  -3.898 -10.514  1.00  0.00     0.101 A 
HETATM    9  C   UNL     1     -21.733  -3.945 -11.459  1.00  0.00     0.099 A 
HETATM   10  C   UNL     1     -20.397  -3.985 -11.043  1.00  0.00     0.040 A 
HETATM   11  C   UNL     1     -20.060  -3.982  -9.689  1.00  0.00     0.012 A 
BRANCH   8  12
HETATM   12  O   UNL     1     -24.116  -3.857 -10.673  1.00  0.00    -0.353 OA
HETATM   13  C   UNL     1     -24.961  -3.314  -9.678  1.00  0.00     0.210 C 
ENDBRANCH   8  12
BRANCH   9  14
HETATM   14  O   UNL     1     -21.865  -3.968 -12.818  1.00  0.00    -0.358 OA
HETATM   15  H   UNL     1     -22.776  -3.787 -13.069  1.00  0.00     0.217 HD
ENDBRANCH   9  14
ENDBRANCH   5   6
ENDBRANCH   3   5
BRANCH   1  16
HETATM   16  C   UNL     1     -21.445  -7.326  -5.690  1.00  0.00     0.103 C 
BRANCH  16  17
HETATM   17  C   UNL     1     -22.195  -6.686  -4.522  1.00  0.00     0.010 C 
BRANCH  17  18
HETATM   18  C   UNL     1     -21.375  -6.678  -3.232  1.00  0.00     0.004 C 
BRANCH  18  19
HETATM   19  C   UNL     1     -22.190  -6.086  -2.079  1.00  0.00     0.027 C 
BRANCH  19  20
HETATM   20  C   UNL     1     -22.203  -6.990  -0.879  1.00  0.00    -0.030 C 
HETATM   21  C   UNL     1     -21.991  -8.315  -0.939  1.00  0.00    -0.027 C 
BRANCH  21  22
HETATM   22  C   UNL     1     -21.977  -9.220   0.268  1.00  0.00    -0.001 C 
HETATM   23  C   UNL     1     -21.343 -10.565  -0.077  1.00  0.00     0.013 C 
HETATM   24  C   UNL     1     -21.225  -8.561   1.425  1.00  0.00     0.013 C 
ENDBRANCH  21  22
ENDBRANCH  19  20
ENDBRANCH  18  19
ENDBRANCH  17  18
ENDBRANCH  16  17
ENDBRANCH   1  16
TORSDOF 10
ENDMDL
MODEL 3
REMARK VINA RESULT:      -7.6      1.870      2.890
REMARK  10 active torsions:
REMARK  status: ('A' for Active; 'I' for Inactive)
REMARK    1  A    between atoms: C_2  and  C_4 
REMARK    2  A    between atoms: C_5  and  C_6 
REMARK    3  A    between atoms: C_6  and  C_7 
REMARK    4  A    between atoms: C_7  and  C_8 
REMARK    5  A    between atoms: C_8  and  C_9 
REMARK    6  A    between atoms: C_9  and  C_10 
REMARK       I    between atoms: C_10  and  N_12 
REMARK    7  A    between atoms: N_12  and  C_13 
REMARK    8  A    between atoms: C_13  and  C_14 
REMARK    9  A    between atoms: C_16  and  O_21 
REMARK   10  A    between atoms: C_17  and  O_20 
ROOT
HETATM    1  C   UNL     1     -21.452  -6.508  -5.609  1.00  0.00     0.217 C 
HETATM    2  O   UNL     1     -22.191  -5.868  -4.864  1.00  0.00    -0.274 OA
HETATM    3  N   UNL     1     -20.778  -5.936  -6.662  1.00  0.00    -0.357 N 
HETATM    4  H   UNL     1     -20.239  -6.515  -7.291  1.00  0.00     0.162 HD
ENDROOT
BRANCH   3   5
HETATM    5  C   UNL     1     -20.979  -4.545  -7.006  1.00  0.00     0.161 C 
BRANCH   5   6
HETATM    6  C   UNL     1     -21.164  -4.346  -8.490  1.00  0.00    -0.038 A 
HETATM    7  C   UNL     1     -22.400  -3.930  -9.011  1.00  0.00     0.048 A 
HETATM    8  C   UNL     1     -22.612  -3.736 -10.392  1.00  0.00     0.101 A 
HETATM    9  C   UNL     1     -21.544  -3.986 -11.257  1.00  0.00     0.099 A 
HETATM   10  C   UNL     1     -20.310  -4.406 -10.747  1.00  0.00     0.040 A 
HETATM   11  C   UNL     1     -20.116  -4.587  -9.376  1.00  0.00     0.012 A 
BRANCH   8  12
HETATM   12  O   UNL     1     -23.889  -3.327 -10.648  1.00  0.00    -0.353 OA
HETATM   13  C   UNL     1     -24.880  -3.321  -9.639  1.00  0.00     0.210 C 
ENDBRANCH   8  12
BRANCH   9  14
HETATM   14  O   UNL     1     -21.545  -3.879 -12.618  1.00  0.00    -0.358 OA
HETATM   15  H   UNL     1     -20.664  -4.040 -12.968  1.00  0.00     0.217 HD
ENDBRANCH   9  14
ENDBRANCH   5   6
ENDBRANCH   3   5
BRANCH   1  16
HETATM   16  C   UNL     1     -21.154  -7.978  -5.395  1.00  0.00     0.103 C 
BRANCH  16  17
HETATM   17  C   UNL     1     -19.646  -8.208  -5.292  1.00  0.00     0.010 C 
BRANCH  17  18
HETATM   18  C   UNL     1     -19.295  -9.424  -4.435  1.00  0.00     0.004 C 
BRANCH  18  19
HETATM   19  C   UNL     1     -19.104  -9.014  -2.972  1.00  0.00     0.027 C 
BRANCH  19  20
HETATM   20  C   UNL     1     -20.238  -9.483  -2.105  1.00  0.00    -0.030 C 
HETATM   21  C   UNL     1     -20.948  -8.674  -1.302  1.00  0.00    -0.027 C 
BRANCH  21  22
HETATM   22  C   UNL     1     -22.105  -9.139  -0.451  1.00  0.00    -0.001 C 
HETATM   23  C   UNL     1     -21.649 -10.213   0.533  1.00  0.00     0.013 C 
HETATM   24  C   UNL     1     -22.726  -7.961   0.300  1.00  0.00     0.013 C 
ENDBRANCH  21  22
ENDBRANCH  19  20
ENDBRANCH  18  19
ENDBRANCH  17  18
ENDBRANCH  16  17
ENDBRANCH   1  16
TORSDOF 10
ENDMDL
MODEL 4
REMARK VINA RESULT:      -7.2     11.940     14.743
REMARK  10 active torsions:
REMARK  status: ('A' for Active; 'I' for Inactive)
REMARK    1  A    between atoms: C_2  and  C_4 
REMARK    2  A    between atoms: C_5  and  C_6 
REMARK    3  A    between atoms: C_6  and  C_7 
REMARK    4  A    between atoms: C_7  and  C_8 
REMARK    5  A    between atoms: C_8  and  C_9 
REMARK    6  A    between atoms: C_9  and  C_10 
REMARK       I    between atoms: C_10  and  N_12 
REMARK    7  A    between atoms: N_12  and  C_13 
REMARK    8  A    between atoms: C_13  and  C_14 
REMARK    9  A    between atoms: C_16  and  O_21 
REMARK   10  A    between atoms: C_17  and  O_20 
ROOT
HETATM    1  C   UNL     1     -34.037  -3.907 -14.484  1.00  0.00     0.217 C 
HETATM    2  O   UNL     1     -34.684  -3.070 -15.110  1.00  0.00    -0.274 OA
HETATM    3  N   UNL     1     -32.962  -4.575 -15.022  1.00  0.00    -0.357 N 
HETATM    4  H   UNL     1     -32.506  -5.306 -14.494  1.00  0.00     0.162 HD
ENDROOT
BRANCH   3   5
HETATM    5  C   UNL     1     -32.589  -4.389 -16.408  1.00  0.00     0.161 C 
BRANCH   5   6
HETATM    6  C   UNL     1     -31.696  -5.495 -16.911  1.00  0.00    -0.038 A 
HETATM    7  C   UNL     1     -30.324  -5.503 -16.611  1.00  0.00     0.048 A 
HETATM    8  C   UNL     1     -29.456  -6.518 -17.066  1.00  0.00     0.101 A 
HETATM    9  C   UNL     1     -30.000  -7.534 -17.856  1.00  0.00     0.099 A 
HETATM   10  C   UNL     1     -31.365  -7.531 -18.165  1.00  0.00     0.040 A 
HETATM   11  C   UNL     1     -32.210  -6.522 -17.700  1.00  0.00     0.012 A 
BRANCH   8  12
HETATM   12  O   UNL     1     -28.177  -6.308 -16.639  1.00  0.00    -0.353 OA
HETATM   13  C   UNL     1     -27.589  -7.114 -15.638  1.00  0.00     0.210 C 
ENDBRANCH   8  12
BRANCH   9  14
HETATM   14  O   UNL     1     -29.334  -8.590 -18.409  1.00  0.00    -0.358 OA
HETATM   15  H   UNL     1     -29.533  -8.657 -19.348  1.00  0.00     0.217 HD
ENDBRANCH   9  14
ENDBRANCH   5   6
ENDBRANCH   3   5
BRANCH   1  16
HETATM   16  C   UNL     1     -34.315  -4.230 -13.030  1.00  0.00     0.103 C 
BRANCH  16  17
HETATM   17  C   UNL     1     -33.050  -4.049 -12.191  1.00  0.00     0.010 C 
BRANCH  17  18
HETATM   18  C   UNL     1     -33.142  -2.855 -11.242  1.00  0.00     0.004 C 
BRANCH  18  19
HETATM   19  C   UNL     1     -34.561  -2.719 -10.682  1.00  0.00     0.027 C 
BRANCH  19  20
HETATM   20  C   UNL     1     -35.308  -1.581 -11.317  1.00  0.00    -0.030 C 
HETATM   21  C   UNL     1     -34.777  -0.760 -12.237  1.00  0.00    -0.027 C 
BRANCH  21  22
HETATM   22  C   UNL     1     -35.535   0.367 -12.896  1.00  0.00    -0.001 C 
HETATM   23  C   UNL     1     -34.677   1.036 -13.968  1.00  0.00     0.013 C 
HETATM   24  C   UNL     1     -36.839  -0.148 -13.507  1.00  0.00     0.013 C 
ENDBRANCH  21  22
ENDBRANCH  19  20
ENDBRANCH  18  19
ENDBRANCH  17  18
ENDBRANCH  16  17
ENDBRANCH   1  16
TORSDOF 10
ENDMDL
MODEL 5
REMARK VINA RESULT:      -7.1     12.835     15.466
REMARK  10 active torsions:
REMARK  status: ('A' for Active; 'I' for Inactive)
REMARK    1  A    between atoms: C_2  and  C_4 
REMARK    2  A    between atoms: C_5  and  C_6 
REMARK    3  A    between atoms: C_6  and  C_7 
REMARK    4  A    between atoms: C_7  and  C_8 
REMARK    5  A    between atoms: C_8  and  C_9 
REMARK    6  A    between atoms: C_9  and  C_10 
REMARK       I    between atoms: C_10  and  N_12 
REMARK    7  A    between atoms: N_12  and  C_13 
REMARK    8  A    between atoms: C_13  and  C_14 
REMARK    9  A    between atoms: C_16  and  O_21 
REMARK   10  A    between atoms: C_17  and  O_20 
ROOT
HETATM    1  C   UNL     1     -32.537  -4.095 -16.640  1.00  0.00     0.217 C 
HETATM    2  O   UNL     1     -33.184  -3.330 -17.353  1.00  0.00    -0.274 OA
HETATM    3  N   UNL     1     -33.001  -4.562 -15.433  1.00  0.00    -0.357 N 
HETATM    4  H   UNL     1     -32.404  -5.131 -14.848  1.00  0.00     0.162 HD
ENDROOT
BRANCH   3   5
HETATM    5  C   UNL     1     -34.258  -4.096 -14.889  1.00  0.00     0.161 C 
BRANCH   5   6
HETATM    6  C   UNL     1     -34.092  -3.463 -13.530  1.00  0.00    -0.038 A 
HETATM    7  C   UNL     1     -34.707  -2.237 -13.228  1.00  0.00     0.048 A 
HETATM    8  C   UNL     1     -34.573  -1.614 -11.970  1.00  0.00     0.101 A 
HETATM    9  C   UNL     1     -33.782  -2.248 -11.009  1.00  0.00     0.099 A 
HETATM   10  C   UNL     1     -33.160  -3.467 -11.303  1.00  0.00     0.040 A 
HETATM   11  C   UNL     1     -33.309  -4.074 -12.551  1.00  0.00     0.012 A 
BRANCH   8  12
HETATM   12  O   UNL     1     -35.266  -0.439 -11.919  1.00  0.00    -0.353 OA
HETATM   13  C   UNL     1     -35.431   0.373 -13.065  1.00  0.00     0.210 C 
ENDBRANCH   8  12
BRANCH   9  14
HETATM   14  O   UNL     1     -33.509  -1.806  -9.746  1.00  0.00    -0.358 OA
HETATM   15  H   UNL     1     -33.947  -2.363  -9.094  1.00  0.00     0.217 HD
ENDBRANCH   9  14
ENDBRANCH   5   6
ENDBRANCH   3   5
BRANCH   1  16
HETATM   16  C   UNL     1     -31.194  -4.658 -17.058  1.00  0.00     0.103 C 
BRANCH  16  17
HETATM   17  C   UNL     1     -31.232  -6.186 -17.062  1.00  0.00     0.010 C 
BRANCH  17  18
HETATM   18  C   UNL     1     -29.948  -6.804 -17.615  1.00  0.00     0.004 C 
BRANCH  18  19
HETATM   19  C   UNL     1     -29.232  -5.818 -18.543  1.00  0.00     0.027 C 
BRANCH  19  20
HETATM   20  C   UNL     1     -27.805  -6.218 -18.793  1.00  0.00    -0.030 C 
HETATM   21  C   UNL     1     -27.274  -6.361 -20.018  1.00  0.00    -0.027 C 
BRANCH  21  22
HETATM   22  C   UNL     1     -25.834  -6.736 -20.271  1.00  0.00    -0.001 C 
HETATM   23  C   UNL     1     -25.078  -6.881 -18.952  1.00  0.00     0.013 C 
HETATM   24  C   UNL     1     -25.750  -8.035 -21.074  1.00  0.00     0.013 C 
ENDBRANCH  21  22
ENDBRANCH  19  20
ENDBRANCH  18  19
ENDBRANCH  17  18
ENDBRANCH  16  17
ENDBRANCH   1  16
TORSDOF 10
ENDMDL
MODEL 6
REMARK VINA RESULT:      -7.0      3.437     10.008
REMARK  10 active torsions:
REMARK  status: ('A' for Active; 'I' for Inactive)
REMARK    1  A    between atoms: C_2  and  C_4 
REMARK    2  A    between atoms: C_5  and  C_6 
REMARK    3  A    between atoms: C_6  and  C_7 
REMARK    4  A    between atoms: C_7  and  C_8 
REMARK    5  A    between atoms: C_8  and  C_9 
REMARK    6  A    between atoms: C_9  and  C_10 
REMARK       I    between atoms: C_10  and  N_12 
REMARK    7  A    between atoms: N_12  and  C_13 
REMARK    8  A    between atoms: C_13  and  C_14 
REMARK    9  A    between atoms: C_16  and  O_21 
REMARK   10  A    between atoms: C_17  and  O_20 
ROOT
HETATM    1  C   UNL     1     -20.464  -7.774  -5.424  1.00  0.00     0.217 C 
HETATM    2  O   UNL     1     -21.167  -8.572  -6.040  1.00  0.00    -0.274 OA
HETATM    3  N   UNL     1     -20.030  -7.999  -4.139  1.00  0.00    -0.357 N 
HETATM    4  H   UNL     1     -19.515  -7.283  -3.646  1.00  0.00     0.162 HD
ENDROOT
BRANCH   3   5
HETATM    5  C   UNL     1     -20.463  -9.167  -3.402  1.00  0.00     0.161 C 
BRANCH   5   6
HETATM    6  C   UNL     1     -21.336  -8.809  -2.225  1.00  0.00    -0.038 A 
HETATM    7  C   UNL     1     -22.090  -9.792  -1.565  1.00  0.00     0.048 A 
HETATM    8  C   UNL     1     -22.920  -9.495  -0.464  1.00  0.00     0.101 A 
HETATM    9  C   UNL     1     -22.991  -8.166  -0.040  1.00  0.00     0.099 A 
HETATM   10  C   UNL     1     -22.246  -7.179  -0.696  1.00  0.00     0.040 A 
HETATM   11  C   UNL     1     -21.425  -7.491  -1.780  1.00  0.00     0.012 A 
BRANCH   8  12
HETATM   12  O   UNL     1     -23.543 -10.615   0.007  1.00  0.00    -0.353 OA
HETATM   13  C   UNL     1     -23.651 -11.787  -0.776  1.00  0.00     0.210 C 
ENDBRANCH   8  12
BRANCH   9  14
HETATM   14  O   UNL     1     -23.742  -7.668   0.985  1.00  0.00    -0.358 OA
HETATM   15  H   UNL     1     -24.603  -7.384   0.663  1.00  0.00     0.217 HD
ENDBRANCH   9  14
ENDBRANCH   5   6
ENDBRANCH   3   5
BRANCH   1  16
HETATM   16  C   UNL     1     -19.944  -6.495  -6.047  1.00  0.00     0.103 C 
BRANCH  16  17
HETATM   17  C   UNL     1     -20.893  -5.332  -5.752  1.00  0.00     0.010 C 
BRANCH  17  18
HETATM   18  C   UNL     1     -22.271  -5.523  -6.385  1.00  0.00     0.004 C 
BRANCH  18  19
HETATM   19  C   UNL     1     -22.659  -4.293  -7.210  1.00  0.00     0.027 C 
BRANCH  19  20
HETATM   20  C   UNL     1     -21.816  -4.158  -8.447  1.00  0.00    -0.030 C 
HETATM   21  C   UNL     1     -22.279  -3.698  -9.620  1.00  0.00    -0.027 C 
BRANCH  21  22
HETATM   22  C   UNL     1     -21.427  -3.536 -10.855  1.00  0.00    -0.001 C 
HETATM   23  C   UNL     1     -20.246  -4.504 -10.823  1.00  0.00     0.013 C 
HETATM   24  C   UNL     1     -22.261  -3.760 -12.117  1.00  0.00     0.013 C 
ENDBRANCH  21  22
ENDBRANCH  19  20
ENDBRANCH  18  19
ENDBRANCH  17  18
ENDBRANCH  16  17
ENDBRANCH   1  16
TORSDOF 10
ENDMDL
MODEL 7
REMARK VINA RESULT:      -6.5      3.635     10.250
REMARK  10 active torsions:
REMARK  status: ('A' for Active; 'I' for Inactive)
REMARK    1  A    between atoms: C_2  and  C_4 
REMARK    2  A    between atoms: C_5  and  C_6 
REMARK    3  A    between atoms: C_6  and  C_7 
REMARK    4  A    between atoms: C_7  and  C_8 
REMARK    5  A    between atoms: C_8  and  C_9 
REMARK    6  A    between atoms: C_9  and  C_10 
REMARK       I    between atoms: C_10  and  N_12 
REMARK    7  A    between atoms: N_12  and  C_13 
REMARK    8  A    between atoms: C_13  and  C_14 
REMARK    9  A    between atoms: C_16  and  O_21 
REMARK   10  A    between atoms: C_17  and  O_20 
ROOT
HETATM    1  C   UNL     1     -20.481  -8.283  -5.223  1.00  0.00     0.217 C 
HETATM    2  O   UNL     1     -21.187  -8.988  -5.942  1.00  0.00    -0.274 OA
HETATM    3  N   UNL     1     -19.825  -8.769  -4.116  1.00  0.00    -0.357 N 
HETATM    4  H   UNL     1     -19.316  -8.138  -3.514  1.00  0.00     0.162 HD
ENDROOT
BRANCH   3   5
HETATM    5  C   UNL     1     -20.009 -10.138  -3.684  1.00  0.00     0.161 C 
BRANCH   5   6
HETATM    6  C   UNL     1     -21.123 -10.273  -2.676  1.00  0.00    -0.038 A 
HETATM    7  C   UNL     1     -21.030  -9.661  -1.415  1.00  0.00     0.048 A 
HETATM    8  C   UNL     1     -22.049  -9.767  -0.446  1.00  0.00     0.101 A 
HETATM    9  C   UNL     1     -23.177 -10.526  -0.766  1.00  0.00     0.099 A 
HETATM   10  C   UNL     1     -23.276 -11.144  -2.018  1.00  0.00     0.040 A 
HETATM   11  C   UNL     1     -22.260 -11.023  -2.968  1.00  0.00     0.012 A 
BRANCH   8  12
HETATM   12  O   UNL     1     -21.728  -9.082   0.691  1.00  0.00    -0.353 OA
HETATM   13  C   UNL     1     -22.422  -7.910   1.069  1.00  0.00     0.210 C 
ENDBRANCH   8  12
BRANCH   9  14
HETATM   14  O   UNL     1     -24.258 -10.769   0.031  1.00  0.00    -0.358 OA
HETATM   15  H   UNL     1     -25.074 -10.660  -0.468  1.00  0.00     0.217 HD
ENDBRANCH   9  14
ENDBRANCH   5   6
ENDBRANCH   3   5
BRANCH   1  16
HETATM   16  C   UNL     1     -20.206  -6.826  -5.528  1.00  0.00     0.103 C 
BRANCH  16  17
HETATM   17  C   UNL     1     -21.511  -6.084  -5.815  1.00  0.00     0.010 C 
BRANCH  17  18
HETATM   18  C   UNL     1     -21.287  -4.767  -6.557  1.00  0.00     0.004 C 
BRANCH  18  19
HETATM   19  C   UNL     1     -22.546  -4.361  -7.328  1.00  0.00     0.027 C 
BRANCH  19  20
HETATM   20  C   UNL     1     -22.226  -3.895  -8.721  1.00  0.00    -0.030 C 
HETATM   21  C   UNL     1     -22.431  -4.636  -9.821  1.00  0.00    -0.027 C 
BRANCH  21  22
HETATM   22  C   UNL     1     -22.135  -4.159 -11.223  1.00  0.00    -0.001 C 
HETATM   23  C   UNL     1     -23.081  -3.027 -11.614  1.00  0.00     0.013 C 
HETATM   24  C   UNL     1     -20.681  -3.698 -11.338  1.00  0.00     0.013 C 
ENDBRANCH  21  22
ENDBRANCH  19  20
ENDBRANCH  18  19
ENDBRANCH  17  18
ENDBRANCH  16  17
ENDBRANCH   1  16
TORSDOF 10
ENDMDL
MODEL 8
REMARK VINA RESULT:      -6.5     19.584     21.800
REMARK  10 active torsions:
REMARK  status: ('A' for Active; 'I' for Inactive)
REMARK    1  A    between atoms: C_2  and  C_4 
REMARK    2  A    between atoms: C_5  and  C_6 
REMARK    3  A    between atoms: C_6  and  C_7 
REMARK    4  A    between atoms: C_7  and  C_8 
REMARK    5  A    between atoms: C_8  and  C_9 
REMARK    6  A    between atoms: C_9  and  C_10 
REMARK       I    between atoms: C_10  and  N_12 
REMARK    7  A    between atoms: N_12  and  C_13 
REMARK    8  A    between atoms: C_13  and  C_14 
REMARK    9  A    between atoms: C_16  and  O_21 
REMARK   10  A    between atoms: C_17  and  O_20 
ROOT
HETATM    1  C   UNL     1      -9.973   8.093 -19.797  1.00  0.00     0.217 C 
HETATM    2  O   UNL     1     -10.555   8.353 -18.745  1.00  0.00    -0.274 OA
HETATM    3  N   UNL     1      -9.723   6.806 -20.212  1.00  0.00    -0.357 N 
HETATM    4  H   UNL     1      -9.178   6.642 -21.047  1.00  0.00     0.162 HD
ENDROOT
BRANCH   3   5
HETATM    5  C   UNL     1     -10.058   5.676 -19.373  1.00  0.00     0.161 C 
BRANCH   5   6
HETATM    6  C   UNL     1     -11.109   4.792 -19.998  1.00  0.00    -0.038 A 
HETATM    7  C   UNL     1     -12.393   5.289 -20.274  1.00  0.00     0.048 A 
HETATM    8  C   UNL     1     -13.403   4.493 -20.855  1.00  0.00     0.101 A 
HETATM    9  C   UNL     1     -13.097   3.161 -21.144  1.00  0.00     0.099 A 
HETATM   10  C   UNL     1     -11.821   2.656 -20.867  1.00  0.00     0.040 A 
HETATM   11  C   UNL     1     -10.832   3.460 -20.298  1.00  0.00     0.012 A 
BRANCH   8  12
HETATM   12  O   UNL     1     -14.557   5.201 -21.029  1.00  0.00    -0.353 OA
HETATM   13  C   UNL     1     -15.145   5.353 -22.306  1.00  0.00     0.210 C 
ENDBRANCH   8  12
BRANCH   9  14
HETATM   14  O   UNL     1     -13.931   2.225 -21.685  1.00  0.00    -0.358 OA
HETATM   15  H   UNL     1     -13.689   1.344 -21.381  1.00  0.00     0.217 HD
ENDBRANCH   9  14
ENDBRANCH   5   6
ENDBRANCH   3   5
BRANCH   1  16
HETATM   16  C   UNL     1      -9.540   9.165 -20.775  1.00  0.00     0.103 C 
BRANCH  16  17
HETATM   17  C   UNL     1     -10.278   9.006 -22.104  1.00  0.00     0.010 C 
BRANCH  17  18
HETATM   18  C   UNL     1     -11.796   9.097 -21.947  1.00  0.00     0.004 C 
BRANCH  18  19
HETATM   19  C   UNL     1     -12.214  10.520 -21.568  1.00  0.00     0.027 C 
BRANCH  19  20
HETATM   20  C   UNL     1     -12.917  10.563 -20.241  1.00  0.00    -0.030 C 
HETATM   21  C   UNL     1     -13.732  11.560 -19.859  1.00  0.00    -0.027 C 
BRANCH  21  22
HETATM   22  C   UNL     1     -14.461  11.591 -18.538  1.00  0.00    -0.001 C 
HETATM   23  C   UNL     1     -15.931  11.950 -18.744  1.00  0.00     0.013 C 
HETATM   24  C   UNL     1     -14.339  10.244 -17.825  1.00  0.00     0.013 C 
ENDBRANCH  21  22
ENDBRANCH  19  20
ENDBRANCH  18  19
ENDBRANCH  17  18
ENDBRANCH  16  17
ENDBRANCH   1  16
TORSDOF 10
ENDMDL
MODEL 9
REMARK VINA RESULT:      -6.4     13.281     16.502
REMARK  10 active torsions:
REMARK  status: ('A' for Active; 'I' for Inactive)
REMARK    1  A    between atoms: C_2  and  C_4 
REMARK    2  A    between atoms: C_5  and  C_6 
REMARK    3  A    between atoms: C_6  and  C_7 
REMARK    4  A    between atoms: C_7  and  C_8 
REMARK    5  A    between atoms: C_8  and  C_9 
REMARK    6  A    between atoms: C_9  and  C_10 
REMARK       I    between atoms: C_10  and  N_12 
REMARK    7  A    between atoms: N_12  and  C_13 
REMARK    8  A    between atoms: C_13  and  C_14 
REMARK    9  A    between atoms: C_16  and  O_21 
REMARK   10  A    between atoms: C_17  and  O_20 
ROOT
HETATM    1  C   UNL     1     -26.740   9.760  -6.108  1.00  0.00     0.217 C 
HETATM    2  O   UNL     1     -27.717   9.711  -5.363  1.00  0.00    -0.274 OA
HETATM    3  N   UNL     1     -25.925   8.678  -6.341  1.00  0.00    -0.357 N 
HETATM    4  H   UNL     1     -25.092   8.785  -6.904  1.00  0.00     0.162 HD
ENDROOT
BRANCH   3   5
HETATM    5  C   UNL     1     -26.127   7.429  -5.639  1.00  0.00     0.161 C 
BRANCH   5   6
HETATM    6  C   UNL     1     -25.200   7.283  -4.457  1.00  0.00    -0.038 A 
HETATM    7  C   UNL     1     -24.061   8.095  -4.333  1.00  0.00     0.048 A 
HETATM    8  C   UNL     1     -23.170   7.986  -3.245  1.00  0.00     0.101 A 
HETATM    9  C   UNL     1     -23.441   7.017  -2.275  1.00  0.00     0.099 A 
HETATM   10  C   UNL     1     -24.571   6.200  -2.394  1.00  0.00     0.040 A 
HETATM   11  C   UNL     1     -25.446   6.326  -3.475  1.00  0.00     0.012 A 
BRANCH   8  12
HETATM   12  O   UNL     1     -22.147   8.884  -3.346  1.00  0.00    -0.353 OA
HETATM   13  C   UNL     1     -22.390  10.274  -3.437  1.00  0.00     0.210 C 
ENDBRANCH   8  12
BRANCH   9  14
HETATM   14  O   UNL     1     -22.700   6.738  -1.163  1.00  0.00    -0.358 OA
HETATM   15  H   UNL     1     -22.971   7.299  -0.430  1.00  0.00     0.217 HD
ENDBRANCH   9  14
ENDBRANCH   5   6
ENDBRANCH   3   5
BRANCH   1  16
HETATM   16  C   UNL     1     -26.382  11.000  -6.900  1.00  0.00     0.103 C 
BRANCH  16  17
HETATM   17  C   UNL     1     -25.618  10.622  -8.170  1.00  0.00     0.010 C 
BRANCH  17  18
HETATM   18  C   UNL     1     -26.080  11.418  -9.390  1.00  0.00     0.004 C 
BRANCH  18  19
HETATM   19  C   UNL     1     -26.888  10.528 -10.339  1.00  0.00     0.027 C 
BRANCH  19  20
HETATM   20  C   UNL     1     -26.085   9.357 -10.831  1.00  0.00    -0.030 C 
HETATM   21  C   UNL     1     -26.472   8.078 -10.697  1.00  0.00    -0.027 C 
BRANCH  21  22
HETATM   22  C   UNL     1     -25.679   6.902 -11.214  1.00  0.00    -0.001 C 
HETATM   23  C   UNL     1     -24.291   7.349 -11.667  1.00  0.00     0.013 C 
HETATM   24  C   UNL     1     -25.563   5.819 -10.142  1.00  0.00     0.013 C 
ENDBRANCH  21  22
ENDBRANCH  19  20
ENDBRANCH  18  19
ENDBRANCH  17  18
ENDBRANCH  16  17
ENDBRANCH   1  16
TORSDOF 10
ENDMDL
