MODEL 1
REMARK VINA RESULT:      -5.8      0.000      0.000
REMARK  9 active torsions:
REMARK  status: ('A' for Active; 'I' for Inactive)
REMARK    1  A    between atoms: C_2  and  C_4 
REMARK    2  A    between atoms: C_2  and  C_6 
REMARK    3  A    between atoms: C_4  and  O_5 
REMARK    4  A    between atoms: C_6  and  C_7 
REMARK    5  A    between atoms: C_6  and  O_14 
REMARK       I    between atoms: C_7  and  N_9 
REMARK    6  A    between atoms: N_9  and  C_10 
REMARK    7  A    between atoms: C_10  and  C_11 
REMARK    8  A    between atoms: C_11  and  C_12 
REMARK    9  A    between atoms: C_12  and  O_13 
ROOT
HETATM    1  C   UNL     1     -33.785  -2.366 -11.562  1.00  0.00     0.219 C 
ENDROOT
BRANCH   1   2
HETATM    2  C   UNL     1     -33.678  -3.906 -11.753  1.00  0.00     0.008 C 
HETATM    3  C   UNL     1     -34.258  -4.658 -10.539  1.00  0.00     0.020 C 
HETATM    4  C   UNL     1     -32.208  -4.341 -11.942  1.00  0.00     0.020 C 
BRANCH   2   5
HETATM    5  C   UNL     1     -34.489  -4.288 -13.017  1.00  0.00     0.175 C 
BRANCH   5   6
HETATM    6  O   UNL     1     -33.749  -4.056 -14.213  1.00  0.00    -0.400 OA
HETATM    7  H   UNL     1     -33.341  -3.178 -14.136  1.00  0.00     0.209 HD
ENDBRANCH   5   6
ENDBRANCH   2   5
ENDBRANCH   1   2
BRANCH   1   8
HETATM    8  C   UNL     1     -35.060  -1.751 -12.174  1.00  0.00     0.247 C 
HETATM    9  O   UNL     1     -36.145  -1.850 -11.600  1.00  0.00    -0.271 OA
HETATM   10  N   UNL     1     -34.889  -1.096 -13.371  1.00  0.00    -0.359 N 
HETATM   11  H   UNL     1     -33.960  -0.993 -13.761  1.00  0.00     0.162 HD
BRANCH  10  12
HETATM   12  C   UNL     1     -36.006  -0.497 -14.080  1.00  0.00     0.125 C 
BRANCH  12  13
HETATM   13  C   UNL     1     -35.584  -0.009 -15.464  1.00  0.00     0.046 C 
BRANCH  13  14
HETATM   14  C   UNL     1     -35.715  -1.104 -16.514  1.00  0.00     0.165 C 
BRANCH  14  15
HETATM   15  O   UNL     1     -35.017  -2.275 -16.119  1.00  0.00    -0.401 OA
HETATM   16  H   UNL     1     -35.678  -2.947 -15.872  1.00  0.00     0.209 HD
ENDBRANCH  14  15
ENDBRANCH  13  14
ENDBRANCH  12  13
ENDBRANCH  10  12
ENDBRANCH   1   8
BRANCH   1  17
HETATM   17  O   UNL     1     -33.765  -2.046 -10.166  1.00  0.00    -0.385 OA
HETATM   18  H   UNL     1     -33.877  -1.074 -10.111  1.00  0.00     0.210 HD
ENDBRANCH   1  17
TORSDOF 9
ENDMDL
MODEL 2
REMARK VINA RESULT:      -5.4     10.971     13.451
REMARK  9 active torsions:
REMARK  status: ('A' for Active; 'I' for Inactive)
REMARK    1  A    between atoms: C_2  and  C_4 
REMARK    2  A    between atoms: C_2  and  C_6 
REMARK    3  A    between atoms: C_4  and  O_5 
REMARK    4  A    between atoms: C_6  and  C_7 
REMARK    5  A    between atoms: C_6  and  O_14 
REMARK       I    between atoms: C_7  and  N_9 
REMARK    6  A    between atoms: N_9  and  C_10 
REMARK    7  A    between atoms: C_10  and  C_11 
REMARK    8  A    between atoms: C_11  and  C_12 
REMARK    9  A    between atoms: C_12  and  O_13 
ROOT
HETATM    1  C   UNL     1     -22.277  -3.109 -11.254  1.00  0.00     0.219 C 
ENDROOT
BRANCH   1   2
HETATM    2  C   UNL     1     -23.699  -3.738 -11.306  1.00  0.00     0.008 C 
HETATM    3  C   UNL     1     -24.526  -3.342 -10.067  1.00  0.00     0.020 C 
HETATM    4  C   UNL     1     -23.622  -5.279 -11.371  1.00  0.00     0.020 C 
BRANCH   2   5
HETATM    5  C   UNL     1     -24.409  -3.209 -12.577  1.00  0.00     0.175 C 
BRANCH   5   6
HETATM    6  O   UNL     1     -24.162  -4.040 -13.709  1.00  0.00    -0.400 OA
HETATM    7  H   UNL     1     -25.021  -4.375 -14.017  1.00  0.00     0.209 HD
ENDBRANCH   5   6
ENDBRANCH   2   5
ENDBRANCH   1   2
BRANCH   1   8
HETATM    8  C   UNL     1     -21.268  -3.923 -10.419  1.00  0.00     0.247 C 
HETATM    9  O   UNL     1     -20.403  -4.607 -10.968  1.00  0.00    -0.271 OA
HETATM   10  N   UNL     1     -21.403  -3.816  -9.054  1.00  0.00    -0.359 N 
HETATM   11  H   UNL     1     -22.093  -3.187  -8.664  1.00  0.00     0.162 HD
BRANCH  10  12
HETATM   12  C   UNL     1     -20.543  -4.551  -8.143  1.00  0.00     0.125 C 
BRANCH  12  13
HETATM   13  C   UNL     1     -21.031  -4.425  -6.701  1.00  0.00     0.046 C 
BRANCH  13  14
HETATM   14  C   UNL     1     -22.316  -5.207  -6.468  1.00  0.00     0.165 C 
BRANCH  14  15
HETATM   15  O   UNL     1     -23.453  -4.442  -6.837  1.00  0.00    -0.401 OA
HETATM   16  H   UNL     1     -24.048  -5.019  -7.349  1.00  0.00     0.209 HD
ENDBRANCH  14  15
ENDBRANCH  13  14
ENDBRANCH  12  13
ENDBRANCH  10  12
ENDBRANCH   1   8
BRANCH   1  17
HETATM   17  O   UNL     1     -21.752  -2.980 -12.581  1.00  0.00    -0.385 OA
HETATM   18  H   UNL     1     -22.176  -3.689 -13.108  1.00  0.00     0.210 HD
ENDBRANCH   1  17
TORSDOF 9
ENDMDL
MODEL 3
REMARK VINA RESULT:      -5.3     10.903     12.444
REMARK  9 active torsions:
REMARK  status: ('A' for Active; 'I' for Inactive)
REMARK    1  A    between atoms: C_2  and  C_4 
REMARK    2  A    between atoms: C_2  and  C_6 
REMARK    3  A    between atoms: C_4  and  O_5 
REMARK    4  A    between atoms: C_6  and  C_7 
REMARK    5  A    between atoms: C_6  and  O_14 
REMARK       I    between atoms: C_7  and  N_9 
REMARK    6  A    between atoms: N_9  and  C_10 
REMARK    7  A    between atoms: C_10  and  C_11 
REMARK    8  A    between atoms: C_11  and  C_12 
REMARK    9  A    between atoms: C_12  and  O_13 
ROOT
HETATM    1  C   UNL     1     -23.002  -3.718  -8.736  1.00  0.00     0.219 C 
ENDROOT
BRANCH   1   2
HETATM    2  C   UNL     1     -21.566  -4.227  -8.420  1.00  0.00     0.008 C 
HETATM    3  C   UNL     1     -20.858  -3.300  -7.412  1.00  0.00     0.020 C 
HETATM    4  C   UNL     1     -20.709  -4.301  -9.702  1.00  0.00     0.020 C 
BRANCH   2   5
HETATM    5  C   UNL     1     -21.686  -5.644  -7.803  1.00  0.00     0.175 C 
BRANCH   5   6
HETATM    6  O   UNL     1     -21.779  -5.598  -6.382  1.00  0.00    -0.400 OA
HETATM    7  H   UNL     1     -22.514  -6.176  -6.120  1.00  0.00     0.209 HD
ENDBRANCH   5   6
ENDBRANCH   2   5
ENDBRANCH   1   2
BRANCH   1   8
HETATM    8  C   UNL     1     -23.497  -4.094 -10.148  1.00  0.00     0.247 C 
HETATM    9  O   UNL     1     -23.778  -5.260 -10.426  1.00  0.00    -0.271 OA
HETATM   10  N   UNL     1     -23.606  -3.051 -11.037  1.00  0.00    -0.359 N 
HETATM   11  H   UNL     1     -23.421  -2.104 -10.729  1.00  0.00     0.162 HD
BRANCH  10  12
HETATM   12  C   UNL     1     -24.028  -3.261 -12.411  1.00  0.00     0.125 C 
BRANCH  12  13
HETATM   13  C   UNL     1     -22.885  -2.992 -13.387  1.00  0.00     0.046 C 
BRANCH  13  14
HETATM   14  C   UNL     1     -23.342  -2.163 -14.579  1.00  0.00     0.165 C 
BRANCH  14  15
HETATM   15  O   UNL     1     -24.442  -1.335 -14.234  1.00  0.00    -0.401 OA
HETATM   16  H   UNL     1     -25.023  -1.270 -15.012  1.00  0.00     0.209 HD
ENDBRANCH  14  15
ENDBRANCH  13  14
ENDBRANCH  12  13
ENDBRANCH  10  12
ENDBRANCH   1   8
BRANCH   1  17
HETATM   17  O   UNL     1     -23.929  -4.251  -7.784  1.00  0.00    -0.385 OA
HETATM   18  H   UNL     1     -24.765  -4.397  -8.275  1.00  0.00     0.210 HD
ENDBRANCH   1  17
TORSDOF 9
ENDMDL
MODEL 4
REMARK VINA RESULT:      -5.2     11.367     13.945
REMARK  9 active torsions:
REMARK  status: ('A' for Active; 'I' for Inactive)
REMARK    1  A    between atoms: C_2  and  C_4 
REMARK    2  A    between atoms: C_2  and  C_6 
REMARK    3  A    between atoms: C_4  and  O_5 
REMARK    4  A    between atoms: C_6  and  C_7 
REMARK    5  A    between atoms: C_6  and  O_14 
REMARK       I    between atoms: C_7  and  N_9 
REMARK    6  A    between atoms: N_9  and  C_10 
REMARK    7  A    between atoms: C_10  and  C_11 
REMARK    8  A    between atoms: C_11  and  C_12 
REMARK    9  A    between atoms: C_12  and  O_13 
ROOT
HETATM    1  C   UNL     1     -22.222  -3.102 -10.899  1.00  0.00     0.219 C 
ENDROOT
BRANCH   1   2
HETATM    2  C   UNL     1     -23.658  -3.698 -10.939  1.00  0.00     0.008 C 
HETATM    3  C   UNL     1     -23.618  -5.235 -11.055  1.00  0.00     0.020 C 
HETATM    4  C   UNL     1     -24.459  -3.138 -12.134  1.00  0.00     0.020 C 
BRANCH   2   5
HETATM    5  C   UNL     1     -24.373  -3.311  -9.619  1.00  0.00     0.175 C 
BRANCH   5   6
HETATM    6  O   UNL     1     -25.786  -3.221  -9.787  1.00  0.00    -0.400 OA
HETATM    7  H   UNL     1     -26.093  -4.078 -10.127  1.00  0.00     0.209 HD
ENDBRANCH   5   6
ENDBRANCH   2   5
ENDBRANCH   1   2
BRANCH   1   8
HETATM    8  C   UNL     1     -21.181  -4.032 -10.243  1.00  0.00     0.247 C 
HETATM    9  O   UNL     1     -20.378  -4.662 -10.931  1.00  0.00    -0.271 OA
HETATM   10  N   UNL     1     -21.217  -4.089  -8.869  1.00  0.00    -0.359 N 
HETATM   11  H   UNL     1     -21.860  -3.498  -8.357  1.00  0.00     0.162 HD
BRANCH  10  12
HETATM   12  C   UNL     1     -20.318  -4.947  -8.118  1.00  0.00     0.125 C 
BRANCH  12  13
HETATM   13  C   UNL     1     -20.397  -4.654  -6.621  1.00  0.00     0.046 C 
BRANCH  13  14
HETATM   14  C   UNL     1     -21.105  -5.768  -5.863  1.00  0.00     0.165 C 
BRANCH  14  15
HETATM   15  O   UNL     1     -21.024  -6.997  -6.568  1.00  0.00    -0.401 OA
HETATM   16  H   UNL     1     -20.089  -7.154  -6.790  1.00  0.00     0.209 HD
ENDBRANCH  14  15
ENDBRANCH  13  14
ENDBRANCH  12  13
ENDBRANCH  10  12
ENDBRANCH   1   8
BRANCH   1  17
HETATM   17  O   UNL     1     -21.779  -2.809 -12.229  1.00  0.00    -0.385 OA
HETATM   18  H   UNL     1     -21.198  -2.024 -12.153  1.00  0.00     0.210 HD
ENDBRANCH   1  17
TORSDOF 9
ENDMDL
MODEL 5
REMARK VINA RESULT:      -5.2     11.014     12.554
REMARK  9 active torsions:
REMARK  status: ('A' for Active; 'I' for Inactive)
REMARK    1  A    between atoms: C_2  and  C_4 
REMARK    2  A    between atoms: C_2  and  C_6 
REMARK    3  A    between atoms: C_4  and  O_5 
REMARK    4  A    between atoms: C_6  and  C_7 
REMARK    5  A    between atoms: C_6  and  O_14 
REMARK       I    between atoms: C_7  and  N_9 
REMARK    6  A    between atoms: N_9  and  C_10 
REMARK    7  A    between atoms: C_10  and  C_11 
REMARK    8  A    between atoms: C_11  and  C_12 
REMARK    9  A    between atoms: C_12  and  O_13 
ROOT
HETATM    1  C   UNL     1     -21.203  -4.365 -10.563  1.00  0.00     0.219 C 
ENDROOT
BRANCH   1   2
HETATM    2  C   UNL     1     -21.402  -4.258  -9.024  1.00  0.00     0.008 C 
HETATM    3  C   UNL     1     -20.203  -3.554  -8.357  1.00  0.00     0.020 C 
HETATM    4  C   UNL     1     -21.565  -5.655  -8.387  1.00  0.00     0.020 C 
BRANCH   2   5
HETATM    5  C   UNL     1     -22.683  -3.426  -8.764  1.00  0.00     0.175 C 
BRANCH   5   6
HETATM    6  O   UNL     1     -23.608  -4.122  -7.933  1.00  0.00    -0.400 OA
HETATM    7  H   UNL     1     -24.413  -4.273  -8.457  1.00  0.00     0.209 HD
ENDBRANCH   5   6
ENDBRANCH   2   5
ENDBRANCH   1   2
BRANCH   1   8
HETATM    8  C   UNL     1     -22.493  -4.128 -11.374  1.00  0.00     0.247 C 
HETATM    9  O   UNL     1     -23.406  -4.955 -11.360  1.00  0.00    -0.271 OA
HETATM   10  N   UNL     1     -22.542  -2.951 -12.083  1.00  0.00    -0.359 N 
HETATM   11  H   UNL     1     -21.786  -2.282 -12.003  1.00  0.00     0.162 HD
BRANCH  10  12
HETATM   12  C   UNL     1     -23.681  -2.610 -12.917  1.00  0.00     0.125 C 
BRANCH  12  13
HETATM   13  C   UNL     1     -23.287  -2.552 -14.392  1.00  0.00     0.046 C 
BRANCH  13  14
HETATM   14  C   UNL     1     -23.616  -1.201 -15.012  1.00  0.00     0.165 C 
BRANCH  14  15
HETATM   15  O   UNL     1     -24.851  -0.701 -14.524  1.00  0.00    -0.401 OA
HETATM   16  H   UNL     1     -25.307  -1.428 -14.064  1.00  0.00     0.209 HD
ENDBRANCH  14  15
ENDBRANCH  13  14
ENDBRANCH  12  13
ENDBRANCH  10  12
ENDBRANCH   1   8
BRANCH   1  17
HETATM   17  O   UNL     1     -20.226  -3.412 -10.996  1.00  0.00    -0.385 OA
HETATM   18  H   UNL     1     -20.414  -3.244 -11.943  1.00  0.00     0.210 HD
ENDBRANCH   1  17
TORSDOF 9
ENDMDL
MODEL 6
REMARK VINA RESULT:      -5.0     11.562     14.205
REMARK  9 active torsions:
REMARK  status: ('A' for Active; 'I' for Inactive)
REMARK    1  A    between atoms: C_2  and  C_4 
REMARK    2  A    between atoms: C_2  and  C_6 
REMARK    3  A    between atoms: C_4  and  O_5 
REMARK    4  A    between atoms: C_6  and  C_7 
REMARK    5  A    between atoms: C_6  and  O_14 
REMARK       I    between atoms: C_7  and  N_9 
REMARK    6  A    between atoms: N_9  and  C_10 
REMARK    7  A    between atoms: C_10  and  C_11 
REMARK    8  A    between atoms: C_11  and  C_12 
REMARK    9  A    between atoms: C_12  and  O_13 
ROOT
HETATM    1  C   UNL     1     -23.226  -4.515  -9.025  1.00  0.00     0.219 C 
ENDROOT
BRANCH   1   2
HETATM    2  C   UNL     1     -22.930  -4.236 -10.526  1.00  0.00     0.008 C 
HETATM    3  C   UNL     1     -23.482  -5.365 -11.420  1.00  0.00     0.020 C 
HETATM    4  C   UNL     1     -21.412  -4.112 -10.779  1.00  0.00     0.020 C 
BRANCH   2   5
HETATM    5  C   UNL     1     -23.621  -2.904 -10.911  1.00  0.00     0.175 C 
BRANCH   5   6
HETATM    6  O   UNL     1     -24.973  -3.105 -11.315  1.00  0.00    -0.400 OA
HETATM    7  H   UNL     1     -25.542  -2.795 -10.591  1.00  0.00     0.209 HD
ENDBRANCH   5   6
ENDBRANCH   2   5
ENDBRANCH   1   2
BRANCH   1   8
HETATM    8  C   UNL     1     -21.990  -4.384  -8.112  1.00  0.00     0.247 C 
HETATM    9  O   UNL     1     -21.634  -3.283  -7.689  1.00  0.00    -0.271 OA
HETATM   10  N   UNL     1     -21.344  -5.561  -7.813  1.00  0.00    -0.359 N 
HETATM   11  H   UNL     1     -21.722  -6.441  -8.140  1.00  0.00     0.162 HD
BRANCH  10  12
HETATM   12  C   UNL     1     -20.146  -5.586  -6.992  1.00  0.00     0.125 C 
BRANCH  12  13
HETATM   13  C   UNL     1     -20.496  -5.596  -5.505  1.00  0.00     0.046 C 
BRANCH  13  14
HETATM   14  C   UNL     1     -21.121  -6.917  -5.081  1.00  0.00     0.165 C 
BRANCH  14  15
HETATM   15  O   UNL     1     -21.124  -7.849  -6.151  1.00  0.00    -0.401 OA
HETATM   16  H   UNL     1     -21.921  -8.402  -6.063  1.00  0.00     0.209 HD
ENDBRANCH  14  15
ENDBRANCH  13  14
ENDBRANCH  12  13
ENDBRANCH  10  12
ENDBRANCH   1   8
BRANCH   1  17
HETATM   17  O   UNL     1     -24.227  -3.607  -8.549  1.00  0.00    -0.385 OA
HETATM   18  H   UNL     1     -24.661  -3.243  -9.348  1.00  0.00     0.210 HD
ENDBRANCH   1  17
TORSDOF 9
ENDMDL
MODEL 7
REMARK VINA RESULT:      -5.0      2.310      2.916
REMARK  9 active torsions:
REMARK  status: ('A' for Active; 'I' for Inactive)
REMARK    1  A    between atoms: C_2  and  C_4 
REMARK    2  A    between atoms: C_2  and  C_6 
REMARK    3  A    between atoms: C_4  and  O_5 
REMARK    4  A    between atoms: C_6  and  C_7 
REMARK    5  A    between atoms: C_6  and  O_14 
REMARK       I    between atoms: C_7  and  N_9 
REMARK    6  A    between atoms: N_9  and  C_10 
REMARK    7  A    between atoms: C_10  and  C_11 
REMARK    8  A    between atoms: C_11  and  C_12 
REMARK    9  A    between atoms: C_12  and  O_13 
ROOT
HETATM    1  C   UNL     1     -34.718  -3.559 -10.702  1.00  0.00     0.219 C 
ENDROOT
BRANCH   1   2
HETATM    2  C   UNL     1     -34.011  -4.674 -11.525  1.00  0.00     0.008 C 
HETATM    3  C   UNL     1     -32.580  -4.252 -11.916  1.00  0.00     0.020 C 
HETATM    4  C   UNL     1     -34.795  -4.994 -12.816  1.00  0.00     0.020 C 
BRANCH   2   5
HETATM    5  C   UNL     1     -33.938  -5.946 -10.644  1.00  0.00     0.175 C 
BRANCH   5   6
HETATM    6  O   UNL     1     -34.631  -7.042 -11.236  1.00  0.00    -0.400 OA
HETATM    7  H   UNL     1     -35.237  -6.677 -11.901  1.00  0.00     0.209 HD
ENDBRANCH   5   6
ENDBRANCH   2   5
ENDBRANCH   1   2
BRANCH   1   8
HETATM    8  C   UNL     1     -34.320  -2.129 -11.121  1.00  0.00     0.247 C 
HETATM    9  O   UNL     1     -33.386  -1.549 -10.568  1.00  0.00    -0.271 OA
HETATM   10  N   UNL     1     -35.064  -1.579 -12.138  1.00  0.00    -0.359 N 
HETATM   11  H   UNL     1     -35.778  -2.131 -12.596  1.00  0.00     0.162 HD
BRANCH  10  12
HETATM   12  C   UNL     1     -34.823  -0.228 -12.614  1.00  0.00     0.125 C 
BRANCH  12  13
HETATM   13  C   UNL     1     -35.930   0.229 -13.563  1.00  0.00     0.046 C 
BRANCH  13  14
HETATM   14  C   UNL     1     -37.305  -0.217 -13.084  1.00  0.00     0.165 C 
BRANCH  14  15
HETATM   15  O   UNL     1     -37.545   0.210 -11.752  1.00  0.00    -0.401 OA
HETATM   16  H   UNL     1     -38.209   0.922 -11.782  1.00  0.00     0.209 HD
ENDBRANCH  14  15
ENDBRANCH  13  14
ENDBRANCH  12  13
ENDBRANCH  10  12
ENDBRANCH   1   8
BRANCH   1  17
HETATM   17  O   UNL     1     -36.139  -3.681 -10.837  1.00  0.00    -0.385 OA
HETATM   18  H   UNL     1     -36.336  -4.637 -10.746  1.00  0.00     0.210 HD
ENDBRANCH   1  17
TORSDOF 9
ENDMDL
MODEL 8
REMARK VINA RESULT:      -4.9     10.753     12.751
REMARK  9 active torsions:
REMARK  status: ('A' for Active; 'I' for Inactive)
REMARK    1  A    between atoms: C_2  and  C_4 
REMARK    2  A    between atoms: C_2  and  C_6 
REMARK    3  A    between atoms: C_4  and  O_5 
REMARK    4  A    between atoms: C_6  and  C_7 
REMARK    5  A    between atoms: C_6  and  O_14 
REMARK       I    between atoms: C_7  and  N_9 
REMARK    6  A    between atoms: N_9  and  C_10 
REMARK    7  A    between atoms: C_10  and  C_11 
REMARK    8  A    between atoms: C_11  and  C_12 
REMARK    9  A    between atoms: C_12  and  O_13 
ROOT
HETATM    1  C   UNL     1     -24.139  -3.760 -11.632  1.00  0.00     0.219 C 
ENDROOT
BRANCH   1   2
HETATM    2  C   UNL     1     -22.794  -3.312 -12.272  1.00  0.00     0.008 C 
HETATM    3  C   UNL     1     -21.750  -4.445 -12.218  1.00  0.00     0.020 C 
HETATM    4  C   UNL     1     -22.216  -2.079 -11.544  1.00  0.00     0.020 C 
BRANCH   2   5
HETATM    5  C   UNL     1     -23.067  -2.949 -13.753  1.00  0.00     0.175 C 
BRANCH   5   6
HETATM    6  O   UNL     1     -23.825  -3.957 -14.417  1.00  0.00    -0.400 OA
HETATM    7  H   UNL     1     -24.601  -3.525 -14.810  1.00  0.00     0.209 HD
ENDBRANCH   5   6
ENDBRANCH   2   5
ENDBRANCH   1   2
BRANCH   1   8
HETATM    8  C   UNL     1     -24.186  -3.588 -10.100  1.00  0.00     0.247 C 
HETATM    9  O   UNL     1     -24.979  -2.803  -9.579  1.00  0.00    -0.271 OA
HETATM   10  N   UNL     1     -23.305  -4.366  -9.387  1.00  0.00    -0.359 N 
HETATM   11  H   UNL     1     -22.723  -5.039  -9.869  1.00  0.00     0.162 HD
BRANCH  10  12
HETATM   12  C   UNL     1     -23.215  -4.285  -7.940  1.00  0.00     0.125 C 
BRANCH  12  13
HETATM   13  C   UNL     1     -21.867  -4.803  -7.441  1.00  0.00     0.046 C 
BRANCH  13  14
HETATM   14  C   UNL     1     -20.716  -3.920  -7.902  1.00  0.00     0.165 C 
BRANCH  14  15
HETATM   15  O   UNL     1     -20.174  -4.387  -9.127  1.00  0.00    -0.401 OA
HETATM   16  H   UNL     1     -19.715  -3.642  -9.554  1.00  0.00     0.209 HD
ENDBRANCH  14  15
ENDBRANCH  13  14
ENDBRANCH  12  13
ENDBRANCH  10  12
ENDBRANCH   1   8
BRANCH   1  17
HETATM   17  O   UNL     1     -25.221  -3.009 -12.196  1.00  0.00    -0.385 OA
HETATM   18  H   UNL     1     -24.811  -2.238 -12.639  1.00  0.00     0.210 HD
ENDBRANCH   1  17
TORSDOF 9
ENDMDL
MODEL 9
REMARK VINA RESULT:      -4.9     11.620     13.661
REMARK  9 active torsions:
REMARK  status: ('A' for Active; 'I' for Inactive)
REMARK    1  A    between atoms: C_2  and  C_4 
REMARK    2  A    between atoms: C_2  and  C_6 
REMARK    3  A    between atoms: C_4  and  O_5 
REMARK    4  A    between atoms: C_6  and  C_7 
REMARK    5  A    between atoms: C_6  and  O_14 
REMARK       I    between atoms: C_7  and  N_9 
REMARK    6  A    between atoms: N_9  and  C_10 
REMARK    7  A    between atoms: C_10  and  C_11 
REMARK    8  A    between atoms: C_11  and  C_12 
REMARK    9  A    between atoms: C_12  and  O_13 
ROOT
HETATM    1  C   UNL     1     -21.095  -5.572  -8.054  1.00  0.00     0.219 C 
ENDROOT
BRANCH   1   2
HETATM    2  C   UNL     1     -21.570  -4.683  -6.869  1.00  0.00     0.008 C 
HETATM    3  C   UNL     1     -21.255  -3.197  -7.130  1.00  0.00     0.020 C 
HETATM    4  C   UNL     1     -20.885  -5.104  -5.551  1.00  0.00     0.020 C 
BRANCH   2   5
HETATM    5  C   UNL     1     -23.103  -4.856  -6.726  1.00  0.00     0.175 C 
BRANCH   5   6
HETATM    6  O   UNL     1     -23.815  -4.118  -7.716  1.00  0.00    -0.400 OA
HETATM    7  H   UNL     1     -23.861  -4.672  -8.513  1.00  0.00     0.209 HD
ENDBRANCH   5   6
ENDBRANCH   2   5
ENDBRANCH   1   2
BRANCH   1   8
HETATM    8  C   UNL     1     -20.861  -4.790  -9.363  1.00  0.00     0.247 C 
HETATM    9  O   UNL     1     -19.721  -4.503  -9.729  1.00  0.00    -0.271 OA
HETATM   10  N   UNL     1     -21.994  -4.461 -10.070  1.00  0.00    -0.359 N 
HETATM   11  H   UNL     1     -22.899  -4.781  -9.749  1.00  0.00     0.162 HD
BRANCH  10  12
HETATM   12  C   UNL     1     -21.928  -3.697 -11.303  1.00  0.00     0.125 C 
BRANCH  12  13
HETATM   13  C   UNL     1     -23.183  -3.905 -12.149  1.00  0.00     0.046 C 
BRANCH  13  14
HETATM   14  C   UNL     1     -24.386  -3.178 -11.566  1.00  0.00     0.165 C 
BRANCH  14  15
HETATM   15  O   UNL     1     -24.872  -3.841 -10.409  1.00  0.00    -0.401 OA
HETATM   16  H   UNL     1     -24.479  -3.408  -9.630  1.00  0.00     0.209 HD
ENDBRANCH  14  15
ENDBRANCH  13  14
ENDBRANCH  12  13
ENDBRANCH  10  12
ENDBRANCH   1   8
BRANCH   1  17
HETATM   17  O   UNL     1     -19.873  -6.234  -7.709  1.00  0.00    -0.385 OA
HETATM   18  H   UNL     1     -19.885  -6.329  -6.733  1.00  0.00     0.210 HD
ENDBRANCH   1  17
TORSDOF 9
ENDMDL
