MODEL 1
REMARK VINA RESULT:      -8.0      0.000      0.000
REMARK  0 active torsions:
REMARK  status: ('A' for Active; 'I' for Inactive)
ROOT
HETATM    1  C   UNL     1     -23.615  10.321   6.747  1.00  0.00     0.049 C 
HETATM    2  C   UNL     1     -23.517  10.071   5.267  1.00  0.00    -0.045 A 
HETATM    3  C   UNL     1     -24.699  10.059   4.504  1.00  0.00     0.031 A 
HETATM    4  C   UNL     1     -24.663   9.830   3.125  1.00  0.00     0.035 A 
HETATM    5  C   UNL     1     -23.453   9.607   2.476  1.00  0.00     0.043 A 
HETATM    6  C   UNL     1     -22.280   9.617   3.223  1.00  0.00     0.022 A 
HETATM    7  C   UNL     1     -22.303   9.845   4.599  1.00  0.00     0.038 A 
HETATM    8  C   UNL     1     -20.931   9.808   5.168  1.00  0.00     0.202 A 
HETATM    9  O   UNL     1     -20.720   9.982   6.355  1.00  0.00    -0.286 OA
HETATM   10  C   UNL     1     -19.885   9.534   4.097  1.00  0.00     0.077 A 
HETATM   11  C   UNL     1     -18.554   9.438   4.291  1.00  0.00     0.077 A 
HETATM   12  C   UNL     1     -17.509   9.161   3.222  1.00  0.00     0.202 A 
HETATM   13  O   UNL     1     -17.720   8.984   2.034  1.00  0.00    -0.286 OA
HETATM   14  C   UNL     1     -16.137   9.123   3.787  1.00  0.00     0.038 A 
HETATM   15  C   UNL     1     -16.159   9.351   5.161  1.00  0.00     0.022 A 
HETATM   16  S   UNL     1     -17.766   9.616   5.841  1.00  0.00    -0.084 SA
HETATM   17  C   UNL     1     -14.987   9.363   5.908  1.00  0.00     0.043 A 
HETATM   18  C   UNL     1     -13.778   9.143   5.257  1.00  0.00     0.035 A 
HETATM   19  C   UNL     1     -13.741   8.912   3.878  1.00  0.00     0.031 A 
HETATM   20  C   UNL     1     -14.924   8.897   3.115  1.00  0.00    -0.045 A 
HETATM   21  C   UNL     1     -14.825   8.643   1.638  1.00  0.00     0.049 C 
HETATM   22 CL   UNL     1     -12.312   9.153   6.159  1.00  0.00    -0.084 Cl
HETATM   23  S   UNL     1     -20.674   9.355   2.546  1.00  0.00    -0.084 SA
HETATM   24 CL   UNL     1     -26.126   9.824   2.222  1.00  0.00    -0.084 Cl
ENDROOT
TORSDOF 0
ENDMDL
MODEL 2
REMARK VINA RESULT:      -7.6     20.415     22.810
REMARK  0 active torsions:
REMARK  status: ('A' for Active; 'I' for Inactive)
ROOT
HETATM    1  C   UNL     1     -13.593 -12.553  -6.030  1.00  0.00     0.049 C 
HETATM    2  C   UNL     1     -14.013 -12.735  -4.597  1.00  0.00    -0.045 A 
HETATM    3  C   UNL     1     -13.271 -13.609  -3.782  1.00  0.00     0.031 A 
HETATM    4  C   UNL     1     -13.620 -13.814  -2.443  1.00  0.00     0.035 A 
HETATM    5  C   UNL     1     -14.712 -13.157  -1.888  1.00  0.00     0.043 A 
HETATM    6  C   UNL     1     -15.451 -12.291  -2.687  1.00  0.00     0.022 A 
HETATM    7  C   UNL     1     -15.113 -12.077  -4.023  1.00  0.00     0.038 A 
HETATM    8  C   UNL     1     -16.046 -11.115  -4.662  1.00  0.00     0.202 A 
HETATM    9  O   UNL     1     -15.935 -10.785  -5.829  1.00  0.00    -0.286 OA
HETATM   10  C   UNL     1     -17.108 -10.629  -3.685  1.00  0.00     0.077 A 
HETATM   11  C   UNL     1     -18.099  -9.755  -3.956  1.00  0.00     0.077 A 
HETATM   12  C   UNL     1     -19.161  -9.272  -2.982  1.00  0.00     0.202 A 
HETATM   13  O   UNL     1     -19.276  -9.604  -1.815  1.00  0.00    -0.286 OA
HETATM   14  C   UNL     1     -20.096  -8.310  -3.618  1.00  0.00     0.038 A 
HETATM   15  C   UNL     1     -19.759  -8.095  -4.952  1.00  0.00     0.022 A 
HETATM   16  S   UNL     1     -18.350  -9.000  -5.513  1.00  0.00    -0.084 SA
HETATM   17  C   UNL     1     -20.495  -7.229  -5.751  1.00  0.00     0.043 A 
HETATM   18  C   UNL     1     -21.586  -6.570  -5.193  1.00  0.00     0.035 A 
HETATM   19  C   UNL     1     -21.936  -6.776  -3.854  1.00  0.00     0.031 A 
HETATM   20  C   UNL     1     -21.196  -7.654  -3.039  1.00  0.00    -0.045 A 
HETATM   21  C   UNL     1     -21.619  -7.838  -1.610  1.00  0.00     0.049 C 
HETATM   22 CL   UNL     1     -22.513  -5.491  -6.160  1.00  0.00    -0.084 Cl
HETATM   23  S   UNL     1     -16.856 -11.385  -2.129  1.00  0.00    -0.084 SA
HETATM   24 CL   UNL     1     -12.690 -14.889  -1.475  1.00  0.00    -0.084 Cl
ENDROOT
TORSDOF 0
ENDMDL
MODEL 3
REMARK VINA RESULT:      -7.5     20.420     21.448
REMARK  0 active torsions:
REMARK  status: ('A' for Active; 'I' for Inactive)
ROOT
HETATM    1  C   UNL     1     -21.589  -7.890  -1.491  1.00  0.00     0.049 C 
HETATM    2  C   UNL     1     -21.190  -7.704  -2.929  1.00  0.00    -0.045 A 
HETATM    3  C   UNL     1     -21.950  -6.835  -3.734  1.00  0.00     0.031 A 
HETATM    4  C   UNL     1     -21.622  -6.628  -5.078  1.00  0.00     0.035 A 
HETATM    5  C   UNL     1     -20.535  -7.280  -5.649  1.00  0.00     0.043 A 
HETATM    6  C   UNL     1     -19.778  -8.140  -4.861  1.00  0.00     0.022 A 
HETATM    7  C   UNL     1     -20.094  -8.354  -3.519  1.00  0.00     0.038 A 
HETATM    8  C   UNL     1     -19.144  -9.309  -2.893  1.00  0.00     0.202 A 
HETATM    9  O   UNL     1     -19.236  -9.639  -1.725  1.00  0.00    -0.286 OA
HETATM   10  C   UNL     1     -18.092  -9.785  -3.884  1.00  0.00     0.077 A 
HETATM   11  C   UNL     1     -17.092 -10.654  -3.627  1.00  0.00     0.077 A 
HETATM   12  C   UNL     1     -16.042 -11.133  -4.617  1.00  0.00     0.202 A 
HETATM   13  O   UNL     1     -15.951 -10.805  -5.788  1.00  0.00    -0.286 OA
HETATM   14  C   UNL     1     -15.091 -12.086  -3.995  1.00  0.00     0.038 A 
HETATM   15  C   UNL     1     -15.406 -12.301  -2.655  1.00  0.00     0.022 A 
HETATM   16  S   UNL     1     -16.812 -11.406  -2.074  1.00  0.00    -0.084 SA
HETATM   17  C   UNL     1     -14.650 -13.159  -1.866  1.00  0.00     0.043 A 
HETATM   18  C   UNL     1     -13.560 -13.808  -2.438  1.00  0.00     0.035 A 
HETATM   19  C   UNL     1     -13.233 -13.603  -3.783  1.00  0.00     0.031 A 
HETATM   20  C   UNL     1     -13.995 -12.735  -4.589  1.00  0.00    -0.045 A 
HETATM   21  C   UNL     1     -13.599 -12.555  -6.027  1.00  0.00     0.049 C 
HETATM   22 CL   UNL     1     -12.607 -14.875  -1.482  1.00  0.00    -0.084 Cl
HETATM   23  S   UNL     1     -18.373  -9.033  -5.438  1.00  0.00    -0.084 SA
HETATM   24 CL   UNL     1     -22.571  -5.558  -6.032  1.00  0.00    -0.084 Cl
ENDROOT
TORSDOF 0
ENDMDL
MODEL 4
REMARK VINA RESULT:      -7.4     20.408     22.451
REMARK  0 active torsions:
REMARK  status: ('A' for Active; 'I' for Inactive)
ROOT
HETATM    1  C   UNL     1     -14.911 -14.331  -2.184  1.00  0.00     0.049 C 
HETATM    2  C   UNL     1     -14.912 -13.408  -3.371  1.00  0.00    -0.045 A 
HETATM    3  C   UNL     1     -13.964 -13.616  -4.390  1.00  0.00     0.031 A 
HETATM    4  C   UNL     1     -13.923 -12.785  -5.514  1.00  0.00     0.035 A 
HETATM    5  C   UNL     1     -14.819 -11.731  -5.648  1.00  0.00     0.043 A 
HETATM    6  C   UNL     1     -15.760 -11.518  -4.646  1.00  0.00     0.022 A 
HETATM    7  C   UNL     1     -15.812 -12.340  -3.520  1.00  0.00     0.038 A 
HETATM    8  C   UNL     1     -16.896 -11.914  -2.599  1.00  0.00     0.202 A 
HETATM    9  O   UNL     1     -17.119 -12.494  -1.552  1.00  0.00    -0.286 OA
HETATM   10  C   UNL     1     -17.647 -10.705  -3.136  1.00  0.00     0.077 A 
HETATM   11  C   UNL     1     -18.681 -10.078  -2.537  1.00  0.00     0.077 A 
HETATM   12  C   UNL     1     -19.430  -8.868  -3.072  1.00  0.00     0.202 A 
HETATM   13  O   UNL     1     -19.206  -8.285  -4.119  1.00  0.00    -0.286 OA
HETATM   14  C   UNL     1     -20.514  -8.440  -2.153  1.00  0.00     0.038 A 
HETATM   15  C   UNL     1     -20.567  -9.260  -1.029  1.00  0.00     0.022 A 
HETATM   16  S   UNL     1     -19.365 -10.553  -1.000  1.00  0.00    -0.084 SA
HETATM   17  C   UNL     1     -21.507  -9.050  -0.028  1.00  0.00     0.043 A 
HETATM   18  C   UNL     1     -22.406  -7.997  -0.165  1.00  0.00     0.035 A 
HETATM   19  C   UNL     1     -22.363  -7.164  -1.288  1.00  0.00     0.031 A 
HETATM   20  C   UNL     1     -21.413  -7.370  -2.307  1.00  0.00    -0.045 A 
HETATM   21  C   UNL     1     -21.412  -6.444  -3.489  1.00  0.00     0.049 C 
HETATM   22 CL   UNL     1     -23.581  -7.716   1.061  1.00  0.00    -0.084 Cl
HETATM   23  S   UNL     1     -16.962 -10.230  -4.674  1.00  0.00    -0.084 SA
HETATM   24 CL   UNL     1     -12.752 -13.068  -6.741  1.00  0.00    -0.084 Cl
ENDROOT
TORSDOF 0
ENDMDL
MODEL 5
REMARK VINA RESULT:      -7.4     20.549     21.573
REMARK  0 active torsions:
REMARK  status: ('A' for Active; 'I' for Inactive)
ROOT
HETATM    1  C   UNL     1     -21.393  -6.535  -3.489  1.00  0.00     0.049 C 
HETATM    2  C   UNL     1     -21.409  -7.477  -2.316  1.00  0.00    -0.045 A 
HETATM    3  C   UNL     1     -22.359  -7.273  -1.299  1.00  0.00     0.031 A 
HETATM    4  C   UNL     1     -22.415  -8.120  -0.186  1.00  0.00     0.035 A 
HETATM    5  C   UNL     1     -21.530  -9.184  -0.062  1.00  0.00     0.043 A 
HETATM    6  C   UNL     1     -20.587  -9.393  -1.063  1.00  0.00     0.022 A 
HETATM    7  C   UNL     1     -20.522  -8.557  -2.178  1.00  0.00     0.038 A 
HETATM    8  C   UNL     1     -19.440  -8.983  -3.102  1.00  0.00     0.202 A 
HETATM    9  O   UNL     1     -19.206  -8.391  -4.139  1.00  0.00    -0.286 OA
HETATM   10  C   UNL     1     -18.707 -10.211  -2.580  1.00  0.00     0.077 A 
HETATM   11  C   UNL     1     -17.677 -10.840  -3.183  1.00  0.00     0.077 A 
HETATM   12  C   UNL     1     -16.942 -12.064  -2.661  1.00  0.00     0.202 A 
HETATM   13  O   UNL     1     -17.173 -12.656  -1.620  1.00  0.00    -0.286 OA
HETATM   14  C   UNL     1     -15.860 -12.492  -3.581  1.00  0.00     0.038 A 
HETATM   15  C   UNL     1     -15.794 -11.658  -4.695  1.00  0.00     0.022 A 
HETATM   16  S   UNL     1     -16.981 -10.351  -4.710  1.00  0.00    -0.084 SA
HETATM   17  C   UNL     1     -14.854 -11.867  -5.697  1.00  0.00     0.043 A 
HETATM   18  C   UNL     1     -13.970 -12.934  -5.572  1.00  0.00     0.035 A 
HETATM   19  C   UNL     1     -14.025 -13.780  -4.459  1.00  0.00     0.031 A 
HETATM   20  C   UNL     1     -14.974 -13.574  -3.439  1.00  0.00    -0.045 A 
HETATM   21  C   UNL     1     -14.985 -14.512  -2.266  1.00  0.00     0.049 C 
HETATM   22 CL   UNL     1     -12.798 -13.215  -6.800  1.00  0.00    -0.084 Cl
HETATM   23  S   UNL     1     -19.403 -10.698  -1.051  1.00  0.00    -0.084 SA
HETATM   24 CL   UNL     1     -23.590  -7.842   1.038  1.00  0.00    -0.084 Cl
ENDROOT
TORSDOF 0
ENDMDL
MODEL 6
REMARK VINA RESULT:      -7.4      2.047      7.978
REMARK  0 active torsions:
REMARK  status: ('A' for Active; 'I' for Inactive)
ROOT
HETATM    1  C   UNL     1     -14.498   8.761   5.867  1.00  0.00     0.049 C 
HETATM    2  C   UNL     1     -14.763   9.107   4.428  1.00  0.00    -0.045 A 
HETATM    3  C   UNL     1     -13.673   9.200   3.543  1.00  0.00     0.031 A 
HETATM    4  C   UNL     1     -13.866   9.520   2.195  1.00  0.00     0.035 A 
HETATM    5  C   UNL     1     -15.143   9.755   1.699  1.00  0.00     0.043 A 
HETATM    6  C   UNL     1     -16.227   9.665   2.567  1.00  0.00     0.022 A 
HETATM    7  C   UNL     1     -16.048   9.346   3.913  1.00  0.00     0.038 A 
HETATM    8  C   UNL     1     -17.349   9.309   4.630  1.00  0.00     0.202 A 
HETATM    9  O   UNL     1     -17.424   9.051   5.817  1.00  0.00    -0.286 OA
HETATM   10  C   UNL     1     -18.511   9.627   3.700  1.00  0.00     0.077 A 
HETATM   11  C   UNL     1     -19.815   9.676   4.044  1.00  0.00     0.077 A 
HETATM   12  C   UNL     1     -20.977   9.996   3.117  1.00  0.00     0.202 A 
HETATM   13  O   UNL     1     -20.901  10.258   1.928  1.00  0.00    -0.286 OA
HETATM   14  C   UNL     1     -22.277   9.960   3.830  1.00  0.00     0.038 A 
HETATM   15  C   UNL     1     -22.100   9.642   5.174  1.00  0.00     0.022 A 
HETATM   16  S   UNL     1     -20.423   9.374   5.655  1.00  0.00    -0.084 SA
HETATM   17  C   UNL     1     -23.182   9.549   6.042  1.00  0.00     0.043 A 
HETATM   18  C   UNL     1     -24.460   9.781   5.543  1.00  0.00     0.035 A 
HETATM   19  C   UNL     1     -24.652  10.103   4.195  1.00  0.00     0.031 A 
HETATM   20  C   UNL     1     -23.561  10.200   3.311  1.00  0.00    -0.045 A 
HETATM   21  C   UNL     1     -23.828  10.550   1.875  1.00  0.00     0.049 C 
HETATM   22 CL   UNL     1     -25.816   9.672   6.596  1.00  0.00    -0.084 Cl
HETATM   23  S   UNL     1     -17.902   9.930   2.089  1.00  0.00    -0.084 SA
HETATM   24 CL   UNL     1     -12.511   9.624   1.141  1.00  0.00    -0.084 Cl
ENDROOT
TORSDOF 0
ENDMDL
MODEL 7
REMARK VINA RESULT:      -7.0     21.601     22.487
REMARK  0 active torsions:
REMARK  status: ('A' for Active; 'I' for Inactive)
ROOT
HETATM    1  C   UNL     1     -21.946  -6.001  -1.733  1.00  0.00     0.049 C 
HETATM    2  C   UNL     1     -21.695  -6.879  -2.927  1.00  0.00    -0.045 A 
HETATM    3  C   UNL     1     -21.330  -6.275  -4.145  1.00  0.00     0.031 A 
HETATM    4  C   UNL     1     -21.087  -7.048  -5.286  1.00  0.00     0.035 A 
HETATM    5  C   UNL     1     -21.203  -8.432  -5.241  1.00  0.00     0.043 A 
HETATM    6  C   UNL     1     -21.563  -9.037  -4.042  1.00  0.00     0.022 A 
HETATM    7  C   UNL     1     -21.807  -8.279  -2.897  1.00  0.00     0.038 A 
HETATM    8  C   UNL     1     -22.173  -9.148  -1.749  1.00  0.00     0.202 A 
HETATM    9  O   UNL     1     -22.428  -8.692  -0.649  1.00  0.00    -0.286 OA
HETATM   10  C   UNL     1     -22.178 -10.619  -2.138  1.00  0.00     0.077 A 
HETATM   11  C   UNL     1     -22.469 -11.657  -1.326  1.00  0.00     0.077 A 
HETATM   12  C   UNL     1     -22.477 -13.126  -1.715  1.00  0.00     0.202 A 
HETATM   13  O   UNL     1     -22.224 -13.584  -2.817  1.00  0.00    -0.286 OA
HETATM   14  C   UNL     1     -22.842 -13.998  -0.570  1.00  0.00     0.038 A 
HETATM   15  C   UNL     1     -23.085 -13.241   0.574  1.00  0.00     0.022 A 
HETATM   16  S   UNL     1     -22.900 -11.499   0.361  1.00  0.00    -0.084 SA
HETATM   17  C   UNL     1     -23.443 -13.844   1.773  1.00  0.00     0.043 A 
HETATM   18  C   UNL     1     -23.556 -15.230   1.817  1.00  0.00     0.035 A 
HETATM   19  C   UNL     1     -23.315 -16.002   0.676  1.00  0.00     0.031 A 
HETATM   20  C   UNL     1     -22.952 -15.398  -0.544  1.00  0.00    -0.045 A 
HETATM   21  C   UNL     1     -22.707 -16.277  -1.737  1.00  0.00     0.049 C 
HETATM   22 CL   UNL     1     -23.997 -16.002   3.291  1.00  0.00    -0.084 Cl
HETATM   23  S   UNL     1     -21.747 -10.777  -3.826  1.00  0.00    -0.084 SA
HETATM   24 CL   UNL     1     -20.642  -6.277  -6.757  1.00  0.00    -0.084 Cl
ENDROOT
TORSDOF 0
ENDMDL
MODEL 8
REMARK VINA RESULT:      -6.9     18.915     19.661
REMARK  0 active torsions:
REMARK  status: ('A' for Active; 'I' for Inactive)
ROOT
HETATM    1  C   UNL     1     -24.937  -2.947  -9.018  1.00  0.00     0.049 C 
HETATM    2  C   UNL     1     -23.671  -3.454  -9.651  1.00  0.00    -0.045 A 
HETATM    3  C   UNL     1     -23.382  -3.082 -10.976  1.00  0.00     0.031 A 
HETATM    4  C   UNL     1     -22.218  -3.528 -11.612  1.00  0.00     0.035 A 
HETATM    5  C   UNL     1     -21.320  -4.352 -10.944  1.00  0.00     0.043 A 
HETATM    6  C   UNL     1     -21.598  -4.726  -9.634  1.00  0.00     0.022 A 
HETATM    7  C   UNL     1     -22.754  -4.287  -8.989  1.00  0.00     0.038 A 
HETATM    8  C   UNL     1     -22.825  -4.816  -7.603  1.00  0.00     0.202 A 
HETATM    9  O   UNL     1     -23.755  -4.558  -6.860  1.00  0.00    -0.286 OA
HETATM   10  C   UNL     1     -21.621  -5.685  -7.271  1.00  0.00     0.077 A 
HETATM   11  C   UNL     1     -21.390  -6.312  -6.099  1.00  0.00     0.077 A 
HETATM   12  C   UNL     1     -20.188  -7.182  -5.767  1.00  0.00     0.202 A 
HETATM   13  O   UNL     1     -19.259  -7.444  -6.511  1.00  0.00    -0.286 OA
HETATM   14  C   UNL     1     -20.256  -7.713  -4.383  1.00  0.00     0.038 A 
HETATM   15  C   UNL     1     -21.411  -7.275  -3.738  1.00  0.00     0.022 A 
HETATM   16  S   UNL     1     -22.454  -6.237  -4.713  1.00  0.00    -0.084 SA
HETATM   17  C   UNL     1     -21.689  -7.646  -2.428  1.00  0.00     0.043 A 
HETATM   18  C   UNL     1     -20.787  -8.469  -1.761  1.00  0.00     0.035 A 
HETATM   19  C   UNL     1     -19.624  -8.917  -2.396  1.00  0.00     0.031 A 
HETATM   20  C   UNL     1     -19.336  -8.546  -3.724  1.00  0.00    -0.045 A 
HETATM   21  C   UNL     1     -18.074  -9.058  -4.356  1.00  0.00     0.049 C 
HETATM   22 CL   UNL     1     -21.108  -8.941  -0.137  1.00  0.00    -0.084 Cl
HETATM   23  S   UNL     1     -20.557  -5.760  -8.657  1.00  0.00    -0.084 SA
HETATM   24 CL   UNL     1     -21.895  -3.052 -13.232  1.00  0.00    -0.084 Cl
ENDROOT
TORSDOF 0
ENDMDL
MODEL 9
REMARK VINA RESULT:      -6.8     19.075     20.054
REMARK  0 active torsions:
REMARK  status: ('A' for Active; 'I' for Inactive)
ROOT
HETATM    1  C   UNL     1     -23.774  -4.287  -7.146  1.00  0.00     0.049 C 
HETATM    2  C   UNL     1     -22.397  -4.620  -7.651  1.00  0.00    -0.045 A 
HETATM    3  C   UNL     1     -21.939  -3.995  -8.825  1.00  0.00     0.031 A 
HETATM    4  C   UNL     1     -20.667  -4.271  -9.338  1.00  0.00     0.035 A 
HETATM    5  C   UNL     1     -19.826  -5.172  -8.695  1.00  0.00     0.043 A 
HETATM    6  C   UNL     1     -20.270  -5.794  -7.533  1.00  0.00     0.022 A 
HETATM    7  C   UNL     1     -21.536  -5.527  -7.012  1.00  0.00     0.038 A 
HETATM    8  C   UNL     1     -21.778  -6.309  -5.772  1.00  0.00     0.202 A 
HETATM    9  O   UNL     1     -22.822  -6.228  -5.151  1.00  0.00    -0.286 OA
HETATM   10  C   UNL     1     -20.582  -7.179  -5.415  1.00  0.00     0.077 A 
HETATM   11  C   UNL     1     -20.487  -8.005  -4.352  1.00  0.00     0.077 A 
HETATM   12  C   UNL     1     -19.294  -8.878  -3.996  1.00  0.00     0.202 A 
HETATM   13  O   UNL     1     -18.249  -8.961  -4.618  1.00  0.00    -0.286 OA
HETATM   14  C   UNL     1     -19.533  -9.660  -2.758  1.00  0.00     0.038 A 
HETATM   15  C   UNL     1     -20.797  -9.393  -2.236  1.00  0.00     0.022 A 
HETATM   16  S   UNL     1     -21.748  -8.230  -3.162  1.00  0.00    -0.084 SA
HETATM   17  C   UNL     1     -21.241 -10.013  -1.074  1.00  0.00     0.043 A 
HETATM   18  C   UNL     1     -20.397 -10.912  -0.431  1.00  0.00     0.035 A 
HETATM   19  C   UNL     1     -19.126 -11.190  -0.944  1.00  0.00     0.031 A 
HETATM   20  C   UNL     1     -18.668 -10.567  -2.122  1.00  0.00    -0.045 A 
HETATM   21  C   UNL     1     -17.295 -10.904  -2.627  1.00  0.00     0.049 C 
HETATM   22 CL   UNL     1     -20.924 -11.691   1.010  1.00  0.00    -0.084 Cl
HETATM   23  S   UNL     1     -19.321  -6.954  -6.606  1.00  0.00    -0.084 SA
HETATM   24 CL   UNL     1     -20.138  -3.489 -10.775  1.00  0.00    -0.084 Cl
ENDROOT
TORSDOF 0
ENDMDL
