MODEL 1
REMARK VINA RESULT:      -1.1      0.000      0.000
REMARK  4 active torsions:
REMARK  status: ('A' for Active; 'I' for Inactive)
REMARK    1  A    between atoms: N_5  and  C_23 
REMARK    2  A    between atoms: C_8  and  N_9 
REMARK    3  A    between atoms: N_11  and  C_13 
REMARK    4  A    between atoms: C_15  and  N_19 
ROOT
HETATM    1 CL   UNL     2     -32.950  -3.303 -11.394  1.00  0.00     0.000 Cl
ENDROOT
TORSDOF 4
ENDMDL
MODEL 2
REMARK VINA RESULT:      -1.0      8.565      8.565
REMARK  4 active torsions:
REMARK  status: ('A' for Active; 'I' for Inactive)
REMARK    1  A    between atoms: N_5  and  C_23 
REMARK    2  A    between atoms: C_8  and  N_9 
REMARK    3  A    between atoms: N_11  and  C_13 
REMARK    4  A    between atoms: C_15  and  N_19 
ROOT
HETATM    1 CL   UNL     2     -37.016   0.580  -4.933  1.00  0.00     0.000 Cl
ENDROOT
TORSDOF 4
ENDMDL
MODEL 3
REMARK VINA RESULT:      -1.0     11.259     11.259
REMARK  4 active torsions:
REMARK  status: ('A' for Active; 'I' for Inactive)
REMARK    1  A    between atoms: N_5  and  C_23 
REMARK    2  A    between atoms: C_8  and  N_9 
REMARK    3  A    between atoms: N_11  and  C_13 
REMARK    4  A    between atoms: C_15  and  N_19 
ROOT
HETATM    1 CL   UNL     2     -29.825   7.428 -12.753  1.00  0.00     0.000 Cl
ENDROOT
TORSDOF 4
ENDMDL
MODEL 4
REMARK VINA RESULT:      -1.0     14.602     14.602
REMARK  4 active torsions:
REMARK  status: ('A' for Active; 'I' for Inactive)
REMARK    1  A    between atoms: N_5  and  C_23 
REMARK    2  A    between atoms: C_8  and  N_9 
REMARK    3  A    between atoms: N_11  and  C_13 
REMARK    4  A    between atoms: C_15  and  N_19 
ROOT
HETATM    1 CL   UNL     2     -22.240  -6.151  -1.885  1.00  0.00     0.000 Cl
ENDROOT
TORSDOF 4
ENDMDL
MODEL 5
REMARK VINA RESULT:      -0.9     12.032     12.032
REMARK  4 active torsions:
REMARK  status: ('A' for Active; 'I' for Inactive)
REMARK    1  A    between atoms: N_5  and  C_23 
REMARK    2  A    between atoms: C_8  and  N_9 
REMARK    3  A    between atoms: N_11  and  C_13 
REMARK    4  A    between atoms: C_15  and  N_19 
ROOT
HETATM    1 CL   UNL     2     -27.117   7.219 -11.166  1.00  0.00     0.000 Cl
ENDROOT
TORSDOF 4
ENDMDL
MODEL 6
REMARK VINA RESULT:      -0.9     16.134     16.134
REMARK  4 active torsions:
REMARK  status: ('A' for Active; 'I' for Inactive)
REMARK    1  A    between atoms: N_5  and  C_23 
REMARK    2  A    between atoms: C_8  and  N_9 
REMARK    3  A    between atoms: N_11  and  C_13 
REMARK    4  A    between atoms: C_15  and  N_19 
ROOT
HETATM    1 CL   UNL     2     -23.253  -8.078   0.584  1.00  0.00     0.000 Cl
ENDROOT
TORSDOF 4
ENDMDL
MODEL 7
REMARK VINA RESULT:      -0.9     23.015     23.015
REMARK  4 active torsions:
REMARK  status: ('A' for Active; 'I' for Inactive)
REMARK    1  A    between atoms: N_5  and  C_23 
REMARK    2  A    between atoms: C_8  and  N_9 
REMARK    3  A    between atoms: N_11  and  C_13 
REMARK    4  A    between atoms: C_15  and  N_19 
ROOT
HETATM    1 CL   UNL     2     -11.776   5.541 -13.167  1.00  0.00     0.000 Cl
ENDROOT
TORSDOF 4
ENDMDL
MODEL 8
REMARK VINA RESULT:      -0.9     30.917     30.917
REMARK  4 active torsions:
REMARK  status: ('A' for Active; 'I' for Inactive)
REMARK    1  A    between atoms: N_5  and  C_23 
REMARK    2  A    between atoms: C_8  and  N_9 
REMARK    3  A    between atoms: N_11  and  C_13 
REMARK    4  A    between atoms: C_15  and  N_19 
ROOT
HETATM    1 CL   UNL     2      -9.180 -12.838   5.926  1.00  0.00     0.000 Cl
ENDROOT
TORSDOF 4
ENDMDL
MODEL 9
REMARK VINA RESULT:      -0.9     29.284     29.284
REMARK  4 active torsions:
REMARK  status: ('A' for Active; 'I' for Inactive)
REMARK    1  A    between atoms: N_5  and  C_23 
REMARK    2  A    between atoms: C_8  and  N_9 
REMARK    3  A    between atoms: N_11  and  C_13 
REMARK    4  A    between atoms: C_15  and  N_19 
ROOT
HETATM    1 CL   UNL     2     -12.854   9.133   5.900  1.00  0.00     0.000 Cl
ENDROOT
TORSDOF 4
ENDMDL
