MODEL 1
REMARK VINA RESULT:      -6.2      0.000      0.000
REMARK  4 active torsions:
REMARK  status: ('A' for Active; 'I' for Inactive)
REMARK    1  A    between atoms: C_2  and  O_3 
REMARK    2  A    between atoms: O_3  and  C_4 
REMARK    3  A    between atoms: C_4  and  C_6 
REMARK    4  A    between atoms: C_9  and  O_12 
ROOT
HETATM    1  C   UNL     1     -22.055  -4.053  -9.187  1.00  0.00     0.039 A 
HETATM    2  C   UNL     1     -20.828  -4.163  -9.862  1.00  0.00     0.020 A 
HETATM    3  C   UNL     1     -20.764  -3.972 -11.244  1.00  0.00     0.037 A 
HETATM    4  C   UNL     1     -21.931  -3.674 -11.942  1.00  0.00     0.065 A 
HETATM    5  C   UNL     1     -23.152  -3.557 -11.284  1.00  0.00     0.037 A 
HETATM    6  C   UNL     1     -23.217  -3.740  -9.903  1.00  0.00     0.020 A 
ENDROOT
BRANCH   1   7
HETATM    7  C   UNL     1     -22.132  -4.160  -7.707  1.00  0.00     0.293 C 
HETATM    8  O   UNL     1     -23.145  -4.464  -7.102  1.00  0.00    -0.259 OA
BRANCH   7   9
HETATM    9  O   UNL     1     -20.940  -3.796  -7.177  1.00  0.00    -0.318 OA
BRANCH   9  10
HETATM   10  C   UNL     1     -20.472  -4.611  -6.098  1.00  0.00     0.174 C 
HETATM   11  C   UNL     1     -19.960  -5.905  -6.702  1.00  0.00     0.034 C 
ENDBRANCH   9  10
ENDBRANCH   7   9
ENDBRANCH   1   7
BRANCH   4  12
HETATM   12  O   UNL     1     -21.914  -3.473 -13.290  1.00  0.00    -0.361 OA
HETATM   13  H   UNL     1     -22.389  -2.649 -13.489  1.00  0.00     0.217 HD
ENDBRANCH   4  12
TORSDOF 4
ENDMDL
MODEL 2
REMARK VINA RESULT:      -6.1      1.877      4.973
REMARK  4 active torsions:
REMARK  status: ('A' for Active; 'I' for Inactive)
REMARK    1  A    between atoms: C_2  and  O_3 
REMARK    2  A    between atoms: O_3  and  C_4 
REMARK    3  A    between atoms: C_4  and  C_6 
REMARK    4  A    between atoms: C_9  and  O_12 
ROOT
HETATM    1  C   UNL     1     -22.805  -3.779 -10.220  1.00  0.00     0.039 A 
HETATM    2  C   UNL     1     -22.938  -3.791  -8.821  1.00  0.00     0.020 A 
HETATM    3  C   UNL     1     -21.819  -3.986  -8.009  1.00  0.00     0.037 A 
HETATM    4  C   UNL     1     -20.573  -4.170  -8.603  1.00  0.00     0.065 A 
HETATM    5  C   UNL     1     -20.428  -4.155  -9.987  1.00  0.00     0.037 A 
HETATM    6  C   UNL     1     -21.544  -3.953 -10.800  1.00  0.00     0.020 A 
ENDROOT
BRANCH   1   7
HETATM    7  C   UNL     1     -23.965  -3.480 -11.100  1.00  0.00     0.293 C 
HETATM    8  O   UNL     1     -25.072  -3.188 -10.684  1.00  0.00    -0.259 OA
BRANCH   7   9
HETATM    9  O   UNL     1     -23.596  -3.663 -12.390  1.00  0.00    -0.318 OA
BRANCH   9  10
HETATM   10  C   UNL     1     -23.893  -2.577 -13.274  1.00  0.00     0.174 C 
HETATM   11  C   UNL     1     -22.997  -2.729 -14.490  1.00  0.00     0.034 C 
ENDBRANCH   9  10
ENDBRANCH   7   9
ENDBRANCH   1   7
BRANCH   4  12
HETATM   12  O   UNL     1     -19.453  -4.357  -7.849  1.00  0.00    -0.361 OA
HETATM   13  H   UNL     1     -18.676  -4.323  -8.431  1.00  0.00     0.217 HD
ENDBRANCH   4  12
TORSDOF 4
ENDMDL
MODEL 3
REMARK VINA RESULT:      -5.9      1.427      2.289
REMARK  4 active torsions:
REMARK  status: ('A' for Active; 'I' for Inactive)
REMARK    1  A    between atoms: C_2  and  O_3 
REMARK    2  A    between atoms: O_3  and  C_4 
REMARK    3  A    between atoms: C_4  and  C_6 
REMARK    4  A    between atoms: C_9  and  O_12 
ROOT
HETATM    1  C   UNL     1     -22.015  -3.744  -9.965  1.00  0.00     0.039 A 
HETATM    2  C   UNL     1     -23.387  -3.765  -9.662  1.00  0.00     0.020 A 
HETATM    3  C   UNL     1     -24.326  -3.362 -10.614  1.00  0.00     0.037 A 
HETATM    4  C   UNL     1     -23.885  -2.938 -11.864  1.00  0.00     0.065 A 
HETATM    5  C   UNL     1     -22.528  -2.917 -12.179  1.00  0.00     0.037 A 
HETATM    6  C   UNL     1     -21.590  -3.326 -11.231  1.00  0.00     0.020 A 
ENDROOT
BRANCH   1   7
HETATM    7  C   UNL     1     -21.006  -4.256  -9.001  1.00  0.00     0.293 C 
HETATM    8  O   UNL     1     -20.011  -4.876  -9.331  1.00  0.00    -0.259 OA
BRANCH   7   9
HETATM    9  O   UNL     1     -21.423  -3.984  -7.742  1.00  0.00    -0.318 OA
BRANCH   9  10
HETATM   10  C   UNL     1     -21.310  -5.065  -6.811  1.00  0.00     0.174 C 
HETATM   11  C   UNL     1     -20.219  -4.696  -5.823  1.00  0.00     0.034 C 
ENDBRANCH   9  10
ENDBRANCH   7   9
ENDBRANCH   1   7
BRANCH   4  12
HETATM   12  O   UNL     1     -24.765  -2.543 -12.826  1.00  0.00    -0.361 OA
HETATM   13  H   UNL     1     -25.666  -2.755 -12.531  1.00  0.00     0.217 HD
ENDBRANCH   4  12
TORSDOF 4
ENDMDL
MODEL 4
REMARK VINA RESULT:      -5.9      0.530      1.490
REMARK  4 active torsions:
REMARK  status: ('A' for Active; 'I' for Inactive)
REMARK    1  A    between atoms: C_2  and  O_3 
REMARK    2  A    between atoms: O_3  and  C_4 
REMARK    3  A    between atoms: C_4  and  C_6 
REMARK    4  A    between atoms: C_9  and  O_12 
ROOT
HETATM    1  C   UNL     1     -21.962  -4.147  -8.857  1.00  0.00     0.039 A 
HETATM    2  C   UNL     1     -23.130  -4.036  -9.631  1.00  0.00     0.020 A 
HETATM    3  C   UNL     1     -23.046  -3.878 -11.015  1.00  0.00     0.037 A 
HETATM    4  C   UNL     1     -21.792  -3.831 -11.618  1.00  0.00     0.065 A 
HETATM    5  C   UNL     1     -20.628  -3.945 -10.864  1.00  0.00     0.037 A 
HETATM    6  C   UNL     1     -20.710  -4.110  -9.481  1.00  0.00     0.020 A 
ENDROOT
BRANCH   1   7
HETATM    7  C   UNL     1     -22.028  -4.409  -7.396  1.00  0.00     0.293 C 
HETATM    8  O   UNL     1     -23.071  -4.516  -6.775  1.00  0.00    -0.259 OA
BRANCH   7   9
HETATM    9  O   UNL     1     -20.771  -4.427  -6.895  1.00  0.00    -0.318 OA
BRANCH   9  10
HETATM   10  C   UNL     1     -20.608  -5.148  -5.669  1.00  0.00     0.174 C 
HETATM   11  C   UNL     1     -20.174  -6.557  -6.030  1.00  0.00     0.034 C 
ENDBRANCH   9  10
ENDBRANCH   7   9
ENDBRANCH   1   7
BRANCH   4  12
HETATM   12  O   UNL     1     -21.663  -3.685 -12.967  1.00  0.00    -0.361 OA
HETATM   13  H   UNL     1     -22.540  -3.776 -13.376  1.00  0.00     0.217 HD
ENDBRANCH   4  12
TORSDOF 4
ENDMDL
MODEL 5
REMARK VINA RESULT:      -5.4      1.601      5.020
REMARK  4 active torsions:
REMARK  status: ('A' for Active; 'I' for Inactive)
REMARK    1  A    between atoms: C_2  and  O_3 
REMARK    2  A    between atoms: O_3  and  C_4 
REMARK    3  A    between atoms: C_4  and  C_6 
REMARK    4  A    between atoms: C_9  and  O_12 
ROOT
HETATM    1  C   UNL     1     -20.926  -4.134  -9.129  1.00  0.00     0.039 A 
HETATM    2  C   UNL     1     -19.713  -4.451  -8.494  1.00  0.00     0.020 A 
HETATM    3  C   UNL     1     -19.696  -4.806  -7.144  1.00  0.00     0.037 A 
HETATM    4  C   UNL     1     -20.894  -4.843  -6.437  1.00  0.00     0.065 A 
HETATM    5  C   UNL     1     -22.103  -4.536  -7.055  1.00  0.00     0.037 A 
HETATM    6  C   UNL     1     -22.123  -4.186  -8.406  1.00  0.00     0.020 A 
ENDROOT
BRANCH   1   7
HETATM    7  C   UNL     1     -20.979  -3.843 -10.585  1.00  0.00     0.293 C 
HETATM    8  O   UNL     1     -20.052  -4.044 -11.349  1.00  0.00    -0.259 OA
BRANCH   7   9
HETATM    9  O   UNL     1     -22.169  -3.266 -10.875  1.00  0.00    -0.318 OA
BRANCH   9  10
HETATM   10  C   UNL     1     -22.707  -3.580 -12.164  1.00  0.00     0.174 C 
HETATM   11  C   UNL     1     -24.085  -2.949 -12.242  1.00  0.00     0.034 C 
ENDBRANCH   9  10
ENDBRANCH   7   9
ENDBRANCH   1   7
BRANCH   4  12
HETATM   12  O   UNL     1     -20.926  -5.192  -5.120  1.00  0.00    -0.361 OA
HETATM   13  H   UNL     1     -20.065  -4.982  -4.721  1.00  0.00     0.217 HD
ENDBRANCH   4  12
TORSDOF 4
ENDMDL
MODEL 6
REMARK VINA RESULT:      -5.3      6.897      9.416
REMARK  4 active torsions:
REMARK  status: ('A' for Active; 'I' for Inactive)
REMARK    1  A    between atoms: C_2  and  O_3 
REMARK    2  A    between atoms: O_3  and  C_4 
REMARK    3  A    between atoms: C_4  and  C_6 
REMARK    4  A    between atoms: C_9  and  O_12 
ROOT
HETATM    1  C   UNL     1     -21.521  -8.164  -0.795  1.00  0.00     0.039 A 
HETATM    2  C   UNL     1     -22.243  -6.959  -0.804  1.00  0.00     0.020 A 
HETATM    3  C   UNL     1     -22.265  -6.158  -1.948  1.00  0.00     0.037 A 
HETATM    4  C   UNL     1     -21.564  -6.570  -3.077  1.00  0.00     0.065 A 
HETATM    5  C   UNL     1     -20.849  -7.765  -3.083  1.00  0.00     0.037 A 
HETATM    6  C   UNL     1     -20.831  -8.569  -1.944  1.00  0.00     0.020 A 
ENDROOT
BRANCH   1   7
HETATM    7  C   UNL     1     -21.559  -9.076   0.378  1.00  0.00     0.293 C 
HETATM    8  O   UNL     1     -21.100  -8.792   1.470  1.00  0.00    -0.259 OA
BRANCH   7   9
HETATM    9  O   UNL     1     -22.103 -10.257  -0.000  1.00  0.00    -0.318 OA
BRANCH   9  10
HETATM   10  C   UNL     1     -23.531 -10.276  -0.084  1.00  0.00     0.174 C 
HETATM   11  C   UNL     1     -23.904 -11.269  -1.170  1.00  0.00     0.034 C 
ENDBRANCH   9  10
ENDBRANCH   7   9
ENDBRANCH   1   7
BRANCH   4  12
HETATM   12  O   UNL     1     -21.564  -5.825  -4.218  1.00  0.00    -0.361 OA
HETATM   13  H   UNL     1     -21.877  -6.377  -4.952  1.00  0.00     0.217 HD
ENDBRANCH   4  12
TORSDOF 4
ENDMDL
MODEL 7
REMARK VINA RESULT:      -5.2      4.737      8.271
REMARK  4 active torsions:
REMARK  status: ('A' for Active; 'I' for Inactive)
REMARK    1  A    between atoms: C_2  and  O_3 
REMARK    2  A    between atoms: O_3  and  C_4 
REMARK    3  A    between atoms: C_4  and  C_6 
REMARK    4  A    between atoms: C_9  and  O_12 
ROOT
HETATM    1  C   UNL     1     -21.633  -6.874  -3.195  1.00  0.00     0.039 A 
HETATM    2  C   UNL     1     -22.337  -6.335  -2.105  1.00  0.00     0.020 A 
HETATM    3  C   UNL     1     -22.183  -6.879  -0.828  1.00  0.00     0.037 A 
HETATM    4  C   UNL     1     -21.325  -7.960  -0.650  1.00  0.00     0.065 A 
HETATM    5  C   UNL     1     -20.618  -8.500  -1.721  1.00  0.00     0.037 A 
HETATM    6  C   UNL     1     -20.765  -7.955  -2.996  1.00  0.00     0.020 A 
ENDROOT
BRANCH   1   7
HETATM    7  C   UNL     1     -21.710  -6.255  -4.544  1.00  0.00     0.293 C 
HETATM    8  O   UNL     1     -22.754  -6.065  -5.142  1.00  0.00    -0.259 OA
BRANCH   7   9
HETATM    9  O   UNL     1     -20.455  -6.025  -4.994  1.00  0.00    -0.318 OA
BRANCH   9  10
HETATM   10  C   UNL     1     -20.245  -4.747  -5.604  1.00  0.00     0.174 C 
HETATM   11  C   UNL     1     -19.695  -4.998  -6.996  1.00  0.00     0.034 C 
ENDBRANCH   9  10
ENDBRANCH   7   9
ENDBRANCH   1   7
BRANCH   4  12
HETATM   12  O   UNL     1     -21.138  -8.517   0.580  1.00  0.00    -0.361 OA
HETATM   13  H   UNL     1     -20.453  -9.202   0.511  1.00  0.00     0.217 HD
ENDBRANCH   4  12
TORSDOF 4
ENDMDL
MODEL 8
REMARK VINA RESULT:      -5.2      8.426     10.661
REMARK  4 active torsions:
REMARK  status: ('A' for Active; 'I' for Inactive)
REMARK    1  A    between atoms: C_2  and  O_3 
REMARK    2  A    between atoms: O_3  and  C_4 
REMARK    3  A    between atoms: C_4  and  C_6 
REMARK    4  A    between atoms: C_9  and  O_12 
ROOT
HETATM    1  C   UNL     1     -21.347  -9.362  -0.209  1.00  0.00     0.039 A 
HETATM    2  C   UNL     1     -22.344  -8.591   0.413  1.00  0.00     0.020 A 
HETATM    3  C   UNL     1     -22.732  -7.366  -0.134  1.00  0.00     0.037 A 
HETATM    4  C   UNL     1     -22.120  -6.920  -1.301  1.00  0.00     0.065 A 
HETATM    5  C   UNL     1     -21.135  -7.677  -1.931  1.00  0.00     0.037 A 
HETATM    6  C   UNL     1     -20.750  -8.904  -1.390  1.00  0.00     0.020 A 
ENDROOT
BRANCH   1   7
HETATM    7  C   UNL     1     -20.984 -10.709   0.302  1.00  0.00     0.293 C 
HETATM    8  O   UNL     1     -19.836 -11.099   0.423  1.00  0.00    -0.259 OA
BRANCH   7   9
HETATM    9  O   UNL     1     -22.117 -11.416   0.524  1.00  0.00    -0.318 OA
BRANCH   9  10
HETATM   10  C   UNL     1     -22.580 -12.198  -0.582  1.00  0.00     0.174 C 
HETATM   11  C   UNL     1     -23.988 -11.732  -0.904  1.00  0.00     0.034 C 
ENDBRANCH   9  10
ENDBRANCH   7   9
ENDBRANCH   1   7
BRANCH   4  12
HETATM   12  O   UNL     1     -22.473  -5.735  -1.874  1.00  0.00    -0.361 OA
HETATM   13  H   UNL     1     -23.432  -5.734  -2.025  1.00  0.00     0.217 HD
ENDBRANCH   4  12
TORSDOF 4
ENDMDL
MODEL 9
REMARK VINA RESULT:      -5.0     16.519     17.863
REMARK  4 active torsions:
REMARK  status: ('A' for Active; 'I' for Inactive)
REMARK    1  A    between atoms: C_2  and  O_3 
REMARK    2  A    between atoms: O_3  and  C_4 
REMARK    3  A    between atoms: C_4  and  C_6 
REMARK    4  A    between atoms: C_9  and  O_12 
ROOT
HETATM    1  C   UNL     1     -11.518   5.024 -19.816  1.00  0.00     0.039 A 
HETATM    2  C   UNL     1     -10.965   3.774 -20.143  1.00  0.00     0.020 A 
HETATM    3  C   UNL     1     -11.730   2.820 -20.818  1.00  0.00     0.037 A 
HETATM    4  C   UNL     1     -13.044   3.122 -21.160  1.00  0.00     0.065 A 
HETATM    5  C   UNL     1     -13.602   4.359 -20.846  1.00  0.00     0.037 A 
HETATM    6  C   UNL     1     -12.838   5.316 -20.178  1.00  0.00     0.020 A 
ENDROOT
BRANCH   1   7
HETATM    7  C   UNL     1     -10.696   6.087 -19.182  1.00  0.00     0.293 C 
HETATM    8  O   UNL     1      -9.731   5.863 -18.472  1.00  0.00    -0.259 OA
BRANCH   7   9
HETATM    9  O   UNL     1     -11.242   7.293 -19.465  1.00  0.00    -0.318 OA
BRANCH   9  10
HETATM   10  C   UNL     1     -10.309   8.364 -19.641  1.00  0.00     0.174 C 
HETATM   11  C   UNL     1      -9.690   8.200 -21.017  1.00  0.00     0.034 C 
ENDBRANCH   9  10
ENDBRANCH   7   9
ENDBRANCH   1   7
BRANCH   4  12
HETATM   12  O   UNL     1     -13.824   2.224 -21.825  1.00  0.00    -0.361 OA
HETATM   13  H   UNL     1     -14.514   1.902 -21.221  1.00  0.00     0.217 HD
ENDBRANCH   4  12
TORSDOF 4
ENDMDL
