MODEL 1
REMARK VINA RESULT:      -8.8      0.000      0.000
REMARK  6 active torsions:
REMARK  status: ('A' for Active; 'I' for Inactive)
REMARK    1  A    between atoms: C_9  and  N_15 
REMARK    2  A    between atoms: C_10  and  S_11 
REMARK    3  A    between atoms: S_11  and  O_12 
REMARK    4  A    between atoms: N_17  and  C_19 
REMARK    5  A    between atoms: C_21  and  C_29 
REMARK    6  A    between atoms: C_29  and  O_31 
ROOT
HETATM    1  N   UNL     1     -17.629  -9.357  -3.425  1.00  0.00    -0.299 N 
ATOM      2  HN  UNL     1     -17.313  -8.432  -3.717  1.00  0.00     0.187 HD
HETATM    3  N   UNL     1     -18.835  -9.693  -3.388  1.00  0.00    -0.296 N 
ATOM      4  HN  UNL     1     -19.162 -10.637  -3.180  1.00  0.00     0.187 HD
ENDROOT
BRANCH   1   5
HETATM    5  C   UNL     1     -16.751 -10.387  -3.019  1.00  0.00     0.072 A 
HETATM    6  C   UNL     1     -16.866 -10.978  -1.751  1.00  0.00     0.033 A 
HETATM    7  C   UNL     1     -16.158 -12.125  -1.422  1.00  0.00     0.014 A 
HETATM    8  C   UNL     1     -15.270 -12.714  -2.326  1.00  0.00    -0.024 A 
HETATM    9  C   UNL     1     -15.036 -12.110  -3.584  1.00  0.00     0.000 A 
HETATM   10  C   UNL     1     -14.647 -13.924  -1.979  1.00  0.00     0.012 A 
HETATM   11  C   UNL     1     -14.039 -12.738  -4.397  1.00  0.00     0.014 A 
HETATM   12  C   UNL     1     -15.831 -10.973  -3.924  1.00  0.00     0.127 A 
HETATM   13  C   UNL     1     -13.440 -13.952  -4.045  1.00  0.00     0.001 A 
HETATM   14  C   UNL     1     -13.762 -14.558  -2.843  1.00  0.00     0.001 A 
BRANCH  12  15
HETATM   15  S   UNL     1     -16.070 -10.521  -5.679  1.00  0.00     0.328 S 
HETATM   16  O   UNL     1     -15.774  -9.116  -5.778  1.00  0.00    -0.191 OA
HETATM   17  O   UNL     1     -15.257 -11.482  -6.417  1.00  0.00    -0.191 OA
BRANCH  15  18
HETATM   18  O   UNL     1     -17.456 -10.973  -5.892  1.00  0.00    -0.086 OA
HETATM   19 CA   UNL     2     -18.619 -10.417  -7.471  1.00  0.00     0.000 Ca
ENDBRANCH  15  18
ENDBRANCH  12  15
ENDBRANCH   1   5
BRANCH   3  20
HETATM   20  C   UNL     1     -19.695  -8.589  -3.675  1.00  0.00     0.110 A 
HETATM   21  C   UNL     1     -19.705  -8.054  -5.015  1.00  0.00     0.217 A 
HETATM   22  C   UNL     1     -20.662  -7.017  -5.232  1.00  0.00     0.090 A 
HETATM   23  O   UNL     1     -18.906  -8.472  -5.937  1.00  0.00    -0.285 OA
HETATM   24  C   UNL     1     -21.502  -6.528  -4.211  1.00  0.00     0.034 A 
HETATM   25  C   UNL     1     -21.453  -7.047  -2.920  1.00  0.00    -0.022 A 
HETATM   26  C   UNL     1     -22.290  -6.529  -1.915  1.00  0.00     0.012 A 
HETATM   27  C   UNL     1     -20.564  -8.101  -2.637  1.00  0.00     0.006 A 
HETATM   28  C   UNL     1     -22.260  -7.041  -0.619  1.00  0.00     0.001 A 
HETATM   29  C   UNL     1     -21.406  -8.090  -0.322  1.00  0.00     0.001 A 
HETATM   30  C   UNL     1     -20.585  -8.620  -1.319  1.00  0.00     0.015 A 
BRANCH  22  31
HETATM   31  C   UNL     1     -20.898  -6.350  -6.576  1.00  0.00     0.180 C 
HETATM   32  O   UNL     1     -21.942  -5.815  -6.897  1.00  0.00    -0.646 OA
BRANCH  31  33
HETATM   33  O   UNL     1     -19.833  -6.416  -7.421  1.00  0.00    -0.773 OA
HETATM   34  H   UNL     1     -20.047  -7.117  -8.103  1.00  0.00     0.167 HD
ENDBRANCH  31  33
ENDBRANCH  22  31
ENDBRANCH   3  20
TORSDOF 6
ENDMDL
MODEL 2
REMARK VINA RESULT:      -8.7      3.797      8.550
REMARK  6 active torsions:
REMARK  status: ('A' for Active; 'I' for Inactive)
REMARK    1  A    between atoms: C_9  and  N_15 
REMARK    2  A    between atoms: C_10  and  S_11 
REMARK    3  A    between atoms: S_11  and  O_12 
REMARK    4  A    between atoms: N_17  and  C_19 
REMARK    5  A    between atoms: C_21  and  C_29 
REMARK    6  A    between atoms: C_29  and  O_31 
ROOT
HETATM    1  N   UNL     1     -21.766  -5.791  -5.429  1.00  0.00    -0.299 N 
ATOM      2  HN  UNL     1     -21.576  -5.185  -4.631  1.00  0.00     0.187 HD
HETATM    3  N   UNL     1     -21.692  -7.040  -5.379  1.00  0.00    -0.296 N 
ATOM      4  HN  UNL     1     -21.960  -7.662  -6.141  1.00  0.00     0.187 HD
ENDROOT
BRANCH   1   5
HETATM    5  C   UNL     1     -22.140  -5.306  -6.703  1.00  0.00     0.072 A 
HETATM    6  C   UNL     1     -23.445  -4.852  -6.949  1.00  0.00     0.033 A 
HETATM    7  C   UNL     1     -23.767  -4.179  -8.119  1.00  0.00     0.014 A 
HETATM    8  C   UNL     1     -22.814  -3.963  -9.118  1.00  0.00    -0.024 A 
HETATM    9  C   UNL     1     -21.505  -4.482  -8.972  1.00  0.00     0.000 A 
HETATM   10  C   UNL     1     -23.166  -3.198 -10.242  1.00  0.00     0.012 A 
HETATM   11  C   UNL     1     -20.633  -4.289 -10.090  1.00  0.00     0.014 A 
HETATM   12  C   UNL     1     -21.182  -5.106  -7.728  1.00  0.00     0.127 A 
HETATM   13  C   UNL     1     -20.992  -3.510 -11.195  1.00  0.00     0.001 A 
HETATM   14  C   UNL     1     -22.254  -2.945 -11.260  1.00  0.00     0.001 A 
BRANCH  12  15
HETATM   15  S   UNL     1     -19.437  -5.231  -7.197  1.00  0.00     0.328 S 
HETATM   16  O   UNL     1     -19.061  -6.609  -7.369  1.00  0.00    -0.191 OA
HETATM   17  O   UNL     1     -18.750  -4.195  -7.962  1.00  0.00    -0.191 OA
BRANCH  15  18
HETATM   18  O   UNL     1     -19.525  -4.682  -5.833  1.00  0.00    -0.086 OA
HETATM   19 CA   UNL     2     -17.997  -3.737  -4.870  1.00  0.00     0.000 Ca
ENDBRANCH  15  18
ENDBRANCH  12  15
ENDBRANCH   1   5
BRANCH   3  20
HETATM   20  C   UNL     1     -21.183  -7.484  -4.119  1.00  0.00     0.110 A 
HETATM   21  C   UNL     1     -21.887  -7.100  -2.920  1.00  0.00     0.217 A 
HETATM   22  C   UNL     1     -21.364  -7.666  -1.718  1.00  0.00     0.090 A 
HETATM   23  O   UNL     1     -22.899  -6.301  -2.932  1.00  0.00    -0.285 OA
HETATM   24  C   UNL     1     -20.228  -8.501  -1.700  1.00  0.00     0.034 A 
HETATM   25  C   UNL     1     -19.554  -8.835  -2.872  1.00  0.00    -0.022 A 
HETATM   26  C   UNL     1     -18.413  -9.656  -2.825  1.00  0.00     0.012 A 
HETATM   27  C   UNL     1     -20.035  -8.350  -4.103  1.00  0.00     0.006 A 
HETATM   28  C   UNL     1     -17.730 -10.007  -3.988  1.00  0.00     0.001 A 
HETATM   29  C   UNL     1     -18.195  -9.555  -5.213  1.00  0.00     0.001 A 
HETATM   30  C   UNL     1     -19.337  -8.754  -5.267  1.00  0.00     0.015 A 
BRANCH  22  31
HETATM   31  C   UNL     1     -21.977  -7.457  -0.345  1.00  0.00     0.180 C 
HETATM   32  O   UNL     1     -21.409  -7.709   0.701  1.00  0.00    -0.646 OA
BRANCH  31  33
HETATM   33  O   UNL     1     -23.248  -6.973  -0.375  1.00  0.00    -0.773 OA
HETATM   34  H   UNL     1     -23.179  -5.980  -0.489  1.00  0.00     0.167 HD
ENDBRANCH  31  33
ENDBRANCH  22  31
ENDBRANCH   3  20
TORSDOF 6
ENDMDL
MODEL 3
REMARK VINA RESULT:      -8.3      4.290      6.619
REMARK  6 active torsions:
REMARK  status: ('A' for Active; 'I' for Inactive)
REMARK    1  A    between atoms: C_9  and  N_15 
REMARK    2  A    between atoms: C_10  and  S_11 
REMARK    3  A    between atoms: S_11  and  O_12 
REMARK    4  A    between atoms: N_17  and  C_19 
REMARK    5  A    between atoms: C_21  and  C_29 
REMARK    6  A    between atoms: C_29  and  O_31 
ROOT
HETATM    1  N   UNL     1     -21.826  -6.522  -4.750  1.00  0.00    -0.299 N 
ATOM      2  HN  UNL     1     -22.035  -7.159  -5.519  1.00  0.00     0.187 HD
HETATM    3  N   UNL     1     -21.706  -5.284  -4.894  1.00  0.00    -0.296 N 
ATOM      4  HN  UNL     1     -21.581  -4.626  -4.125  1.00  0.00     0.187 HD
ENDROOT
BRANCH   1   5
HETATM    5  C   UNL     1     -21.643  -6.948  -3.414  1.00  0.00     0.072 A 
HETATM    6  C   UNL     1     -22.193  -6.227  -2.343  1.00  0.00     0.033 A 
HETATM    7  C   UNL     1     -22.206  -6.743  -1.056  1.00  0.00     0.014 A 
HETATM    8  C   UNL     1     -21.633  -7.985  -0.766  1.00  0.00    -0.024 A 
HETATM    9  C   UNL     1     -20.977  -8.716  -1.783  1.00  0.00     0.000 A 
HETATM   10  C   UNL     1     -21.752  -8.503   0.534  1.00  0.00     0.012 A 
HETATM   11  C   UNL     1     -20.342  -9.929  -1.365  1.00  0.00     0.014 A 
HETATM   12  C   UNL     1     -21.042  -8.196  -3.112  1.00  0.00     0.127 A 
HETATM   13  C   UNL     1     -20.484 -10.441  -0.071  1.00  0.00     0.001 A 
HETATM   14  C   UNL     1     -21.210  -9.737   0.874  1.00  0.00     0.001 A 
BRANCH  12  15
HETATM   15  S   UNL     1     -20.807  -9.312  -4.541  1.00  0.00     0.328 S 
HETATM   16  O   UNL     1     -21.917 -10.228  -4.525  1.00  0.00    -0.191 OA
HETATM   17  O   UNL     1     -20.630  -8.415  -5.678  1.00  0.00    -0.191 OA
BRANCH  15  18
HETATM   18  O   UNL     1     -19.455  -9.828  -4.267  1.00  0.00    -0.086 OA
HETATM   19 CA   UNL     2     -17.894  -8.686  -3.623  1.00  0.00     0.000 Ca
ENDBRANCH  15  18
ENDBRANCH  12  15
ENDBRANCH   1   5
BRANCH   3  20
HETATM   20  C   UNL     1     -21.764  -4.909  -6.272  1.00  0.00     0.110 A 
HETATM   21  C   UNL     1     -23.058  -4.807  -6.902  1.00  0.00     0.217 A 
HETATM   22  C   UNL     1     -23.025  -4.336  -8.249  1.00  0.00     0.090 A 
HETATM   23  O   UNL     1     -24.152  -5.126  -6.301  1.00  0.00    -0.285 OA
HETATM   24  C   UNL     1     -21.824  -4.032  -8.922  1.00  0.00     0.034 A 
HETATM   25  C   UNL     1     -20.587  -4.164  -8.296  1.00  0.00    -0.022 A 
HETATM   26  C   UNL     1     -19.402  -3.872  -8.995  1.00  0.00     0.012 A 
HETATM   27  C   UNL     1     -20.540  -4.584  -6.953  1.00  0.00     0.006 A 
HETATM   28  C   UNL     1     -18.157  -3.991  -8.381  1.00  0.00     0.001 A 
HETATM   29  C   UNL     1     -18.086  -4.385  -7.055  1.00  0.00     0.001 A 
HETATM   30  C   UNL     1     -19.259  -4.660  -6.351  1.00  0.00     0.015 A 
BRANCH  22  31
HETATM   31  C   UNL     1     -24.264  -4.087  -9.092  1.00  0.00     0.180 C 
HETATM   32  O   UNL     1     -24.729  -4.893  -9.875  1.00  0.00    -0.646 OA
BRANCH  31  33
HETATM   33  O   UNL     1     -24.815  -2.856  -8.913  1.00  0.00    -0.773 OA
HETATM   34  H   UNL     1     -25.499  -2.736  -9.635  1.00  0.00     0.167 HD
ENDBRANCH  31  33
ENDBRANCH  22  31
ENDBRANCH   3  20
TORSDOF 6
ENDMDL
MODEL 4
REMARK VINA RESULT:      -8.1      3.431      7.650
REMARK  6 active torsions:
REMARK  status: ('A' for Active; 'I' for Inactive)
REMARK    1  A    between atoms: C_9  and  N_15 
REMARK    2  A    between atoms: C_10  and  S_11 
REMARK    3  A    between atoms: S_11  and  O_12 
REMARK    4  A    between atoms: N_17  and  C_19 
REMARK    5  A    between atoms: C_21  and  C_29 
REMARK    6  A    between atoms: C_29  and  O_31 
ROOT
HETATM    1  N   UNL     1     -18.692 -10.517  -4.025  1.00  0.00    -0.299 N 
ATOM      2  HN  UNL     1     -18.428 -11.428  -3.650  1.00  0.00     0.187 HD
HETATM    3  N   UNL     1     -18.388 -10.133  -5.177  1.00  0.00    -0.296 N 
ATOM      4  HN  UNL     1     -18.714  -9.263  -5.597  1.00  0.00     0.187 HD
ENDROOT
BRANCH   1   5
HETATM    5  C   UNL     1     -19.435  -9.561  -3.297  1.00  0.00     0.072 A 
HETATM    6  C   UNL     1     -19.994  -8.442  -3.933  1.00  0.00     0.033 A 
HETATM    7  C   UNL     1     -20.898  -7.616  -3.281  1.00  0.00     0.014 A 
HETATM    8  C   UNL     1     -21.257  -7.842  -1.949  1.00  0.00    -0.024 A 
HETATM    9  C   UNL     1     -20.655  -8.896  -1.223  1.00  0.00     0.000 A 
HETATM   10  C   UNL     1     -22.244  -7.033  -1.363  1.00  0.00     0.012 A 
HETATM   11  C   UNL     1     -21.019  -8.985   0.159  1.00  0.00     0.014 A 
HETATM   12  C   UNL     1     -19.784  -9.773  -1.939  1.00  0.00     0.127 A 
HETATM   13  C   UNL     1     -22.016  -8.183   0.724  1.00  0.00     0.001 A 
HETATM   14  C   UNL     1     -22.646  -7.220  -0.045  1.00  0.00     0.001 A 
BRANCH  12  15
HETATM   15  S   UNL     1     -19.470 -11.460  -1.310  1.00  0.00     0.328 S 
HETATM   16  O   UNL     1     -19.974 -11.489   0.038  1.00  0.00    -0.191 OA
HETATM   17  O   UNL     1     -20.055 -12.338  -2.317  1.00  0.00    -0.191 OA
BRANCH  15  18
HETATM   18  O   UNL     1     -18.017 -11.569  -1.528  1.00  0.00    -0.086 OA
HETATM   19 CA   UNL     2     -16.765  -9.979  -1.770  1.00  0.00     0.000 Ca
ENDBRANCH  15  18
ENDBRANCH  12  15
ENDBRANCH   1   5
BRANCH   3  20
HETATM   20  C   UNL     1     -17.527 -11.067  -5.830  1.00  0.00     0.110 A 
HETATM   21  C   UNL     1     -16.129 -11.082  -5.471  1.00  0.00     0.217 A 
HETATM   22  C   UNL     1     -15.365 -12.109  -6.103  1.00  0.00     0.090 A 
HETATM   23  O   UNL     1     -15.612 -10.229  -4.654  1.00  0.00    -0.285 OA
HETATM   24  C   UNL     1     -15.922 -13.011  -7.032  1.00  0.00     0.034 A 
HETATM   25  C   UNL     1     -17.270 -12.958  -7.379  1.00  0.00    -0.022 A 
HETATM   26  C   UNL     1     -17.796 -13.858  -8.322  1.00  0.00     0.012 A 
HETATM   27  C   UNL     1     -18.098 -11.999  -6.766  1.00  0.00     0.006 A 
HETATM   28  C   UNL     1     -19.144 -13.824  -8.675  1.00  0.00     0.001 A 
HETATM   29  C   UNL     1     -19.982 -12.901  -8.072  1.00  0.00     0.001 A 
HETATM   30  C   UNL     1     -19.469 -12.016  -7.123  1.00  0.00     0.015 A 
BRANCH  22  31
HETATM   31  C   UNL     1     -13.892 -12.359  -5.831  1.00  0.00     0.180 C 
HETATM   32  O   UNL     1     -13.079 -12.647  -6.689  1.00  0.00    -0.646 OA
BRANCH  31  33
HETATM   33  O   UNL     1     -13.547 -12.256  -4.519  1.00  0.00    -0.773 OA
HETATM   34  H   UNL     1     -13.154 -11.343  -4.393  1.00  0.00     0.167 HD
ENDBRANCH  31  33
ENDBRANCH  22  31
ENDBRANCH   3  20
TORSDOF 6
ENDMDL
MODEL 5
REMARK VINA RESULT:      -8.0      2.596      2.960
REMARK  6 active torsions:
REMARK  status: ('A' for Active; 'I' for Inactive)
REMARK    1  A    between atoms: C_9  and  N_15 
REMARK    2  A    between atoms: C_10  and  S_11 
REMARK    3  A    between atoms: S_11  and  O_12 
REMARK    4  A    between atoms: N_17  and  C_19 
REMARK    5  A    between atoms: C_21  and  C_29 
REMARK    6  A    between atoms: C_29  and  O_31 
ROOT
HETATM    1  N   UNL     1     -18.952  -9.479  -5.657  1.00  0.00    -0.299 N 
ATOM      2  HN  UNL     1     -19.756  -9.388  -6.278  1.00  0.00     0.187 HD
HETATM    3  N   UNL     1     -18.828  -8.833  -4.591  1.00  0.00    -0.296 N 
ATOM      4  HN  UNL     1     -18.074  -8.974  -3.919  1.00  0.00     0.187 HD
ENDROOT
BRANCH   1   5
HETATM    5  C   UNL     1     -17.865 -10.345  -5.913  1.00  0.00     0.072 A 
HETATM    6  C   UNL     1     -16.541  -9.882  -5.854  1.00  0.00     0.033 A 
HETATM    7  C   UNL     1     -15.466 -10.759  -5.890  1.00  0.00     0.014 A 
HETATM    8  C   UNL     1     -15.658 -12.137  -6.029  1.00  0.00    -0.024 A 
HETATM    9  C   UNL     1     -16.964 -12.657  -6.191  1.00  0.00     0.000 A 
HETATM   10  C   UNL     1     -14.544 -12.989  -5.968  1.00  0.00     0.012 A 
HETATM   11  C   UNL     1     -17.046 -14.067  -6.421  1.00  0.00     0.014 A 
HETATM   12  C   UNL     1     -18.054 -11.741  -6.078  1.00  0.00     0.127 A 
HETATM   13  C   UNL     1     -15.929 -14.906  -6.340  1.00  0.00     0.001 A 
HETATM   14  C   UNL     1     -14.678 -14.367  -6.091  1.00  0.00     0.001 A 
BRANCH  12  15
HETATM   15  S   UNL     1     -19.720 -12.356  -5.644  1.00  0.00     0.328 S 
HETATM   16  O   UNL     1     -19.654 -13.791  -5.724  1.00  0.00    -0.191 OA
HETATM   17  O   UNL     1     -20.022 -11.718  -4.367  1.00  0.00    -0.191 OA
BRANCH  15  18
HETATM   18  O   UNL     1     -20.545 -11.626  -6.622  1.00  0.00    -0.086 OA
HETATM   19 CA   UNL     2     -21.493 -12.492  -8.205  1.00  0.00     0.000 Ca
ENDBRANCH  15  18
ENDBRANCH  12  15
ENDBRANCH   1   5
BRANCH   3  20
HETATM   20  C   UNL     1     -19.876  -7.874  -4.436  1.00  0.00     0.110 A 
HETATM   21  C   UNL     1     -20.242  -7.065  -5.573  1.00  0.00     0.217 A 
HETATM   22  C   UNL     1     -21.359  -6.204  -5.352  1.00  0.00     0.090 A 
HETATM   23  O   UNL     1     -19.605  -7.109  -6.692  1.00  0.00    -0.285 OA
HETATM   24  C   UNL     1     -22.027  -6.122  -4.113  1.00  0.00     0.034 A 
HETATM   25  C   UNL     1     -21.635  -6.898  -3.024  1.00  0.00    -0.022 A 
HETATM   26  C   UNL     1     -22.306  -6.785  -1.793  1.00  0.00     0.012 A 
HETATM   27  C   UNL     1     -20.567  -7.803  -3.176  1.00  0.00     0.006 A 
HETATM   28  C   UNL     1     -21.932  -7.559  -0.697  1.00  0.00     0.001 A 
HETATM   29  C   UNL     1     -20.896  -8.469  -0.827  1.00  0.00     0.001 A 
HETATM   30  C   UNL     1     -20.237  -8.598  -2.051  1.00  0.00     0.015 A 
BRANCH  22  31
HETATM   31  C   UNL     1     -21.964  -5.310  -6.420  1.00  0.00     0.180 C 
HETATM   32  O   UNL     1     -23.120  -4.931  -6.417  1.00  0.00    -0.646 OA
BRANCH  31  33
HETATM   33  O   UNL     1     -21.099  -4.973  -7.414  1.00  0.00    -0.773 OA
HETATM   34  H   UNL     1     -21.318  -4.034  -7.685  1.00  0.00     0.167 HD
ENDBRANCH  31  33
ENDBRANCH  22  31
ENDBRANCH   3  20
TORSDOF 6
ENDMDL
MODEL 6
REMARK VINA RESULT:      -8.0      3.662      8.530
REMARK  6 active torsions:
REMARK  status: ('A' for Active; 'I' for Inactive)
REMARK    1  A    between atoms: C_9  and  N_15 
REMARK    2  A    between atoms: C_10  and  S_11 
REMARK    3  A    between atoms: S_11  and  O_12 
REMARK    4  A    between atoms: N_17  and  C_19 
REMARK    5  A    between atoms: C_21  and  C_29 
REMARK    6  A    between atoms: C_29  and  O_31 
ROOT
HETATM    1  N   UNL     1     -19.839  -7.038  -5.088  1.00  0.00    -0.299 N 
ATOM      2  HN  UNL     1     -19.674  -6.713  -4.135  1.00  0.00     0.187 HD
HETATM    3  N   UNL     1     -19.708  -8.232  -5.440  1.00  0.00    -0.296 N 
ATOM      4  HN  UNL     1     -19.949  -8.588  -6.365  1.00  0.00     0.187 HD
ENDROOT
BRANCH   1   5
HETATM    5  C   UNL     1     -20.237  -6.186  -6.143  1.00  0.00     0.072 A 
HETATM    6  C   UNL     1     -19.398  -5.958  -7.245  1.00  0.00     0.033 A 
HETATM    7  C   UNL     1     -19.856  -5.304  -8.379  1.00  0.00     0.014 A 
HETATM    8  C   UNL     1     -21.161  -4.807  -8.453  1.00  0.00    -0.024 A 
HETATM    9  C   UNL     1     -22.025  -4.919  -7.338  1.00  0.00     0.000 A 
HETATM   10  C   UNL     1     -21.604  -4.233  -9.655  1.00  0.00     0.012 A 
HETATM   11  C   UNL     1     -23.305  -4.295  -7.481  1.00  0.00     0.014 A 
HETATM   12  C   UNL     1     -21.552  -5.660  -6.212  1.00  0.00     0.127 A 
HETATM   13  C   UNL     1     -23.739  -3.743  -8.691  1.00  0.00     0.001 A 
HETATM   14  C   UNL     1     -22.894  -3.733  -9.787  1.00  0.00     0.001 A 
BRANCH  12  15
HETATM   15  S   UNL     1     -22.744  -6.390  -5.035  1.00  0.00     0.328 S 
HETATM   16  O   UNL     1     -24.031  -5.838  -5.369  1.00  0.00    -0.191 OA
HETATM   17  O   UNL     1     -22.528  -7.829  -5.143  1.00  0.00    -0.191 OA
BRANCH  15  18
HETATM   18  O   UNL     1     -22.123  -6.021  -3.751  1.00  0.00    -0.086 OA
HETATM   19 CA   UNL     2     -22.525  -6.932  -1.973  1.00  0.00     0.000 Ca
ENDBRANCH  15  18
ENDBRANCH  12  15
ENDBRANCH   1   5
BRANCH   3  20
HETATM   20  C   UNL     1     -19.177  -9.035  -4.384  1.00  0.00     0.110 A 
HETATM   21  C   UNL     1     -19.969  -9.214  -3.191  1.00  0.00     0.217 A 
HETATM   22  C   UNL     1     -19.403 -10.105  -2.231  1.00  0.00     0.090 A 
HETATM   23  O   UNL     1     -21.092  -8.608  -3.004  1.00  0.00    -0.285 OA
HETATM   24  C   UNL     1     -18.152 -10.731  -2.415  1.00  0.00     0.034 A 
HETATM   25  C   UNL     1     -17.397 -10.520  -3.567  1.00  0.00    -0.022 A 
HETATM   26  C   UNL     1     -16.145 -11.141  -3.718  1.00  0.00     0.012 A 
HETATM   27  C   UNL     1     -17.909  -9.686  -4.579  1.00  0.00     0.006 A 
HETATM   28  C   UNL     1     -15.380 -10.948  -4.867  1.00  0.00     0.001 A 
HETATM   29  C   UNL     1     -15.870 -10.145  -5.884  1.00  0.00     0.001 A 
HETATM   30  C   UNL     1     -17.120  -9.539  -5.747  1.00  0.00     0.015 A 
BRANCH  22  31
HETATM   31  C   UNL     1     -20.083 -10.497  -0.932  1.00  0.00     0.180 C 
HETATM   32  O   UNL     1     -19.956 -11.580  -0.394  1.00  0.00    -0.646 OA
BRANCH  31  33
HETATM   33  O   UNL     1     -20.884  -9.526  -0.413  1.00  0.00    -0.773 OA
HETATM   34  H   UNL     1     -21.678  -9.987  -0.012  1.00  0.00     0.167 HD
ENDBRANCH  31  33
ENDBRANCH  22  31
ENDBRANCH   3  20
TORSDOF 6
ENDMDL
MODEL 7
REMARK VINA RESULT:      -7.9      3.449      4.509
REMARK  6 active torsions:
REMARK  status: ('A' for Active; 'I' for Inactive)
REMARK    1  A    between atoms: C_9  and  N_15 
REMARK    2  A    between atoms: C_10  and  S_11 
REMARK    3  A    between atoms: S_11  and  O_12 
REMARK    4  A    between atoms: N_17  and  C_19 
REMARK    5  A    between atoms: C_21  and  C_29 
REMARK    6  A    between atoms: C_29  and  O_31 
ROOT
HETATM    1  N   UNL     1     -19.233 -10.412  -2.828  1.00  0.00    -0.299 N 
ATOM      2  HN  UNL     1     -19.848  -9.688  -3.199  1.00  0.00     0.187 HD
HETATM    3  N   UNL     1     -19.566 -11.191  -1.906  1.00  0.00    -0.296 N 
ATOM      4  HN  UNL     1     -18.996 -11.973  -1.582  1.00  0.00     0.187 HD
ENDROOT
BRANCH   1   5
HETATM    5  C   UNL     1     -17.920 -10.635  -3.301  1.00  0.00     0.072 A 
HETATM    6  C   UNL     1     -16.850 -10.804  -2.409  1.00  0.00     0.033 A 
HETATM    7  C   UNL     1     -15.605 -11.234  -2.847  1.00  0.00     0.014 A 
HETATM    8  C   UNL     1     -15.357 -11.476  -4.201  1.00  0.00    -0.024 A 
HETATM    9  C   UNL     1     -16.366 -11.230  -5.161  1.00  0.00     0.000 A 
HETATM   10  C   UNL     1     -14.109 -11.996  -4.582  1.00  0.00     0.012 A 
HETATM   11  C   UNL     1     -15.982 -11.417  -6.527  1.00  0.00     0.014 A 
HETATM   12  C   UNL     1     -17.657 -10.858  -4.676  1.00  0.00     0.127 A 
HETATM   13  C   UNL     1     -14.742 -11.953  -6.891  1.00  0.00     0.001 A 
HETATM   14  C   UNL     1     -13.812 -12.264  -5.914  1.00  0.00     0.001 A 
BRANCH  12  15
HETATM   15  S   UNL     1     -19.135 -11.129  -5.716  1.00  0.00     0.328 S 
HETATM   16  O   UNL     1     -18.650 -11.478  -7.025  1.00  0.00    -0.191 OA
HETATM   17  O   UNL     1     -19.937 -12.090  -4.966  1.00  0.00    -0.191 OA
BRANCH  15  18
HETATM   18  O   UNL     1     -19.837  -9.847  -5.536  1.00  0.00    -0.086 OA
HETATM   19 CA   UNL     2     -21.468  -9.264  -6.611  1.00  0.00     0.000 Ca
ENDBRANCH  15  18
ENDBRANCH  12  15
ENDBRANCH   1   5
BRANCH   3  20
HETATM   20  C   UNL     1     -20.843 -10.849  -1.366  1.00  0.00     0.110 A 
HETATM   21  C   UNL     1     -21.053  -9.500  -0.900  1.00  0.00     0.217 A 
HETATM   22  C   UNL     1     -22.385  -9.223  -0.465  1.00  0.00     0.090 A 
HETATM   23  O   UNL     1     -20.112  -8.620  -0.868  1.00  0.00    -0.285 OA
HETATM   24  C   UNL     1     -23.403 -10.199  -0.456  1.00  0.00     0.034 A 
HETATM   25  C   UNL     1     -23.164 -11.501  -0.889  1.00  0.00    -0.022 A 
HETATM   26  C   UNL     1     -24.191 -12.461  -0.853  1.00  0.00     0.012 A 
HETATM   27  C   UNL     1     -21.886 -11.840  -1.372  1.00  0.00     0.006 A 
HETATM   28  C   UNL     1     -23.973 -13.766  -1.289  1.00  0.00     0.001 A 
HETATM   29  C   UNL     1     -22.728 -14.118  -1.785  1.00  0.00     0.001 A 
HETATM   30  C   UNL     1     -21.709 -13.166  -1.840  1.00  0.00     0.015 A 
BRANCH  22  31
HETATM   31  C   UNL     1     -22.857  -7.859   0.005  1.00  0.00     0.180 C 
HETATM   32  O   UNL     1     -23.387  -7.654   1.081  1.00  0.00    -0.646 OA
BRANCH  31  33
HETATM   33  O   UNL     1     -22.658  -6.862  -0.900  1.00  0.00    -0.773 OA
HETATM   34  H   UNL     1     -23.028  -7.184  -1.773  1.00  0.00     0.167 HD
ENDBRANCH  31  33
ENDBRANCH  22  31
ENDBRANCH   3  20
TORSDOF 6
ENDMDL
MODEL 8
REMARK VINA RESULT:      -7.7      3.220      7.135
REMARK  6 active torsions:
REMARK  status: ('A' for Active; 'I' for Inactive)
REMARK    1  A    between atoms: C_9  and  N_15 
REMARK    2  A    between atoms: C_10  and  S_11 
REMARK    3  A    between atoms: S_11  and  O_12 
REMARK    4  A    between atoms: N_17  and  C_19 
REMARK    5  A    between atoms: C_21  and  C_29 
REMARK    6  A    between atoms: C_29  and  O_31 
ROOT
HETATM    1  N   UNL     1     -20.549  -9.691  -3.047  1.00  0.00    -0.299 N 
ATOM      2  HN  UNL     1     -20.646 -10.610  -3.478  1.00  0.00     0.187 HD
HETATM    3  N   UNL     1     -20.255  -9.523  -1.841  1.00  0.00    -0.296 N 
ATOM      4  HN  UNL     1     -20.072  -8.614  -1.416  1.00  0.00     0.187 HD
ENDROOT
BRANCH   1   5
HETATM    5  C   UNL     1     -20.735  -8.478  -3.749  1.00  0.00     0.072 A 
HETATM    6  C   UNL     1     -21.375  -7.384  -3.146  1.00  0.00     0.033 A 
HETATM    7  C   UNL     1     -21.373  -6.130  -3.739  1.00  0.00     0.014 A 
HETATM    8  C   UNL     1     -20.771  -5.915  -4.982  1.00  0.00    -0.024 A 
HETATM    9  C   UNL     1     -20.195  -6.999  -5.686  1.00  0.00     0.000 A 
HETATM   10  C   UNL     1     -20.717  -4.610  -5.496  1.00  0.00     0.012 A 
HETATM   11  C   UNL     1     -19.689  -6.694  -6.989  1.00  0.00     0.014 A 
HETATM   12  C   UNL     1     -20.146  -8.262  -5.020  1.00  0.00     0.127 A 
HETATM   13  C   UNL     1     -19.627  -5.386  -7.481  1.00  0.00     0.001 A 
HETATM   14  C   UNL     1     -20.122  -4.339  -6.723  1.00  0.00     0.001 A 
BRANCH  12  15
HETATM   15  S   UNL     1     -18.916  -9.514  -5.530  1.00  0.00     0.328 S 
HETATM   16  O   UNL     1     -19.662 -10.695  -5.878  1.00  0.00    -0.191 OA
HETATM   17  O   UNL     1     -18.114  -8.843  -6.548  1.00  0.00    -0.191 OA
BRANCH  15  18
HETATM   18  O   UNL     1     -18.047  -9.547  -4.341  1.00  0.00    -0.086 OA
HETATM   19 CA   UNL     2     -16.046  -9.161  -4.364  1.00  0.00     0.000 Ca
ENDBRANCH  15  18
ENDBRANCH  12  15
ENDBRANCH   1   5
BRANCH   3  20
HETATM   20  C   UNL     1     -20.208 -10.765  -1.136  1.00  0.00     0.110 A 
HETATM   21  C   UNL     1     -18.937 -11.436  -1.010  1.00  0.00     0.217 A 
HETATM   22  C   UNL     1     -18.967 -12.619  -0.211  1.00  0.00     0.090 A 
HETATM   23  O   UNL     1     -17.864 -11.008  -1.583  1.00  0.00    -0.285 OA
HETATM   24  C   UNL     1     -20.151 -13.113   0.376  1.00  0.00     0.034 A 
HETATM   25  C   UNL     1     -21.369 -12.457   0.216  1.00  0.00    -0.022 A 
HETATM   26  C   UNL     1     -22.538 -12.980   0.797  1.00  0.00     0.012 A 
HETATM   27  C   UNL     1     -21.411 -11.260  -0.524  1.00  0.00     0.006 A 
HETATM   28  C   UNL     1     -23.764 -12.333   0.654  1.00  0.00     0.001 A 
HETATM   29  C   UNL     1     -23.828 -11.145  -0.055  1.00  0.00     0.001 A 
HETATM   30  C   UNL     1     -22.668 -10.612  -0.619  1.00  0.00     0.015 A 
BRANCH  22  31
HETATM   31  C   UNL     1     -17.742 -13.454   0.115  1.00  0.00     0.180 C 
HETATM   32  O   UNL     1     -17.678 -14.659  -0.036  1.00  0.00    -0.646 OA
BRANCH  31  33
HETATM   33  O   UNL     1     -16.703 -12.736   0.622  1.00  0.00    -0.773 OA
HETATM   34  H   UNL     1     -17.091 -12.084   1.275  1.00  0.00     0.167 HD
ENDBRANCH  31  33
ENDBRANCH  22  31
ENDBRANCH   3  20
TORSDOF 6
ENDMDL
MODEL 9
REMARK VINA RESULT:      -7.6      3.265      3.715
REMARK  6 active torsions:
REMARK  status: ('A' for Active; 'I' for Inactive)
REMARK    1  A    between atoms: C_9  and  N_15 
REMARK    2  A    between atoms: C_10  and  S_11 
REMARK    3  A    between atoms: S_11  and  O_12 
REMARK    4  A    between atoms: N_17  and  C_19 
REMARK    5  A    between atoms: C_21  and  C_29 
REMARK    6  A    between atoms: C_29  and  O_31 
ROOT
HETATM    1  N   UNL     1     -20.677 -10.287  -5.526  1.00  0.00    -0.299 N 
ATOM      2  HN  UNL     1     -20.598  -9.494  -6.164  1.00  0.00     0.187 HD
HETATM    3  N   UNL     1     -21.030 -10.176  -4.330  1.00  0.00    -0.296 N 
ATOM      4  HN  UNL     1     -21.196 -10.965  -3.704  1.00  0.00     0.187 HD
ENDROOT
BRANCH   1   5
HETATM    5  C   UNL     1     -20.398 -11.620  -5.903  1.00  0.00     0.072 A 
HETATM    6  C   UNL     1     -21.394 -12.438  -6.459  1.00  0.00     0.033 A 
HETATM    7  C   UNL     1     -21.086 -13.666  -7.028  1.00  0.00     0.014 A 
HETATM    8  C   UNL     1     -19.777 -14.156  -7.033  1.00  0.00    -0.024 A 
HETATM    9  C   UNL     1     -18.745 -13.423  -6.401  1.00  0.00     0.000 A 
HETATM   10  C   UNL     1     -19.503 -15.360  -7.700  1.00  0.00     0.012 A 
HETATM   11  C   UNL     1     -17.461 -14.055  -6.377  1.00  0.00     0.014 A 
HETATM   12  C   UNL     1     -19.075 -12.131  -5.888  1.00  0.00     0.127 A 
HETATM   13  C   UNL     1     -17.199 -15.247  -7.062  1.00  0.00     0.001 A 
HETATM   14  C   UNL     1     -18.218 -15.888  -7.744  1.00  0.00     0.001 A 
BRANCH  12  15
HETATM   15  S   UNL     1     -17.762 -10.884  -5.644  1.00  0.00     0.328 S 
HETATM   16  O   UNL     1     -18.008 -10.286  -4.358  1.00  0.00    -0.191 OA
HETATM   17  O   UNL     1     -16.520 -11.614  -5.873  1.00  0.00    -0.191 OA
BRANCH  15  18
HETATM   18  O   UNL     1     -17.933 -10.063  -6.855  1.00  0.00    -0.086 OA
HETATM   19 CA   UNL     2     -18.394  -8.078  -6.847  1.00  0.00     0.000 Ca
ENDBRANCH  15  18
ENDBRANCH  12  15
ENDBRANCH   1   5
BRANCH   3  20
HETATM   20  C   UNL     1     -21.173  -8.805  -3.951  1.00  0.00     0.110 A 
HETATM   21  C   UNL     1     -20.917  -7.788  -4.942  1.00  0.00     0.217 A 
HETATM   22  C   UNL     1     -21.176  -6.455  -4.503  1.00  0.00     0.090 A 
HETATM   23  O   UNL     1     -20.479  -8.061  -6.123  1.00  0.00    -0.285 OA
HETATM   24  C   UNL     1     -21.609  -6.152  -3.195  1.00  0.00     0.034 A 
HETATM   25  C   UNL     1     -21.825  -7.154  -2.252  1.00  0.00    -0.022 A 
HETATM   26  C   UNL     1     -22.240  -6.825  -0.949  1.00  0.00     0.012 A 
HETATM   27  C   UNL     1     -21.631  -8.499  -2.623  1.00  0.00     0.006 A 
HETATM   28  C   UNL     1     -22.467  -7.815   0.005  1.00  0.00     0.001 A 
HETATM   29  C   UNL     1     -22.301  -9.146  -0.342  1.00  0.00     0.001 A 
HETATM   30  C   UNL     1     -21.905  -9.480  -1.638  1.00  0.00     0.015 A 
BRANCH  22  31
HETATM   31  C   UNL     1     -21.040  -5.228  -5.388  1.00  0.00     0.180 C 
HETATM   32  O   UNL     1     -21.823  -4.936  -6.273  1.00  0.00    -0.646 OA
BRANCH  31  33
HETATM   33  O   UNL     1     -19.938  -4.475  -5.124  1.00  0.00    -0.773 OA
HETATM   34  H   UNL     1     -19.153  -5.098  -5.125  1.00  0.00     0.167 HD
ENDBRANCH  31  33
ENDBRANCH  22  31
ENDBRANCH   3  20
TORSDOF 6
ENDMDL
