MODEL 1
REMARK VINA RESULT:      -7.1      0.000      0.000
REMARK  23 active torsions:
REMARK  status: ('A' for Active; 'I' for Inactive)
REMARK    1  A    between atoms: C_2  and  C_3 
REMARK    2  A    between atoms: C_3  and  C_4 
REMARK    3  A    between atoms: C_4  and  C_5 
REMARK    4  A    between atoms: C_5  and  C_6 
REMARK    5  A    between atoms: C_6  and  C_7 
REMARK    6  A    between atoms: C_7  and  C_8 
REMARK    7  A    between atoms: C_8  and  C_9 
REMARK    8  A    between atoms: C_9  and  C_10 
REMARK    9  A    between atoms: C_10  and  C_11 
REMARK   10  A    between atoms: C_11  and  C_12 
REMARK   11  A    between atoms: C_12  and  C_13 
REMARK   12  A    between atoms: C_13  and  C_14 
REMARK   13  A    between atoms: C_14  and  C_15 
REMARK   14  A    between atoms: C_15  and  C_16 
REMARK   15  A    between atoms: C_16  and  C_17 
REMARK   16  A    between atoms: C_17  and  C_18 
REMARK       I    between atoms: C_18  and  N_20 
REMARK   17  A    between atoms: N_20  and  CA_21 
REMARK   18  A    between atoms: CA_21  and  CB_22 
REMARK   19  A    between atoms: CA_21  and  C_27 
REMARK   20  A    between atoms: CB_22  and  CG_23 
REMARK   21  A    between atoms: CG_23  and  CD_24 
REMARK   22  A    between atoms: CD_24  and  OE2_26 
REMARK   23  A    between atoms: C_27  and  OXT_29 
ROOT
HETATM    1  C   UNK A   0     -20.105  -5.318  -6.314  1.00  0.00     0.009 C 
ENDROOT
BRANCH   1   2
HETATM    2  C   UNK A   0     -21.081  -5.957  -5.335  1.00  0.00     0.000 C 
BRANCH   2   3
HETATM    3  C   UNK A   0     -21.117  -7.466  -5.549  1.00  0.00     0.000 C 
BRANCH   3   4
HETATM    4  C   UNK A   0     -19.908  -8.112  -4.896  1.00  0.00     0.000 C 
BRANCH   4   5
HETATM    5  C   UNK A   0     -20.069  -9.623  -4.857  1.00  0.00     0.000 C 
BRANCH   5   6
HETATM    6  C   UNK A   0     -19.912 -10.120  -3.431  1.00  0.00     0.000 C 
BRANCH   6   7
HETATM    7  C   UNK A   0     -20.889 -11.250  -3.163  1.00  0.00     0.000 C 
BRANCH   7   8
HETATM    8  C   UNK A   0     -22.270 -10.867  -3.662  1.00  0.00     0.000 C 
BRANCH   8   9
HETATM    9  C   UNK A   0     -23.321 -11.305  -2.659  1.00  0.00     0.000 C 
BRANCH   9  10
HETATM   10  C   UNK A   0     -22.663 -11.641  -1.332  1.00  0.00     0.000 C 
BRANCH  10  11
HETATM   11  C   UNK A   0     -23.473 -11.053  -0.190  1.00  0.00     0.000 C 
BRANCH  11  12
HETATM   12  C   UNK A   0     -23.198  -9.564  -0.070  1.00  0.00     0.000 C 
BRANCH  12  13
HETATM   13  C   UNK A   0     -21.714  -9.322   0.157  1.00  0.00     0.000 C 
BRANCH  13  14
HETATM   14  C   UNK A   0     -21.346  -7.898  -0.236  1.00  0.00    -0.000 C 
BRANCH  14  15
HETATM   15  C   UNK A   0     -21.734  -7.622  -1.683  1.00  0.00    -0.005 C 
HETATM   16  C   UNK A   0     -22.238  -6.200  -1.838  1.00  0.00     0.005 C 
ENDBRANCH  14  15
ENDBRANCH  13  14
ENDBRANCH  12  13
ENDBRANCH  11  12
ENDBRANCH  10  11
ENDBRANCH   9  10
ENDBRANCH   8   9
ENDBRANCH   7   8
ENDBRANCH   6   7
ENDBRANCH   5   6
ENDBRANCH   4   5
ENDBRANCH   3   4
ENDBRANCH   2   3
ENDBRANCH   1   2
BRANCH   1  17
HETATM   17  C   UNK A   0     -20.482  -5.595  -7.766  1.00  0.00     0.103 C 
BRANCH  17  18
HETATM   18  C   UNK A   0     -21.327  -4.449  -8.284  1.00  0.00     0.218 C 
HETATM   19  O   UNK A   0     -21.318  -3.359  -7.710  1.00  0.00    -0.274 OA
ATOM     20  N   GLU A   1     -21.987  -4.720  -9.472  1.00  0.00    -0.347 N 
ATOM     21  H   GLU A   1     -22.035  -5.685  -9.798  1.00  0.00     0.163 HD
BRANCH  20  22
ATOM     22  CA  GLU A   1     -22.804  -3.736 -10.215  1.00  0.00     0.182 C 
BRANCH  22  23
ATOM     23  CB  GLU A   1     -22.862  -4.071 -11.724  1.00  0.00     0.046 C 
BRANCH  23  24
ATOM     24  CG  GLU A   1     -22.577  -2.856 -12.609  1.00  0.00     0.112 C 
BRANCH  24  25
ATOM     25  CD  GLU A   1     -23.632  -2.585 -13.650  1.00  0.00     0.139 C 
ATOM     26  OE1 GLU A   1     -23.471  -2.577 -14.855  1.00  0.00    -0.650 OA
BRANCH  25  27
ATOM     27  OE2 GLU A   1     -24.826  -2.354 -13.037  1.00  0.00    -0.776 OA
ATOM     28  HE2 GLU A   1     -24.764  -1.863 -12.190  1.00  0.00     0.167 HD
ENDBRANCH  25  27
ENDBRANCH  24  25
ENDBRANCH  23  24
ENDBRANCH  22  23
BRANCH  22  29
ATOM     29  C   GLU A   1     -24.243  -3.654  -9.636  1.00  0.00     0.163 C 
ATOM     30  O   GLU A   1     -25.221  -3.307 -10.283  1.00  0.00    -0.648 OA
BRANCH  29  31
ATOM     31  OXT GLU A   1     -24.317  -3.891  -8.306  1.00  0.00    -0.775 OA
ATOM     32  HXT GLU A   1     -24.340  -4.833  -8.058  1.00  0.00     0.167 HD
ENDBRANCH  29  31
ENDBRANCH  22  29
ENDBRANCH  20  22
ENDBRANCH  17  18
ENDBRANCH   1  17
TORSDOF 23
ENDMDL
MODEL 2
REMARK VINA RESULT:      -6.9      1.180      2.795
REMARK  23 active torsions:
REMARK  status: ('A' for Active; 'I' for Inactive)
REMARK    1  A    between atoms: C_2  and  C_3 
REMARK    2  A    between atoms: C_3  and  C_4 
REMARK    3  A    between atoms: C_4  and  C_5 
REMARK    4  A    between atoms: C_5  and  C_6 
REMARK    5  A    between atoms: C_6  and  C_7 
REMARK    6  A    between atoms: C_7  and  C_8 
REMARK    7  A    between atoms: C_8  and  C_9 
REMARK    8  A    between atoms: C_9  and  C_10 
REMARK    9  A    between atoms: C_10  and  C_11 
REMARK   10  A    between atoms: C_11  and  C_12 
REMARK   11  A    between atoms: C_12  and  C_13 
REMARK   12  A    between atoms: C_13  and  C_14 
REMARK   13  A    between atoms: C_14  and  C_15 
REMARK   14  A    between atoms: C_15  and  C_16 
REMARK   15  A    between atoms: C_16  and  C_17 
REMARK   16  A    between atoms: C_17  and  C_18 
REMARK       I    between atoms: C_18  and  N_20 
REMARK   17  A    between atoms: N_20  and  CA_21 
REMARK   18  A    between atoms: CA_21  and  CB_22 
REMARK   19  A    between atoms: CA_21  and  C_27 
REMARK   20  A    between atoms: CB_22  and  CG_23 
REMARK   21  A    between atoms: CG_23  and  CD_24 
REMARK   22  A    between atoms: CD_24  and  OE2_26 
REMARK   23  A    between atoms: C_27  and  OXT_29 
ROOT
HETATM    1  C   UNK A   0     -20.531  -4.851  -6.985  1.00  0.00     0.009 C 
ENDROOT
BRANCH   1   2
HETATM    2  C   UNK A   0     -20.557  -6.042  -6.036  1.00  0.00     0.000 C 
BRANCH   2   3
HETATM    3  C   UNK A   0     -20.994  -5.588  -4.647  1.00  0.00     0.000 C 
BRANCH   3   4
HETATM    4  C   UNK A   0     -21.583  -6.758  -3.880  1.00  0.00     0.000 C 
BRANCH   4   5
HETATM    5  C   UNK A   0     -21.937  -6.339  -2.463  1.00  0.00     0.000 C 
BRANCH   5   6
HETATM    6  C   UNK A   0     -21.561  -7.445  -1.492  1.00  0.00     0.000 C 
BRANCH   6   7
HETATM    7  C   UNK A   0     -22.546  -7.481  -0.338  1.00  0.00     0.000 C 
BRANCH   7   8
HETATM    8  C   UNK A   0     -21.940  -8.227   0.836  1.00  0.00     0.000 C 
BRANCH   8   9
HETATM    9  C   UNK A   0     -20.840  -9.152   0.348  1.00  0.00     0.000 C 
BRANCH   9  10
HETATM   10  C   UNK A   0     -20.892 -10.465   1.108  1.00  0.00     0.000 C 
BRANCH  10  11
HETATM   11  C   UNK A   0     -21.318 -11.585   0.175  1.00  0.00     0.000 C 
BRANCH  11  12
HETATM   12  C   UNK A   0     -22.810 -11.838   0.313  1.00  0.00     0.000 C 
BRANCH  12  13
HETATM   13  C   UNK A   0     -23.558 -11.196  -0.845  1.00  0.00     0.000 C 
BRANCH  13  14
HETATM   14  C   UNK A   0     -23.037 -11.732  -2.171  1.00  0.00    -0.000 C 
BRANCH  14  15
HETATM   15  C   UNK A   0     -22.653 -10.588  -3.100  1.00  0.00    -0.005 C 
HETATM   16  C   UNK A   0     -21.162 -10.606  -3.379  1.00  0.00     0.005 C 
ENDBRANCH  14  15
ENDBRANCH  13  14
ENDBRANCH  12  13
ENDBRANCH  11  12
ENDBRANCH  10  11
ENDBRANCH   9  10
ENDBRANCH   8   9
ENDBRANCH   7   8
ENDBRANCH   6   7
ENDBRANCH   5   6
ENDBRANCH   4   5
ENDBRANCH   3   4
ENDBRANCH   2   3
ENDBRANCH   1   2
BRANCH   1  17
HETATM   17  C   UNK A   0     -20.157  -5.256  -8.408  1.00  0.00     0.103 C 
BRANCH  17  18
HETATM   18  C   UNK A   0     -20.834  -4.316  -9.384  1.00  0.00     0.218 C 
HETATM   19  O   UNK A   0     -20.161  -3.615 -10.142  1.00  0.00    -0.274 OA
ATOM     20  N   GLU A   1     -22.216  -4.412  -9.402  1.00  0.00    -0.347 N 
ATOM     21  H   GLU A   1     -22.683  -4.923  -8.652  1.00  0.00     0.163 HD
BRANCH  20  22
ATOM     22  CA  GLU A   1     -23.093  -3.659 -10.325  1.00  0.00     0.182 C 
BRANCH  22  23
ATOM     23  CB  GLU A   1     -22.974  -4.185 -11.774  1.00  0.00     0.046 C 
BRANCH  23  24
ATOM     24  CG  GLU A   1     -22.586  -3.089 -12.770  1.00  0.00     0.112 C 
BRANCH  24  25
ATOM     25  CD  GLU A   1     -23.639  -2.788 -13.804  1.00  0.00     0.139 C 
ATOM     26  OE1 GLU A   1     -24.643  -2.122 -13.638  1.00  0.00    -0.650 OA
BRANCH  25  27
ATOM     27  OE2 GLU A   1     -23.296  -3.371 -14.985  1.00  0.00    -0.776 OA
ATOM     28  HE2 GLU A   1     -22.878  -2.767 -15.636  1.00  0.00     0.167 HD
ENDBRANCH  25  27
ENDBRANCH  24  25
ENDBRANCH  23  24
ENDBRANCH  22  23
BRANCH  22  29
ATOM     29  C   GLU A   1     -24.574  -3.717  -9.861  1.00  0.00     0.163 C 
ATOM     30  O   GLU A   1     -25.259  -2.729  -9.639  1.00  0.00    -0.648 OA
BRANCH  29  31
ATOM     31  OXT GLU A   1     -25.023  -4.968  -9.605  1.00  0.00    -0.775 OA
ATOM     32  HXT GLU A   1     -25.964  -5.115  -9.813  1.00  0.00     0.167 HD
ENDBRANCH  29  31
ENDBRANCH  22  29
ENDBRANCH  20  22
ENDBRANCH  17  18
ENDBRANCH   1  17
TORSDOF 23
ENDMDL
MODEL 3
REMARK VINA RESULT:      -6.8      1.454      3.304
REMARK  23 active torsions:
REMARK  status: ('A' for Active; 'I' for Inactive)
REMARK    1  A    between atoms: C_2  and  C_3 
REMARK    2  A    between atoms: C_3  and  C_4 
REMARK    3  A    between atoms: C_4  and  C_5 
REMARK    4  A    between atoms: C_5  and  C_6 
REMARK    5  A    between atoms: C_6  and  C_7 
REMARK    6  A    between atoms: C_7  and  C_8 
REMARK    7  A    between atoms: C_8  and  C_9 
REMARK    8  A    between atoms: C_9  and  C_10 
REMARK    9  A    between atoms: C_10  and  C_11 
REMARK   10  A    between atoms: C_11  and  C_12 
REMARK   11  A    between atoms: C_12  and  C_13 
REMARK   12  A    between atoms: C_13  and  C_14 
REMARK   13  A    between atoms: C_14  and  C_15 
REMARK   14  A    between atoms: C_15  and  C_16 
REMARK   15  A    between atoms: C_16  and  C_17 
REMARK   16  A    between atoms: C_17  and  C_18 
REMARK       I    between atoms: C_18  and  N_20 
REMARK   17  A    between atoms: N_20  and  CA_21 
REMARK   18  A    between atoms: CA_21  and  CB_22 
REMARK   19  A    between atoms: CA_21  and  C_27 
REMARK   20  A    between atoms: CB_22  and  CG_23 
REMARK   21  A    between atoms: CG_23  and  CD_24 
REMARK   22  A    between atoms: CD_24  and  OE2_26 
REMARK   23  A    between atoms: C_27  and  OXT_29 
ROOT
HETATM    1  C   UNK A   0     -20.692  -6.316  -6.736  1.00  0.00     0.009 C 
ENDROOT
BRANCH   1   2
HETATM    2  C   UNK A   0     -21.379  -6.128  -5.390  1.00  0.00     0.000 C 
BRANCH   2   3
HETATM    3  C   UNK A   0     -21.434  -7.458  -4.647  1.00  0.00     0.000 C 
BRANCH   3   4
HETATM    4  C   UNK A   0     -21.058  -7.255  -3.190  1.00  0.00     0.000 C 
BRANCH   4   5
HETATM    5  C   UNK A   0     -21.945  -6.198  -2.554  1.00  0.00     0.000 C 
BRANCH   5   6
HETATM    6  C   UNK A   0     -22.366  -6.648  -1.166  1.00  0.00     0.000 C 
BRANCH   6   7
HETATM    7  C   UNK A   0     -21.502  -7.811  -0.712  1.00  0.00     0.000 C 
BRANCH   7   8
HETATM    8  C   UNK A   0     -22.198  -8.566   0.405  1.00  0.00     0.000 C 
BRANCH   8   9
HETATM    9  C   UNK A   0     -22.440 -10.004  -0.016  1.00  0.00     0.000 C 
BRANCH   9  10
HETATM   10  C   UNK A   0     -22.409 -10.112  -1.530  1.00  0.00     0.000 C 
BRANCH  10  11
HETATM   11  C   UNK A   0     -23.172 -11.347  -1.977  1.00  0.00     0.000 C 
BRANCH  11  12
HETATM   12  C   UNK A   0     -23.999 -11.892  -0.825  1.00  0.00     0.000 C 
BRANCH  12  13
HETATM   13  C   UNK A   0     -24.140 -13.401  -0.950  1.00  0.00     0.000 C 
BRANCH  13  14
HETATM   14  C   UNK A   0     -23.209 -14.099   0.031  1.00  0.00    -0.000 C 
BRANCH  14  15
HETATM   15  C   UNK A   0     -23.284 -13.443   1.404  1.00  0.00    -0.005 C 
HETATM   16  C   UNK A   0     -22.378 -14.160   2.387  1.00  0.00     0.005 C 
ENDBRANCH  14  15
ENDBRANCH  13  14
ENDBRANCH  12  13
ENDBRANCH  11  12
ENDBRANCH  10  11
ENDBRANCH   9  10
ENDBRANCH   8   9
ENDBRANCH   7   8
ENDBRANCH   6   7
ENDBRANCH   5   6
ENDBRANCH   4   5
ENDBRANCH   3   4
ENDBRANCH   2   3
ENDBRANCH   1   2
BRANCH   1  17
HETATM   17  C   UNK A   0     -20.023  -5.035  -7.226  1.00  0.00     0.103 C 
BRANCH  17  18
HETATM   18  C   UNK A   0     -21.083  -4.105  -7.781  1.00  0.00     0.218 C 
HETATM   19  O   UNK A   0     -21.384  -3.072  -7.179  1.00  0.00    -0.274 OA
ATOM     20  N   GLU A   1     -21.568  -4.472  -9.026  1.00  0.00    -0.347 N 
ATOM     21  H   GLU A   1     -21.355  -5.405  -9.380  1.00  0.00     0.163 HD
BRANCH  20  22
ATOM     22  CA  GLU A   1     -22.545  -3.683  -9.807  1.00  0.00     0.182 C 
BRANCH  22  23
ATOM     23  CB  GLU A   1     -22.395  -3.937 -11.325  1.00  0.00     0.046 C 
BRANCH  23  24
ATOM     24  CG  GLU A   1     -22.711  -2.698 -12.165  1.00  0.00     0.112 C 
BRANCH  24  25
ATOM     25  CD  GLU A   1     -23.777  -2.910 -13.208  1.00  0.00     0.139 C 
ATOM     26  OE1 GLU A   1     -24.334  -3.959 -13.467  1.00  0.00    -0.650 OA
BRANCH  25  27
ATOM     27  OE2 GLU A   1     -24.045  -1.728 -13.829  1.00  0.00    -0.776 OA
ATOM     28  HE2 GLU A   1     -24.678  -1.791 -14.576  1.00  0.00     0.167 HD
ENDBRANCH  25  27
ENDBRANCH  24  25
ENDBRANCH  23  24
ENDBRANCH  22  23
BRANCH  22  29
ATOM     29  C   GLU A   1     -23.999  -3.992  -9.360  1.00  0.00     0.163 C 
ATOM     30  O   GLU A   1     -24.941  -4.108 -10.131  1.00  0.00    -0.648 OA
BRANCH  29  31
ATOM     31  OXT GLU A   1     -24.171  -4.012  -8.017  1.00  0.00    -0.775 OA
ATOM     32  HXT GLU A   1     -25.089  -3.872  -7.720  1.00  0.00     0.167 HD
ENDBRANCH  29  31
ENDBRANCH  22  29
ENDBRANCH  20  22
ENDBRANCH  17  18
ENDBRANCH   1  17
TORSDOF 23
ENDMDL
MODEL 4
REMARK VINA RESULT:      -6.8      1.359      3.017
REMARK  23 active torsions:
REMARK  status: ('A' for Active; 'I' for Inactive)
REMARK    1  A    between atoms: C_2  and  C_3 
REMARK    2  A    between atoms: C_3  and  C_4 
REMARK    3  A    between atoms: C_4  and  C_5 
REMARK    4  A    between atoms: C_5  and  C_6 
REMARK    5  A    between atoms: C_6  and  C_7 
REMARK    6  A    between atoms: C_7  and  C_8 
REMARK    7  A    between atoms: C_8  and  C_9 
REMARK    8  A    between atoms: C_9  and  C_10 
REMARK    9  A    between atoms: C_10  and  C_11 
REMARK   10  A    between atoms: C_11  and  C_12 
REMARK   11  A    between atoms: C_12  and  C_13 
REMARK   12  A    between atoms: C_13  and  C_14 
REMARK   13  A    between atoms: C_14  and  C_15 
REMARK   14  A    between atoms: C_15  and  C_16 
REMARK   15  A    between atoms: C_16  and  C_17 
REMARK   16  A    between atoms: C_17  and  C_18 
REMARK       I    between atoms: C_18  and  N_20 
REMARK   17  A    between atoms: N_20  and  CA_21 
REMARK   18  A    between atoms: CA_21  and  CB_22 
REMARK   19  A    between atoms: CA_21  and  C_27 
REMARK   20  A    between atoms: CB_22  and  CG_23 
REMARK   21  A    between atoms: CG_23  and  CD_24 
REMARK   22  A    between atoms: CD_24  and  OE2_26 
REMARK   23  A    between atoms: C_27  and  OXT_29 
ROOT
HETATM    1  C   UNK A   0     -19.933  -4.806  -6.070  1.00  0.00     0.009 C 
ENDROOT
BRANCH   1   2
HETATM    2  C   UNK A   0     -20.252  -5.853  -5.011  1.00  0.00     0.000 C 
BRANCH   2   3
HETATM    3  C   UNK A   0     -21.568  -6.545  -5.347  1.00  0.00     0.000 C 
BRANCH   3   4
HETATM    4  C   UNK A   0     -22.287  -6.943  -4.070  1.00  0.00     0.000 C 
BRANCH   4   5
HETATM    5  C   UNK A   0     -21.429  -6.626  -2.857  1.00  0.00     0.000 C 
BRANCH   5   6
HETATM    6  C   UNK A   0     -22.319  -6.357  -1.655  1.00  0.00     0.000 C 
BRANCH   6   7
HETATM    7  C   UNK A   0     -21.884  -7.219  -0.484  1.00  0.00     0.000 C 
BRANCH   7   8
HETATM    8  C   UNK A   0     -23.079  -7.961   0.084  1.00  0.00     0.000 C 
BRANCH   8   9
HETATM    9  C   UNK A   0     -22.953  -9.444  -0.209  1.00  0.00     0.000 C 
BRANCH   9  10
HETATM   10  C   UNK A   0     -21.491  -9.851  -0.203  1.00  0.00     0.000 C 
BRANCH  10  11
HETATM   11  C   UNK A   0     -21.132 -10.512  -1.522  1.00  0.00     0.000 C 
BRANCH  11  12
HETATM   12  C   UNK A   0     -19.724 -10.119  -1.936  1.00  0.00     0.000 C 
BRANCH  12  13
HETATM   13  C   UNK A   0     -19.712  -9.669  -3.388  1.00  0.00     0.000 C 
BRANCH  13  14
HETATM   14  C   UNK A   0     -18.290  -9.350  -3.829  1.00  0.00    -0.000 C 
BRANCH  14  15
HETATM   15  C   UNK A   0     -17.285 -10.186  -3.049  1.00  0.00    -0.005 C 
HETATM   16  C   UNK A   0     -15.977  -9.435  -2.888  1.00  0.00     0.005 C 
ENDBRANCH  14  15
ENDBRANCH  13  14
ENDBRANCH  12  13
ENDBRANCH  11  12
ENDBRANCH  10  11
ENDBRANCH   9  10
ENDBRANCH   8   9
ENDBRANCH   7   8
ENDBRANCH   6   7
ENDBRANCH   5   6
ENDBRANCH   4   5
ENDBRANCH   3   4
ENDBRANCH   2   3
ENDBRANCH   1   2
BRANCH   1  17
HETATM   17  C   UNK A   0     -20.308  -5.273  -7.473  1.00  0.00     0.103 C 
BRANCH  17  18
HETATM   18  C   UNK A   0     -21.328  -4.316  -8.057  1.00  0.00     0.218 C 
HETATM   19  O   UNK A   0     -21.796  -3.408  -7.368  1.00  0.00    -0.274 OA
ATOM     20  N   GLU A   1     -21.576  -4.503  -9.407  1.00  0.00    -0.347 N 
ATOM     21  H   GLU A   1     -21.241  -5.356  -9.855  1.00  0.00     0.163 HD
BRANCH  20  22
ATOM     22  CA  GLU A   1     -22.467  -3.645 -10.218  1.00  0.00     0.182 C 
BRANCH  22  23
ATOM     23  CB  GLU A   1     -22.212  -3.833 -11.731  1.00  0.00     0.046 C 
BRANCH  23  24
ATOM     24  CG  GLU A   1     -22.585  -2.596 -12.551  1.00  0.00     0.112 C 
BRANCH  24  25
ATOM     25  CD  GLU A   1     -23.602  -2.850 -13.633  1.00  0.00     0.139 C 
ATOM     26  OE1 GLU A   1     -23.917  -2.082 -14.522  1.00  0.00    -0.650 OA
BRANCH  25  27
ATOM     27  OE2 GLU A   1     -24.125  -4.098 -13.480  1.00  0.00    -0.776 OA
ATOM     28  HE2 GLU A   1     -24.808  -4.341 -14.142  1.00  0.00     0.167 HD
ENDBRANCH  25  27
ENDBRANCH  24  25
ENDBRANCH  23  24
ENDBRANCH  22  23
BRANCH  22  29
ATOM     29  C   GLU A   1     -23.960  -3.926  -9.894  1.00  0.00     0.163 C 
ATOM     30  O   GLU A   1     -24.649  -4.738 -10.494  1.00  0.00    -0.648 OA
BRANCH  29  31
ATOM     31  OXT GLU A   1     -24.483  -3.106  -8.952  1.00  0.00    -0.775 OA
ATOM     32  HXT GLU A   1     -25.369  -2.757  -9.160  1.00  0.00     0.167 HD
ENDBRANCH  29  31
ENDBRANCH  22  29
ENDBRANCH  20  22
ENDBRANCH  17  18
ENDBRANCH   1  17
TORSDOF 23
ENDMDL
MODEL 5
REMARK VINA RESULT:      -6.3      1.691      4.202
REMARK  23 active torsions:
REMARK  status: ('A' for Active; 'I' for Inactive)
REMARK    1  A    between atoms: C_2  and  C_3 
REMARK    2  A    between atoms: C_3  and  C_4 
REMARK    3  A    between atoms: C_4  and  C_5 
REMARK    4  A    between atoms: C_5  and  C_6 
REMARK    5  A    between atoms: C_6  and  C_7 
REMARK    6  A    between atoms: C_7  and  C_8 
REMARK    7  A    between atoms: C_8  and  C_9 
REMARK    8  A    between atoms: C_9  and  C_10 
REMARK    9  A    between atoms: C_10  and  C_11 
REMARK   10  A    between atoms: C_11  and  C_12 
REMARK   11  A    between atoms: C_12  and  C_13 
REMARK   12  A    between atoms: C_13  and  C_14 
REMARK   13  A    between atoms: C_14  and  C_15 
REMARK   14  A    between atoms: C_15  and  C_16 
REMARK   15  A    between atoms: C_16  and  C_17 
REMARK   16  A    between atoms: C_17  and  C_18 
REMARK       I    between atoms: C_18  and  N_20 
REMARK   17  A    between atoms: N_20  and  CA_21 
REMARK   18  A    between atoms: CA_21  and  CB_22 
REMARK   19  A    between atoms: CA_21  and  C_27 
REMARK   20  A    between atoms: CB_22  and  CG_23 
REMARK   21  A    between atoms: CG_23  and  CD_24 
REMARK   22  A    between atoms: CD_24  and  OE2_26 
REMARK   23  A    between atoms: C_27  and  OXT_29 
ROOT
HETATM    1  C   UNK A   0     -22.130  -6.612  -3.785  1.00  0.00     0.009 C 
ENDROOT
BRANCH   1   2
HETATM    2  C   UNK A   0     -21.960  -6.535  -2.274  1.00  0.00     0.000 C 
BRANCH   2   3
HETATM    3  C   UNK A   0     -20.878  -7.511  -1.824  1.00  0.00     0.000 C 
BRANCH   3   4
HETATM    4  C   UNK A   0     -21.270  -8.148  -0.502  1.00  0.00     0.000 C 
BRANCH   4   5
HETATM    5  C   UNK A   0     -22.601  -7.596  -0.021  1.00  0.00     0.000 C 
BRANCH   5   6
HETATM    6  C   UNK A   0     -23.489  -8.735   0.452  1.00  0.00     0.000 C 
BRANCH   6   7
HETATM    7  C   UNK A   0     -22.892 -10.066   0.033  1.00  0.00     0.000 C 
BRANCH   7   8
HETATM    8  C   UNK A   0     -23.908 -10.859  -0.766  1.00  0.00     0.000 C 
BRANCH   8   9
HETATM    9  C   UNK A   0     -23.317 -11.253  -2.107  1.00  0.00     0.000 C 
BRANCH   9  10
HETATM   10  C   UNK A   0     -21.913 -11.797  -1.914  1.00  0.00     0.000 C 
BRANCH  10  11
HETATM   11  C   UNK A   0     -20.939 -11.044  -2.803  1.00  0.00     0.000 C 
BRANCH  11  12
HETATM   12  C   UNK A   0     -21.686 -10.376  -3.945  1.00  0.00     0.000 C 
BRANCH  12  13
HETATM   13  C   UNK A   0     -20.920 -10.553  -5.246  1.00  0.00     0.000 C 
BRANCH  13  14
HETATM   14  C   UNK A   0     -19.432 -10.708  -4.965  1.00  0.00    -0.000 C 
BRANCH  14  15
HETATM   15  C   UNK A   0     -18.717  -9.370  -5.098  1.00  0.00    -0.005 C 
HETATM   16  C   UNK A   0     -17.636  -9.446  -6.160  1.00  0.00     0.005 C 
ENDBRANCH  14  15
ENDBRANCH  13  14
ENDBRANCH  12  13
ENDBRANCH  11  12
ENDBRANCH  10  11
ENDBRANCH   9  10
ENDBRANCH   8   9
ENDBRANCH   7   8
ENDBRANCH   6   7
ENDBRANCH   5   6
ENDBRANCH   4   5
ENDBRANCH   3   4
ENDBRANCH   2   3
ENDBRANCH   1   2
BRANCH   1  17
HETATM   17  C   UNK A   0     -20.831  -6.314  -4.527  1.00  0.00     0.103 C 
BRANCH  17  18
HETATM   18  C   UNK A   0     -21.075  -6.429  -6.018  1.00  0.00     0.218 C 
HETATM   19  O   UNK A   0     -21.162  -7.536  -6.552  1.00  0.00    -0.274 OA
ATOM     20  N   GLU A   1     -21.288  -5.217  -6.655  1.00  0.00    -0.347 N 
ATOM     21  H   GLU A   1     -21.069  -4.354  -6.156  1.00  0.00     0.163 HD
BRANCH  20  22
ATOM     22  CA  GLU A   1     -21.629  -5.076  -8.088  1.00  0.00     0.182 C 
BRANCH  22  23
ATOM     23  CB  GLU A   1     -22.823  -4.116  -8.295  1.00  0.00     0.046 C 
BRANCH  23  24
ATOM     24  CG  GLU A   1     -23.016  -3.722  -9.761  1.00  0.00     0.112 C 
BRANCH  24  25
ATOM     25  CD  GLU A   1     -24.446  -3.765 -10.233  1.00  0.00     0.139 C 
ATOM     26  OE1 GLU A   1     -24.929  -3.102 -11.130  1.00  0.00    -0.650 OA
BRANCH  25  27
ATOM     27  OE2 GLU A   1     -25.138  -4.683  -9.504  1.00  0.00    -0.776 OA
ATOM     28  HE2 GLU A   1     -25.559  -4.329  -8.691  1.00  0.00     0.167 HD
ENDBRANCH  25  27
ENDBRANCH  24  25
ENDBRANCH  23  24
ENDBRANCH  22  23
BRANCH  22  29
ATOM     29  C   GLU A   1     -20.405  -4.582  -8.906  1.00  0.00     0.163 C 
ATOM     30  O   GLU A   1     -20.062  -5.060  -9.978  1.00  0.00    -0.648 OA
BRANCH  29  31
ATOM     31  OXT GLU A   1     -19.664  -3.640  -8.278  1.00  0.00    -0.775 OA
ATOM     32  HXT GLU A   1     -19.312  -3.908  -7.410  1.00  0.00     0.167 HD
ENDBRANCH  29  31
ENDBRANCH  22  29
ENDBRANCH  20  22
ENDBRANCH  17  18
ENDBRANCH   1  17
TORSDOF 23
ENDMDL
MODEL 6
REMARK VINA RESULT:      -6.1      1.580      3.460
REMARK  23 active torsions:
REMARK  status: ('A' for Active; 'I' for Inactive)
REMARK    1  A    between atoms: C_2  and  C_3 
REMARK    2  A    between atoms: C_3  and  C_4 
REMARK    3  A    between atoms: C_4  and  C_5 
REMARK    4  A    between atoms: C_5  and  C_6 
REMARK    5  A    between atoms: C_6  and  C_7 
REMARK    6  A    between atoms: C_7  and  C_8 
REMARK    7  A    between atoms: C_8  and  C_9 
REMARK    8  A    between atoms: C_9  and  C_10 
REMARK    9  A    between atoms: C_10  and  C_11 
REMARK   10  A    between atoms: C_11  and  C_12 
REMARK   11  A    between atoms: C_12  and  C_13 
REMARK   12  A    between atoms: C_13  and  C_14 
REMARK   13  A    between atoms: C_14  and  C_15 
REMARK   14  A    between atoms: C_15  and  C_16 
REMARK   15  A    between atoms: C_16  and  C_17 
REMARK   16  A    between atoms: C_17  and  C_18 
REMARK       I    between atoms: C_18  and  N_20 
REMARK   17  A    between atoms: N_20  and  CA_21 
REMARK   18  A    between atoms: CA_21  and  CB_22 
REMARK   19  A    between atoms: CA_21  and  C_27 
REMARK   20  A    between atoms: CB_22  and  CG_23 
REMARK   21  A    between atoms: CG_23  and  CD_24 
REMARK   22  A    between atoms: CD_24  and  OE2_26 
REMARK   23  A    between atoms: C_27  and  OXT_29 
ROOT
HETATM    1  C   UNK A   0     -21.662  -6.199  -5.967  1.00  0.00     0.009 C 
ENDROOT
BRANCH   1   2
HETATM    2  C   UNK A   0     -21.943  -7.024  -4.718  1.00  0.00     0.000 C 
BRANCH   2   3
HETATM    3  C   UNK A   0     -21.518  -6.246  -3.478  1.00  0.00     0.000 C 
BRANCH   3   4
HETATM    4  C   UNK A   0     -21.449  -7.177  -2.280  1.00  0.00     0.000 C 
BRANCH   4   5
HETATM    5  C   UNK A   0     -22.275  -6.625  -1.130  1.00  0.00     0.000 C 
BRANCH   5   6
HETATM    6  C   UNK A   0     -22.348  -7.650  -0.012  1.00  0.00     0.000 C 
BRANCH   6   7
HETATM    7  C   UNK A   0     -22.555  -9.037  -0.592  1.00  0.00     0.000 C 
BRANCH   7   8
HETATM    8  C   UNK A   0     -21.588 -10.015   0.049  1.00  0.00     0.000 C 
BRANCH   8   9
HETATM    9  C   UNK A   0     -21.833 -11.412  -0.489  1.00  0.00     0.000 C 
BRANCH   9  10
HETATM   10  C   UNK A   0     -21.000 -11.640  -1.737  1.00  0.00     0.000 C 
BRANCH  10  11
HETATM   11  C   UNK A   0     -21.908 -11.795  -2.944  1.00  0.00     0.000 C 
BRANCH  11  12
HETATM   12  C   UNK A   0     -21.889 -10.524  -3.776  1.00  0.00     0.000 C 
BRANCH  12  13
HETATM   13  C   UNK A   0     -21.191 -10.777  -5.103  1.00  0.00     0.000 C 
BRANCH  13  14
HETATM   14  C   UNK A   0     -19.681 -10.708  -4.925  1.00  0.00    -0.000 C 
BRANCH  14  15
HETATM   15  C   UNK A   0     -19.249  -9.302  -4.531  1.00  0.00    -0.005 C 
HETATM   16  C   UNK A   0     -18.512  -9.322  -3.205  1.00  0.00     0.005 C 
ENDBRANCH  14  15
ENDBRANCH  13  14
ENDBRANCH  12  13
ENDBRANCH  11  12
ENDBRANCH  10  11
ENDBRANCH   9  10
ENDBRANCH   8   9
ENDBRANCH   7   8
ENDBRANCH   6   7
ENDBRANCH   5   6
ENDBRANCH   4   5
ENDBRANCH   3   4
ENDBRANCH   2   3
ENDBRANCH   1   2
BRANCH   1  17
HETATM   17  C   UNK A   0     -22.738  -5.147  -6.218  1.00  0.00     0.103 C 
BRANCH  17  18
HETATM   18  C   UNK A   0     -22.426  -4.418  -7.509  1.00  0.00     0.218 C 
HETATM   19  O   UNK A   0     -21.290  -3.991  -7.725  1.00  0.00    -0.274 OA
ATOM     20  N   GLU A   1     -23.475  -4.386  -8.413  1.00  0.00    -0.347 N 
ATOM     21  H   GLU A   1     -24.407  -4.651  -8.093  1.00  0.00     0.163 HD
BRANCH  20  22
ATOM     22  CA  GLU A   1     -23.389  -3.807  -9.771  1.00  0.00     0.182 C 
BRANCH  22  23
ATOM     23  CB  GLU A   1     -22.906  -4.852 -10.804  1.00  0.00     0.046 C 
BRANCH  23  24
ATOM     24  CG  GLU A   1     -21.879  -4.281 -11.784  1.00  0.00     0.112 C 
BRANCH  24  25
ATOM     25  CD  GLU A   1     -20.532  -3.990 -11.174  1.00  0.00     0.139 C 
ATOM     26  OE1 GLU A   1     -19.838  -4.771 -10.552  1.00  0.00    -0.650 OA
BRANCH  25  27
ATOM     27  OE2 GLU A   1     -20.186  -2.699 -11.433  1.00  0.00    -0.776 OA
ATOM     28  HE2 GLU A   1     -19.228  -2.554 -11.588  1.00  0.00     0.167 HD
ENDBRANCH  25  27
ENDBRANCH  24  25
ENDBRANCH  23  24
ENDBRANCH  22  23
BRANCH  22  29
ATOM     29  C   GLU A   1     -24.756  -3.218 -10.215  1.00  0.00     0.163 C 
ATOM     30  O   GLU A   1     -25.119  -3.136 -11.379  1.00  0.00    -0.648 OA
BRANCH  29  31
ATOM     31  OXT GLU A   1     -25.482  -2.688  -9.203  1.00  0.00    -0.775 OA
ATOM     32  HXT GLU A   1     -25.433  -1.717  -9.130  1.00  0.00     0.167 HD
ENDBRANCH  29  31
ENDBRANCH  22  29
ENDBRANCH  20  22
ENDBRANCH  17  18
ENDBRANCH   1  17
TORSDOF 23
ENDMDL
MODEL 7
REMARK VINA RESULT:      -5.9      6.306     11.272
REMARK  23 active torsions:
REMARK  status: ('A' for Active; 'I' for Inactive)
REMARK    1  A    between atoms: C_2  and  C_3 
REMARK    2  A    between atoms: C_3  and  C_4 
REMARK    3  A    between atoms: C_4  and  C_5 
REMARK    4  A    between atoms: C_5  and  C_6 
REMARK    5  A    between atoms: C_6  and  C_7 
REMARK    6  A    between atoms: C_7  and  C_8 
REMARK    7  A    between atoms: C_8  and  C_9 
REMARK    8  A    between atoms: C_9  and  C_10 
REMARK    9  A    between atoms: C_10  and  C_11 
REMARK   10  A    between atoms: C_11  and  C_12 
REMARK   11  A    between atoms: C_12  and  C_13 
REMARK   12  A    between atoms: C_13  and  C_14 
REMARK   13  A    between atoms: C_14  and  C_15 
REMARK   14  A    between atoms: C_15  and  C_16 
REMARK   15  A    between atoms: C_16  and  C_17 
REMARK   16  A    between atoms: C_17  and  C_18 
REMARK       I    between atoms: C_18  and  N_20 
REMARK   17  A    between atoms: N_20  and  CA_21 
REMARK   18  A    between atoms: CA_21  and  CB_22 
REMARK   19  A    between atoms: CA_21  and  C_27 
REMARK   20  A    between atoms: CB_22  and  CG_23 
REMARK   21  A    between atoms: CG_23  and  CD_24 
REMARK   22  A    between atoms: CD_24  and  OE2_26 
REMARK   23  A    between atoms: C_27  and  OXT_29 
ROOT
HETATM    1  C   UNK A   0     -22.555  -8.295  -0.206  1.00  0.00     0.009 C 
ENDROOT
BRANCH   1   2
HETATM    2  C   UNK A   0     -22.407  -7.068  -1.096  1.00  0.00     0.000 C 
BRANCH   2   3
HETATM    3  C   UNK A   0     -21.196  -7.232  -2.008  1.00  0.00     0.000 C 
BRANCH   3   4
HETATM    4  C   UNK A   0     -21.280  -6.252  -3.164  1.00  0.00     0.000 C 
BRANCH   4   5
HETATM    5  C   UNK A   0     -21.576  -6.986  -4.462  1.00  0.00     0.000 C 
BRANCH   5   6
HETATM    6  C   UNK A   0     -20.503  -6.666  -5.488  1.00  0.00     0.000 C 
BRANCH   6   7
HETATM    7  C   UNK A   0     -21.106  -5.890  -6.645  1.00  0.00     0.000 C 
BRANCH   7   8
HETATM    8  C   UNK A   0     -20.788  -4.414  -6.498  1.00  0.00     0.000 C 
BRANCH   8   9
HETATM    9  C   UNK A   0     -21.602  -3.608  -7.494  1.00  0.00     0.000 C 
BRANCH   9  10
HETATM   10  C   UNK A   0     -22.748  -4.449  -8.027  1.00  0.00     0.000 C 
BRANCH  10  11
HETATM   11  C   UNK A   0     -23.607  -3.619  -8.964  1.00  0.00     0.000 C 
BRANCH  11  12
HETATM   12  C   UNK A   0     -24.081  -4.471 -10.129  1.00  0.00     0.000 C 
BRANCH  12  13
HETATM   13  C   UNK A   0     -22.988  -4.573 -11.181  1.00  0.00     0.000 C 
BRANCH  13  14
HETATM   14  C   UNK A   0     -22.500  -3.185 -11.571  1.00  0.00    -0.000 C 
BRANCH  14  15
HETATM   15  C   UNK A   0     -20.992  -3.073 -11.390  1.00  0.00    -0.005 C 
HETATM   16  C   UNK A   0     -20.411  -4.398 -10.932  1.00  0.00     0.005 C 
ENDBRANCH  14  15
ENDBRANCH  13  14
ENDBRANCH  12  13
ENDBRANCH  11  12
ENDBRANCH  10  11
ENDBRANCH   9  10
ENDBRANCH   8   9
ENDBRANCH   7   8
ENDBRANCH   6   7
ENDBRANCH   5   6
ENDBRANCH   4   5
ENDBRANCH   3   4
ENDBRANCH   2   3
ENDBRANCH   1   2
BRANCH   1  17
HETATM   17  C   UNK A   0     -21.779  -8.158   1.100  1.00  0.00     0.103 C 
BRANCH  17  18
HETATM   18  C   UNK A   0     -20.943  -9.404   1.312  1.00  0.00     0.218 C 
HETATM   19  O   UNK A   0     -20.298  -9.552   2.351  1.00  0.00    -0.274 OA
ATOM     20  N   GLU A   1     -21.070 -10.352   0.309  1.00  0.00    -0.347 N 
ATOM     21  H   GLU A   1     -21.522 -10.084  -0.565  1.00  0.00     0.163 HD
BRANCH  20  22
ATOM     22  CA  GLU A   1     -20.421 -11.681   0.331  1.00  0.00     0.182 C 
BRANCH  22  23
ATOM     23  CB  GLU A   1     -21.196 -12.704  -0.531  1.00  0.00     0.046 C 
BRANCH  23  24
ATOM     24  CG  GLU A   1     -22.447 -13.239   0.169  1.00  0.00     0.112 C 
BRANCH  24  25
ATOM     25  CD  GLU A   1     -23.744 -12.843  -0.487  1.00  0.00     0.139 C 
ATOM     26  OE1 GLU A   1     -24.487 -13.573  -1.115  1.00  0.00    -0.650 OA
BRANCH  25  27
ATOM     27  OE2 GLU A   1     -23.981 -11.521  -0.263  1.00  0.00    -0.776 OA
ATOM     28  HE2 GLU A   1     -23.208 -10.935  -0.409  1.00  0.00     0.167 HD
ENDBRANCH  25  27
ENDBRANCH  24  25
ENDBRANCH  23  24
ENDBRANCH  22  23
BRANCH  22  29
ATOM     29  C   GLU A   1     -18.947 -11.591  -0.150  1.00  0.00     0.163 C 
ATOM     30  O   GLU A   1     -18.618 -11.454  -1.320  1.00  0.00    -0.648 OA
BRANCH  29  31
ATOM     31  OXT GLU A   1     -18.034 -11.795   0.827  1.00  0.00    -0.775 OA
ATOM     32  HXT GLU A   1     -17.860 -12.731   1.036  1.00  0.00     0.167 HD
ENDBRANCH  29  31
ENDBRANCH  22  29
ENDBRANCH  20  22
ENDBRANCH  17  18
ENDBRANCH   1  17
TORSDOF 23
ENDMDL
MODEL 8
REMARK VINA RESULT:      -5.9      4.974      9.162
REMARK  23 active torsions:
REMARK  status: ('A' for Active; 'I' for Inactive)
REMARK    1  A    between atoms: C_2  and  C_3 
REMARK    2  A    between atoms: C_3  and  C_4 
REMARK    3  A    between atoms: C_4  and  C_5 
REMARK    4  A    between atoms: C_5  and  C_6 
REMARK    5  A    between atoms: C_6  and  C_7 
REMARK    6  A    between atoms: C_7  and  C_8 
REMARK    7  A    between atoms: C_8  and  C_9 
REMARK    8  A    between atoms: C_9  and  C_10 
REMARK    9  A    between atoms: C_10  and  C_11 
REMARK   10  A    between atoms: C_11  and  C_12 
REMARK   11  A    between atoms: C_12  and  C_13 
REMARK   12  A    between atoms: C_13  and  C_14 
REMARK   13  A    between atoms: C_14  and  C_15 
REMARK   14  A    between atoms: C_15  and  C_16 
REMARK   15  A    between atoms: C_16  and  C_17 
REMARK   16  A    between atoms: C_17  and  C_18 
REMARK       I    between atoms: C_18  and  N_20 
REMARK   17  A    between atoms: N_20  and  CA_21 
REMARK   18  A    between atoms: CA_21  and  CB_22 
REMARK   19  A    between atoms: CA_21  and  C_27 
REMARK   20  A    between atoms: CB_22  and  CG_23 
REMARK   21  A    between atoms: CG_23  and  CD_24 
REMARK   22  A    between atoms: CD_24  and  OE2_26 
REMARK   23  A    between atoms: C_27  and  OXT_29 
ROOT
HETATM    1  C   UNK A   0     -22.614 -11.240  -1.277  1.00  0.00     0.009 C 
ENDROOT
BRANCH   1   2
HETATM    2  C   UNK A   0     -23.660 -10.673  -0.326  1.00  0.00     0.000 C 
BRANCH   2   3
HETATM    3  C   UNK A   0     -23.309  -9.233   0.030  1.00  0.00     0.000 C 
BRANCH   3   4
HETATM    4  C   UNK A   0     -21.809  -9.094   0.215  1.00  0.00     0.000 C 
BRANCH   4   5
HETATM    5  C   UNK A   0     -21.260  -8.003  -0.689  1.00  0.00     0.000 C 
BRANCH   5   6
HETATM    6  C   UNK A   0     -22.257  -6.860  -0.777  1.00  0.00     0.000 C 
BRANCH   6   7
HETATM    7  C   UNK A   0     -22.405  -6.409  -2.219  1.00  0.00     0.000 C 
BRANCH   7   8
HETATM    8  C   UNK A   0     -21.211  -6.876  -3.031  1.00  0.00     0.000 C 
BRANCH   8   9
HETATM    9  C   UNK A   0     -21.656  -7.258  -4.431  1.00  0.00     0.000 C 
BRANCH   9  10
HETATM   10  C   UNK A   0     -21.751  -6.018  -5.301  1.00  0.00     0.000 C 
BRANCH  10  11
HETATM   11  C   UNK A   0     -20.360  -5.482  -5.592  1.00  0.00     0.000 C 
BRANCH  11  12
HETATM   12  C   UNK A   0     -20.418  -4.470  -6.723  1.00  0.00     0.000 C 
BRANCH  12  13
HETATM   13  C   UNK A   0     -21.847  -4.325  -7.223  1.00  0.00     0.000 C 
BRANCH  13  14
HETATM   14  C   UNK A   0     -21.930  -4.695  -8.696  1.00  0.00    -0.000 C 
BRANCH  14  15
HETATM   15  C   UNK A   0     -20.555  -4.625  -9.347  1.00  0.00    -0.005 C 
HETATM   16  C   UNK A   0     -20.581  -3.701 -10.551  1.00  0.00     0.005 C 
ENDBRANCH  14  15
ENDBRANCH  13  14
ENDBRANCH  12  13
ENDBRANCH  11  12
ENDBRANCH  10  11
ENDBRANCH   9  10
ENDBRANCH   8   9
ENDBRANCH   7   8
ENDBRANCH   6   7
ENDBRANCH   5   6
ENDBRANCH   4   5
ENDBRANCH   3   4
ENDBRANCH   2   3
ENDBRANCH   1   2
BRANCH   1  17
HETATM   17  C   UNK A   0     -22.875 -10.842  -2.726  1.00  0.00     0.103 C 
BRANCH  17  18
HETATM   18  C   UNK A   0     -21.573 -10.901  -3.498  1.00  0.00     0.218 C 
HETATM   19  O   UNK A   0     -21.580 -10.945  -4.729  1.00  0.00    -0.274 OA
ATOM     20  N   GLU A   1     -20.438 -10.795  -2.710  1.00  0.00    -0.347 N 
ATOM     21  H   GLU A   1     -20.532 -10.892  -1.698  1.00  0.00     0.163 HD
BRANCH  20  22
ATOM     22  CA  GLU A   1     -19.058 -10.743  -3.237  1.00  0.00     0.182 C 
BRANCH  22  23
ATOM     23  CB  GLU A   1     -18.714  -9.341  -3.790  1.00  0.00     0.046 C 
BRANCH  23  24
ATOM     24  CG  GLU A   1     -18.551  -9.330  -5.312  1.00  0.00     0.112 C 
BRANCH  24  25
ATOM     25  CD  GLU A   1     -17.446 -10.217  -5.825  1.00  0.00     0.139 C 
ATOM     26  OE1 GLU A   1     -17.569 -11.149  -6.596  1.00  0.00    -0.650 OA
BRANCH  25  27
ATOM     27  OE2 GLU A   1     -16.258  -9.810  -5.301  1.00  0.00    -0.776 OA
ATOM     28  HE2 GLU A   1     -15.500 -10.404  -5.491  1.00  0.00     0.167 HD
ENDBRANCH  25  27
ENDBRANCH  24  25
ENDBRANCH  23  24
ENDBRANCH  22  23
BRANCH  22  29
ATOM     29  C   GLU A   1     -18.028 -11.150  -2.148  1.00  0.00     0.163 C 
ATOM     30  O   GLU A   1     -18.335 -11.547  -1.032  1.00  0.00    -0.648 OA
BRANCH  29  31
ATOM     31  OXT GLU A   1     -16.740 -10.920  -2.492  1.00  0.00    -0.775 OA
ATOM     32  HXT GLU A   1     -16.454 -11.353  -3.318  1.00  0.00     0.167 HD
ENDBRANCH  29  31
ENDBRANCH  22  29
ENDBRANCH  20  22
ENDBRANCH  17  18
ENDBRANCH   1  17
TORSDOF 23
ENDMDL
MODEL 9
REMARK VINA RESULT:      -5.9      4.723      9.900
REMARK  23 active torsions:
REMARK  status: ('A' for Active; 'I' for Inactive)
REMARK    1  A    between atoms: C_2  and  C_3 
REMARK    2  A    between atoms: C_3  and  C_4 
REMARK    3  A    between atoms: C_4  and  C_5 
REMARK    4  A    between atoms: C_5  and  C_6 
REMARK    5  A    between atoms: C_6  and  C_7 
REMARK    6  A    between atoms: C_7  and  C_8 
REMARK    7  A    between atoms: C_8  and  C_9 
REMARK    8  A    between atoms: C_9  and  C_10 
REMARK    9  A    between atoms: C_10  and  C_11 
REMARK   10  A    between atoms: C_11  and  C_12 
REMARK   11  A    between atoms: C_12  and  C_13 
REMARK   12  A    between atoms: C_13  and  C_14 
REMARK   13  A    between atoms: C_14  and  C_15 
REMARK   14  A    between atoms: C_15  and  C_16 
REMARK   15  A    between atoms: C_16  and  C_17 
REMARK   16  A    between atoms: C_17  and  C_18 
REMARK       I    between atoms: C_18  and  N_20 
REMARK   17  A    between atoms: N_20  and  CA_21 
REMARK   18  A    between atoms: CA_21  and  CB_22 
REMARK   19  A    between atoms: CA_21  and  C_27 
REMARK   20  A    between atoms: CB_22  and  CG_23 
REMARK   21  A    between atoms: CG_23  and  CD_24 
REMARK   22  A    between atoms: CD_24  and  OE2_26 
REMARK   23  A    between atoms: C_27  and  OXT_29 
ROOT
HETATM    1  C   UNK A   0     -21.525  -9.433  -0.209  1.00  0.00     0.009 C 
ENDROOT
BRANCH   1   2
HETATM    2  C   UNK A   0     -21.074  -8.111  -0.815  1.00  0.00     0.000 C 
BRANCH   2   3
HETATM    3  C   UNK A   0     -22.178  -7.070  -0.668  1.00  0.00     0.000 C 
BRANCH   3   4
HETATM    4  C   UNK A   0     -22.355  -6.312  -1.971  1.00  0.00     0.000 C 
BRANCH   4   5
HETATM    5  C   UNK A   0     -21.319  -6.758  -2.990  1.00  0.00     0.000 C 
BRANCH   5   6
HETATM    6  C   UNK A   0     -21.924  -6.729  -4.383  1.00  0.00     0.000 C 
BRANCH   6   7
HETATM    7  C   UNK A   0     -20.838  -6.489  -5.416  1.00  0.00     0.000 C 
BRANCH   7   8
HETATM    8  C   UNK A   0     -20.368  -5.049  -5.347  1.00  0.00     0.000 C 
BRANCH   8   9
HETATM    9  C   UNK A   0     -20.032  -4.547  -6.739  1.00  0.00     0.000 C 
BRANCH   9  10
HETATM   10  C   UNK A   0     -21.260  -3.921  -7.375  1.00  0.00     0.000 C 
BRANCH  10  11
HETATM   11  C   UNK A   0     -21.538  -4.574  -8.717  1.00  0.00     0.000 C 
BRANCH  11  12
HETATM   12  C   UNK A   0     -20.272  -4.600  -9.556  1.00  0.00     0.000 C 
BRANCH  12  13
HETATM   13  C   UNK A   0     -20.532  -3.975 -10.917  1.00  0.00     0.000 C 
BRANCH  13  14
HETATM   14  C   UNK A   0     -22.027  -3.943 -11.205  1.00  0.00    -0.000 C 
BRANCH  14  15
HETATM   15  C   UNK A   0     -22.400  -2.679 -11.969  1.00  0.00    -0.005 C 
HETATM   16  C   UNK A   0     -23.718  -2.866 -12.696  1.00  0.00     0.005 C 
ENDBRANCH  14  15
ENDBRANCH  13  14
ENDBRANCH  12  13
ENDBRANCH  11  12
ENDBRANCH  10  11
ENDBRANCH   9  10
ENDBRANCH   8   9
ENDBRANCH   7   8
ENDBRANCH   6   7
ENDBRANCH   5   6
ENDBRANCH   4   5
ENDBRANCH   3   4
ENDBRANCH   2   3
ENDBRANCH   1   2
BRANCH   1  17
HETATM   17  C   UNK A   0     -22.985  -9.744  -0.527  1.00  0.00     0.103 C 
BRANCH  17  18
HETATM   18  C   UNK A   0     -23.049 -10.984  -1.395  1.00  0.00     0.218 C 
HETATM   19  O   UNK A   0     -23.650 -11.987  -1.005  1.00  0.00    -0.274 OA
ATOM     20  N   GLU A   1     -22.482 -10.832  -2.649  1.00  0.00    -0.347 N 
ATOM     21  H   GLU A   1     -21.900 -10.013  -2.829  1.00  0.00     0.163 HD
BRANCH  20  22
ATOM     22  CA  GLU A   1     -22.495 -11.870  -3.703  1.00  0.00     0.182 C 
BRANCH  22  23
ATOM     23  CB  GLU A   1     -21.772 -11.388  -4.982  1.00  0.00     0.046 C 
BRANCH  23  24
ATOM     24  CG  GLU A   1     -20.850 -10.194  -4.725  1.00  0.00     0.112 C 
BRANCH  24  25
ATOM     25  CD  GLU A   1     -19.404 -10.440  -5.069  1.00  0.00     0.139 C 
ATOM     26  OE1 GLU A   1     -18.808 -10.001  -6.034  1.00  0.00    -0.650 OA
BRANCH  25  27
ATOM     27  OE2 GLU A   1     -18.840 -11.234  -4.118  1.00  0.00    -0.776 OA
ATOM     28  HE2 GLU A   1     -19.021 -10.959  -3.194  1.00  0.00     0.167 HD
ENDBRANCH  25  27
ENDBRANCH  24  25
ENDBRANCH  23  24
ENDBRANCH  22  23
BRANCH  22  29
ATOM     29  C   GLU A   1     -21.850 -13.188  -3.195  1.00  0.00     0.163 C 
ATOM     30  O   GLU A   1     -20.644 -13.367  -3.101  1.00  0.00    -0.648 OA
BRANCH  29  31
ATOM     31  OXT GLU A   1     -22.738 -14.184  -2.968  1.00  0.00    -0.775 OA
ATOM     32  HXT GLU A   1     -22.838 -14.818  -3.701  1.00  0.00     0.167 HD
ENDBRANCH  29  31
ENDBRANCH  22  29
ENDBRANCH  20  22
ENDBRANCH  17  18
ENDBRANCH   1  17
TORSDOF 23
ENDMDL
