MODEL 1
REMARK VINA RESULT:      -8.1      0.000      0.000
REMARK  23 active torsions:
REMARK  status: ('A' for Active; 'I' for Inactive)
REMARK    1  A    between atoms: C_2  and  C_3 
REMARK    2  A    between atoms: C_3  and  C_4 
REMARK    3  A    between atoms: C_4  and  C_5 
REMARK    4  A    between atoms: C_5  and  C_6 
REMARK    5  A    between atoms: C_6  and  C_7 
REMARK    6  A    between atoms: C_7  and  C_8 
REMARK    7  A    between atoms: C_8  and  C_9 
REMARK    8  A    between atoms: C_9  and  C_10 
REMARK    9  A    between atoms: C_10  and  C_11 
REMARK   10  A    between atoms: C_11  and  C_12 
REMARK   11  A    between atoms: C_12  and  C_13 
REMARK   12  A    between atoms: C_13  and  C_14 
REMARK   13  A    between atoms: C_14  and  C_15 
REMARK   14  A    between atoms: C_15  and  C_16 
REMARK   15  A    between atoms: C_16  and  C_17 
REMARK   16  A    between atoms: C_17  and  C_18 
REMARK   17  A    between atoms: C_18  and  O_19 
REMARK   18  A    between atoms: O_19  and  C_20 
REMARK   19  A    between atoms: C_20  and  C_22 
REMARK   20  A    between atoms: C_31  and  O_32 
REMARK   21  A    between atoms: C_34  and  C_39 
REMARK   22  A    between atoms: C_36  and  C_37 
REMARK   23  A    between atoms: C_42  and  O_46 
ROOT
HETATM    1  C   UNL     1     -21.096  -6.590  -5.017  1.00  0.00     0.045 C 
HETATM    2  C   UNL     1     -20.461  -7.918  -5.247  1.00  0.00     0.020 C 
HETATM    3  C   UNL     1     -21.673  -8.805  -5.259  1.00  0.00     0.011 C 
HETATM    4  C   UNL     1     -21.086  -9.626  -4.266  1.00  0.00    -0.036 C 
HETATM    5  C   UNL     1     -21.956 -10.864  -4.097  1.00  0.00     0.011 C 
HETATM    6  C   UNL     1     -21.301 -11.360  -2.913  1.00  0.00     0.015 C 
HETATM    7  C   UNL     1     -21.961 -10.453  -1.915  1.00  0.00    -0.012 C 
HETATM    8  C   UNL     1     -22.035  -8.811  -1.840  1.00  0.00    -0.064 C 
HETATM    9  C   UNL     1     -22.101  -8.254  -0.582  1.00  0.00     0.036 C 
HETATM   10  C   UNL     1     -21.604  -9.439   0.512  1.00  0.00     0.048 C 
HETATM   11  C   UNL     1     -21.652 -11.089  -0.124  1.00  0.00     0.049 A 
HETATM   12  C   UNL     1     -20.739 -10.656  -1.048  1.00  0.00    -0.023 A 
HETATM   13  C   UNL     1     -20.280 -11.475   0.134  1.00  0.00     0.022 A 
HETATM   14  C   UNL     1     -19.593  -9.722  -1.340  1.00  0.00     0.017 C 
HETATM   15  C   UNL     1     -21.165  -8.082  -3.016  1.00  0.00     0.025 C 
HETATM   16  C   UNL     1     -20.459  -6.453  -3.648  1.00  0.00     0.029 C 
HETATM   17  C   UNL     1     -23.397 -11.320  -1.913  1.00  0.00     0.021 C 
HETATM   18  C   UNL     1     -20.066 -10.552  -5.395  1.00  0.00     0.016 C 
HETATM   19  C   UNL     1     -22.698  -6.524  -4.772  1.00  0.00     0.026 C 
ENDROOT
BRANCH   1  20
HETATM   20  C   UNL     1     -20.773  -5.840  -6.271  1.00  0.00     0.267 C 
HETATM   21  O   UNL     1     -20.074  -6.318  -7.163  1.00  0.00    -0.264 OA
BRANCH  20  22
HETATM   22  O   UNL     1     -21.207  -4.571  -6.177  1.00  0.00    -0.321 OA
BRANCH  22  23
HETATM   23  C   UNL     1     -21.278  -3.882  -7.418  1.00  0.00     0.178 C 
BRANCH  23  24
HETATM   24  C   UNL     1     -22.647  -4.064  -8.052  1.00  0.00     0.027 C 
BRANCH  24  25
HETATM   25  C   UNL     1     -22.485  -4.092  -9.559  1.00  0.00     0.002 C 
BRANCH  25  26
HETATM   26  C   UNL     1     -21.063  -4.455  -9.940  1.00  0.00     0.000 C 
BRANCH  26  27
HETATM   27  C   UNL     1     -20.753  -3.929 -11.329  1.00  0.00     0.000 C 
BRANCH  27  28
HETATM   28  C   UNL     1     -21.678  -2.774 -11.663  1.00  0.00     0.000 C 
BRANCH  28  29
HETATM   29  C   UNL     1     -22.282  -2.977 -13.039  1.00  0.00     0.000 C 
BRANCH  29  30
HETATM   30  C   UNL     1     -23.733  -2.538 -13.036  1.00  0.00     0.000 C 
BRANCH  30  31
HETATM   31  C   UNL     1     -24.622  -3.697 -12.628  1.00  0.00     0.000 C 
BRANCH  31  32
HETATM   32  C   UNL     1     -24.188  -4.958 -13.351  1.00  0.00     0.000 C 
BRANCH  32  33
HETATM   33  C   UNL     1     -24.940  -5.085 -14.661  1.00  0.00     0.000 C 
BRANCH  33  34
HETATM   34  C   UNL     1     -24.961  -6.535 -15.106  1.00  0.00     0.000 C 
BRANCH  34  35
HETATM   35  C   UNL     1     -25.903  -6.700 -16.283  1.00  0.00     0.000 C 
BRANCH  35  36
HETATM   36  C   UNL     1     -27.324  -6.878 -15.785  1.00  0.00     0.000 C 
BRANCH  36  37
HETATM   37  C   UNL     1     -28.306  -6.450 -16.861  1.00  0.00     0.000 C 
BRANCH  37  38
HETATM   38  C   UNL     1     -29.265  -7.586 -17.170  1.00  0.00    -0.000 C 
BRANCH  38  39
HETATM   39  C   UNL     1     -30.651  -7.037 -17.467  1.00  0.00    -0.005 C 
HETATM   40  C   UNL     1     -30.779  -5.626 -16.932  1.00  0.00     0.005 C 
ENDBRANCH  38  39
ENDBRANCH  37  38
ENDBRANCH  36  37
ENDBRANCH  35  36
ENDBRANCH  34  35
ENDBRANCH  33  34
ENDBRANCH  32  33
ENDBRANCH  31  32
ENDBRANCH  30  31
ENDBRANCH  29  30
ENDBRANCH  28  29
ENDBRANCH  27  28
ENDBRANCH  26  27
ENDBRANCH  25  26
ENDBRANCH  24  25
ENDBRANCH  23  24
ENDBRANCH  22  23
ENDBRANCH  20  22
ENDBRANCH   1  20
BRANCH  10  41
HETATM   41  O   UNL     1     -20.899  -8.821   1.507  1.00  0.00    -0.365 OA
ATOM     42  HO  UNL     1     -20.506  -8.038   1.141  1.00  0.00     0.217 HD
ENDBRANCH  10  41
BRANCH  11  43
HETATM   43  C   UNL     1     -21.201 -13.093   0.029  1.00  0.00    -0.036 A 
HETATM   44  C   UNL     1     -21.854 -13.628   1.429  1.00  0.00     0.005 A 
HETATM   45  C   UNL     1     -22.399 -12.453   0.983  1.00  0.00     0.016 A 
HETATM   46  C   UNL     1     -22.875 -14.748   1.624  1.00  0.00    -0.017 C 
HETATM   47  C   UNL     1     -23.503 -15.136   0.284  1.00  0.00     0.126 C 
HETATM   48  C   UNL     1     -22.246 -15.980   2.336  1.00  0.00     0.018 C 
HETATM   49  C   UNL     1     -23.934 -14.173   2.578  1.00  0.00     0.018 C 
HETATM   50  C   UNL     1     -22.452 -15.581  -0.711  1.00  0.00     0.033 C 
HETATM   51  C   UNL     1     -21.579 -14.355  -1.130  1.00  0.00     0.012 C 
HETATM   52  C   UNL     1     -19.847 -14.369   0.648  1.00  0.00     0.015 C 
BRANCH  47  53
HETATM   53  O   UNL     1     -24.490 -16.140   0.464  1.00  0.00    -0.395 OA
HETATM   54  H   UNL     1     -24.936 -16.274  -0.386  1.00  0.00     0.210 HD
ENDBRANCH  47  53
ENDBRANCH  11  43
TORSDOF 23
ENDMDL
MODEL 2
REMARK VINA RESULT:      -7.8      7.173     11.268
REMARK  23 active torsions:
REMARK  status: ('A' for Active; 'I' for Inactive)
REMARK    1  A    between atoms: C_2  and  C_3 
REMARK    2  A    between atoms: C_3  and  C_4 
REMARK    3  A    between atoms: C_4  and  C_5 
REMARK    4  A    between atoms: C_5  and  C_6 
REMARK    5  A    between atoms: C_6  and  C_7 
REMARK    6  A    between atoms: C_7  and  C_8 
REMARK    7  A    between atoms: C_8  and  C_9 
REMARK    8  A    between atoms: C_9  and  C_10 
REMARK    9  A    between atoms: C_10  and  C_11 
REMARK   10  A    between atoms: C_11  and  C_12 
REMARK   11  A    between atoms: C_12  and  C_13 
REMARK   12  A    between atoms: C_13  and  C_14 
REMARK   13  A    between atoms: C_14  and  C_15 
REMARK   14  A    between atoms: C_15  and  C_16 
REMARK   15  A    between atoms: C_16  and  C_17 
REMARK   16  A    between atoms: C_17  and  C_18 
REMARK   17  A    between atoms: C_18  and  O_19 
REMARK   18  A    between atoms: O_19  and  C_20 
REMARK   19  A    between atoms: C_20  and  C_22 
REMARK   20  A    between atoms: C_31  and  O_32 
REMARK   21  A    between atoms: C_34  and  C_39 
REMARK   22  A    between atoms: C_36  and  C_37 
REMARK   23  A    between atoms: C_42  and  O_46 
ROOT
HETATM    1  C   UNL     1     -22.740 -15.490   1.701  1.00  0.00     0.045 C 
HETATM    2  C   UNL     1     -22.977 -14.536   0.581  1.00  0.00     0.020 C 
HETATM    3  C   UNL     1     -22.361 -15.294  -0.561  1.00  0.00     0.011 C 
HETATM    4  C   UNL     1     -21.559 -14.171  -0.877  1.00  0.00    -0.036 C 
HETATM    5  C   UNL     1     -20.856 -14.446  -2.200  1.00  0.00     0.011 C 
HETATM    6  C   UNL     1     -19.961 -13.317  -2.144  1.00  0.00     0.015 C 
HETATM    7  C   UNL     1     -18.951 -13.898  -1.199  1.00  0.00    -0.012 C 
HETATM    8  C   UNL     1     -19.128 -14.519   0.315  1.00  0.00    -0.064 C 
HETATM    9  C   UNL     1     -18.059 -14.372   1.170  1.00  0.00     0.036 C 
HETATM   10  C   UNL     1     -17.068 -13.167   0.524  1.00  0.00     0.048 C 
HETATM   11  C   UNL     1     -17.348 -12.832  -1.190  1.00  0.00     0.049 A 
HETATM   12  C   UNL     1     -18.616 -12.475  -0.814  1.00  0.00    -0.023 A 
HETATM   13  C   UNL     1     -17.592 -11.406  -1.108  1.00  0.00     0.022 A 
HETATM   14  C   UNL     1     -19.488 -11.890   0.267  1.00  0.00     0.017 C 
HETATM   15  C   UNL     1     -20.655 -14.386   0.881  1.00  0.00     0.025 C 
HETATM   16  C   UNL     1     -21.777 -14.541   2.387  1.00  0.00     0.029 C 
HETATM   17  C   UNL     1     -18.238 -14.856  -2.377  1.00  0.00     0.021 C 
HETATM   18  C   UNL     1     -22.826 -13.307  -1.782  1.00  0.00     0.016 C 
HETATM   19  C   UNL     1     -21.897 -16.845   1.407  1.00  0.00     0.026 C 
ENDROOT
BRANCH   1  20
HETATM   20  C   UNL     1     -24.125 -15.870   2.118  1.00  0.00     0.267 C 
HETATM   21  O   UNL     1     -24.695 -15.341   3.072  1.00  0.00    -0.264 OA
BRANCH  20  22
HETATM   22  O   UNL     1     -24.540 -16.944   1.424  1.00  0.00    -0.321 OA
BRANCH  22  23
HETATM   23  C   UNL     1     -25.878 -16.856   0.952  1.00  0.00     0.178 C 
BRANCH  23  24
HETATM   24  C   UNL     1     -25.917 -16.211  -0.424  1.00  0.00     0.027 C 
BRANCH  24  25
HETATM   25  C   UNL     1     -25.217 -17.126  -1.410  1.00  0.00     0.002 C 
BRANCH  25  26
HETATM   26  C   UNL     1     -25.406 -16.629  -2.829  1.00  0.00     0.000 C 
BRANCH  26  27
HETATM   27  C   UNL     1     -24.054 -16.346  -3.458  1.00  0.00     0.000 C 
BRANCH  27  28
HETATM   28  C   UNL     1     -24.227 -15.473  -4.686  1.00  0.00     0.000 C 
BRANCH  28  29
HETATM   29  C   UNL     1     -22.875 -14.990  -5.173  1.00  0.00     0.000 C 
BRANCH  29  30
HETATM   30  C   UNL     1     -22.891 -13.481  -5.332  1.00  0.00     0.000 C 
BRANCH  30  31
HETATM   31  C   UNL     1     -21.689 -13.034  -6.142  1.00  0.00     0.000 C 
BRANCH  31  32
HETATM   32  C   UNL     1     -21.410 -11.567  -5.881  1.00  0.00     0.000 C 
BRANCH  32  33
HETATM   33  C   UNL     1     -21.857 -11.199  -4.479  1.00  0.00     0.000 C 
BRANCH  33  34
HETATM   34  C   UNL     1     -21.289  -9.846  -4.095  1.00  0.00     0.000 C 
BRANCH  34  35
HETATM   35  C   UNL     1     -20.681  -9.916  -2.708  1.00  0.00     0.000 C 
BRANCH  35  36
HETATM   36  C   UNL     1     -20.185  -8.545  -2.291  1.00  0.00     0.000 C 
BRANCH  36  37
HETATM   37  C   UNL     1     -21.268  -7.818  -1.516  1.00  0.00     0.000 C 
BRANCH  37  38
HETATM   38  C   UNL     1     -21.373  -8.388  -0.112  1.00  0.00    -0.000 C 
BRANCH  38  39
HETATM   39  C   UNL     1     -22.832  -8.577   0.270  1.00  0.00    -0.005 C 
HETATM   40  C   UNL     1     -23.327  -9.925  -0.210  1.00  0.00     0.005 C 
ENDBRANCH  38  39
ENDBRANCH  37  38
ENDBRANCH  36  37
ENDBRANCH  35  36
ENDBRANCH  34  35
ENDBRANCH  33  34
ENDBRANCH  32  33
ENDBRANCH  31  32
ENDBRANCH  30  31
ENDBRANCH  29  30
ENDBRANCH  28  29
ENDBRANCH  27  28
ENDBRANCH  26  27
ENDBRANCH  25  26
ENDBRANCH  24  25
ENDBRANCH  23  24
ENDBRANCH  22  23
ENDBRANCH  20  22
ENDBRANCH   1  20
BRANCH  10  41
HETATM   41  O   UNL     1     -16.551 -12.447   1.565  1.00  0.00    -0.365 OA
ATOM     42  HO  UNL     1     -16.273 -11.605   1.226  1.00  0.00     0.217 HD
ENDBRANCH  10  41
BRANCH  11  43
HETATM   43  C   UNL     1     -17.054 -11.679  -2.872  1.00  0.00    -0.036 A 
HETATM   44  C   UNL     1     -15.533 -11.971  -3.395  1.00  0.00     0.005 A 
HETATM   45  C   UNL     1     -16.020 -12.938  -2.556  1.00  0.00     0.016 A 
HETATM   46  C   UNL     1     -15.091 -12.500  -4.759  1.00  0.00    -0.017 C 
HETATM   47  C   UNL     1     -16.290 -13.062  -5.525  1.00  0.00     0.126 C 
HETATM   48  C   UNL     1     -14.348 -11.411  -5.584  1.00  0.00     0.018 C 
HETATM   49  C   UNL     1     -14.069 -13.607  -4.455  1.00  0.00     0.018 C 
HETATM   50  C   UNL     1     -17.365 -12.014  -5.717  1.00  0.00     0.033 C 
HETATM   51  C   UNL     1     -18.019 -11.679  -4.338  1.00  0.00     0.012 C 
HETATM   52  C   UNL     1     -16.494  -9.909  -3.501  1.00  0.00     0.015 C 
BRANCH  47  53
HETATM   53  O   UNL     1     -15.879 -13.604  -6.772  1.00  0.00    -0.395 OA
HETATM   54  H   UNL     1     -15.452 -14.456  -6.598  1.00  0.00     0.210 HD
ENDBRANCH  47  53
ENDBRANCH  11  43
TORSDOF 23
ENDMDL
MODEL 3
REMARK VINA RESULT:      -7.7     16.112     19.270
REMARK  23 active torsions:
REMARK  status: ('A' for Active; 'I' for Inactive)
REMARK    1  A    between atoms: C_2  and  C_3 
REMARK    2  A    between atoms: C_3  and  C_4 
REMARK    3  A    between atoms: C_4  and  C_5 
REMARK    4  A    between atoms: C_5  and  C_6 
REMARK    5  A    between atoms: C_6  and  C_7 
REMARK    6  A    between atoms: C_7  and  C_8 
REMARK    7  A    between atoms: C_8  and  C_9 
REMARK    8  A    between atoms: C_9  and  C_10 
REMARK    9  A    between atoms: C_10  and  C_11 
REMARK   10  A    between atoms: C_11  and  C_12 
REMARK   11  A    between atoms: C_12  and  C_13 
REMARK   12  A    between atoms: C_13  and  C_14 
REMARK   13  A    between atoms: C_14  and  C_15 
REMARK   14  A    between atoms: C_15  and  C_16 
REMARK   15  A    between atoms: C_16  and  C_17 
REMARK   16  A    between atoms: C_17  and  C_18 
REMARK   17  A    between atoms: C_18  and  O_19 
REMARK   18  A    between atoms: O_19  and  C_20 
REMARK   19  A    between atoms: C_20  and  C_22 
REMARK   20  A    between atoms: C_31  and  O_32 
REMARK   21  A    between atoms: C_34  and  C_39 
REMARK   22  A    between atoms: C_36  and  C_37 
REMARK   23  A    between atoms: C_42  and  O_46 
ROOT
HETATM    1  C   UNL     1     -25.735   7.582  -4.945  1.00  0.00     0.045 C 
HETATM    2  C   UNL     1     -24.787   8.725  -4.822  1.00  0.00     0.020 C 
HETATM    3  C   UNL     1     -23.644   8.060  -4.110  1.00  0.00     0.011 C 
HETATM    4  C   UNL     1     -23.680   9.063  -3.111  1.00  0.00    -0.036 C 
HETATM    5  C   UNL     1     -22.465   8.881  -2.211  1.00  0.00     0.011 C 
HETATM    6  C   UNL     1     -22.878   9.816  -1.194  1.00  0.00     0.015 C 
HETATM    7  C   UNL     1     -23.854   8.928  -0.479  1.00  0.00    -0.012 C 
HETATM    8  C   UNL     1     -25.175   8.118  -1.032  1.00  0.00    -0.064 C 
HETATM    9  C   UNL     1     -26.209   7.943  -0.139  1.00  0.00     0.036 C 
HETATM   10  C   UNL     1     -25.971   9.045   1.118  1.00  0.00     0.048 C 
HETATM   11  C   UNL     1     -24.327   9.687   1.226  1.00  0.00     0.049 A 
HETATM   12  C   UNL     1     -24.546  10.194  -0.028  1.00  0.00    -0.023 A 
HETATM   13  C   UNL     1     -24.630  11.103   1.175  1.00  0.00     0.022 A 
HETATM   14  C   UNL     1     -25.556  10.745  -1.000  1.00  0.00     0.017 C 
HETATM   15  C   UNL     1     -25.493   8.423  -2.606  1.00  0.00     0.025 C 
HETATM   16  C   UNL     1     -26.736   8.231  -4.009  1.00  0.00     0.029 C 
HETATM   17  C   UNL     1     -22.654   8.058   0.307  1.00  0.00     0.021 C 
HETATM   18  C   UNL     1     -22.752  10.263  -4.044  1.00  0.00     0.016 C 
HETATM   19  C   UNL     1     -25.340   6.164  -4.260  1.00  0.00     0.026 C 
ENDROOT
BRANCH   1  20
HETATM   20  C   UNL     1     -25.838   7.385  -6.424  1.00  0.00     0.267 C 
HETATM   21  O   UNL     1     -26.253   8.264  -7.178  1.00  0.00    -0.264 OA
BRANCH  20  22
HETATM   22  O   UNL     1     -25.581   6.104  -6.740  1.00  0.00    -0.321 OA
BRANCH  22  23
HETATM   23  C   UNL     1     -26.106   5.694  -7.996  1.00  0.00     0.178 C 
BRANCH  23  24
HETATM   24  C   UNL     1     -24.990   5.223  -8.913  1.00  0.00     0.027 C 
BRANCH  24  25
HETATM   25  C   UNL     1     -25.049   6.020 -10.201  1.00  0.00     0.002 C 
BRANCH  25  26
HETATM   26  C   UNL     1     -26.474   6.429 -10.514  1.00  0.00     0.000 C 
BRANCH  26  27
HETATM   27  C   UNL     1     -26.520   7.905 -10.867  1.00  0.00     0.000 C 
BRANCH  27  28
HETATM   28  C   UNL     1     -25.112   8.466 -10.923  1.00  0.00     0.000 C 
BRANCH  28  29
HETATM   29  C   UNL     1     -25.010   9.495 -12.033  1.00  0.00     0.000 C 
BRANCH  29  30
HETATM   30  C   UNL     1     -23.555   9.707 -12.408  1.00  0.00     0.000 C 
BRANCH  30  31
HETATM   31  C   UNL     1     -22.678   9.547 -11.181  1.00  0.00     0.000 C 
BRANCH  31  32
HETATM   32  C   UNL     1     -21.898  10.824 -10.936  1.00  0.00     0.000 C 
BRANCH  32  33
HETATM   33  C   UNL     1     -22.856  11.979 -10.721  1.00  0.00     0.000 C 
BRANCH  33  34
HETATM   34  C   UNL     1     -23.652  11.760  -9.449  1.00  0.00     0.000 C 
BRANCH  34  35
HETATM   35  C   UNL     1     -25.077  12.240  -9.643  1.00  0.00     0.000 C 
BRANCH  35  36
HETATM   36  C   UNL     1     -26.032  11.340  -8.883  1.00  0.00     0.000 C 
BRANCH  36  37
HETATM   37  C   UNL     1     -27.466  11.744  -9.175  1.00  0.00     0.000 C 
BRANCH  37  38
HETATM   38  C   UNL     1     -27.864  11.275 -10.564  1.00  0.00    -0.000 C 
BRANCH  38  39
HETATM   39  C   UNL     1     -29.224  11.841 -10.940  1.00  0.00    -0.005 C 
HETATM   40  C   UNL     1     -29.891  10.953 -11.969  1.00  0.00     0.005 C 
ENDBRANCH  38  39
ENDBRANCH  37  38
ENDBRANCH  36  37
ENDBRANCH  35  36
ENDBRANCH  34  35
ENDBRANCH  33  34
ENDBRANCH  32  33
ENDBRANCH  31  32
ENDBRANCH  30  31
ENDBRANCH  29  30
ENDBRANCH  28  29
ENDBRANCH  27  28
ENDBRANCH  26  27
ENDBRANCH  25  26
ENDBRANCH  24  25
ENDBRANCH  23  24
ENDBRANCH  22  23
ENDBRANCH  20  22
ENDBRANCH   1  20
BRANCH  10  41
HETATM   41  O   UNL     1     -27.199   9.493   1.520  1.00  0.00    -0.365 OA
ATOM     42  HO  UNL     1     -27.550  10.038   0.827  1.00  0.00     0.217 HD
ENDBRANCH  10  41
BRANCH  11  43
HETATM   43  C   UNL     1     -22.960  11.020   2.001  1.00  0.00    -0.036 A 
HETATM   44  C   UNL     1     -22.796  10.671   3.590  1.00  0.00     0.005 A 
HETATM   45  C   UNL     1     -23.334   9.648   2.856  1.00  0.00     0.016 A 
HETATM   46  C   UNL     1     -21.522  10.288   4.342  1.00  0.00    -0.017 C 
HETATM   47  C   UNL     1     -20.406   9.935   3.356  1.00  0.00     0.126 C 
HETATM   48  C   UNL     1     -21.078  11.409   5.326  1.00  0.00     0.018 C 
HETATM   49  C   UNL     1     -21.904   9.069   5.196  1.00  0.00     0.018 C 
HETATM   50  C   UNL     1     -20.111  11.087   2.420  1.00  0.00     0.033 C 
HETATM   51  C   UNL     1     -21.317  11.293   1.449  1.00  0.00     0.012 C 
HETATM   52  C   UNL     1     -22.760  12.803   2.790  1.00  0.00     0.015 C 
BRANCH  47  53
HETATM   53  O   UNL     1     -19.236   9.528   4.048  1.00  0.00    -0.395 OA
HETATM   54  H   UNL     1     -19.381   8.625   4.371  1.00  0.00     0.210 HD
ENDBRANCH  47  53
ENDBRANCH  11  43
TORSDOF 23
ENDMDL
MODEL 4
REMARK VINA RESULT:      -7.6      5.732     11.050
REMARK  23 active torsions:
REMARK  status: ('A' for Active; 'I' for Inactive)
REMARK    1  A    between atoms: C_2  and  C_3 
REMARK    2  A    between atoms: C_3  and  C_4 
REMARK    3  A    between atoms: C_4  and  C_5 
REMARK    4  A    between atoms: C_5  and  C_6 
REMARK    5  A    between atoms: C_6  and  C_7 
REMARK    6  A    between atoms: C_7  and  C_8 
REMARK    7  A    between atoms: C_8  and  C_9 
REMARK    8  A    between atoms: C_9  and  C_10 
REMARK    9  A    between atoms: C_10  and  C_11 
REMARK   10  A    between atoms: C_11  and  C_12 
REMARK   11  A    between atoms: C_12  and  C_13 
REMARK   12  A    between atoms: C_13  and  C_14 
REMARK   13  A    between atoms: C_14  and  C_15 
REMARK   14  A    between atoms: C_15  and  C_16 
REMARK   15  A    between atoms: C_16  and  C_17 
REMARK   16  A    between atoms: C_17  and  C_18 
REMARK   17  A    between atoms: C_18  and  O_19 
REMARK   18  A    between atoms: O_19  and  C_20 
REMARK   19  A    between atoms: C_20  and  C_22 
REMARK   20  A    between atoms: C_31  and  O_32 
REMARK   21  A    between atoms: C_34  and  C_39 
REMARK   22  A    between atoms: C_36  and  C_37 
REMARK   23  A    between atoms: C_42  and  O_46 
ROOT
HETATM    1  C   UNL     1     -19.649 -14.320  -0.849  1.00  0.00     0.045 C 
HETATM    2  C   UNL     1     -19.107 -15.198   0.226  1.00  0.00     0.020 C 
HETATM    3  C   UNL     1     -18.400 -14.185   1.080  1.00  0.00     0.011 C 
HETATM    4  C   UNL     1     -17.209 -14.948   1.006  1.00  0.00    -0.036 C 
HETATM    5  C   UNL     1     -16.196 -14.343   1.968  1.00  0.00     0.011 C 
HETATM    6  C   UNL     1     -15.065 -15.114   1.515  1.00  0.00     0.015 C 
HETATM    7  C   UNL     1     -14.748 -14.315   0.285  1.00  0.00    -0.012 C 
HETATM    8  C   UNL     1     -15.683 -13.920  -1.011  1.00  0.00    -0.064 C 
HETATM    9  C   UNL     1     -15.035 -13.779  -2.218  1.00  0.00     0.036 C 
HETATM   10  C   UNL     1     -13.531 -14.528  -2.064  1.00  0.00     0.048 C 
HETATM   11  C   UNL     1     -13.010 -14.789  -0.395  1.00  0.00     0.049 A 
HETATM   12  C   UNL     1     -14.125 -15.575  -0.271  1.00  0.00    -0.023 A 
HETATM   13  C   UNL     1     -12.770 -16.217  -0.449  1.00  0.00     0.022 A 
HETATM   14  C   UNL     1     -15.088 -16.506  -0.962  1.00  0.00     0.017 C 
HETATM   15  C   UNL     1     -17.169 -14.599  -0.952  1.00  0.00     0.025 C 
HETATM   16  C   UNL     1     -18.758 -14.953  -1.900  1.00  0.00     0.029 C 
HETATM   17  C   UNL     1     -14.011 -13.078   1.145  1.00  0.00     0.021 C 
HETATM   18  C   UNL     1     -17.668 -16.101   2.284  1.00  0.00     0.016 C 
HETATM   19  C   UNL     1     -19.268 -12.743  -0.833  1.00  0.00     0.026 C 
ENDROOT
BRANCH   1  20
HETATM   20  C   UNL     1     -21.129 -14.456  -0.681  1.00  0.00     0.267 C 
HETATM   21  O   UNL     1     -21.809 -15.190  -1.397  1.00  0.00    -0.264 OA
BRANCH  20  22
HETATM   22  O   UNL     1     -21.578 -13.559   0.214  1.00  0.00    -0.321 OA
BRANCH  22  23
HETATM   23  C   UNL     1     -22.988 -13.562   0.390  1.00  0.00     0.178 C 
BRANCH  23  24
HETATM   24  C   UNL     1     -23.505 -12.146   0.586  1.00  0.00     0.027 C 
BRANCH  24  25
HETATM   25  C   UNL     1     -24.098 -11.659  -0.722  1.00  0.00     0.002 C 
BRANCH  25  26
HETATM   26  C   UNL     1     -23.112 -10.776  -1.462  1.00  0.00     0.000 C 
BRANCH  26  27
HETATM   27  C   UNL     1     -22.324  -9.943  -0.469  1.00  0.00     0.000 C 
BRANCH  27  28
HETATM   28  C   UNL     1     -23.219  -8.882   0.142  1.00  0.00     0.000 C 
BRANCH  28  29
HETATM   29  C   UNL     1     -22.523  -7.535   0.107  1.00  0.00     0.000 C 
BRANCH  29  30
HETATM   30  C   UNL     1     -21.551  -7.486  -1.056  1.00  0.00     0.000 C 
BRANCH  30  31
HETATM   31  C   UNL     1     -22.181  -6.751  -2.224  1.00  0.00     0.000 C 
BRANCH  31  32
HETATM   32  C   UNL     1     -21.110  -6.364  -3.226  1.00  0.00     0.000 C 
BRANCH  32  33
HETATM   33  C   UNL     1     -20.911  -7.485  -4.227  1.00  0.00     0.000 C 
BRANCH  33  34
HETATM   34  C   UNL     1     -20.493  -6.912  -5.567  1.00  0.00     0.000 C 
BRANCH  34  35
HETATM   35  C   UNL     1     -20.994  -5.487  -5.699  1.00  0.00     0.000 C 
BRANCH  35  36
HETATM   36  C   UNL     1     -19.930  -4.623  -6.346  1.00  0.00     0.000 C 
BRANCH  36  37
HETATM   37  C   UNL     1     -20.309  -4.330  -7.787  1.00  0.00     0.000 C 
BRANCH  37  38
HETATM   38  C   UNL     1     -21.815  -4.416  -7.955  1.00  0.00    -0.000 C 
BRANCH  38  39
HETATM   39  C   UNL     1     -22.205  -4.084  -9.386  1.00  0.00    -0.005 C 
HETATM   40  C   UNL     1     -20.967  -3.983 -10.253  1.00  0.00     0.005 C 
ENDBRANCH  38  39
ENDBRANCH  37  38
ENDBRANCH  36  37
ENDBRANCH  35  36
ENDBRANCH  34  35
ENDBRANCH  33  34
ENDBRANCH  32  33
ENDBRANCH  31  32
ENDBRANCH  30  31
ENDBRANCH  29  30
ENDBRANCH  28  29
ENDBRANCH  27  28
ENDBRANCH  26  27
ENDBRANCH  25  26
ENDBRANCH  24  25
ENDBRANCH  23  24
ENDBRANCH  22  23
ENDBRANCH  20  22
ENDBRANCH   1  20
BRANCH  10  41
HETATM   41  O   UNL     1     -13.236 -15.124  -3.259  1.00  0.00    -0.365 OA
ATOM     42  HO  UNL     1     -13.442 -16.047  -3.183  1.00  0.00     0.217 HD
ENDBRANCH  10  41
BRANCH  11  43
HETATM   43  C   UNL     1     -11.731 -15.631   0.984  1.00  0.00    -0.036 A 
HETATM   44  C   UNL     1     -10.240 -15.031   0.685  1.00  0.00     0.005 A 
HETATM   45  C   UNL     1     -11.251 -14.282   0.145  1.00  0.00     0.016 A 
HETATM   46  C   UNL     1      -9.331 -14.251   1.634  1.00  0.00    -0.017 C 
HETATM   47  C   UNL     1     -10.118 -13.782   2.860  1.00  0.00     0.126 C 
HETATM   48  C   UNL     1      -8.081 -15.081   2.044  1.00  0.00     0.018 C 
HETATM   49  C   UNL     1      -8.824 -13.051   0.818  1.00  0.00     0.018 C 
HETATM   50  C   UNL     1     -10.735 -14.950   3.600  1.00  0.00     0.033 C 
HETATM   51  C   UNL     1     -11.872 -15.575   2.732  1.00  0.00     0.012 C 
HETATM   52  C   UNL     1     -10.589 -17.183   1.344  1.00  0.00     0.015 C 
BRANCH  47  53
HETATM   53  O   UNL     1      -9.293 -13.012   3.721  1.00  0.00    -0.395 OA
HETATM   54  H   UNL     1      -9.826 -12.279   4.064  1.00  0.00     0.210 HD
ENDBRANCH  47  53
ENDBRANCH  11  43
TORSDOF 23
ENDMDL
MODEL 5
REMARK VINA RESULT:      -7.4      5.734      8.846
REMARK  23 active torsions:
REMARK  status: ('A' for Active; 'I' for Inactive)
REMARK    1  A    between atoms: C_2  and  C_3 
REMARK    2  A    between atoms: C_3  and  C_4 
REMARK    3  A    between atoms: C_4  and  C_5 
REMARK    4  A    between atoms: C_5  and  C_6 
REMARK    5  A    between atoms: C_6  and  C_7 
REMARK    6  A    between atoms: C_7  and  C_8 
REMARK    7  A    between atoms: C_8  and  C_9 
REMARK    8  A    between atoms: C_9  and  C_10 
REMARK    9  A    between atoms: C_10  and  C_11 
REMARK   10  A    between atoms: C_11  and  C_12 
REMARK   11  A    between atoms: C_12  and  C_13 
REMARK   12  A    between atoms: C_13  and  C_14 
REMARK   13  A    between atoms: C_14  and  C_15 
REMARK   14  A    between atoms: C_15  and  C_16 
REMARK   15  A    between atoms: C_16  and  C_17 
REMARK   16  A    between atoms: C_17  and  C_18 
REMARK   17  A    between atoms: C_18  and  O_19 
REMARK   18  A    between atoms: O_19  and  C_20 
REMARK   19  A    between atoms: C_20  and  C_22 
REMARK   20  A    between atoms: C_31  and  O_32 
REMARK   21  A    between atoms: C_34  and  C_39 
REMARK   22  A    between atoms: C_36  and  C_37 
REMARK   23  A    between atoms: C_42  and  O_46 
ROOT
HETATM    1  C   UNL     1     -21.473  -6.780  -3.900  1.00  0.00     0.045 C 
HETATM    2  C   UNL     1     -21.225  -8.150  -4.429  1.00  0.00     0.020 C 
HETATM    3  C   UNL     1     -22.545  -8.803  -4.134  1.00  0.00     0.011 C 
HETATM    4  C   UNL     1     -21.880  -9.848  -3.449  1.00  0.00    -0.036 C 
HETATM    5  C   UNL     1     -22.902 -10.928  -3.121  1.00  0.00     0.011 C 
HETATM    6  C   UNL     1     -22.049 -11.695  -2.248  1.00  0.00     0.015 C 
HETATM    7  C   UNL     1     -22.185 -10.842  -1.021  1.00  0.00    -0.012 C 
HETATM    8  C   UNL     1     -21.889  -9.240  -0.788  1.00  0.00    -0.064 C 
HETATM    9  C   UNL     1     -21.468  -8.868   0.469  1.00  0.00     0.036 C 
HETATM   10  C   UNL     1     -20.932 -10.267   1.248  1.00  0.00     0.048 C 
HETATM   11  C   UNL     1     -21.508 -11.773   0.523  1.00  0.00     0.049 A 
HETATM   12  C   UNL     1     -20.834 -11.377  -0.602  1.00  0.00    -0.023 A 
HETATM   13  C   UNL     1     -20.233 -12.425   0.303  1.00  0.00     0.022 A 
HETATM   14  C   UNL     1     -19.654 -10.623  -1.158  1.00  0.00     0.017 C 
HETATM   15  C   UNL     1     -21.267  -8.510  -2.111  1.00  0.00     0.025 C 
HETATM   16  C   UNL     1     -20.451  -6.955  -2.793  1.00  0.00     0.029 C 
HETATM   17  C   UNL     1     -23.706 -11.438  -0.641  1.00  0.00     0.021 C 
HETATM   18  C   UNL     1     -21.450 -10.764  -4.915  1.00  0.00     0.016 C 
HETATM   19  C   UNL     1     -22.884  -6.473  -3.159  1.00  0.00     0.026 C 
ENDROOT
BRANCH   1  20
HETATM   20  C   UNL     1     -21.380  -5.924  -5.123  1.00  0.00     0.267 C 
HETATM   21  O   UNL     1     -22.372  -5.591  -5.771  1.00  0.00    -0.264 OA
BRANCH  20  22
HETATM   22  O   UNL     1     -20.093  -5.743  -5.466  1.00  0.00    -0.321 OA
BRANCH  22  23
HETATM   23  C   UNL     1     -19.754  -6.237  -6.755  1.00  0.00     0.178 C 
BRANCH  23  24
HETATM   24  C   UNL     1     -18.541  -7.149  -6.675  1.00  0.00     0.027 C 
BRANCH  24  25
HETATM   25  C   UNL     1     -18.996  -8.529  -6.243  1.00  0.00     0.002 C 
BRANCH  25  26
HETATM   26  C   UNL     1     -17.825  -9.346  -5.735  1.00  0.00     0.000 C 
BRANCH  26  27
HETATM   27  C   UNL     1     -18.012  -9.652  -4.261  1.00  0.00     0.000 C 
BRANCH  27  28
HETATM   28  C   UNL     1     -16.665  -9.893  -3.607  1.00  0.00     0.000 C 
BRANCH  28  29
HETATM   29  C   UNL     1     -15.599 -10.074  -4.671  1.00  0.00     0.000 C 
BRANCH  29  30
HETATM   30  C   UNL     1     -15.081 -11.500  -4.646  1.00  0.00     0.000 C 
BRANCH  30  31
HETATM   31  C   UNL     1     -15.431 -12.199  -5.946  1.00  0.00     0.000 C 
BRANCH  31  32
HETATM   32  C   UNL     1     -16.335 -13.384  -5.665  1.00  0.00     0.000 C 
BRANCH  32  33
HETATM   33  C   UNL     1     -17.779 -13.004  -5.927  1.00  0.00     0.000 C 
BRANCH  33  34
HETATM   34  C   UNL     1     -18.700 -13.869  -5.088  1.00  0.00     0.000 C 
BRANCH  34  35
HETATM   35  C   UNL     1     -18.987 -13.184  -3.765  1.00  0.00     0.000 C 
BRANCH  35  36
HETATM   36  C   UNL     1     -18.463 -14.032  -2.622  1.00  0.00     0.000 C 
BRANCH  36  37
HETATM   37  C   UNL     1     -17.326 -13.310  -1.922  1.00  0.00     0.000 C 
BRANCH  37  38
HETATM   38  C   UNL     1     -17.081 -13.928  -0.557  1.00  0.00    -0.000 C 
BRANCH  38  39
HETATM   39  C   UNL     1     -16.414 -12.919   0.365  1.00  0.00    -0.005 C 
HETATM   40  C   UNL     1     -15.978 -11.702  -0.424  1.00  0.00     0.005 C 
ENDBRANCH  38  39
ENDBRANCH  37  38
ENDBRANCH  36  37
ENDBRANCH  35  36
ENDBRANCH  34  35
ENDBRANCH  33  34
ENDBRANCH  32  33
ENDBRANCH  31  32
ENDBRANCH  30  31
ENDBRANCH  29  30
ENDBRANCH  28  29
ENDBRANCH  27  28
ENDBRANCH  26  27
ENDBRANCH  25  26
ENDBRANCH  24  25
ENDBRANCH  23  24
ENDBRANCH  22  23
ENDBRANCH  20  22
ENDBRANCH   1  20
BRANCH  10  41
HETATM   41  O   UNL     1     -19.855  -9.930   2.020  1.00  0.00    -0.365 OA
ATOM     42  HO  UNL     1     -20.091  -9.166   2.531  1.00  0.00     0.217 HD
ENDBRANCH  10  41
BRANCH  11  43
HETATM   43  C   UNL     1     -21.461 -13.827   0.355  1.00  0.00    -0.036 A 
HETATM   44  C   UNL     1     -22.030 -14.436   1.762  1.00  0.00     0.005 A 
HETATM   45  C   UNL     1     -22.374 -13.127   1.552  1.00  0.00     0.016 A 
HETATM   46  C   UNL     1     -23.227 -15.364   1.970  1.00  0.00    -0.017 C 
HETATM   47  C   UNL     1     -24.083 -15.421   0.703  1.00  0.00     0.126 C 
HETATM   48  C   UNL     1     -22.780 -16.785   2.420  1.00  0.00     0.018 C 
HETATM   49  C   UNL     1     -24.018 -14.753   3.137  1.00  0.00     0.018 C 
HETATM   50  C   UNL     1     -23.278 -15.898  -0.487  1.00  0.00     0.033 C 
HETATM   51  C   UNL     1     -22.231 -14.807  -0.879  1.00  0.00     0.012 C 
HETATM   52  C   UNL     1     -20.331 -15.410   0.599  1.00  0.00     0.015 C 
BRANCH  47  53
HETATM   53  O   UNL     1     -25.225 -16.240   0.906  1.00  0.00    -0.395 OA
HETATM   54  H   UNL     1     -25.882 -15.717   1.391  1.00  0.00     0.210 HD
ENDBRANCH  47  53
ENDBRANCH  11  43
TORSDOF 23
ENDMDL
MODEL 6
REMARK VINA RESULT:      -7.3      1.787      2.586
REMARK  23 active torsions:
REMARK  status: ('A' for Active; 'I' for Inactive)
REMARK    1  A    between atoms: C_2  and  C_3 
REMARK    2  A    between atoms: C_3  and  C_4 
REMARK    3  A    between atoms: C_4  and  C_5 
REMARK    4  A    between atoms: C_5  and  C_6 
REMARK    5  A    between atoms: C_6  and  C_7 
REMARK    6  A    between atoms: C_7  and  C_8 
REMARK    7  A    between atoms: C_8  and  C_9 
REMARK    8  A    between atoms: C_9  and  C_10 
REMARK    9  A    between atoms: C_10  and  C_11 
REMARK   10  A    between atoms: C_11  and  C_12 
REMARK   11  A    between atoms: C_12  and  C_13 
REMARK   12  A    between atoms: C_13  and  C_14 
REMARK   13  A    between atoms: C_14  and  C_15 
REMARK   14  A    between atoms: C_15  and  C_16 
REMARK   15  A    between atoms: C_16  and  C_17 
REMARK   16  A    between atoms: C_17  and  C_18 
REMARK   17  A    between atoms: C_18  and  O_19 
REMARK   18  A    between atoms: O_19  and  C_20 
REMARK   19  A    between atoms: C_20  and  C_22 
REMARK   20  A    between atoms: C_31  and  O_32 
REMARK   21  A    between atoms: C_34  and  C_39 
REMARK   22  A    between atoms: C_36  and  C_37 
REMARK   23  A    between atoms: C_42  and  O_46 
ROOT
HETATM    1  C   UNL     1     -21.175  -5.997  -4.968  1.00  0.00     0.045 C 
HETATM    2  C   UNL     1     -20.360  -7.227  -5.172  1.00  0.00     0.020 C 
HETATM    3  C   UNL     1     -21.445  -8.254  -5.327  1.00  0.00     0.011 C 
HETATM    4  C   UNL     1     -20.855  -9.037  -4.305  1.00  0.00    -0.036 C 
HETATM    5  C   UNL     1     -21.576 -10.378  -4.257  1.00  0.00     0.011 C 
HETATM    6  C   UNL     1     -20.977 -10.837  -3.028  1.00  0.00     0.015 C 
HETATM    7  C   UNL     1     -21.835 -10.058  -2.074  1.00  0.00    -0.012 C 
HETATM    8  C   UNL     1     -22.122  -8.442  -1.961  1.00  0.00    -0.064 C 
HETATM    9  C   UNL     1     -22.374  -7.947  -0.701  1.00  0.00     0.036 C 
HETATM   10  C   UNL     1     -21.836  -9.106   0.403  1.00  0.00     0.048 C 
HETATM   11  C   UNL     1     -21.619 -10.722  -0.280  1.00  0.00     0.049 A 
HETATM   12  C   UNL     1     -20.684 -10.145  -1.099  1.00  0.00    -0.023 A 
HETATM   13  C   UNL     1     -20.239 -10.948   0.099  1.00  0.00     0.022 A 
HETATM   14  C   UNL     1     -19.642  -9.067  -1.250  1.00  0.00     0.017 C 
HETATM   15  C   UNL     1     -21.244  -7.565  -3.025  1.00  0.00     0.025 C 
HETATM   16  C   UNL     1     -20.691  -5.839  -3.539  1.00  0.00     0.029 C 
HETATM   17  C   UNL     1     -23.145 -11.092  -2.237  1.00  0.00     0.021 C 
HETATM   18  C   UNL     1     -19.626  -9.786  -5.354  1.00  0.00     0.016 C 
HETATM   19  C   UNL     1     -22.789  -6.137  -4.878  1.00  0.00     0.026 C 
ENDROOT
BRANCH   1  20
HETATM   20  C   UNL     1     -20.833  -5.164  -6.162  1.00  0.00     0.267 C 
HETATM   21  O   UNL     1     -19.710  -4.694  -6.339  1.00  0.00    -0.264 OA
BRANCH  20  22
HETATM   22  O   UNL     1     -21.944  -4.891  -6.870  1.00  0.00    -0.321 OA
BRANCH  22  23
HETATM   23  C   UNL     1     -21.831  -5.156  -8.262  1.00  0.00     0.178 C 
BRANCH  23  24
HETATM   24  C   UNL     1     -22.663  -4.168  -9.062  1.00  0.00     0.027 C 
BRANCH  24  25
HETATM   25  C   UNL     1     -22.014  -3.970 -10.418  1.00  0.00     0.002 C 
BRANCH  25  26
HETATM   26  C   UNL     1     -22.840  -3.035 -11.278  1.00  0.00     0.000 C 
BRANCH  26  27
HETATM   27  C   UNL     1     -22.478  -3.226 -12.739  1.00  0.00     0.000 C 
BRANCH  27  28
HETATM   28  C   UNL     1     -23.737  -3.255 -13.584  1.00  0.00     0.000 C 
BRANCH  28  29
HETATM   29  C   UNL     1     -24.354  -4.640 -13.545  1.00  0.00     0.000 C 
BRANCH  29  30
HETATM   30  C   UNL     1     -24.692  -5.095 -14.952  1.00  0.00     0.000 C 
BRANCH  30  31
HETATM   31  C   UNL     1     -24.870  -6.601 -14.979  1.00  0.00     0.000 C 
BRANCH  31  32
HETATM   32  C   UNL     1     -25.330  -7.040 -16.356  1.00  0.00     0.000 C 
BRANCH  32  33
HETATM   33  C   UNL     1     -26.627  -6.341 -16.713  1.00  0.00     0.000 C 
BRANCH  33  34
HETATM   34  C   UNL     1     -26.608  -5.930 -18.173  1.00  0.00     0.000 C 
BRANCH  34  35
HETATM   35  C   UNL     1     -27.769  -6.574 -18.905  1.00  0.00     0.000 C 
BRANCH  35  36
HETATM   36  C   UNL     1     -27.283  -7.188 -20.204  1.00  0.00     0.000 C 
BRANCH  36  37
HETATM   37  C   UNL     1     -25.932  -6.604 -20.577  1.00  0.00     0.000 C 
BRANCH  37  38
HETATM   38  C   UNL     1     -24.904  -7.715 -20.703  1.00  0.00    -0.000 C 
BRANCH  38  39
HETATM   39  C   UNL     1     -24.282  -7.701 -22.090  1.00  0.00    -0.005 C 
HETATM   40  C   UNL     1     -22.959  -8.439 -22.074  1.00  0.00     0.005 C 
ENDBRANCH  38  39
ENDBRANCH  37  38
ENDBRANCH  36  37
ENDBRANCH  35  36
ENDBRANCH  34  35
ENDBRANCH  33  34
ENDBRANCH  32  33
ENDBRANCH  31  32
ENDBRANCH  30  31
ENDBRANCH  29  30
ENDBRANCH  28  29
ENDBRANCH  27  28
ENDBRANCH  26  27
ENDBRANCH  25  26
ENDBRANCH  24  25
ENDBRANCH  23  24
ENDBRANCH  22  23
ENDBRANCH  20  22
ENDBRANCH   1  20
BRANCH  10  41
HETATM   41  O   UNL     1     -21.310  -8.446   1.479  1.00  0.00    -0.365 OA
ATOM     42  HO  UNL     1     -21.223  -9.071   2.189  1.00  0.00     0.217 HD
ENDBRANCH  10  41
BRANCH  11  43
HETATM   43  C   UNL     1     -20.935 -12.661  -0.141  1.00  0.00    -0.036 A 
HETATM   44  C   UNL     1     -21.561 -13.294   1.231  1.00  0.00     0.005 A 
HETATM   45  C   UNL     1     -22.228 -12.184   0.784  1.00  0.00     0.016 A 
HETATM   46  C   UNL     1     -22.446 -14.530   1.379  1.00  0.00    -0.017 C 
HETATM   47  C   UNL     1     -22.984 -14.967   0.015  1.00  0.00     0.126 C 
HETATM   48  C   UNL     1     -21.696 -15.691   2.093  1.00  0.00     0.018 C 
HETATM   49  C   UNL     1     -23.594 -14.101   2.307  1.00  0.00     0.018 C 
HETATM   50  C   UNL     1     -21.859 -15.267  -0.953  1.00  0.00     0.033 C 
HETATM   51  C   UNL     1     -21.126 -13.939  -1.328  1.00  0.00     0.012 C 
HETATM   52  C   UNL     1     -19.458 -13.777   0.503  1.00  0.00     0.015 C 
BRANCH  47  53
HETATM   53  O   UNL     1     -23.849 -16.084   0.151  1.00  0.00    -0.395 OA
HETATM   54  H   UNL     1     -24.728 -15.751   0.392  1.00  0.00     0.210 HD
ENDBRANCH  47  53
ENDBRANCH  11  43
TORSDOF 23
ENDMDL
MODEL 7
REMARK VINA RESULT:      -7.3     16.258     19.253
REMARK  23 active torsions:
REMARK  status: ('A' for Active; 'I' for Inactive)
REMARK    1  A    between atoms: C_2  and  C_3 
REMARK    2  A    between atoms: C_3  and  C_4 
REMARK    3  A    between atoms: C_4  and  C_5 
REMARK    4  A    between atoms: C_5  and  C_6 
REMARK    5  A    between atoms: C_6  and  C_7 
REMARK    6  A    between atoms: C_7  and  C_8 
REMARK    7  A    between atoms: C_8  and  C_9 
REMARK    8  A    between atoms: C_9  and  C_10 
REMARK    9  A    between atoms: C_10  and  C_11 
REMARK   10  A    between atoms: C_11  and  C_12 
REMARK   11  A    between atoms: C_12  and  C_13 
REMARK   12  A    between atoms: C_13  and  C_14 
REMARK   13  A    between atoms: C_14  and  C_15 
REMARK   14  A    between atoms: C_15  and  C_16 
REMARK   15  A    between atoms: C_16  and  C_17 
REMARK   16  A    between atoms: C_17  and  C_18 
REMARK   17  A    between atoms: C_18  and  O_19 
REMARK   18  A    between atoms: O_19  and  C_20 
REMARK   19  A    between atoms: C_20  and  C_22 
REMARK   20  A    between atoms: C_31  and  O_32 
REMARK   21  A    between atoms: C_34  and  C_39 
REMARK   22  A    between atoms: C_36  and  C_37 
REMARK   23  A    between atoms: C_42  and  O_46 
ROOT
HETATM    1  C   UNL     1     -25.748   7.657  -4.863  1.00  0.00     0.045 C 
HETATM    2  C   UNL     1     -24.799   8.796  -4.715  1.00  0.00     0.020 C 
HETATM    3  C   UNL     1     -23.670   8.122  -3.989  1.00  0.00     0.011 C 
HETATM    4  C   UNL     1     -23.719   9.116  -2.983  1.00  0.00    -0.036 C 
HETATM    5  C   UNL     1     -22.520   8.922  -2.064  1.00  0.00     0.011 C 
HETATM    6  C   UNL     1     -22.948   9.850  -1.046  1.00  0.00     0.015 C 
HETATM    7  C   UNL     1     -23.938   8.959  -0.355  1.00  0.00    -0.012 C 
HETATM    8  C   UNL     1     -25.252   8.158  -0.937  1.00  0.00    -0.064 C 
HETATM    9  C   UNL     1     -26.302   7.979  -0.064  1.00  0.00     0.036 C 
HETATM   10  C   UNL     1     -26.082   9.069   1.206  1.00  0.00     0.048 C 
HETATM   11  C   UNL     1     -24.438   9.705   1.348  1.00  0.00     0.049 A 
HETATM   12  C   UNL     1     -24.634  10.223   0.095  1.00  0.00    -0.023 A 
HETATM   13  C   UNL     1     -24.736  11.123   1.304  1.00  0.00     0.022 A 
HETATM   14  C   UNL     1     -25.626  10.785  -0.890  1.00  0.00     0.017 C 
HETATM   15  C   UNL     1     -25.543   8.477  -2.514  1.00  0.00     0.025 C 
HETATM   16  C   UNL     1     -26.762   8.301  -3.939  1.00  0.00     0.029 C 
HETATM   17  C   UNL     1     -22.755   8.078   0.444  1.00  0.00     0.021 C 
HETATM   18  C   UNL     1     -22.772  10.321  -3.889  1.00  0.00     0.016 C 
HETATM   19  C   UNL     1     -25.368   6.232  -4.185  1.00  0.00     0.026 C 
ENDROOT
BRANCH   1  20
HETATM   20  C   UNL     1     -25.826   7.473  -6.346  1.00  0.00     0.267 C 
HETATM   21  O   UNL     1     -26.249   8.351  -7.097  1.00  0.00    -0.264 OA
BRANCH  20  22
HETATM   22  O   UNL     1     -25.538   6.201  -6.671  1.00  0.00    -0.321 OA
BRANCH  22  23
HETATM   23  C   UNL     1     -26.273   5.699  -7.780  1.00  0.00     0.178 C 
BRANCH  23  24
HETATM   24  C   UNL     1     -25.383   5.597  -9.008  1.00  0.00     0.027 C 
BRANCH  24  25
HETATM   25  C   UNL     1     -26.175   6.043 -10.221  1.00  0.00     0.002 C 
BRANCH  25  26
HETATM   26  C   UNL     1     -25.502   7.218 -10.900  1.00  0.00     0.000 C 
BRANCH  26  27
HETATM   27  C   UNL     1     -26.286   8.488 -10.627  1.00  0.00     0.000 C 
BRANCH  27  28
HETATM   28  C   UNL     1     -25.603   9.670 -11.287  1.00  0.00     0.000 C 
BRANCH  28  29
HETATM   29  C   UNL     1     -24.416   9.193 -12.102  1.00  0.00     0.000 C 
BRANCH  29  30
HETATM   30  C   UNL     1     -23.449  10.340 -12.326  1.00  0.00     0.000 C 
BRANCH  30  31
HETATM   31  C   UNL     1     -24.205  11.569 -12.792  1.00  0.00     0.000 C 
BRANCH  31  32
HETATM   32  C   UNL     1     -23.595  12.092 -14.078  1.00  0.00     0.000 C 
BRANCH  32  33
HETATM   33  C   UNL     1     -22.425  11.218 -14.485  1.00  0.00     0.000 C 
BRANCH  33  34
HETATM   34  C   UNL     1     -21.767  11.784 -15.729  1.00  0.00     0.000 C 
BRANCH  34  35
HETATM   35  C   UNL     1     -22.077  10.902 -16.924  1.00  0.00     0.000 C 
BRANCH  35  36
HETATM   36  C   UNL     1     -22.516  11.757 -18.096  1.00  0.00     0.000 C 
BRANCH  36  37
HETATM   37  C   UNL     1     -23.335  10.924 -19.066  1.00  0.00     0.000 C 
BRANCH  37  38
HETATM   38  C   UNL     1     -24.551  11.709 -19.525  1.00  0.00    -0.000 C 
BRANCH  38  39
HETATM   39  C   UNL     1     -25.673  10.760 -19.914  1.00  0.00    -0.005 C 
HETATM   40  C   UNL     1     -27.003  11.302 -19.435  1.00  0.00     0.005 C 
ENDBRANCH  38  39
ENDBRANCH  37  38
ENDBRANCH  36  37
ENDBRANCH  35  36
ENDBRANCH  34  35
ENDBRANCH  33  34
ENDBRANCH  32  33
ENDBRANCH  31  32
ENDBRANCH  30  31
ENDBRANCH  29  30
ENDBRANCH  28  29
ENDBRANCH  27  28
ENDBRANCH  26  27
ENDBRANCH  25  26
ENDBRANCH  24  25
ENDBRANCH  23  24
ENDBRANCH  22  23
ENDBRANCH  20  22
ENDBRANCH   1  20
BRANCH  10  41
HETATM   41  O   UNL     1     -27.315   9.517   1.591  1.00  0.00    -0.365 OA
ATOM     42  HO  UNL     1     -27.325  10.461   1.492  1.00  0.00     0.217 HD
ENDBRANCH  10  41
BRANCH  11  43
HETATM   43  C   UNL     1     -23.081  11.028   2.157  1.00  0.00    -0.036 A 
HETATM   44  C   UNL     1     -22.966  10.683   3.752  1.00  0.00     0.005 A 
HETATM   45  C   UNL     1     -23.494   9.662   3.006  1.00  0.00     0.016 A 
HETATM   46  C   UNL     1     -21.718  10.290   4.542  1.00  0.00    -0.017 C 
HETATM   47  C   UNL     1     -20.578   9.922   3.590  1.00  0.00     0.126 C 
HETATM   48  C   UNL     1     -21.291  11.410   5.534  1.00  0.00     0.018 C 
HETATM   49  C   UNL     1     -22.137   9.078   5.389  1.00  0.00     0.018 C 
HETATM   50  C   UNL     1     -20.244  11.067   2.658  1.00  0.00     0.033 C 
HETATM   51  C   UNL     1     -21.420  11.281   1.653  1.00  0.00     0.012 C 
HETATM   52  C   UNL     1     -22.885  12.811   2.946  1.00  0.00     0.015 C 
BRANCH  47  53
HETATM   53  O   UNL     1     -19.433   9.505   4.317  1.00  0.00    -0.395 OA
HETATM   54  H   UNL     1     -18.810   9.109   3.688  1.00  0.00     0.210 HD
ENDBRANCH  47  53
ENDBRANCH  11  43
TORSDOF 23
ENDMDL
MODEL 8
REMARK VINA RESULT:      -7.3     16.075     19.492
REMARK  23 active torsions:
REMARK  status: ('A' for Active; 'I' for Inactive)
REMARK    1  A    between atoms: C_2  and  C_3 
REMARK    2  A    between atoms: C_3  and  C_4 
REMARK    3  A    between atoms: C_4  and  C_5 
REMARK    4  A    between atoms: C_5  and  C_6 
REMARK    5  A    between atoms: C_6  and  C_7 
REMARK    6  A    between atoms: C_7  and  C_8 
REMARK    7  A    between atoms: C_8  and  C_9 
REMARK    8  A    between atoms: C_9  and  C_10 
REMARK    9  A    between atoms: C_10  and  C_11 
REMARK   10  A    between atoms: C_11  and  C_12 
REMARK   11  A    between atoms: C_12  and  C_13 
REMARK   12  A    between atoms: C_13  and  C_14 
REMARK   13  A    between atoms: C_14  and  C_15 
REMARK   14  A    between atoms: C_15  and  C_16 
REMARK   15  A    between atoms: C_16  and  C_17 
REMARK   16  A    between atoms: C_17  and  C_18 
REMARK   17  A    between atoms: C_18  and  O_19 
REMARK   18  A    between atoms: O_19  and  C_20 
REMARK   19  A    between atoms: C_20  and  C_22 
REMARK   20  A    between atoms: C_31  and  O_32 
REMARK   21  A    between atoms: C_34  and  C_39 
REMARK   22  A    between atoms: C_36  and  C_37 
REMARK   23  A    between atoms: C_42  and  O_46 
ROOT
HETATM    1  C   UNL     1     -25.780   7.581  -4.874  1.00  0.00     0.045 C 
HETATM    2  C   UNL     1     -24.824   8.720  -4.784  1.00  0.00     0.020 C 
HETATM    3  C   UNL     1     -23.669   8.057  -4.089  1.00  0.00     0.011 C 
HETATM    4  C   UNL     1     -23.678   9.070  -3.100  1.00  0.00    -0.036 C 
HETATM    5  C   UNL     1     -22.445   8.890  -2.224  1.00  0.00     0.011 C 
HETATM    6  C   UNL     1     -22.831   9.837  -1.208  1.00  0.00     0.015 C 
HETATM    7  C   UNL     1     -23.796   8.963  -0.463  1.00  0.00    -0.012 C 
HETATM    8  C   UNL     1     -25.134   8.155  -0.980  1.00  0.00    -0.064 C 
HETATM    9  C   UNL     1     -26.149   7.995  -0.063  1.00  0.00     0.036 C 
HETATM   10  C   UNL     1     -25.878   9.109   1.177  1.00  0.00     0.048 C 
HETATM   11  C   UNL     1     -24.229   9.743   1.243  1.00  0.00     0.049 A 
HETATM   12  C   UNL     1     -24.472  10.237  -0.011  1.00  0.00    -0.023 A 
HETATM   13  C   UNL     1     -24.525  11.160   1.183  1.00  0.00     0.022 A 
HETATM   14  C   UNL     1     -25.499  10.784  -0.968  1.00  0.00     0.017 C 
HETATM   15  C   UNL     1     -25.484   8.446  -2.549  1.00  0.00     0.025 C 
HETATM   16  C   UNL     1     -26.757   8.246  -3.924  1.00  0.00     0.029 C 
HETATM   17  C   UNL     1     -22.586   8.094   0.306  1.00  0.00     0.021 C 
HETATM   18  C   UNL     1     -22.763  10.255  -4.065  1.00  0.00     0.016 C 
HETATM   19  C   UNL     1     -25.378   6.169  -4.183  1.00  0.00     0.026 C 
ENDROOT
BRANCH   1  20
HETATM   20  C   UNL     1     -25.916   7.370  -6.348  1.00  0.00     0.267 C 
HETATM   21  O   UNL     1     -26.343   8.244  -7.103  1.00  0.00    -0.264 OA
BRANCH  20  22
HETATM   22  O   UNL     1     -25.672   6.085  -6.657  1.00  0.00    -0.321 OA
BRANCH  22  23
HETATM   23  C   UNL     1     -26.114   5.698  -7.951  1.00  0.00     0.178 C 
BRANCH  23  24
HETATM   24  C   UNL     1     -24.944   5.220  -8.795  1.00  0.00     0.027 C 
BRANCH  24  25
HETATM   25  C   UNL     1     -25.157   5.675 -10.225  1.00  0.00     0.002 C 
BRANCH  25  26
HETATM   26  C   UNL     1     -26.249   6.723 -10.298  1.00  0.00     0.000 C 
BRANCH  26  27
HETATM   27  C   UNL     1     -25.656   8.053 -10.728  1.00  0.00     0.000 C 
BRANCH  27  28
HETATM   28  C   UNL     1     -24.298   7.832 -11.364  1.00  0.00     0.000 C 
BRANCH  28  29
HETATM   29  C   UNL     1     -23.944   9.010 -12.252  1.00  0.00     0.000 C 
BRANCH  29  30
HETATM   30  C   UNL     1     -22.705   9.703 -11.720  1.00  0.00     0.000 C 
BRANCH  30  31
HETATM   31  C   UNL     1     -23.104  10.826 -10.781  1.00  0.00     0.000 C 
BRANCH  31  32
HETATM   32  C   UNL     1     -21.864  11.520 -10.252  1.00  0.00     0.000 C 
BRANCH  32  33
HETATM   33  C   UNL     1     -20.624  10.893 -10.859  1.00  0.00     0.000 C 
BRANCH  33  34
HETATM   34  C   UNL     1     -19.556  11.951 -11.060  1.00  0.00     0.000 C 
BRANCH  34  35
HETATM   35  C   UNL     1     -18.323  11.328 -11.685  1.00  0.00     0.000 C 
BRANCH  35  36
HETATM   36  C   UNL     1     -17.838  12.187 -12.836  1.00  0.00     0.000 C 
BRANCH  36  37
HETATM   37  C   UNL     1     -17.922  11.407 -14.135  1.00  0.00     0.000 C 
BRANCH  37  38
HETATM   38  C   UNL     1     -18.525  12.276 -15.225  1.00  0.00    -0.000 C 
BRANCH  38  39
HETATM   39  C   UNL     1     -19.805  11.648 -15.751  1.00  0.00    -0.005 C 
HETATM   40  C   UNL     1     -20.796  11.461 -14.622  1.00  0.00     0.005 C 
ENDBRANCH  38  39
ENDBRANCH  37  38
ENDBRANCH  36  37
ENDBRANCH  35  36
ENDBRANCH  34  35
ENDBRANCH  33  34
ENDBRANCH  32  33
ENDBRANCH  31  32
ENDBRANCH  30  31
ENDBRANCH  29  30
ENDBRANCH  28  29
ENDBRANCH  27  28
ENDBRANCH  26  27
ENDBRANCH  25  26
ENDBRANCH  24  25
ENDBRANCH  23  24
ENDBRANCH  22  23
ENDBRANCH  20  22
ENDBRANCH   1  20
BRANCH  10  41
HETATM   41  O   UNL     1     -27.095   9.568   1.600  1.00  0.00    -0.365 OA
ATOM     42  HO  UNL     1     -27.764   9.133   1.086  1.00  0.00     0.217 HD
ENDBRANCH  10  41
BRANCH  11  43
HETATM   43  C   UNL     1     -22.839  11.076   1.974  1.00  0.00    -0.036 A 
HETATM   44  C   UNL     1     -22.517  10.637   3.517  1.00  0.00     0.005 A 
HETATM   45  C   UNL     1     -23.089   9.641   2.771  1.00  0.00     0.016 A 
HETATM   46  C   UNL     1     -21.168  10.257   4.125  1.00  0.00    -0.017 C 
HETATM   47  C   UNL     1     -20.138  10.005   3.022  1.00  0.00     0.126 C 
HETATM   48  C   UNL     1     -20.670  11.331   5.134  1.00  0.00     0.018 C 
HETATM   49  C   UNL     1     -21.431   8.974   4.931  1.00  0.00     0.018 C 
HETATM   50  C   UNL     1     -19.966  11.222   2.138  1.00  0.00     0.033 C 
HETATM   51  C   UNL     1     -21.263  11.442   1.296  1.00  0.00     0.012 C 
HETATM   52  C   UNL     1     -22.621  12.814   2.855  1.00  0.00     0.015 C 
BRANCH  47  53
HETATM   53  O   UNL     1     -18.896   9.600   3.578  1.00  0.00    -0.395 OA
HETATM   54  H   UNL     1     -18.854   8.632   3.537  1.00  0.00     0.210 HD
ENDBRANCH  47  53
ENDBRANCH  11  43
TORSDOF 23
ENDMDL
MODEL 9
REMARK VINA RESULT:      -7.3      6.035      8.975
REMARK  23 active torsions:
REMARK  status: ('A' for Active; 'I' for Inactive)
REMARK    1  A    between atoms: C_2  and  C_3 
REMARK    2  A    between atoms: C_3  and  C_4 
REMARK    3  A    between atoms: C_4  and  C_5 
REMARK    4  A    between atoms: C_5  and  C_6 
REMARK    5  A    between atoms: C_6  and  C_7 
REMARK    6  A    between atoms: C_7  and  C_8 
REMARK    7  A    between atoms: C_8  and  C_9 
REMARK    8  A    between atoms: C_9  and  C_10 
REMARK    9  A    between atoms: C_10  and  C_11 
REMARK   10  A    between atoms: C_11  and  C_12 
REMARK   11  A    between atoms: C_12  and  C_13 
REMARK   12  A    between atoms: C_13  and  C_14 
REMARK   13  A    between atoms: C_14  and  C_15 
REMARK   14  A    between atoms: C_15  and  C_16 
REMARK   15  A    between atoms: C_16  and  C_17 
REMARK   16  A    between atoms: C_17  and  C_18 
REMARK   17  A    between atoms: C_18  and  O_19 
REMARK   18  A    between atoms: O_19  and  C_20 
REMARK   19  A    between atoms: C_20  and  C_22 
REMARK   20  A    between atoms: C_31  and  O_32 
REMARK   21  A    between atoms: C_34  and  C_39 
REMARK   22  A    between atoms: C_36  and  C_37 
REMARK   23  A    between atoms: C_42  and  O_46 
ROOT
HETATM    1  C   UNL     1     -21.127  -7.502  -4.183  1.00  0.00     0.045 C 
HETATM    2  C   UNL     1     -20.924  -8.918  -4.598  1.00  0.00     0.020 C 
HETATM    3  C   UNL     1     -22.287  -9.485  -4.325  1.00  0.00     0.011 C 
HETATM    4  C   UNL     1     -21.709 -10.506  -3.533  1.00  0.00    -0.036 C 
HETATM    5  C   UNL     1     -22.799 -11.509  -3.180  1.00  0.00     0.011 C 
HETATM    6  C   UNL     1     -22.027 -12.248  -2.212  1.00  0.00     0.015 C 
HETATM    7  C   UNL     1     -22.178 -11.300  -1.058  1.00  0.00    -0.012 C 
HETATM    8  C   UNL     1     -21.813  -9.701  -0.926  1.00  0.00    -0.064 C 
HETATM    9  C   UNL     1     -21.434  -9.256   0.320  1.00  0.00     0.036 C 
HETATM   10  C   UNL     1     -21.007 -10.617   1.224  1.00  0.00     0.048 C 
HETATM   11  C   UNL     1     -21.623 -12.145   0.581  1.00  0.00     0.049 A 
HETATM   12  C   UNL     1     -20.877 -11.865  -0.533  1.00  0.00    -0.023 A 
HETATM   13  C   UNL     1     -20.373 -12.870   0.474  1.00  0.00     0.022 A 
HETATM   14  C   UNL     1     -19.636 -11.211  -1.082  1.00  0.00     0.017 C 
HETATM   15  C   UNL     1     -21.093  -9.102  -2.265  1.00  0.00     0.025 C 
HETATM   16  C   UNL     1     -20.169  -7.642  -3.016  1.00  0.00     0.029 C 
HETATM   17  C   UNL     1     -23.743 -11.794  -0.714  1.00  0.00     0.021 C 
HETATM   18  C   UNL     1     -21.257 -11.547  -4.905  1.00  0.00     0.016 C 
HETATM   19  C   UNL     1     -22.554  -7.076  -3.539  1.00  0.00     0.026 C 
ENDROOT
BRANCH   1  20
HETATM   20  C   UNL     1     -20.934  -6.745  -5.458  1.00  0.00     0.267 C 
HETATM   21  O   UNL     1     -21.488  -5.668  -5.677  1.00  0.00    -0.264 OA
BRANCH  20  22
HETATM   22  O   UNL     1     -20.234  -7.486  -6.335  1.00  0.00    -0.321 OA
BRANCH  22  23
HETATM   23  C   UNL     1     -18.824  -7.332  -6.239  1.00  0.00     0.178 C 
BRANCH  23  24
HETATM   24  C   UNL     1     -18.121  -8.638  -6.571  1.00  0.00     0.027 C 
BRANCH  24  25
HETATM   25  C   UNL     1     -18.131  -9.522  -5.339  1.00  0.00     0.002 C 
BRANCH  25  26
HETATM   26  C   UNL     1     -16.724  -9.727  -4.814  1.00  0.00     0.000 C 
BRANCH  26  27
HETATM   27  C   UNL     1     -16.743  -9.768  -3.297  1.00  0.00     0.000 C 
BRANCH  27  28
HETATM   28  C   UNL     1     -15.668 -10.711  -2.792  1.00  0.00     0.000 C 
BRANCH  28  29
HETATM   29  C   UNL     1     -15.983 -11.142  -1.372  1.00  0.00     0.000 C 
BRANCH  29  30
HETATM   30  C   UNL     1     -15.786 -12.639  -1.230  1.00  0.00     0.000 C 
BRANCH  30  31
HETATM   31  C   UNL     1     -16.296 -13.346  -2.471  1.00  0.00     0.000 C 
BRANCH  31  32
HETATM   32  C   UNL     1     -17.513 -14.182  -2.123  1.00  0.00     0.000 C 
BRANCH  32  33
HETATM   33  C   UNL     1     -18.592 -13.981  -3.169  1.00  0.00     0.000 C 
BRANCH  33  34
HETATM   34  C   UNL     1     -18.084 -13.064  -4.265  1.00  0.00     0.000 C 
BRANCH  34  35
HETATM   35  C   UNL     1     -18.103 -13.791  -5.596  1.00  0.00     0.000 C 
BRANCH  35  36
HETATM   36  C   UNL     1     -17.130 -13.134  -6.556  1.00  0.00     0.000 C 
BRANCH  36  37
HETATM   37  C   UNL     1     -15.704 -13.397  -6.107  1.00  0.00     0.000 C 
BRANCH  37  38
HETATM   38  C   UNL     1     -14.851 -12.163  -6.339  1.00  0.00    -0.000 C 
BRANCH  38  39
HETATM   39  C   UNL     1     -13.609 -12.210  -5.463  1.00  0.00    -0.005 C 
HETATM   40  C   UNL     1     -13.509 -13.554  -4.773  1.00  0.00     0.005 C 
ENDBRANCH  38  39
ENDBRANCH  37  38
ENDBRANCH  36  37
ENDBRANCH  35  36
ENDBRANCH  34  35
ENDBRANCH  33  34
ENDBRANCH  32  33
ENDBRANCH  31  32
ENDBRANCH  30  31
ENDBRANCH  29  30
ENDBRANCH  28  29
ENDBRANCH  27  28
ENDBRANCH  26  27
ENDBRANCH  25  26
ENDBRANCH  24  25
ENDBRANCH  23  24
ENDBRANCH  22  23
ENDBRANCH  20  22
ENDBRANCH   1  20
BRANCH  10  41
HETATM   41  O   UNL     1     -19.952 -10.274   2.023  1.00  0.00    -0.365 OA
ATOM     42  HO  UNL     1     -19.953  -9.329   2.116  1.00  0.00     0.217 HD
ENDBRANCH  10  41
BRANCH  11  43
HETATM   43  C   UNL     1     -21.671 -14.205   0.565  1.00  0.00    -0.036 A 
HETATM   44  C   UNL     1     -22.269 -14.682   2.010  1.00  0.00     0.005 A 
HETATM   45  C   UNL     1     -22.551 -13.377   1.704  1.00  0.00     0.016 A 
HETATM   46  C   UNL     1     -23.508 -15.536   2.281  1.00  0.00    -0.017 C 
HETATM   47  C   UNL     1     -24.365 -15.646   1.018  1.00  0.00     0.126 C 
HETATM   48  C   UNL     1     -23.127 -16.939   2.836  1.00  0.00     0.018 C 
HETATM   49  C   UNL     1     -24.270 -14.804   3.398  1.00  0.00     0.018 C 
HETATM   50  C   UNL     1     -23.582 -16.246  -0.130  1.00  0.00     0.033 C 
HETATM   51  C   UNL     1     -22.486 -15.236  -0.597  1.00  0.00     0.012 C 
HETATM   52  C   UNL     1     -20.617 -15.816   0.929  1.00  0.00     0.015 C 
BRANCH  47  53
HETATM   53  O   UNL     1     -25.543 -16.394   1.277  1.00  0.00    -0.395 OA
HETATM   54  H   UNL     1     -25.929 -16.644   0.423  1.00  0.00     0.210 HD
ENDBRANCH  47  53
ENDBRANCH  11  43
TORSDOF 23
ENDMDL
