MODEL 1
REMARK VINA RESULT:      -1.3      0.000      0.000
REMARK  7 active torsions:
REMARK  status: ('A' for Active; 'I' for Inactive)
REMARK    1  A    between atoms: C_4  and  N_14 
REMARK    2  A    between atoms: C_5  and  O_12 
REMARK    3  A    between atoms: C_7  and  S_8 
REMARK    4  A    between atoms: S_8  and  O_10 
REMARK    5  A    between atoms: N_16  and  C_18 
REMARK    6  A    between atoms: C_19  and  O_32 
REMARK    7  A    between atoms: C_26  and  S_28 
ROOT
HETATM    1 NA   UNL     3     -32.324  -8.576   4.529  1.00  0.00     0.000 Na
ENDROOT
TORSDOF 7
ENDMDL
MODEL 2
REMARK VINA RESULT:      -1.3     23.494     23.494
REMARK  7 active torsions:
REMARK  status: ('A' for Active; 'I' for Inactive)
REMARK    1  A    between atoms: C_4  and  N_14 
REMARK    2  A    between atoms: C_5  and  O_12 
REMARK    3  A    between atoms: C_7  and  S_8 
REMARK    4  A    between atoms: S_8  and  O_10 
REMARK    5  A    between atoms: N_16  and  C_18 
REMARK    6  A    between atoms: C_19  and  O_32 
REMARK    7  A    between atoms: C_26  and  S_28 
ROOT
HETATM    1 NA   UNL     3     -11.257   1.620   2.468  1.00  0.00     0.000 Na
ENDROOT
TORSDOF 7
ENDMDL
MODEL 3
REMARK VINA RESULT:      -1.2     19.033     19.033
REMARK  7 active torsions:
REMARK  status: ('A' for Active; 'I' for Inactive)
REMARK    1  A    between atoms: C_4  and  N_14 
REMARK    2  A    between atoms: C_5  and  O_12 
REMARK    3  A    between atoms: C_7  and  S_8 
REMARK    4  A    between atoms: S_8  and  O_10 
REMARK    5  A    between atoms: N_16  and  C_18 
REMARK    6  A    between atoms: C_19  and  O_32 
REMARK    7  A    between atoms: C_26  and  S_28 
ROOT
HETATM    1 NA   UNL     3     -27.015 -13.665 -13.026  1.00  0.00     0.000 Na
ENDROOT
TORSDOF 7
ENDMDL
MODEL 4
REMARK VINA RESULT:      -1.2     22.209     22.209
REMARK  7 active torsions:
REMARK  status: ('A' for Active; 'I' for Inactive)
REMARK    1  A    between atoms: C_4  and  N_14 
REMARK    2  A    between atoms: C_5  and  O_12 
REMARK    3  A    between atoms: C_7  and  S_8 
REMARK    4  A    between atoms: S_8  and  O_10 
REMARK    5  A    between atoms: N_16  and  C_18 
REMARK    6  A    between atoms: C_19  and  O_32 
REMARK    7  A    between atoms: C_26  and  S_28 
ROOT
HETATM    1 NA   UNL     3     -25.113   0.407 -14.459  1.00  0.00     0.000 Na
ENDROOT
TORSDOF 7
ENDMDL
MODEL 5
REMARK VINA RESULT:      -1.2     14.856     14.856
REMARK  7 active torsions:
REMARK  status: ('A' for Active; 'I' for Inactive)
REMARK    1  A    between atoms: C_4  and  N_14 
REMARK    2  A    between atoms: C_5  and  O_12 
REMARK    3  A    between atoms: C_7  and  S_8 
REMARK    4  A    between atoms: S_8  and  O_10 
REMARK    5  A    between atoms: N_16  and  C_18 
REMARK    6  A    between atoms: C_19  and  O_32 
REMARK    7  A    between atoms: C_26  and  S_28 
ROOT
HETATM    1 NA   UNL     3     -27.327  -5.621  -9.146  1.00  0.00     0.000 Na
ENDROOT
TORSDOF 7
ENDMDL
MODEL 6
REMARK VINA RESULT:      -1.2     34.908     34.908
REMARK  7 active torsions:
REMARK  status: ('A' for Active; 'I' for Inactive)
REMARK    1  A    between atoms: C_4  and  N_14 
REMARK    2  A    between atoms: C_5  and  O_12 
REMARK    3  A    between atoms: C_7  and  S_8 
REMARK    4  A    between atoms: S_8  and  O_10 
REMARK    5  A    between atoms: N_16  and  C_18 
REMARK    6  A    between atoms: C_19  and  O_32 
REMARK    7  A    between atoms: C_26  and  S_28 
ROOT
HETATM    1 NA   UNL     3      -9.119   5.885 -17.174  1.00  0.00     0.000 Na
ENDROOT
TORSDOF 7
ENDMDL
MODEL 7
REMARK VINA RESULT:      -1.1     12.328     12.328
REMARK  7 active torsions:
REMARK  status: ('A' for Active; 'I' for Inactive)
REMARK    1  A    between atoms: C_4  and  N_14 
REMARK    2  A    between atoms: C_5  and  O_12 
REMARK    3  A    between atoms: C_7  and  S_8 
REMARK    4  A    between atoms: S_8  and  O_10 
REMARK    5  A    between atoms: N_16  and  C_18 
REMARK    6  A    between atoms: C_19  and  O_32 
REMARK    7  A    between atoms: C_26  and  S_28 
ROOT
HETATM    1 NA   UNL     3     -25.223  -5.220  -4.974  1.00  0.00     0.000 Na
ENDROOT
TORSDOF 7
ENDMDL
MODEL 8
REMARK VINA RESULT:      -1.0      9.903      9.903
REMARK  7 active torsions:
REMARK  status: ('A' for Active; 'I' for Inactive)
REMARK    1  A    between atoms: C_4  and  N_14 
REMARK    2  A    between atoms: C_5  and  O_12 
REMARK    3  A    between atoms: C_7  and  S_8 
REMARK    4  A    between atoms: S_8  and  O_10 
REMARK    5  A    between atoms: N_16  and  C_18 
REMARK    6  A    between atoms: C_19  and  O_32 
REMARK    7  A    between atoms: C_26  and  S_28 
ROOT
HETATM    1 NA   UNL     3     -32.732  -6.044  -5.037  1.00  0.00     0.000 Na
ENDROOT
TORSDOF 7
ENDMDL
MODEL 9
REMARK VINA RESULT:      -1.0     25.407     25.407
REMARK  7 active torsions:
REMARK  status: ('A' for Active; 'I' for Inactive)
REMARK    1  A    between atoms: C_4  and  N_14 
REMARK    2  A    between atoms: C_5  and  O_12 
REMARK    3  A    between atoms: C_7  and  S_8 
REMARK    4  A    between atoms: S_8  and  O_10 
REMARK    5  A    between atoms: N_16  and  C_18 
REMARK    6  A    between atoms: C_19  and  O_32 
REMARK    7  A    between atoms: C_26  and  S_28 
ROOT
HETATM    1 NA   UNL     3     -23.221   0.196 -17.511  1.00  0.00     0.000 Na
ENDROOT
TORSDOF 7
ENDMDL
