MODEL 1
REMARK VINA RESULT:      -1.3      0.000      0.000
REMARK  6 active torsions:
REMARK  status: ('A' for Active; 'I' for Inactive)
REMARK    1  A    between atoms: C_19  and  C_20 
REMARK    2  A    between atoms: C_19  and  O_34 
REMARK    3  A    between atoms: C_20  and  O_33 
REMARK    4  A    between atoms: C_23  and  O_27 
REMARK    5  A    between atoms: O_27  and  P_28 
REMARK    6  A    between atoms: P_28  and  O_30 
ROOT
HETATM    1 MG   UNL     4     -32.324  -8.576   4.529  1.00  0.00     0.000 Mg
ENDROOT
TORSDOF 6
ENDMDL
MODEL 2
REMARK VINA RESULT:      -1.3     23.494     23.494
REMARK  6 active torsions:
REMARK  status: ('A' for Active; 'I' for Inactive)
REMARK    1  A    between atoms: C_19  and  C_20 
REMARK    2  A    between atoms: C_19  and  O_34 
REMARK    3  A    between atoms: C_20  and  O_33 
REMARK    4  A    between atoms: C_23  and  O_27 
REMARK    5  A    between atoms: O_27  and  P_28 
REMARK    6  A    between atoms: P_28  and  O_30 
ROOT
HETATM    1 MG   UNL     4     -11.257   1.620   2.468  1.00  0.00     0.000 Mg
ENDROOT
TORSDOF 6
ENDMDL
MODEL 3
REMARK VINA RESULT:      -1.2     19.033     19.033
REMARK  6 active torsions:
REMARK  status: ('A' for Active; 'I' for Inactive)
REMARK    1  A    between atoms: C_19  and  C_20 
REMARK    2  A    between atoms: C_19  and  O_34 
REMARK    3  A    between atoms: C_20  and  O_33 
REMARK    4  A    between atoms: C_23  and  O_27 
REMARK    5  A    between atoms: O_27  and  P_28 
REMARK    6  A    between atoms: P_28  and  O_30 
ROOT
HETATM    1 MG   UNL     4     -27.015 -13.665 -13.026  1.00  0.00     0.000 Mg
ENDROOT
TORSDOF 6
ENDMDL
MODEL 4
REMARK VINA RESULT:      -1.2     22.209     22.209
REMARK  6 active torsions:
REMARK  status: ('A' for Active; 'I' for Inactive)
REMARK    1  A    between atoms: C_19  and  C_20 
REMARK    2  A    between atoms: C_19  and  O_34 
REMARK    3  A    between atoms: C_20  and  O_33 
REMARK    4  A    between atoms: C_23  and  O_27 
REMARK    5  A    between atoms: O_27  and  P_28 
REMARK    6  A    between atoms: P_28  and  O_30 
ROOT
HETATM    1 MG   UNL     4     -25.113   0.407 -14.459  1.00  0.00     0.000 Mg
ENDROOT
TORSDOF 6
ENDMDL
MODEL 5
REMARK VINA RESULT:      -1.2     14.870     14.870
REMARK  6 active torsions:
REMARK  status: ('A' for Active; 'I' for Inactive)
REMARK    1  A    between atoms: C_19  and  C_20 
REMARK    2  A    between atoms: C_19  and  O_34 
REMARK    3  A    between atoms: C_20  and  O_33 
REMARK    4  A    between atoms: C_23  and  O_27 
REMARK    5  A    between atoms: O_27  and  P_28 
REMARK    6  A    between atoms: P_28  and  O_30 
ROOT
HETATM    1 MG   UNL     4     -27.299  -5.621  -9.151  1.00  0.00     0.000 Mg
ENDROOT
TORSDOF 6
ENDMDL
MODEL 6
REMARK VINA RESULT:      -1.2     34.909     34.909
REMARK  6 active torsions:
REMARK  status: ('A' for Active; 'I' for Inactive)
REMARK    1  A    between atoms: C_19  and  C_20 
REMARK    2  A    between atoms: C_19  and  O_34 
REMARK    3  A    between atoms: C_20  and  O_33 
REMARK    4  A    between atoms: C_23  and  O_27 
REMARK    5  A    between atoms: O_27  and  P_28 
REMARK    6  A    between atoms: P_28  and  O_30 
ROOT
HETATM    1 MG   UNL     4      -9.119   5.885 -17.174  1.00  0.00     0.000 Mg
ENDROOT
TORSDOF 6
ENDMDL
MODEL 7
REMARK VINA RESULT:      -1.0     25.476     25.476
REMARK  6 active torsions:
REMARK  status: ('A' for Active; 'I' for Inactive)
REMARK    1  A    between atoms: C_19  and  C_20 
REMARK    2  A    between atoms: C_19  and  O_34 
REMARK    3  A    between atoms: C_20  and  O_33 
REMARK    4  A    between atoms: C_23  and  O_27 
REMARK    5  A    between atoms: O_27  and  P_28 
REMARK    6  A    between atoms: P_28  and  O_30 
ROOT
HETATM    1 MG   UNL     4     -23.183   0.190 -17.576  1.00  0.00     0.000 Mg
ENDROOT
TORSDOF 6
ENDMDL
MODEL 8
REMARK VINA RESULT:      -1.0     15.718     15.718
REMARK  6 active torsions:
REMARK  status: ('A' for Active; 'I' for Inactive)
REMARK    1  A    between atoms: C_19  and  C_20 
REMARK    2  A    between atoms: C_19  and  O_34 
REMARK    3  A    between atoms: C_20  and  O_33 
REMARK    4  A    between atoms: C_23  and  O_27 
REMARK    5  A    between atoms: O_27  and  P_28 
REMARK    6  A    between atoms: P_28  and  O_30 
ROOT
HETATM    1 MG   UNL     4     -26.953  -3.578  -9.372  1.00  0.00     0.000 Mg
ENDROOT
TORSDOF 6
ENDMDL
MODEL 9
REMARK VINA RESULT:      -1.0     15.634     15.634
REMARK  6 active torsions:
REMARK  status: ('A' for Active; 'I' for Inactive)
REMARK    1  A    between atoms: C_19  and  C_20 
REMARK    2  A    between atoms: C_19  and  O_34 
REMARK    3  A    between atoms: C_20  and  O_33 
REMARK    4  A    between atoms: C_23  and  O_27 
REMARK    5  A    between atoms: O_27  and  P_28 
REMARK    6  A    between atoms: P_28  and  O_30 
ROOT
HETATM    1 MG   UNL     4     -32.964  -9.817 -11.042  1.00  0.00     0.000 Mg
ENDROOT
TORSDOF 6
ENDMDL
