MODEL 1
REMARK VINA RESULT:      -3.3      0.000      0.000
REMARK  13 active torsions:
REMARK  status: ('A' for Active; 'I' for Inactive)
REMARK    1  A    between atoms: C_2  and  O_4 
REMARK    2  A    between atoms: C_7  and  O_9 
REMARK    3  A    between atoms: C_13  and  C_21 
REMARK       I    between atoms: N_14  and  C_16 
REMARK    4  A    between atoms: C_16  and  C_18 
REMARK    5  A    between atoms: C_18  and  C_19 
REMARK    6  A    between atoms: C_19  and  N_20 
REMARK       I    between atoms: C_21  and  N_23 
REMARK    7  A    between atoms: N_23  and  C_24 
REMARK    8  A    between atoms: C_24  and  C_25 
REMARK    9  A    between atoms: C_24  and  C_28 
REMARK   10  A    between atoms: C_25  and  C_26 
REMARK   11  A    between atoms: C_26  and  N_27 
REMARK       I    between atoms: C_28  and  N_30 
REMARK   12  A    between atoms: N_30  and  C_31 
REMARK   13  A    between atoms: C_31  and  C_32 
ROOT
HETATM    1  C   UNL     1     -22.840  -3.022 -13.149  1.00  0.00     0.125 C 
HETATM    2  C   UNL     1     -23.039  -2.654 -14.591  1.00  0.00     0.135 C 
HETATM    3  O   UNL     1     -23.953  -1.947 -14.994  1.00  0.00    -0.650 OA
ENDROOT
BRANCH   2   4
HETATM    4  O   UNL     1     -22.136  -3.184 -15.442  1.00  0.00    -0.777 OA
HETATM    5  H   UNL     1     -21.309  -3.497 -15.020  1.00  0.00     0.167 HD
ENDBRANCH   2   4
TORSDOF 13
ENDMDL
MODEL 2
REMARK VINA RESULT:      -3.2      5.025      5.485
REMARK  13 active torsions:
REMARK  status: ('A' for Active; 'I' for Inactive)
REMARK    1  A    between atoms: C_2  and  O_4 
REMARK    2  A    between atoms: C_7  and  O_9 
REMARK    3  A    between atoms: C_13  and  C_21 
REMARK       I    between atoms: N_14  and  C_16 
REMARK    4  A    between atoms: C_16  and  C_18 
REMARK    5  A    between atoms: C_18  and  C_19 
REMARK    6  A    between atoms: C_19  and  N_20 
REMARK       I    between atoms: C_21  and  N_23 
REMARK    7  A    between atoms: N_23  and  C_24 
REMARK    8  A    between atoms: C_24  and  C_25 
REMARK    9  A    between atoms: C_24  and  C_28 
REMARK   10  A    between atoms: C_25  and  C_26 
REMARK   11  A    between atoms: C_26  and  N_27 
REMARK       I    between atoms: C_28  and  N_30 
REMARK   12  A    between atoms: N_30  and  C_31 
REMARK   13  A    between atoms: C_31  and  C_32 
ROOT
HETATM    1  C   UNL     1     -23.782  -4.812 -10.535  1.00  0.00     0.125 C 
HETATM    2  C   UNL     1     -24.560  -3.847  -9.687  1.00  0.00     0.135 C 
HETATM    3  O   UNL     1     -25.486  -3.166 -10.104  1.00  0.00    -0.650 OA
ENDROOT
BRANCH   2   4
HETATM    4  O   UNL     1     -24.146  -3.757  -8.406  1.00  0.00    -0.777 OA
HETATM    5  H   UNL     1     -24.183  -2.855  -8.025  1.00  0.00     0.167 HD
ENDBRANCH   2   4
TORSDOF 13
ENDMDL
MODEL 3
REMARK VINA RESULT:      -3.2     13.913     14.016
REMARK  13 active torsions:
REMARK  status: ('A' for Active; 'I' for Inactive)
REMARK    1  A    between atoms: C_2  and  O_4 
REMARK    2  A    between atoms: C_7  and  O_9 
REMARK    3  A    between atoms: C_13  and  C_21 
REMARK       I    between atoms: N_14  and  C_16 
REMARK    4  A    between atoms: C_16  and  C_18 
REMARK    5  A    between atoms: C_18  and  C_19 
REMARK    6  A    between atoms: C_19  and  N_20 
REMARK       I    between atoms: C_21  and  N_23 
REMARK    7  A    between atoms: N_23  and  C_24 
REMARK    8  A    between atoms: C_24  and  C_25 
REMARK    9  A    between atoms: C_24  and  C_28 
REMARK   10  A    between atoms: C_25  and  C_26 
REMARK   11  A    between atoms: C_26  and  N_27 
REMARK       I    between atoms: C_28  and  N_30 
REMARK   12  A    between atoms: N_30  and  C_31 
REMARK   13  A    between atoms: C_31  and  C_32 
ROOT
HETATM    1  C   UNL     1     -28.696 -15.085 -17.877  1.00  0.00     0.125 C 
HETATM    2  C   UNL     1     -29.677 -14.196 -18.586  1.00  0.00     0.135 C 
HETATM    3  O   UNL     1     -29.371 -13.151 -19.141  1.00  0.00    -0.650 OA
ENDROOT
BRANCH   2   4
HETATM    4  O   UNL     1     -30.957 -14.622 -18.551  1.00  0.00    -0.777 OA
HETATM    5  H   UNL     1     -31.540 -14.121 -17.942  1.00  0.00     0.167 HD
ENDBRANCH   2   4
TORSDOF 13
ENDMDL
MODEL 4
REMARK VINA RESULT:      -3.1     14.467     14.617
REMARK  13 active torsions:
REMARK  status: ('A' for Active; 'I' for Inactive)
REMARK    1  A    between atoms: C_2  and  O_4 
REMARK    2  A    between atoms: C_7  and  O_9 
REMARK    3  A    between atoms: C_13  and  C_21 
REMARK       I    between atoms: N_14  and  C_16 
REMARK    4  A    between atoms: C_16  and  C_18 
REMARK    5  A    between atoms: C_18  and  C_19 
REMARK    6  A    between atoms: C_19  and  N_20 
REMARK       I    between atoms: C_21  and  N_23 
REMARK    7  A    between atoms: N_23  and  C_24 
REMARK    8  A    between atoms: C_24  and  C_25 
REMARK    9  A    between atoms: C_24  and  C_28 
REMARK   10  A    between atoms: C_25  and  C_26 
REMARK   11  A    between atoms: C_26  and  N_27 
REMARK       I    between atoms: C_28  and  N_30 
REMARK   12  A    between atoms: N_30  and  C_31 
REMARK   13  A    between atoms: C_31  and  C_32 
ROOT
HETATM    1  C   UNL     1     -29.871 -15.710 -20.360  1.00  0.00     0.125 C 
HETATM    2  C   UNL     1     -29.619 -14.231 -20.307  1.00  0.00     0.135 C 
HETATM    3  O   UNL     1     -30.008 -13.506 -19.401  1.00  0.00    -0.650 OA
ENDROOT
BRANCH   2   4
HETATM    4  O   UNL     1     -28.940 -13.732 -21.360  1.00  0.00    -0.777 OA
HETATM    5  H   UNL     1     -29.492 -13.262 -22.020  1.00  0.00     0.167 HD
ENDBRANCH   2   4
TORSDOF 13
ENDMDL
MODEL 5
REMARK VINA RESULT:      -3.1     16.077     16.251
REMARK  13 active torsions:
REMARK  status: ('A' for Active; 'I' for Inactive)
REMARK    1  A    between atoms: C_2  and  O_4 
REMARK    2  A    between atoms: C_7  and  O_9 
REMARK    3  A    between atoms: C_13  and  C_21 
REMARK       I    between atoms: N_14  and  C_16 
REMARK    4  A    between atoms: C_16  and  C_18 
REMARK    5  A    between atoms: C_18  and  C_19 
REMARK    6  A    between atoms: C_19  and  N_20 
REMARK       I    between atoms: C_21  and  N_23 
REMARK    7  A    between atoms: N_23  and  C_24 
REMARK    8  A    between atoms: C_24  and  C_25 
REMARK    9  A    between atoms: C_24  and  C_28 
REMARK   10  A    between atoms: C_25  and  C_26 
REMARK   11  A    between atoms: C_26  and  N_27 
REMARK       I    between atoms: C_28  and  N_30 
REMARK   12  A    between atoms: N_30  and  C_31 
REMARK   13  A    between atoms: C_31  and  C_32 
ROOT
HETATM    1  C   UNL     1     -30.846 -16.022 -22.103  1.00  0.00     0.125 C 
HETATM    2  C   UNL     1     -31.138 -14.637 -21.599  1.00  0.00     0.135 C 
HETATM    3  O   UNL     1     -30.849 -14.247 -20.476  1.00  0.00    -0.650 OA
ENDROOT
BRANCH   2   4
HETATM    4  O   UNL     1     -31.776 -13.836 -22.477  1.00  0.00    -0.777 OA
HETATM    5  H   UNL     1     -32.522 -14.259 -22.951  1.00  0.00     0.167 HD
ENDBRANCH   2   4
TORSDOF 13
ENDMDL
MODEL 6
REMARK VINA RESULT:      -3.1      4.411      5.049
REMARK  13 active torsions:
REMARK  status: ('A' for Active; 'I' for Inactive)
REMARK    1  A    between atoms: C_2  and  O_4 
REMARK    2  A    between atoms: C_7  and  O_9 
REMARK    3  A    between atoms: C_13  and  C_21 
REMARK       I    between atoms: N_14  and  C_16 
REMARK    4  A    between atoms: C_16  and  C_18 
REMARK    5  A    between atoms: C_18  and  C_19 
REMARK    6  A    between atoms: C_19  and  N_20 
REMARK       I    between atoms: C_21  and  N_23 
REMARK    7  A    between atoms: N_23  and  C_24 
REMARK    8  A    between atoms: C_24  and  C_25 
REMARK    9  A    between atoms: C_24  and  C_28 
REMARK   10  A    between atoms: C_25  and  C_26 
REMARK   11  A    between atoms: C_26  and  N_27 
REMARK       I    between atoms: C_28  and  N_30 
REMARK   12  A    between atoms: N_30  and  C_31 
REMARK   13  A    between atoms: C_31  and  C_32 
ROOT
HETATM    1  C   UNL     1     -23.646  -3.805  -9.191  1.00  0.00     0.125 C 
HETATM    2  C   UNL     1     -24.673  -3.310 -10.169  1.00  0.00     0.135 C 
HETATM    3  O   UNL     1     -24.418  -2.993 -11.322  1.00  0.00    -0.650 OA
ENDROOT
BRANCH   2   4
HETATM    4  O   UNL     1     -25.925  -3.213  -9.676  1.00  0.00    -0.777 OA
HETATM    5  H   UNL     1     -26.026  -2.581  -8.934  1.00  0.00     0.167 HD
ENDBRANCH   2   4
TORSDOF 13
ENDMDL
MODEL 7
REMARK VINA RESULT:      -3.0      2.387      2.953
REMARK  13 active torsions:
REMARK  status: ('A' for Active; 'I' for Inactive)
REMARK    1  A    between atoms: C_2  and  O_4 
REMARK    2  A    between atoms: C_7  and  O_9 
REMARK    3  A    between atoms: C_13  and  C_21 
REMARK       I    between atoms: N_14  and  C_16 
REMARK    4  A    between atoms: C_16  and  C_18 
REMARK    5  A    between atoms: C_18  and  C_19 
REMARK    6  A    between atoms: C_19  and  N_20 
REMARK       I    between atoms: C_21  and  N_23 
REMARK    7  A    between atoms: N_23  and  C_24 
REMARK    8  A    between atoms: C_24  and  C_25 
REMARK    9  A    between atoms: C_24  and  C_28 
REMARK   10  A    between atoms: C_25  and  C_26 
REMARK   11  A    between atoms: C_26  and  N_27 
REMARK       I    between atoms: C_28  and  N_30 
REMARK   12  A    between atoms: N_30  and  C_31 
REMARK   13  A    between atoms: C_31  and  C_32 
ROOT
HETATM    1  C   UNL     1     -22.641  -3.141 -12.084  1.00  0.00     0.125 C 
HETATM    2  C   UNL     1     -24.115  -2.876 -12.192  1.00  0.00     0.135 C 
HETATM    3  O   UNL     1     -24.927  -3.181 -11.330  1.00  0.00    -0.650 OA
ENDROOT
BRANCH   2   4
HETATM    4  O   UNL     1     -24.503  -2.284 -13.341  1.00  0.00    -0.777 OA
HETATM    5  H   UNL     1     -24.513  -2.875 -14.124  1.00  0.00     0.167 HD
ENDBRANCH   2   4
TORSDOF 13
ENDMDL
MODEL 8
REMARK VINA RESULT:      -3.0     15.725     16.084
REMARK  13 active torsions:
REMARK  status: ('A' for Active; 'I' for Inactive)
REMARK    1  A    between atoms: C_2  and  O_4 
REMARK    2  A    between atoms: C_7  and  O_9 
REMARK    3  A    between atoms: C_13  and  C_21 
REMARK       I    between atoms: N_14  and  C_16 
REMARK    4  A    between atoms: C_16  and  C_18 
REMARK    5  A    between atoms: C_18  and  C_19 
REMARK    6  A    between atoms: C_19  and  N_20 
REMARK       I    between atoms: C_21  and  N_23 
REMARK    7  A    between atoms: N_23  and  C_24 
REMARK    8  A    between atoms: C_24  and  C_25 
REMARK    9  A    between atoms: C_24  and  C_28 
REMARK   10  A    between atoms: C_25  and  C_26 
REMARK   11  A    between atoms: C_26  and  N_27 
REMARK       I    between atoms: C_28  and  N_30 
REMARK   12  A    between atoms: N_30  and  C_31 
REMARK   13  A    between atoms: C_31  and  C_32 
ROOT
HETATM    1  C   UNL     1      -9.606   6.082 -20.381  1.00  0.00     0.125 C 
HETATM    2  C   UNL     1     -10.310   5.732 -19.102  1.00  0.00     0.135 C 
HETATM    3  O   UNL     1     -11.496   5.443 -19.034  1.00  0.00    -0.650 OA
ENDROOT
BRANCH   2   4
HETATM    4  O   UNL     1      -9.537   5.779 -17.997  1.00  0.00    -0.777 OA
HETATM    5  H   UNL     1      -9.134   4.923 -17.741  1.00  0.00     0.167 HD
ENDBRANCH   2   4
TORSDOF 13
ENDMDL
MODEL 9
REMARK VINA RESULT:      -2.8     13.537     14.006
REMARK  13 active torsions:
REMARK  status: ('A' for Active; 'I' for Inactive)
REMARK    1  A    between atoms: C_2  and  O_4 
REMARK    2  A    between atoms: C_7  and  O_9 
REMARK    3  A    between atoms: C_13  and  C_21 
REMARK       I    between atoms: N_14  and  C_16 
REMARK    4  A    between atoms: C_16  and  C_18 
REMARK    5  A    between atoms: C_18  and  C_19 
REMARK    6  A    between atoms: C_19  and  N_20 
REMARK       I    between atoms: C_21  and  N_23 
REMARK    7  A    between atoms: N_23  and  C_24 
REMARK    8  A    between atoms: C_24  and  C_25 
REMARK    9  A    between atoms: C_24  and  C_28 
REMARK   10  A    between atoms: C_25  and  C_26 
REMARK   11  A    between atoms: C_26  and  N_27 
REMARK       I    between atoms: C_28  and  N_30 
REMARK   12  A    between atoms: N_30  and  C_31 
REMARK   13  A    between atoms: C_31  and  C_32 
ROOT
HETATM    1  C   UNL     1     -26.961   9.761 -22.433  1.00  0.00     0.125 C 
HETATM    2  C   UNL     1     -26.497   8.651 -21.534  1.00  0.00     0.135 C 
HETATM    3  O   UNL     1     -25.367   8.575 -21.072  1.00  0.00    -0.650 OA
ENDROOT
BRANCH   2   4
HETATM    4  O   UNL     1     -27.423   7.702 -21.279  1.00  0.00    -0.777 OA
HETATM    5  H   UNL     1     -28.230   8.028 -20.829  1.00  0.00     0.167 HD
ENDBRANCH   2   4
TORSDOF 13
ENDMDL
