MODEL 1
REMARK VINA RESULT:      -4.9      0.000      0.000
REMARK  4 active torsions:
REMARK  status: ('A' for Active; 'I' for Inactive)
REMARK    1  A    between atoms: C_2  and  O_9 
REMARK    2  A    between atoms: C_3  and  O_8 
REMARK    3  A    between atoms: C_4  and  C_6 
REMARK    4  A    between atoms: C_6  and  O_7 
ROOT
HETATM    1  C   UNL     1     -21.739  -4.149 -10.278  1.00  0.00     0.202 C 
HETATM    2  C   UNL     1     -22.886  -4.487  -9.337  1.00  0.00     0.173 C 
HETATM    3  C   UNL     1     -24.095  -4.697 -10.246  1.00  0.00     0.180 C 
HETATM    4  C   UNL     1     -23.582  -4.356 -11.652  1.00  0.00     0.176 C 
HETATM    5  O   UNL     1     -22.155  -4.505 -11.605  1.00  0.00    -0.378 OA
ENDROOT
BRANCH   4   6
HETATM    6  C   UNL     1     -23.958  -2.962 -12.146  1.00  0.00     0.198 C 
BRANCH   6   7
HETATM    7  O   UNL     1     -25.319  -2.947 -12.581  1.00  0.00    -0.398 OA
HETATM    8  H   UNL     1     -25.652  -3.861 -12.506  1.00  0.00     0.209 HD
ENDBRANCH   6   7
ENDBRANCH   4   6
BRANCH   3   9
HETATM    9  O   UNL     1     -25.210  -3.942  -9.768  1.00  0.00    -0.390 OA
HETATM   10  H   UNL     1     -25.773  -4.542  -9.229  1.00  0.00     0.210 HD
ENDBRANCH   3   9
BRANCH   2  11
HETATM   11  O   UNL     1     -23.102  -3.427  -8.406  1.00  0.00    -0.391 OA
HETATM   12  H   UNL     1     -22.280  -2.891  -8.441  1.00  0.00     0.210 HD
ENDBRANCH   2  11
TORSDOF 4
ENDMDL
MODEL 2
REMARK VINA RESULT:      -4.8      1.526      2.775
REMARK  4 active torsions:
REMARK  status: ('A' for Active; 'I' for Inactive)
REMARK    1  A    between atoms: C_2  and  O_9 
REMARK    2  A    between atoms: C_3  and  O_8 
REMARK    3  A    between atoms: C_4  and  C_6 
REMARK    4  A    between atoms: C_6  and  O_7 
ROOT
HETATM    1  C   UNL     1     -24.164  -3.785 -10.318  1.00  0.00     0.202 C 
HETATM    2  C   UNL     1     -22.692  -3.479 -10.543  1.00  0.00     0.173 C 
HETATM    3  C   UNL     1     -22.626  -2.853 -11.934  1.00  0.00     0.180 C 
HETATM    4  C   UNL     1     -24.064  -2.942 -12.464  1.00  0.00     0.176 C 
HETATM    5  O   UNL     1     -24.909  -3.062 -11.310  1.00  0.00    -0.378 OA
ENDROOT
BRANCH   4   6
HETATM    6  C   UNL     1     -24.316  -4.093 -13.433  1.00  0.00     0.198 C 
BRANCH   6   7
HETATM    7  O   UNL     1     -23.783  -3.775 -14.721  1.00  0.00    -0.398 OA
HETATM    8  H   UNL     1     -24.089  -4.469 -15.334  1.00  0.00     0.209 HD
ENDBRANCH   6   7
ENDBRANCH   4   6
BRANCH   3   9
HETATM    9  O   UNL     1     -21.613  -3.489 -12.716  1.00  0.00    -0.390 OA
HETATM   10  H   UNL     1     -20.930  -3.839 -12.101  1.00  0.00     0.210 HD
ENDBRANCH   3   9
BRANCH   2  11
HETATM   11  O   UNL     1     -21.911  -4.671 -10.463  1.00  0.00    -0.391 OA
HETATM   12  H   UNL     1     -21.018  -4.368 -10.189  1.00  0.00     0.210 HD
ENDBRANCH   2  11
TORSDOF 4
ENDMDL
MODEL 3
REMARK VINA RESULT:      -4.8      1.417      1.985
REMARK  4 active torsions:
REMARK  status: ('A' for Active; 'I' for Inactive)
REMARK    1  A    between atoms: C_2  and  O_9 
REMARK    2  A    between atoms: C_3  and  O_8 
REMARK    3  A    between atoms: C_4  and  C_6 
REMARK    4  A    between atoms: C_6  and  O_7 
ROOT
HETATM    1  C   UNL     1     -22.694  -3.857  -8.828  1.00  0.00     0.202 C 
HETATM    2  C   UNL     1     -24.100  -3.973  -9.397  1.00  0.00     0.173 C 
HETATM    3  C   UNL     1     -23.906  -4.421 -10.843  1.00  0.00     0.180 C 
HETATM    4  C   UNL     1     -22.384  -4.427 -11.043  1.00  0.00     0.176 C 
HETATM    5  O   UNL     1     -21.809  -4.536  -9.732  1.00  0.00    -0.378 OA
ENDROOT
BRANCH   4   6
HETATM    6  C   UNL     1     -21.832  -3.205 -11.771  1.00  0.00     0.198 C 
BRANCH   6   7
HETATM    7  O   UNL     1     -21.988  -3.363 -13.182  1.00  0.00    -0.398 OA
HETATM    8  H   UNL     1     -21.167  -3.037 -13.597  1.00  0.00     0.209 HD
ENDBRANCH   6   7
ENDBRANCH   4   6
BRANCH   3   9
HETATM    9  O   UNL     1     -24.666  -3.593 -11.724  1.00  0.00    -0.390 OA
HETATM   10  H   UNL     1     -24.377  -2.662 -11.590  1.00  0.00     0.210 HD
ENDBRANCH   3   9
BRANCH   2  11
HETATM   11  O   UNL     1     -24.780  -2.721  -9.317  1.00  0.00    -0.391 OA
HETATM   12  H   UNL     1     -25.495  -2.782  -9.989  1.00  0.00     0.210 HD
ENDBRANCH   2  11
TORSDOF 4
ENDMDL
MODEL 4
REMARK VINA RESULT:      -4.7      1.367      3.083
REMARK  4 active torsions:
REMARK  status: ('A' for Active; 'I' for Inactive)
REMARK    1  A    between atoms: C_2  and  O_9 
REMARK    2  A    between atoms: C_3  and  O_8 
REMARK    3  A    between atoms: C_4  and  C_6 
REMARK    4  A    between atoms: C_6  and  O_7 
ROOT
HETATM    1  C   UNL     1     -23.546  -2.744 -12.430  1.00  0.00     0.202 C 
HETATM    2  C   UNL     1     -22.314  -3.576 -12.108  1.00  0.00     0.173 C 
HETATM    3  C   UNL     1     -22.755  -4.522 -10.994  1.00  0.00     0.180 C 
HETATM    4  C   UNL     1     -24.193  -4.092 -10.673  1.00  0.00     0.176 C 
HETATM    5  O   UNL     1     -24.675  -3.403 -11.836  1.00  0.00    -0.378 OA
ENDROOT
BRANCH   4   6
HETATM    6  C   UNL     1     -24.333  -3.214  -9.433  1.00  0.00     0.198 C 
BRANCH   6   7
HETATM    7  O   UNL     1     -24.115  -3.990  -8.254  1.00  0.00    -0.398 OA
HETATM    8  H   UNL     1     -23.346  -4.563  -8.429  1.00  0.00     0.209 HD
ENDBRANCH   6   7
ENDBRANCH   4   6
BRANCH   3   9
HETATM    9  O   UNL     1     -21.818  -4.487  -9.916  1.00  0.00    -0.390 OA
HETATM   10  H   UNL     1     -22.132  -5.109  -9.222  1.00  0.00     0.210 HD
ENDBRANCH   3   9
BRANCH   2  11
HETATM   11  O   UNL     1     -21.235  -2.738 -11.695  1.00  0.00    -0.391 OA
HETATM   12  H   UNL     1     -21.064  -2.152 -12.464  1.00  0.00     0.210 HD
ENDBRANCH   2  11
TORSDOF 4
ENDMDL
MODEL 5
REMARK VINA RESULT:      -4.6      1.388      2.866
REMARK  4 active torsions:
REMARK  status: ('A' for Active; 'I' for Inactive)
REMARK    1  A    between atoms: C_2  and  O_9 
REMARK    2  A    between atoms: C_3  and  O_8 
REMARK    3  A    between atoms: C_4  and  C_6 
REMARK    4  A    between atoms: C_6  and  O_7 
ROOT
HETATM    1  C   UNL     1     -21.166  -4.339 -11.126  1.00  0.00     0.202 C 
HETATM    2  C   UNL     1     -21.735  -3.184 -11.936  1.00  0.00     0.173 C 
HETATM    3  C   UNL     1     -22.927  -2.682 -11.125  1.00  0.00     0.180 C 
HETATM    4  C   UNL     1     -23.029  -3.660  -9.946  1.00  0.00     0.176 C 
HETATM    5  O   UNL     1     -21.732  -4.259  -9.809  1.00  0.00    -0.378 OA
ENDROOT
BRANCH   4   6
HETATM    6  C   UNL     1     -24.101  -4.735 -10.102  1.00  0.00     0.198 C 
BRANCH   6   7
HETATM    7  O   UNL     1     -25.369  -4.227  -9.682  1.00  0.00    -0.398 OA
HETATM    8  H   UNL     1     -25.687  -3.636 -10.391  1.00  0.00     0.209 HD
ENDBRANCH   6   7
ENDBRANCH   4   6
BRANCH   3   9
HETATM    9  O   UNL     1     -24.079  -2.561 -11.960  1.00  0.00    -0.390 OA
HETATM   10  H   UNL     1     -23.771  -2.457 -12.889  1.00  0.00     0.210 HD
ENDBRANCH   3   9
BRANCH   2  11
HETATM   11  O   UNL     1     -22.128  -3.625 -13.235  1.00  0.00    -0.391 OA
HETATM   12  H   UNL     1     -23.016  -4.026 -13.106  1.00  0.00     0.210 HD
ENDBRANCH   2  11
TORSDOF 4
ENDMDL
MODEL 6
REMARK VINA RESULT:      -4.5      1.524      3.535
REMARK  4 active torsions:
REMARK  status: ('A' for Active; 'I' for Inactive)
REMARK    1  A    between atoms: C_2  and  O_9 
REMARK    2  A    between atoms: C_3  and  O_8 
REMARK    3  A    between atoms: C_4  and  C_6 
REMARK    4  A    between atoms: C_6  and  O_7 
ROOT
HETATM    1  C   UNL     1     -24.183  -3.351 -10.532  1.00  0.00     0.202 C 
HETATM    2  C   UNL     1     -24.176  -3.415 -12.051  1.00  0.00     0.173 C 
HETATM    3  C   UNL     1     -22.919  -4.204 -12.409  1.00  0.00     0.180 C 
HETATM    4  C   UNL     1     -22.224  -4.450 -11.063  1.00  0.00     0.176 C 
HETATM    5  O   UNL     1     -23.242  -4.327 -10.058  1.00  0.00    -0.378 OA
ENDROOT
BRANCH   4   6
HETATM    6  C   UNL     1     -21.061  -3.508 -10.765  1.00  0.00     0.198 C 
BRANCH   6   7
HETATM    7  O   UNL     1     -20.001  -3.727 -11.697  1.00  0.00    -0.398 OA
HETATM    8  H   UNL     1     -19.201  -3.315 -11.320  1.00  0.00     0.209 HD
ENDBRANCH   6   7
ENDBRANCH   4   6
BRANCH   3   9
HETATM    9  O   UNL     1     -22.165  -3.510 -13.404  1.00  0.00    -0.390 OA
HETATM   10  H   UNL     1     -21.257  -3.368 -13.053  1.00  0.00     0.210 HD
ENDBRANCH   3   9
BRANCH   2  11
HETATM   11  O   UNL     1     -24.153  -2.102 -12.610  1.00  0.00    -0.391 OA
HETATM   12  H   UNL     1     -24.185  -2.242 -13.581  1.00  0.00     0.210 HD
ENDBRANCH   2  11
TORSDOF 4
ENDMDL
MODEL 7
REMARK VINA RESULT:      -4.3      1.638      2.949
REMARK  4 active torsions:
REMARK  status: ('A' for Active; 'I' for Inactive)
REMARK    1  A    between atoms: C_2  and  O_9 
REMARK    2  A    between atoms: C_3  and  O_8 
REMARK    3  A    between atoms: C_4  and  C_6 
REMARK    4  A    between atoms: C_6  and  O_7 
ROOT
HETATM    1  C   UNL     1     -21.482  -3.867  -9.804  1.00  0.00     0.202 C 
HETATM    2  C   UNL     1     -20.901  -3.176 -11.028  1.00  0.00     0.173 C 
HETATM    3  C   UNL     1     -22.100  -2.890 -11.928  1.00  0.00     0.180 C 
HETATM    4  C   UNL     1     -23.287  -3.540 -11.203  1.00  0.00     0.176 C 
HETATM    5  O   UNL     1     -22.901  -3.654  -9.826  1.00  0.00    -0.378 OA
ENDROOT
BRANCH   4   6
HETATM    6  C   UNL     1     -23.705  -4.899 -11.757  1.00  0.00     0.198 C 
BRANCH   6   7
HETATM    7  O   UNL     1     -24.126  -4.767 -13.116  1.00  0.00    -0.398 OA
HETATM    8  H   UNL     1     -24.503  -3.872 -13.211  1.00  0.00     0.209 HD
ENDBRANCH   6   7
ENDBRANCH   4   6
BRANCH   3   9
HETATM    9  O   UNL     1     -21.838  -3.337 -13.259  1.00  0.00    -0.390 OA
HETATM   10  H   UNL     1     -21.977  -2.578 -13.868  1.00  0.00     0.210 HD
ENDBRANCH   3   9
BRANCH   2  11
HETATM   11  O   UNL     1     -19.943  -4.015 -11.673  1.00  0.00    -0.391 OA
HETATM   12  H   UNL     1     -20.353  -4.907 -11.675  1.00  0.00     0.210 HD
ENDBRANCH   2  11
TORSDOF 4
ENDMDL
MODEL 8
REMARK VINA RESULT:      -4.3      1.768      2.520
REMARK  4 active torsions:
REMARK  status: ('A' for Active; 'I' for Inactive)
REMARK    1  A    between atoms: C_2  and  O_9 
REMARK    2  A    between atoms: C_3  and  O_8 
REMARK    3  A    between atoms: C_4  and  C_6 
REMARK    4  A    between atoms: C_6  and  O_7 
ROOT
HETATM    1  C   UNL     1     -22.356  -3.207 -11.392  1.00  0.00     0.202 C 
HETATM    2  C   UNL     1     -23.776  -3.749 -11.341  1.00  0.00     0.173 C 
HETATM    3  C   UNL     1     -24.227  -3.816 -12.798  1.00  0.00     0.180 C 
HETATM    4  C   UNL     1     -23.064  -3.202 -13.588  1.00  0.00     0.176 C 
HETATM    5  O   UNL     1     -21.905  -3.318 -12.750  1.00  0.00    -0.378 OA
ENDROOT
BRANCH   4   6
HETATM    6  C   UNL     1     -23.277  -1.751 -14.009  1.00  0.00     0.198 C 
BRANCH   6   7
HETATM    7  O   UNL     1     -23.988  -1.699 -15.248  1.00  0.00    -0.398 OA
HETATM    8  H   UNL     1     -24.866  -2.092 -15.087  1.00  0.00     0.209 HD
ENDBRANCH   6   7
ENDBRANCH   4   6
BRANCH   3   9
HETATM    9  O   UNL     1     -25.505  -3.197 -12.950  1.00  0.00    -0.390 OA
HETATM   10  H   UNL     1     -25.362  -2.285 -13.288  1.00  0.00     0.210 HD
ENDBRANCH   3   9
BRANCH   2  11
HETATM   11  O   UNL     1     -24.615  -2.891 -10.567  1.00  0.00    -0.391 OA
HETATM   12  H   UNL     1     -25.307  -3.482 -10.199  1.00  0.00     0.210 HD
ENDBRANCH   2  11
TORSDOF 4
ENDMDL
MODEL 9
REMARK VINA RESULT:      -4.3      1.528      3.082
REMARK  4 active torsions:
REMARK  status: ('A' for Active; 'I' for Inactive)
REMARK    1  A    between atoms: C_2  and  O_9 
REMARK    2  A    between atoms: C_3  and  O_8 
REMARK    3  A    between atoms: C_4  and  C_6 
REMARK    4  A    between atoms: C_6  and  O_7 
ROOT
HETATM    1  C   UNL     1     -21.841  -4.299 -11.401  1.00  0.00     0.202 C 
HETATM    2  C   UNL     1     -23.339  -4.308 -11.664  1.00  0.00     0.173 C 
HETATM    3  C   UNL     1     -23.963  -3.677 -10.422  1.00  0.00     0.180 C 
HETATM    4  C   UNL     1     -22.779  -3.444  -9.474  1.00  0.00     0.176 C 
HETATM    5  O   UNL     1     -21.606  -3.408 -10.299  1.00  0.00    -0.378 OA
ENDROOT
BRANCH   4   6
HETATM    6  C   UNL     1     -22.629  -4.490  -8.374  1.00  0.00     0.198 C 
BRANCH   6   7
HETATM    7  O   UNL     1     -23.616  -4.283  -7.362  1.00  0.00    -0.398 OA
HETATM    8  H   UNL     1     -23.343  -4.809  -6.587  1.00  0.00     0.209 HD
ENDBRANCH   6   7
ENDBRANCH   4   6
BRANCH   3   9
HETATM    9  O   UNL     1     -25.027  -4.495  -9.933  1.00  0.00    -0.390 OA
HETATM   10  H   UNL     1     -25.192  -5.205 -10.593  1.00  0.00     0.210 HD
ENDBRANCH   3   9
BRANCH   2  11
HETATM   11  O   UNL     1     -23.805  -5.641 -11.871  1.00  0.00    -0.391 OA
HETATM   12  H   UNL     1     -24.573  -5.735 -11.266  1.00  0.00     0.210 HD
ENDBRANCH   2  11
TORSDOF 4
ENDMDL
