MODEL 1
REMARK VINA RESULT:      -5.2      0.000      0.000
REMARK  4 active torsions:
REMARK  status: ('A' for Active; 'I' for Inactive)
REMARK    1  A    between atoms: C_2  and  C_4 
REMARK    2  A    between atoms: C_4  and  C_5 
REMARK    3  A    between atoms: C_5  and  C_6 
REMARK    4  A    between atoms: C_6  and  O_8 
ROOT
HETATM    1  C   UNL     1     -23.007  -2.976 -13.140  1.00  0.00     0.117 C 
ENDROOT
BRANCH   1   2
HETATM    2  C   UNL     1     -24.382  -2.983 -12.482  1.00  0.00     0.088 C 
BRANCH   2   3
HETATM    3  C   UNL     1     -24.295  -3.291 -11.004  1.00  0.00     0.123 C 
HETATM    4  C   UNL     1     -22.934  -3.666 -10.476  1.00  0.00     0.091 C 
HETATM    5  O   UNL     1     -25.277  -3.239 -10.264  1.00  0.00    -0.298 OA
ENDBRANCH   2   3
ENDBRANCH   1   2
BRANCH   1   6
HETATM    6  C   UNL     1     -23.104  -2.590 -14.593  1.00  0.00     0.139 C 
HETATM    7  O   UNL     1     -23.900  -1.785 -15.050  1.00  0.00    -0.650 OA
BRANCH   6   8
HETATM    8  O   UNL     1     -22.202  -3.236 -15.364  1.00  0.00    -0.776 OA
HETATM    9  H   UNL     1     -22.536  -4.070 -15.748  1.00  0.00     0.167 HD
ENDBRANCH   6   8
ENDBRANCH   1   6
TORSDOF 4
ENDMDL
MODEL 2
REMARK VINA RESULT:      -5.0      1.715      4.288
REMARK  4 active torsions:
REMARK  status: ('A' for Active; 'I' for Inactive)
REMARK    1  A    between atoms: C_2  and  C_4 
REMARK    2  A    between atoms: C_4  and  C_5 
REMARK    3  A    between atoms: C_5  and  C_6 
REMARK    4  A    between atoms: C_6  and  O_8 
ROOT
HETATM    1  C   UNL     1     -23.783  -4.073 -10.820  1.00  0.00     0.117 C 
ENDROOT
BRANCH   1   2
HETATM    2  C   UNL     1     -23.222  -2.921 -11.647  1.00  0.00     0.088 C 
BRANCH   2   3
HETATM    3  C   UNL     1     -23.878  -2.837 -13.008  1.00  0.00     0.123 C 
HETATM    4  C   UNL     1     -22.951  -2.788 -14.196  1.00  0.00     0.091 C 
HETATM    5  O   UNL     1     -25.100  -2.809 -13.148  1.00  0.00    -0.298 OA
ENDBRANCH   2   3
ENDBRANCH   1   2
BRANCH   1   6
HETATM    6  C   UNL     1     -24.663  -3.563  -9.709  1.00  0.00     0.139 C 
HETATM    7  O   UNL     1     -25.778  -3.091  -9.861  1.00  0.00    -0.650 OA
BRANCH   6   8
HETATM    8  O   UNL     1     -24.085  -3.681  -8.493  1.00  0.00    -0.776 OA
HETATM    9  H   UNL     1     -24.638  -3.351  -7.758  1.00  0.00     0.167 HD
ENDBRANCH   6   8
ENDBRANCH   1   6
TORSDOF 4
ENDMDL
MODEL 3
REMARK VINA RESULT:      -4.8      9.825     11.436
REMARK  4 active torsions:
REMARK  status: ('A' for Active; 'I' for Inactive)
REMARK    1  A    between atoms: C_2  and  C_4 
REMARK    2  A    between atoms: C_4  and  C_5 
REMARK    3  A    between atoms: C_5  and  C_6 
REMARK    4  A    between atoms: C_6  and  O_8 
ROOT
HETATM    1  C   UNL     1     -33.712  -6.156 -10.949  1.00  0.00     0.117 C 
ENDROOT
BRANCH   1   2
HETATM    2  C   UNL     1     -34.212  -4.756 -10.610  1.00  0.00     0.088 C 
BRANCH   2   3
HETATM    3  C   UNL     1     -33.303  -3.684 -11.170  1.00  0.00     0.123 C 
HETATM    4  C   UNL     1     -33.584  -2.270 -10.730  1.00  0.00     0.091 C 
HETATM    5  O   UNL     1     -32.381  -3.943 -11.943  1.00  0.00    -0.298 OA
ENDBRANCH   2   3
ENDBRANCH   1   2
BRANCH   1   6
HETATM    6  C   UNL     1     -34.602  -7.210 -10.344  1.00  0.00     0.139 C 
HETATM    7  O   UNL     1     -34.916  -7.267  -9.166  1.00  0.00    -0.650 OA
BRANCH   6   8
HETATM    8  O   UNL     1     -35.033  -8.111 -11.255  1.00  0.00    -0.776 OA
HETATM    9  H   UNL     1     -34.910  -7.827 -12.181  1.00  0.00     0.167 HD
ENDBRANCH   6   8
ENDBRANCH   1   6
TORSDOF 4
ENDMDL
MODEL 4
REMARK VINA RESULT:      -4.7     10.364     11.029
REMARK  4 active torsions:
REMARK  status: ('A' for Active; 'I' for Inactive)
REMARK    1  A    between atoms: C_2  and  C_4 
REMARK    2  A    between atoms: C_4  and  C_5 
REMARK    3  A    between atoms: C_5  and  C_6 
REMARK    4  A    between atoms: C_6  and  O_8 
ROOT
HETATM    1  C   UNL     1     -33.237  -3.316 -11.541  1.00  0.00     0.117 C 
ENDROOT
BRANCH   1   2
HETATM    2  C   UNL     1     -33.926  -4.249 -10.552  1.00  0.00     0.088 C 
BRANCH   2   3
HETATM    3  C   UNL     1     -34.477  -5.482 -11.234  1.00  0.00     0.123 C 
HETATM    4  C   UNL     1     -34.480  -6.752 -10.422  1.00  0.00     0.091 C 
HETATM    5  O   UNL     1     -34.902  -5.459 -12.389  1.00  0.00    -0.298 OA
ENDBRANCH   2   3
ENDBRANCH   1   2
BRANCH   1   6
HETATM    6  C   UNL     1     -34.175  -2.233 -12.007  1.00  0.00     0.139 C 
HETATM    7  O   UNL     1     -34.422  -1.210 -11.389  1.00  0.00    -0.650 OA
BRANCH   6   8
HETATM    8  O   UNL     1     -34.732  -2.509 -13.207  1.00  0.00    -0.776 OA
HETATM    9  H   UNL     1     -35.624  -2.903 -13.147  1.00  0.00     0.167 HD
ENDBRANCH   6   8
ENDBRANCH   1   6
TORSDOF 4
ENDMDL
MODEL 5
REMARK VINA RESULT:      -4.7      3.465      4.497
REMARK  4 active torsions:
REMARK  status: ('A' for Active; 'I' for Inactive)
REMARK    1  A    between atoms: C_2  and  C_4 
REMARK    2  A    between atoms: C_4  and  C_5 
REMARK    3  A    between atoms: C_5  and  C_6 
REMARK    4  A    between atoms: C_6  and  O_8 
ROOT
HETATM    1  C   UNL     1     -23.902  -4.985 -10.404  1.00  0.00     0.117 C 
ENDROOT
BRANCH   1   2
HETATM    2  C   UNL     1     -22.770  -4.439 -11.267  1.00  0.00     0.088 C 
BRANCH   2   3
HETATM    3  C   UNL     1     -21.501  -4.239 -10.469  1.00  0.00     0.123 C 
HETATM    4  C   UNL     1     -20.384  -3.498 -11.159  1.00  0.00     0.091 C 
HETATM    5  O   UNL     1     -21.378  -4.655  -9.317  1.00  0.00    -0.298 OA
ENDBRANCH   2   3
ENDBRANCH   1   2
BRANCH   1   6
HETATM    6  C   UNL     1     -24.609  -3.873  -9.673  1.00  0.00     0.139 C 
HETATM    7  O   UNL     1     -25.468  -3.154 -10.157  1.00  0.00    -0.650 OA
BRANCH   6   8
HETATM    8  O   UNL     1     -24.190  -3.744  -8.394  1.00  0.00    -0.776 OA
HETATM    9  H   UNL     1     -23.234  -3.564  -8.307  1.00  0.00     0.167 HD
ENDBRANCH   6   8
ENDBRANCH   1   6
TORSDOF 4
ENDMDL
MODEL 6
REMARK VINA RESULT:      -4.7     10.213     11.106
REMARK  4 active torsions:
REMARK  status: ('A' for Active; 'I' for Inactive)
REMARK    1  A    between atoms: C_2  and  C_4 
REMARK    2  A    between atoms: C_4  and  C_5 
REMARK    3  A    between atoms: C_5  and  C_6 
REMARK    4  A    between atoms: C_6  and  O_8 
ROOT
HETATM    1  C   UNL     1     -33.782  -4.727 -10.718  1.00  0.00     0.117 C 
ENDROOT
BRANCH   1   2
HETATM    2  C   UNL     1     -33.122  -3.533 -11.398  1.00  0.00     0.088 C 
BRANCH   2   3
HETATM    3  C   UNL     1     -33.815  -2.234 -11.047  1.00  0.00     0.123 C 
HETATM    4  C   UNL     1     -34.717  -1.649 -12.103  1.00  0.00     0.091 C 
HETATM    5  O   UNL     1     -33.657  -1.679  -9.961  1.00  0.00    -0.298 OA
ENDBRANCH   2   3
ENDBRANCH   1   2
BRANCH   1   6
HETATM    6  C   UNL     1     -34.562  -5.551 -11.709  1.00  0.00     0.139 C 
HETATM    7  O   UNL     1     -35.066  -5.119 -12.733  1.00  0.00    -0.650 OA
BRANCH   6   8
HETATM    8  O   UNL     1     -34.653  -6.850 -11.347  1.00  0.00    -0.776 OA
HETATM    9  H   UNL     1     -34.418  -7.018 -10.413  1.00  0.00     0.167 HD
ENDBRANCH   6   8
ENDBRANCH   1   6
TORSDOF 4
ENDMDL
MODEL 7
REMARK VINA RESULT:      -4.7      2.860      4.926
REMARK  4 active torsions:
REMARK  status: ('A' for Active; 'I' for Inactive)
REMARK    1  A    between atoms: C_2  and  C_4 
REMARK    2  A    between atoms: C_4  and  C_5 
REMARK    3  A    between atoms: C_5  and  C_6 
REMARK    4  A    between atoms: C_6  and  O_8 
ROOT
HETATM    1  C   UNL     1     -22.698  -4.617  -9.740  1.00  0.00     0.117 C 
ENDROOT
BRANCH   1   2
HETATM    2  C   UNL     1     -22.792  -3.448 -10.713  1.00  0.00     0.088 C 
BRANCH   2   3
HETATM    3  C   UNL     1     -24.205  -3.248 -11.216  1.00  0.00     0.123 C 
HETATM    4  C   UNL     1     -24.367  -3.059 -12.703  1.00  0.00     0.091 C 
HETATM    5  O   UNL     1     -25.175  -3.239 -10.460  1.00  0.00    -0.298 OA
ENDBRANCH   2   3
ENDBRANCH   1   2
BRANCH   1   6
HETATM    6  C   UNL     1     -22.684  -4.134  -8.313  1.00  0.00     0.139 C 
HETATM    7  O   UNL     1     -21.689  -3.764  -7.711  1.00  0.00    -0.650 OA
BRANCH   6   8
HETATM    8  O   UNL     1     -23.911  -4.149  -7.748  1.00  0.00    -0.776 OA
HETATM    9  H   UNL     1     -24.025  -3.493  -7.033  1.00  0.00     0.167 HD
ENDBRANCH   6   8
ENDBRANCH   1   6
TORSDOF 4
ENDMDL
MODEL 8
REMARK VINA RESULT:      -4.6      3.101      4.259
REMARK  4 active torsions:
REMARK  status: ('A' for Active; 'I' for Inactive)
REMARK    1  A    between atoms: C_2  and  C_4 
REMARK    2  A    between atoms: C_4  and  C_5 
REMARK    3  A    between atoms: C_5  and  C_6 
REMARK    4  A    between atoms: C_6  and  O_8 
ROOT
HETATM    1  C   UNL     1     -23.530  -4.616 -10.271  1.00  0.00     0.117 C 
ENDROOT
BRANCH   1   2
HETATM    2  C   UNL     1     -22.114  -4.069 -10.133  1.00  0.00     0.088 C 
BRANCH   2   3
HETATM    3  C   UNL     1     -21.620  -4.144  -8.706  1.00  0.00     0.123 C 
HETATM    4  C   UNL     1     -20.131  -4.286  -8.518  1.00  0.00     0.091 C 
HETATM    5  O   UNL     1     -22.384  -4.091  -7.743  1.00  0.00    -0.298 OA
ENDBRANCH   2   3
ENDBRANCH   1   2
BRANCH   1   6
HETATM    6  C   UNL     1     -24.532  -3.499 -10.403  1.00  0.00     0.139 C 
HETATM    7  O   UNL     1     -25.006  -3.107 -11.457  1.00  0.00    -0.650 OA
BRANCH   6   8
HETATM    8  O   UNL     1     -24.865  -2.957  -9.210  1.00  0.00    -0.776 OA
HETATM    9  H   UNL     1     -24.258  -2.252  -8.913  1.00  0.00     0.167 HD
ENDBRANCH   6   8
ENDBRANCH   1   6
TORSDOF 4
ENDMDL
MODEL 9
REMARK VINA RESULT:      -4.5      2.981      4.310
REMARK  4 active torsions:
REMARK  status: ('A' for Active; 'I' for Inactive)
REMARK    1  A    between atoms: C_2  and  C_4 
REMARK    2  A    between atoms: C_4  and  C_5 
REMARK    3  A    between atoms: C_5  and  C_6 
REMARK    4  A    between atoms: C_6  and  O_8 
ROOT
HETATM    1  C   UNL     1     -23.741  -4.452  -9.806  1.00  0.00     0.117 C 
ENDROOT
BRANCH   1   2
HETATM    2  C   UNL     1     -22.474  -3.762  -9.315  1.00  0.00     0.088 C 
BRANCH   2   3
HETATM    3  C   UNL     1     -21.241  -4.285 -10.018  1.00  0.00     0.123 C 
HETATM    4  C   UNL     1     -20.074  -4.656  -9.139  1.00  0.00     0.091 C 
HETATM    5  O   UNL     1     -21.185  -4.405 -11.242  1.00  0.00    -0.298 OA
ENDBRANCH   2   3
ENDBRANCH   1   2
BRANCH   1   6
HETATM    6  C   UNL     1     -24.678  -3.466 -10.454  1.00  0.00     0.139 C 
HETATM    7  O   UNL     1     -24.483  -2.920 -11.528  1.00  0.00    -0.650 OA
BRANCH   6   8
HETATM    8  O   UNL     1     -25.786  -3.239  -9.715  1.00  0.00    -0.776 OA
HETATM    9  H   UNL     1     -25.688  -2.512  -9.069  1.00  0.00     0.167 HD
ENDBRANCH   6   8
ENDBRANCH   1   6
TORSDOF 4
ENDMDL
