MODEL 1
REMARK VINA RESULT:      -7.1      0.000      0.000
REMARK  32 active torsions:
REMARK  status: ('A' for Active; 'I' for Inactive)
REMARK    1  A    between atoms: C_2  and  C_3 
REMARK    2  A    between atoms: C_3  and  C_4 
REMARK    3  A    between atoms: C_4  and  C_5 
REMARK    4  A    between atoms: C_5  and  C_6 
REMARK    5  A    between atoms: C_6  and  C_7 
REMARK    6  A    between atoms: C_7  and  C_8 
REMARK    7  A    between atoms: C_8  and  C_9 
REMARK    8  A    between atoms: C_9  and  C_10 
REMARK    9  A    between atoms: C_10  and  C_11 
REMARK   10  A    between atoms: C_11  and  C_12 
REMARK   11  A    between atoms: C_12  and  C_13 
REMARK   12  A    between atoms: C_13  and  C_14 
REMARK   13  A    between atoms: C_14  and  C_15 
REMARK   14  A    between atoms: C_15  and  C_16 
REMARK   15  A    between atoms: C_16  and  C_17 
REMARK   16  A    between atoms: C_17  and  C_18 
REMARK   17  A    between atoms: C_22  and  C_23 
REMARK   18  A    between atoms: C_23  and  C_24 
REMARK   19  A    between atoms: C_24  and  C_25 
REMARK   20  A    between atoms: C_25  and  C_26 
REMARK   21  A    between atoms: C_26  and  C_27 
REMARK   22  A    between atoms: C_27  and  C_28 
REMARK   23  A    between atoms: C_28  and  C_29 
REMARK   24  A    between atoms: C_29  and  C_30 
REMARK   25  A    between atoms: C_30  and  C_31 
REMARK   26  A    between atoms: C_31  and  C_32 
REMARK   27  A    between atoms: C_32  and  C_33 
REMARK   28  A    between atoms: C_33  and  C_34 
REMARK   29  A    between atoms: C_34  and  C_35 
REMARK   30  A    between atoms: C_35  and  C_36 
REMARK   31  A    between atoms: C_36  and  C_37 
REMARK   32  A    between atoms: C_37  and  C_38 
ROOT
HETATM    1  C   UNL     2     -24.174  -2.984 -12.376  1.00  0.00     0.289 C 
HETATM    2  O   UNL     2     -25.221  -3.086 -11.504  1.00  0.00    -0.150 OA
HETATM    3  O   UNL     2     -24.180  -2.892 -13.649  1.00  0.00    -0.263 OA
HETATM    4 CA   UNL     3     -26.828  -3.364  -9.755  1.00  0.00     0.000 Ca
ENDROOT
BRANCH   1   5
HETATM    5  C   UNL     2     -22.820  -3.013 -11.675  1.00  0.00     0.114 C 
BRANCH   5   6
HETATM    6  C   UNL     2     -22.431  -4.356 -11.050  1.00  0.00     0.010 C 
BRANCH   6   7
HETATM    7  C   UNL     2     -23.053  -4.466  -9.644  1.00  0.00     0.000 C 
BRANCH   7   8
HETATM    8  C   UNL     2     -22.100  -4.075  -8.512  1.00  0.00     0.000 C 
BRANCH   8   9
HETATM    9  C   UNL     2     -20.694  -4.562  -8.870  1.00  0.00     0.000 C 
BRANCH   9  10
HETATM   10  C   UNL     2     -20.081  -5.484  -7.816  1.00  0.00     0.000 C 
BRANCH  10  11
HETATM   11  C   UNL     2     -19.537  -4.722  -6.606  1.00  0.00     0.000 C 
BRANCH  11  12
HETATM   12  C   UNL     2     -20.343  -4.917  -5.317  1.00  0.00     0.000 C 
BRANCH  12  13
HETATM   13  C   UNL     2     -20.773  -6.336  -5.047  1.00  0.00     0.000 C 
BRANCH  13  14
HETATM   14  C   UNL     2     -22.042  -6.486  -4.216  1.00  0.00     0.000 C 
BRANCH  14  15
HETATM   15  C   UNL     2     -21.849  -6.220  -2.712  1.00  0.00     0.000 C 
BRANCH  15  16
HETATM   16  C   UNL     2     -21.621  -7.508  -1.917  1.00  0.00     0.000 C 
BRANCH  16  17
HETATM   17  C   UNL     2     -22.356  -7.573  -0.567  1.00  0.00     0.000 C 
BRANCH  17  18
HETATM   18  C   UNL     2     -21.674  -8.458   0.476  1.00  0.00     0.000 C 
BRANCH  18  19
HETATM   19  C   UNL     2     -22.018  -9.933   0.297  1.00  0.00    -0.000 C 
BRANCH  19  20
HETATM   20  C   UNL     2     -23.471 -10.150  -0.096  1.00  0.00    -0.005 C 
HETATM   21  C   UNL     2     -23.577 -10.986  -1.361  1.00  0.00     0.005 C 
ENDBRANCH  19  20
ENDBRANCH  18  19
ENDBRANCH  17  18
ENDBRANCH  16  17
ENDBRANCH  15  16
ENDBRANCH  14  15
ENDBRANCH  13  14
ENDBRANCH  12  13
ENDBRANCH  11  12
ENDBRANCH  10  11
ENDBRANCH   9  10
ENDBRANCH   8   9
ENDBRANCH   7   8
ENDBRANCH   6   7
ENDBRANCH   5   6
ENDBRANCH   1   5
TORSDOF 32
ENDMDL
MODEL 2
REMARK VINA RESULT:      -6.8      1.806      2.841
REMARK  32 active torsions:
REMARK  status: ('A' for Active; 'I' for Inactive)
REMARK    1  A    between atoms: C_2  and  C_3 
REMARK    2  A    between atoms: C_3  and  C_4 
REMARK    3  A    between atoms: C_4  and  C_5 
REMARK    4  A    between atoms: C_5  and  C_6 
REMARK    5  A    between atoms: C_6  and  C_7 
REMARK    6  A    between atoms: C_7  and  C_8 
REMARK    7  A    between atoms: C_8  and  C_9 
REMARK    8  A    between atoms: C_9  and  C_10 
REMARK    9  A    between atoms: C_10  and  C_11 
REMARK   10  A    between atoms: C_11  and  C_12 
REMARK   11  A    between atoms: C_12  and  C_13 
REMARK   12  A    between atoms: C_13  and  C_14 
REMARK   13  A    between atoms: C_14  and  C_15 
REMARK   14  A    between atoms: C_15  and  C_16 
REMARK   15  A    between atoms: C_16  and  C_17 
REMARK   16  A    between atoms: C_17  and  C_18 
REMARK   17  A    between atoms: C_22  and  C_23 
REMARK   18  A    between atoms: C_23  and  C_24 
REMARK   19  A    between atoms: C_24  and  C_25 
REMARK   20  A    between atoms: C_25  and  C_26 
REMARK   21  A    between atoms: C_26  and  C_27 
REMARK   22  A    between atoms: C_27  and  C_28 
REMARK   23  A    between atoms: C_28  and  C_29 
REMARK   24  A    between atoms: C_29  and  C_30 
REMARK   25  A    between atoms: C_30  and  C_31 
REMARK   26  A    between atoms: C_31  and  C_32 
REMARK   27  A    between atoms: C_32  and  C_33 
REMARK   28  A    between atoms: C_33  and  C_34 
REMARK   29  A    between atoms: C_34  and  C_35 
REMARK   30  A    between atoms: C_35  and  C_36 
REMARK   31  A    between atoms: C_36  and  C_37 
REMARK   32  A    between atoms: C_37  and  C_38 
ROOT
HETATM    1  C   UNL     2     -24.099  -3.724 -10.918  1.00  0.00     0.289 C 
HETATM    2  O   UNL     2     -23.623  -3.651 -12.196  1.00  0.00    -0.150 OA
HETATM    3  O   UNL     2     -25.141  -3.193 -10.405  1.00  0.00    -0.263 OA
HETATM    4 CA   UNL     3     -22.503  -3.636 -14.309  1.00  0.00     0.000 Ca
ENDROOT
BRANCH   1   5
HETATM    5  C   UNL     2     -23.206  -4.556 -10.004  1.00  0.00     0.114 C 
BRANCH   5   6
HETATM    6  C   UNL     2     -22.721  -3.847  -8.736  1.00  0.00     0.010 C 
BRANCH   6   7
HETATM    7  C   UNL     2     -21.796  -4.792  -7.943  1.00  0.00     0.000 C 
BRANCH   7   8
HETATM    8  C   UNL     2     -20.582  -4.096  -7.324  1.00  0.00     0.000 C 
BRANCH   8   9
HETATM    9  C   UNL     2     -20.352  -4.671  -5.924  1.00  0.00     0.000 C 
BRANCH   9  10
HETATM   10  C   UNL     2     -21.398  -5.707  -5.511  1.00  0.00     0.000 C 
BRANCH  10  11
HETATM   11  C   UNL     2     -20.774  -6.999  -4.979  1.00  0.00     0.000 C 
BRANCH  11  12
HETATM   12  C   UNL     2     -21.118  -7.317  -3.521  1.00  0.00     0.000 C 
BRANCH  12  13
HETATM   13  C   UNL     2     -21.706  -6.168  -2.742  1.00  0.00     0.000 C 
BRANCH  13  14
HETATM   14  C   UNL     2     -22.283  -6.532  -1.378  1.00  0.00     0.000 C 
BRANCH  14  15
HETATM   15  C   UNL     2     -21.702  -7.820  -0.769  1.00  0.00     0.000 C 
BRANCH  15  16
HETATM   16  C   UNL     2     -22.603  -8.409   0.318  1.00  0.00     0.000 C 
BRANCH  16  17
HETATM   17  C   UNL     2     -23.310  -9.721  -0.068  1.00  0.00     0.000 C 
BRANCH  17  18
HETATM   18  C   UNL     2     -22.441 -10.969   0.082  1.00  0.00     0.000 C 
BRANCH  18  19
HETATM   19  C   UNL     2     -22.139 -11.628  -1.260  1.00  0.00    -0.000 C 
BRANCH  19  20
HETATM   20  C   UNL     2     -23.154 -11.263  -2.331  1.00  0.00    -0.005 C 
HETATM   21  C   UNL     2     -22.466 -10.774  -3.594  1.00  0.00     0.005 C 
ENDBRANCH  19  20
ENDBRANCH  18  19
ENDBRANCH  17  18
ENDBRANCH  16  17
ENDBRANCH  15  16
ENDBRANCH  14  15
ENDBRANCH  13  14
ENDBRANCH  12  13
ENDBRANCH  11  12
ENDBRANCH  10  11
ENDBRANCH   9  10
ENDBRANCH   8   9
ENDBRANCH   7   8
ENDBRANCH   6   7
ENDBRANCH   5   6
ENDBRANCH   1   5
TORSDOF 32
ENDMDL
MODEL 3
REMARK VINA RESULT:      -6.8      1.060      1.721
REMARK  32 active torsions:
REMARK  status: ('A' for Active; 'I' for Inactive)
REMARK    1  A    between atoms: C_2  and  C_3 
REMARK    2  A    between atoms: C_3  and  C_4 
REMARK    3  A    between atoms: C_4  and  C_5 
REMARK    4  A    between atoms: C_5  and  C_6 
REMARK    5  A    between atoms: C_6  and  C_7 
REMARK    6  A    between atoms: C_7  and  C_8 
REMARK    7  A    between atoms: C_8  and  C_9 
REMARK    8  A    between atoms: C_9  and  C_10 
REMARK    9  A    between atoms: C_10  and  C_11 
REMARK   10  A    between atoms: C_11  and  C_12 
REMARK   11  A    between atoms: C_12  and  C_13 
REMARK   12  A    between atoms: C_13  and  C_14 
REMARK   13  A    between atoms: C_14  and  C_15 
REMARK   14  A    between atoms: C_15  and  C_16 
REMARK   15  A    between atoms: C_16  and  C_17 
REMARK   16  A    between atoms: C_17  and  C_18 
REMARK   17  A    between atoms: C_22  and  C_23 
REMARK   18  A    between atoms: C_23  and  C_24 
REMARK   19  A    between atoms: C_24  and  C_25 
REMARK   20  A    between atoms: C_25  and  C_26 
REMARK   21  A    between atoms: C_26  and  C_27 
REMARK   22  A    between atoms: C_27  and  C_28 
REMARK   23  A    between atoms: C_28  and  C_29 
REMARK   24  A    between atoms: C_29  and  C_30 
REMARK   25  A    between atoms: C_30  and  C_31 
REMARK   26  A    between atoms: C_31  and  C_32 
REMARK   27  A    between atoms: C_32  and  C_33 
REMARK   28  A    between atoms: C_33  and  C_34 
REMARK   29  A    between atoms: C_34  and  C_35 
REMARK   30  A    between atoms: C_35  and  C_36 
REMARK   31  A    between atoms: C_36  and  C_37 
REMARK   32  A    between atoms: C_37  and  C_38 
ROOT
HETATM    1  C   UNL     2     -23.752  -3.286 -11.357  1.00  0.00     0.289 C 
HETATM    2  O   UNL     2     -24.956  -3.244 -10.713  1.00  0.00    -0.150 OA
HETATM    3  O   UNL     2     -23.376  -2.688 -12.420  1.00  0.00    -0.263 OA
HETATM    4 CA   UNL     3     -26.962  -3.443  -9.426  1.00  0.00     0.000 Ca
ENDROOT
BRANCH   1   5
HETATM    5  C   UNL     2     -22.755  -4.219 -10.678  1.00  0.00     0.114 C 
BRANCH   5   6
HETATM    6  C   UNL     2     -21.313  -3.705 -10.613  1.00  0.00     0.010 C 
BRANCH   6   7
HETATM    7  C   UNL     2     -20.529  -4.511  -9.559  1.00  0.00     0.000 C 
BRANCH   7   8
HETATM    8  C   UNL     2     -20.883  -4.151  -8.114  1.00  0.00     0.000 C 
BRANCH   8   9
HETATM    9  C   UNL     2     -21.374  -5.415  -7.403  1.00  0.00     0.000 C 
BRANCH   9  10
HETATM   10  C   UNL     2     -20.845  -5.556  -5.976  1.00  0.00     0.000 C 
BRANCH  10  11
HETATM   11  C   UNL     2     -20.350  -6.970  -5.664  1.00  0.00     0.000 C 
BRANCH  11  12
HETATM   12  C   UNL     2     -21.302  -7.800  -4.797  1.00  0.00     0.000 C 
BRANCH  12  13
HETATM   13  C   UNL     2     -21.117  -7.631  -3.310  1.00  0.00     0.000 C 
BRANCH  13  14
HETATM   14  C   UNL     2     -21.937  -6.514  -2.674  1.00  0.00     0.000 C 
BRANCH  14  15
HETATM   15  C   UNL     2     -22.338  -6.779  -1.212  1.00  0.00     0.000 C 
BRANCH  15  16
HETATM   16  C   UNL     2     -21.379  -7.741  -0.508  1.00  0.00     0.000 C 
BRANCH  16  17
HETATM   17  C   UNL     2     -22.061  -8.895   0.248  1.00  0.00     0.000 C 
BRANCH  17  18
HETATM   18  C   UNL     2     -21.316 -10.227   0.164  1.00  0.00     0.000 C 
BRANCH  18  19
HETATM   19  C   UNL     2     -22.251 -11.423   0.305  1.00  0.00    -0.000 C 
BRANCH  19  20
HETATM   20  C   UNL     2     -23.704 -11.062   0.041  1.00  0.00    -0.005 C 
HETATM   21  C   UNL     2     -24.205 -11.708  -1.241  1.00  0.00     0.005 C 
ENDBRANCH  19  20
ENDBRANCH  18  19
ENDBRANCH  17  18
ENDBRANCH  16  17
ENDBRANCH  15  16
ENDBRANCH  14  15
ENDBRANCH  13  14
ENDBRANCH  12  13
ENDBRANCH  11  12
ENDBRANCH  10  11
ENDBRANCH   9  10
ENDBRANCH   8   9
ENDBRANCH   7   8
ENDBRANCH   6   7
ENDBRANCH   5   6
ENDBRANCH   1   5
TORSDOF 32
ENDMDL
MODEL 4
REMARK VINA RESULT:      -6.6      2.246      2.957
REMARK  32 active torsions:
REMARK  status: ('A' for Active; 'I' for Inactive)
REMARK    1  A    between atoms: C_2  and  C_3 
REMARK    2  A    between atoms: C_3  and  C_4 
REMARK    3  A    between atoms: C_4  and  C_5 
REMARK    4  A    between atoms: C_5  and  C_6 
REMARK    5  A    between atoms: C_6  and  C_7 
REMARK    6  A    between atoms: C_7  and  C_8 
REMARK    7  A    between atoms: C_8  and  C_9 
REMARK    8  A    between atoms: C_9  and  C_10 
REMARK    9  A    between atoms: C_10  and  C_11 
REMARK   10  A    between atoms: C_11  and  C_12 
REMARK   11  A    between atoms: C_12  and  C_13 
REMARK   12  A    between atoms: C_13  and  C_14 
REMARK   13  A    between atoms: C_14  and  C_15 
REMARK   14  A    between atoms: C_15  and  C_16 
REMARK   15  A    between atoms: C_16  and  C_17 
REMARK   16  A    between atoms: C_17  and  C_18 
REMARK   17  A    between atoms: C_22  and  C_23 
REMARK   18  A    between atoms: C_23  and  C_24 
REMARK   19  A    between atoms: C_24  and  C_25 
REMARK   20  A    between atoms: C_25  and  C_26 
REMARK   21  A    between atoms: C_26  and  C_27 
REMARK   22  A    between atoms: C_27  and  C_28 
REMARK   23  A    between atoms: C_28  and  C_29 
REMARK   24  A    between atoms: C_29  and  C_30 
REMARK   25  A    between atoms: C_30  and  C_31 
REMARK   26  A    between atoms: C_31  and  C_32 
REMARK   27  A    between atoms: C_32  and  C_33 
REMARK   28  A    between atoms: C_33  and  C_34 
REMARK   29  A    between atoms: C_34  and  C_35 
REMARK   30  A    between atoms: C_35  and  C_36 
REMARK   31  A    between atoms: C_36  and  C_37 
REMARK   32  A    between atoms: C_37  and  C_38 
ROOT
HETATM    1  C   UNL     2     -23.842  -2.570 -13.536  1.00  0.00     0.289 C 
HETATM    2  O   UNL     2     -23.655  -1.795 -14.645  1.00  0.00    -0.150 OA
HETATM    3  O   UNL     2     -24.917  -2.844 -12.906  1.00  0.00    -0.263 OA
HETATM    4 CA   UNL     3     -23.006  -0.438 -16.505  1.00  0.00     0.000 Ca
ENDROOT
BRANCH   1   5
HETATM    5  C   UNL     2     -22.538  -3.150 -12.998  1.00  0.00     0.114 C 
BRANCH   5   6
HETATM    6  C   UNL     2     -22.253  -2.868 -11.520  1.00  0.00     0.010 C 
BRANCH   6   7
HETATM    7  C   UNL     2     -21.995  -4.198 -10.785  1.00  0.00     0.000 C 
BRANCH   7   8
HETATM    8  C   UNL     2     -22.909  -4.427  -9.579  1.00  0.00     0.000 C 
BRANCH   8   9
HETATM    9  C   UNL     2     -22.110  -4.151  -8.303  1.00  0.00     0.000 C 
BRANCH   9  10
HETATM   10  C   UNL     2     -20.597  -4.263  -8.494  1.00  0.00     0.000 C 
BRANCH  10  11
HETATM   11  C   UNL     2     -19.858  -4.596  -7.196  1.00  0.00     0.000 C 
BRANCH  11  12
HETATM   12  C   UNL     2     -20.763  -4.741  -5.969  1.00  0.00     0.000 C 
BRANCH  12  13
HETATM   13  C   UNL     2     -20.785  -6.117  -5.355  1.00  0.00     0.000 C 
BRANCH  13  14
HETATM   14  C   UNL     2     -19.995  -7.180  -6.109  1.00  0.00     0.000 C 
BRANCH  14  15
HETATM   15  C   UNL     2     -19.620  -8.410  -5.264  1.00  0.00     0.000 C 
BRANCH  15  16
HETATM   16  C   UNL     2     -20.830  -9.020  -4.553  1.00  0.00     0.000 C 
BRANCH  16  17
HETATM   17  C   UNL     2     -20.605  -9.359  -3.069  1.00  0.00     0.000 C 
BRANCH  17  18
HETATM   18  C   UNL     2     -21.714  -8.868  -2.139  1.00  0.00     0.000 C 
BRANCH  18  19
HETATM   19  C   UNL     2     -21.224  -7.799  -1.167  1.00  0.00    -0.000 C 
BRANCH  19  20
HETATM   20  C   UNL     2     -22.363  -7.133  -0.410  1.00  0.00    -0.005 C 
HETATM   21  C   UNL     2     -23.073  -8.126   0.496  1.00  0.00     0.005 C 
ENDBRANCH  19  20
ENDBRANCH  18  19
ENDBRANCH  17  18
ENDBRANCH  16  17
ENDBRANCH  15  16
ENDBRANCH  14  15
ENDBRANCH  13  14
ENDBRANCH  12  13
ENDBRANCH  11  12
ENDBRANCH  10  11
ENDBRANCH   9  10
ENDBRANCH   8   9
ENDBRANCH   7   8
ENDBRANCH   6   7
ENDBRANCH   5   6
ENDBRANCH   1   5
TORSDOF 32
ENDMDL
MODEL 5
REMARK VINA RESULT:      -6.4      1.953      2.294
REMARK  32 active torsions:
REMARK  status: ('A' for Active; 'I' for Inactive)
REMARK    1  A    between atoms: C_2  and  C_3 
REMARK    2  A    between atoms: C_3  and  C_4 
REMARK    3  A    between atoms: C_4  and  C_5 
REMARK    4  A    between atoms: C_5  and  C_6 
REMARK    5  A    between atoms: C_6  and  C_7 
REMARK    6  A    between atoms: C_7  and  C_8 
REMARK    7  A    between atoms: C_8  and  C_9 
REMARK    8  A    between atoms: C_9  and  C_10 
REMARK    9  A    between atoms: C_10  and  C_11 
REMARK   10  A    between atoms: C_11  and  C_12 
REMARK   11  A    between atoms: C_12  and  C_13 
REMARK   12  A    between atoms: C_13  and  C_14 
REMARK   13  A    between atoms: C_14  and  C_15 
REMARK   14  A    between atoms: C_15  and  C_16 
REMARK   15  A    between atoms: C_16  and  C_17 
REMARK   16  A    between atoms: C_17  and  C_18 
REMARK   17  A    between atoms: C_22  and  C_23 
REMARK   18  A    between atoms: C_23  and  C_24 
REMARK   19  A    between atoms: C_24  and  C_25 
REMARK   20  A    between atoms: C_25  and  C_26 
REMARK   21  A    between atoms: C_26  and  C_27 
REMARK   22  A    between atoms: C_27  and  C_28 
REMARK   23  A    between atoms: C_28  and  C_29 
REMARK   24  A    between atoms: C_29  and  C_30 
REMARK   25  A    between atoms: C_30  and  C_31 
REMARK   26  A    between atoms: C_31  and  C_32 
REMARK   27  A    between atoms: C_32  and  C_33 
REMARK   28  A    between atoms: C_33  and  C_34 
REMARK   29  A    between atoms: C_34  and  C_35 
REMARK   30  A    between atoms: C_35  and  C_36 
REMARK   31  A    between atoms: C_36  and  C_37 
REMARK   32  A    between atoms: C_37  and  C_38 
ROOT
HETATM    1  C   UNL     2     -23.803  -3.483 -12.101  1.00  0.00     0.289 C 
HETATM    2  O   UNL     2     -23.357  -3.040 -13.315  1.00  0.00    -0.150 OA
HETATM    3  O   UNL     2     -24.872  -3.187 -11.470  1.00  0.00    -0.263 OA
HETATM    4 CA   UNL     3     -22.279  -2.385 -15.347  1.00  0.00     0.000 Ca
ENDROOT
BRANCH   1   5
HETATM    5  C   UNL     2     -22.833  -4.452 -11.436  1.00  0.00     0.114 C 
BRANCH   5   6
HETATM    6  C   UNL     2     -21.764  -3.807 -10.547  1.00  0.00     0.010 C 
BRANCH   6   7
HETATM    7  C   UNL     2     -22.162  -3.972  -9.067  1.00  0.00     0.000 C 
BRANCH   7   8
HETATM    8  C   UNL     2     -20.971  -4.093  -8.115  1.00  0.00     0.000 C 
BRANCH   8   9
HETATM    9  C   UNL     2     -20.700  -5.578  -7.859  1.00  0.00     0.000 C 
BRANCH   9  10
HETATM   10  C   UNL     2     -19.966  -5.846  -6.545  1.00  0.00     0.000 C 
BRANCH  10  11
HETATM   11  C   UNL     2     -20.541  -5.048  -5.372  1.00  0.00     0.000 C 
BRANCH  11  12
HETATM   12  C   UNL     2     -21.152  -5.905  -4.258  1.00  0.00     0.000 C 
BRANCH  12  13
HETATM   13  C   UNL     2     -21.503  -7.314  -4.663  1.00  0.00     0.000 C 
BRANCH  13  14
HETATM   14  C   UNL     2     -21.861  -8.251  -3.515  1.00  0.00     0.000 C 
BRANCH  14  15
HETATM   15  C   UNL     2     -21.056  -8.009  -2.225  1.00  0.00     0.000 C 
BRANCH  15  16
HETATM   16  C   UNL     2     -21.916  -7.428  -1.101  1.00  0.00     0.000 C 
BRANCH  16  17
HETATM   17  C   UNL     2     -22.107  -8.354   0.113  1.00  0.00     0.000 C 
BRANCH  17  18
HETATM   18  C   UNL     2     -23.059  -9.524  -0.135  1.00  0.00     0.000 C 
BRANCH  18  19
HETATM   19  C   UNL     2     -22.400 -10.873   0.133  1.00  0.00    -0.000 C 
BRANCH  19  20
HETATM   20  C   UNL     2     -23.380 -12.031   0.026  1.00  0.00    -0.005 C 
HETATM   21  C   UNL     2     -23.190 -13.016   1.168  1.00  0.00     0.005 C 
ENDBRANCH  19  20
ENDBRANCH  18  19
ENDBRANCH  17  18
ENDBRANCH  16  17
ENDBRANCH  15  16
ENDBRANCH  14  15
ENDBRANCH  13  14
ENDBRANCH  12  13
ENDBRANCH  11  12
ENDBRANCH  10  11
ENDBRANCH   9  10
ENDBRANCH   8   9
ENDBRANCH   7   8
ENDBRANCH   6   7
ENDBRANCH   5   6
ENDBRANCH   1   5
TORSDOF 32
ENDMDL
MODEL 6
REMARK VINA RESULT:      -6.3      3.161      6.121
REMARK  32 active torsions:
REMARK  status: ('A' for Active; 'I' for Inactive)
REMARK    1  A    between atoms: C_2  and  C_3 
REMARK    2  A    between atoms: C_3  and  C_4 
REMARK    3  A    between atoms: C_4  and  C_5 
REMARK    4  A    between atoms: C_5  and  C_6 
REMARK    5  A    between atoms: C_6  and  C_7 
REMARK    6  A    between atoms: C_7  and  C_8 
REMARK    7  A    between atoms: C_8  and  C_9 
REMARK    8  A    between atoms: C_9  and  C_10 
REMARK    9  A    between atoms: C_10  and  C_11 
REMARK   10  A    between atoms: C_11  and  C_12 
REMARK   11  A    between atoms: C_12  and  C_13 
REMARK   12  A    between atoms: C_13  and  C_14 
REMARK   13  A    between atoms: C_14  and  C_15 
REMARK   14  A    between atoms: C_15  and  C_16 
REMARK   15  A    between atoms: C_16  and  C_17 
REMARK   16  A    between atoms: C_17  and  C_18 
REMARK   17  A    between atoms: C_22  and  C_23 
REMARK   18  A    between atoms: C_23  and  C_24 
REMARK   19  A    between atoms: C_24  and  C_25 
REMARK   20  A    between atoms: C_25  and  C_26 
REMARK   21  A    between atoms: C_26  and  C_27 
REMARK   22  A    between atoms: C_27  and  C_28 
REMARK   23  A    between atoms: C_28  and  C_29 
REMARK   24  A    between atoms: C_29  and  C_30 
REMARK   25  A    between atoms: C_30  and  C_31 
REMARK   26  A    between atoms: C_31  and  C_32 
REMARK   27  A    between atoms: C_32  and  C_33 
REMARK   28  A    between atoms: C_33  and  C_34 
REMARK   29  A    between atoms: C_34  and  C_35 
REMARK   30  A    between atoms: C_35  and  C_36 
REMARK   31  A    between atoms: C_36  and  C_37 
REMARK   32  A    between atoms: C_37  and  C_38 
ROOT
HETATM    1  C   UNL     2     -22.126  -4.823  -6.863  1.00  0.00     0.289 C 
HETATM    2  O   UNL     2     -23.346  -4.894  -6.253  1.00  0.00    -0.150 OA
HETATM    3  O   UNL     2     -21.808  -4.324  -7.994  1.00  0.00    -0.263 OA
HETATM    4 CA   UNL     3     -25.345  -5.246  -4.988  1.00  0.00     0.000 Ca
ENDROOT
BRANCH   1   5
HETATM    5  C   UNL     2     -21.018  -5.470  -6.038  1.00  0.00     0.114 C 
BRANCH   5   6
HETATM    6  C   UNL     2     -21.041  -7.001  -5.993  1.00  0.00     0.010 C 
BRANCH   6   7
HETATM    7  C   UNL     2     -21.618  -7.465  -4.641  1.00  0.00     0.000 C 
BRANCH   7   8
HETATM    8  C   UNL     2     -21.530  -6.411  -3.535  1.00  0.00     0.000 C 
BRANCH   8   9
HETATM    9  C   UNL     2     -21.399  -7.126  -2.189  1.00  0.00     0.000 C 
BRANCH   9  10
HETATM   10  C   UNL     2     -22.344  -6.585  -1.116  1.00  0.00     0.000 C 
BRANCH  10  11
HETATM   11  C   UNL     2     -22.774  -7.656  -0.110  1.00  0.00     0.000 C 
BRANCH  11  12
HETATM   12  C   UNL     2     -22.366  -9.083  -0.488  1.00  0.00     0.000 C 
BRANCH  12  13
HETATM   13  C   UNL     2     -23.407 -10.136  -0.205  1.00  0.00     0.000 C 
BRANCH  13  14
HETATM   14  C   UNL     2     -23.633 -11.146  -1.325  1.00  0.00     0.000 C 
BRANCH  14  15
HETATM   15  C   UNL     2     -22.396 -11.405  -2.203  1.00  0.00     0.000 C 
BRANCH  15  16
HETATM   16  C   UNL     2     -22.578 -10.891  -3.633  1.00  0.00     0.000 C 
BRANCH  16  17
HETATM   17  C   UNL     2     -21.715 -11.603  -4.691  1.00  0.00     0.000 C 
BRANCH  17  18
HETATM   18  C   UNL     2     -20.217 -11.592  -4.389  1.00  0.00     0.000 C 
BRANCH  18  19
HETATM   19  C   UNL     2     -19.512 -10.387  -5.004  1.00  0.00    -0.000 C 
BRANCH  19  20
HETATM   20  C   UNL     2     -18.331  -9.915  -4.171  1.00  0.00    -0.005 C 
HETATM   21  C   UNL     2     -18.797  -9.294  -2.864  1.00  0.00     0.005 C 
ENDBRANCH  19  20
ENDBRANCH  18  19
ENDBRANCH  17  18
ENDBRANCH  16  17
ENDBRANCH  15  16
ENDBRANCH  14  15
ENDBRANCH  13  14
ENDBRANCH  12  13
ENDBRANCH  11  12
ENDBRANCH  10  11
ENDBRANCH   9  10
ENDBRANCH   8   9
ENDBRANCH   7   8
ENDBRANCH   6   7
ENDBRANCH   5   6
ENDBRANCH   1   5
TORSDOF 32
ENDMDL
MODEL 7
REMARK VINA RESULT:      -6.1      2.520      3.104
REMARK  32 active torsions:
REMARK  status: ('A' for Active; 'I' for Inactive)
REMARK    1  A    between atoms: C_2  and  C_3 
REMARK    2  A    between atoms: C_3  and  C_4 
REMARK    3  A    between atoms: C_4  and  C_5 
REMARK    4  A    between atoms: C_5  and  C_6 
REMARK    5  A    between atoms: C_6  and  C_7 
REMARK    6  A    between atoms: C_7  and  C_8 
REMARK    7  A    between atoms: C_8  and  C_9 
REMARK    8  A    between atoms: C_9  and  C_10 
REMARK    9  A    between atoms: C_10  and  C_11 
REMARK   10  A    between atoms: C_11  and  C_12 
REMARK   11  A    between atoms: C_12  and  C_13 
REMARK   12  A    between atoms: C_13  and  C_14 
REMARK   13  A    between atoms: C_14  and  C_15 
REMARK   14  A    between atoms: C_15  and  C_16 
REMARK   15  A    between atoms: C_16  and  C_17 
REMARK   16  A    between atoms: C_17  and  C_18 
REMARK   17  A    between atoms: C_22  and  C_23 
REMARK   18  A    between atoms: C_23  and  C_24 
REMARK   19  A    between atoms: C_24  and  C_25 
REMARK   20  A    between atoms: C_25  and  C_26 
REMARK   21  A    between atoms: C_26  and  C_27 
REMARK   22  A    between atoms: C_27  and  C_28 
REMARK   23  A    between atoms: C_28  and  C_29 
REMARK   24  A    between atoms: C_29  and  C_30 
REMARK   25  A    between atoms: C_30  and  C_31 
REMARK   26  A    between atoms: C_31  and  C_32 
REMARK   27  A    between atoms: C_32  and  C_33 
REMARK   28  A    between atoms: C_33  and  C_34 
REMARK   29  A    between atoms: C_34  and  C_35 
REMARK   30  A    between atoms: C_35  and  C_36 
REMARK   31  A    between atoms: C_36  and  C_37 
REMARK   32  A    between atoms: C_37  and  C_38 
ROOT
HETATM    1  C   UNL     2     -23.900  -2.425 -13.675  1.00  0.00     0.289 C 
HETATM    2  O   UNL     2     -23.724  -1.632 -14.774  1.00  0.00    -0.150 OA
HETATM    3  O   UNL     2     -24.936  -2.588 -12.947  1.00  0.00    -0.263 OA
HETATM    4 CA   UNL     3     -23.089  -0.290 -16.649  1.00  0.00     0.000 Ca
ENDROOT
BRANCH   1   5
HETATM    5  C   UNL     2     -22.637  -3.187 -13.291  1.00  0.00     0.114 C 
BRANCH   5   6
HETATM    6  C   UNL     2     -22.117  -2.926 -11.874  1.00  0.00     0.010 C 
BRANCH   6   7
HETATM    7  C   UNL     2     -22.220  -4.221 -11.044  1.00  0.00     0.000 C 
BRANCH   7   8
HETATM    8  C   UNL     2     -22.962  -4.049  -9.716  1.00  0.00     0.000 C 
BRANCH   8   9
HETATM    9  C   UNL     2     -21.929  -3.950  -8.591  1.00  0.00     0.000 C 
BRANCH   9  10
HETATM   10  C   UNL     2     -20.599  -4.626  -8.922  1.00  0.00     0.000 C 
BRANCH  10  11
HETATM   11  C   UNL     2     -19.785  -4.976  -7.675  1.00  0.00     0.000 C 
BRANCH  11  12
HETATM   12  C   UNL     2     -20.349  -4.410  -6.368  1.00  0.00     0.000 C 
BRANCH  12  13
HETATM   13  C   UNL     2     -20.745  -5.445  -5.346  1.00  0.00     0.000 C 
BRANCH  13  14
HETATM   14  C   UNL     2     -20.810  -6.878  -5.862  1.00  0.00     0.000 C 
BRANCH  14  15
HETATM   15  C   UNL     2     -20.491  -7.947  -4.802  1.00  0.00     0.000 C 
BRANCH  15  16
HETATM   16  C   UNL     2     -21.072  -7.600  -3.430  1.00  0.00     0.000 C 
BRANCH  16  17
HETATM   17  C   UNL     2     -21.433  -8.814  -2.555  1.00  0.00     0.000 C 
BRANCH  17  18
HETATM   18  C   UNL     2     -21.270 -10.162  -3.255  1.00  0.00     0.000 C 
BRANCH  18  19
HETATM   19  C   UNL     2     -22.610 -10.836  -3.532  1.00  0.00    -0.000 C 
BRANCH  19  20
HETATM   20  C   UNL     2     -22.504 -11.937  -4.576  1.00  0.00    -0.005 C 
HETATM   21  C   UNL     2     -21.654 -13.091  -4.070  1.00  0.00     0.005 C 
ENDBRANCH  19  20
ENDBRANCH  18  19
ENDBRANCH  17  18
ENDBRANCH  16  17
ENDBRANCH  15  16
ENDBRANCH  14  15
ENDBRANCH  13  14
ENDBRANCH  12  13
ENDBRANCH  11  12
ENDBRANCH  10  11
ENDBRANCH   9  10
ENDBRANCH   8   9
ENDBRANCH   7   8
ENDBRANCH   6   7
ENDBRANCH   5   6
ENDBRANCH   1   5
TORSDOF 32
ENDMDL
MODEL 8
REMARK VINA RESULT:      -6.1      2.541      3.458
REMARK  32 active torsions:
REMARK  status: ('A' for Active; 'I' for Inactive)
REMARK    1  A    between atoms: C_2  and  C_3 
REMARK    2  A    between atoms: C_3  and  C_4 
REMARK    3  A    between atoms: C_4  and  C_5 
REMARK    4  A    between atoms: C_5  and  C_6 
REMARK    5  A    between atoms: C_6  and  C_7 
REMARK    6  A    between atoms: C_7  and  C_8 
REMARK    7  A    between atoms: C_8  and  C_9 
REMARK    8  A    between atoms: C_9  and  C_10 
REMARK    9  A    between atoms: C_10  and  C_11 
REMARK   10  A    between atoms: C_11  and  C_12 
REMARK   11  A    between atoms: C_12  and  C_13 
REMARK   12  A    between atoms: C_13  and  C_14 
REMARK   13  A    between atoms: C_14  and  C_15 
REMARK   14  A    between atoms: C_15  and  C_16 
REMARK   15  A    between atoms: C_16  and  C_17 
REMARK   16  A    between atoms: C_17  and  C_18 
REMARK   17  A    between atoms: C_22  and  C_23 
REMARK   18  A    between atoms: C_23  and  C_24 
REMARK   19  A    between atoms: C_24  and  C_25 
REMARK   20  A    between atoms: C_25  and  C_26 
REMARK   21  A    between atoms: C_26  and  C_27 
REMARK   22  A    between atoms: C_27  and  C_28 
REMARK   23  A    between atoms: C_28  and  C_29 
REMARK   24  A    between atoms: C_29  and  C_30 
REMARK   25  A    between atoms: C_30  and  C_31 
REMARK   26  A    between atoms: C_31  and  C_32 
REMARK   27  A    between atoms: C_32  and  C_33 
REMARK   28  A    between atoms: C_33  and  C_34 
REMARK   29  A    between atoms: C_34  and  C_35 
REMARK   30  A    between atoms: C_35  and  C_36 
REMARK   31  A    between atoms: C_36  and  C_37 
REMARK   32  A    between atoms: C_37  and  C_38 
ROOT
HETATM    1  C   UNL     2     -24.135  -3.762 -11.370  1.00  0.00     0.289 C 
HETATM    2  O   UNL     2     -23.761  -3.673 -12.681  1.00  0.00    -0.150 OA
HETATM    3  O   UNL     2     -25.058  -3.144 -10.742  1.00  0.00    -0.263 OA
HETATM    4 CA   UNL     3     -22.828  -3.670 -14.882  1.00  0.00     0.000 Ca
ENDROOT
BRANCH   1   5
HETATM    5  C   UNL     2     -23.274  -4.741 -10.579  1.00  0.00     0.114 C 
BRANCH   5   6
HETATM    6  C   UNL     2     -21.933  -4.188 -10.085  1.00  0.00     0.010 C 
BRANCH   6   7
HETATM    7  C   UNL     2     -22.029  -3.884  -8.577  1.00  0.00     0.000 C 
BRANCH   7   8
HETATM    8  C   UNL     2     -20.676  -3.630  -7.909  1.00  0.00     0.000 C 
BRANCH   8   9
HETATM    9  C   UNL     2     -20.699  -4.252  -6.510  1.00  0.00     0.000 C 
BRANCH   9  10
HETATM   10  C   UNL     2     -21.320  -5.648  -6.474  1.00  0.00     0.000 C 
BRANCH  10  11
HETATM   11  C   UNL     2     -20.366  -6.708  -5.918  1.00  0.00     0.000 C 
BRANCH  11  12
HETATM   12  C   UNL     2     -20.712  -7.197  -4.508  1.00  0.00     0.000 C 
BRANCH  12  13
HETATM   13  C   UNL     2     -21.902  -6.521  -3.876  1.00  0.00     0.000 C 
BRANCH  13  14
HETATM   14  C   UNL     2     -21.920  -6.525  -2.351  1.00  0.00     0.000 C 
BRANCH  14  15
HETATM   15  C   UNL     2     -20.909  -7.492  -1.709  1.00  0.00     0.000 C 
BRANCH  15  16
HETATM   16  C   UNL     2     -21.519  -8.864  -1.417  1.00  0.00     0.000 C 
BRANCH  16  17
HETATM   17  C   UNL     2     -20.541 -10.046  -1.539  1.00  0.00     0.000 C 
BRANCH  17  18
HETATM   18  C   UNL     2     -19.240  -9.710  -2.267  1.00  0.00     0.000 C 
BRANCH  18  19
HETATM   19  C   UNL     2     -19.187 -10.317  -3.666  1.00  0.00    -0.000 C 
BRANCH  19  20
HETATM   20  C   UNL     2     -17.836 -10.120  -4.336  1.00  0.00    -0.005 C 
HETATM   21  C   UNL     2     -18.001  -9.642  -5.769  1.00  0.00     0.005 C 
ENDBRANCH  19  20
ENDBRANCH  18  19
ENDBRANCH  17  18
ENDBRANCH  16  17
ENDBRANCH  15  16
ENDBRANCH  14  15
ENDBRANCH  13  14
ENDBRANCH  12  13
ENDBRANCH  11  12
ENDBRANCH  10  11
ENDBRANCH   9  10
ENDBRANCH   8   9
ENDBRANCH   7   8
ENDBRANCH   6   7
ENDBRANCH   5   6
ENDBRANCH   1   5
TORSDOF 32
ENDMDL
MODEL 9
REMARK VINA RESULT:      -6.0      2.350      3.280
REMARK  32 active torsions:
REMARK  status: ('A' for Active; 'I' for Inactive)
REMARK    1  A    between atoms: C_2  and  C_3 
REMARK    2  A    between atoms: C_3  and  C_4 
REMARK    3  A    between atoms: C_4  and  C_5 
REMARK    4  A    between atoms: C_5  and  C_6 
REMARK    5  A    between atoms: C_6  and  C_7 
REMARK    6  A    between atoms: C_7  and  C_8 
REMARK    7  A    between atoms: C_8  and  C_9 
REMARK    8  A    between atoms: C_9  and  C_10 
REMARK    9  A    between atoms: C_10  and  C_11 
REMARK   10  A    between atoms: C_11  and  C_12 
REMARK   11  A    between atoms: C_12  and  C_13 
REMARK   12  A    between atoms: C_13  and  C_14 
REMARK   13  A    between atoms: C_14  and  C_15 
REMARK   14  A    between atoms: C_15  and  C_16 
REMARK   15  A    between atoms: C_16  and  C_17 
REMARK   16  A    between atoms: C_17  and  C_18 
REMARK   17  A    between atoms: C_22  and  C_23 
REMARK   18  A    between atoms: C_23  and  C_24 
REMARK   19  A    between atoms: C_24  and  C_25 
REMARK   20  A    between atoms: C_25  and  C_26 
REMARK   21  A    between atoms: C_26  and  C_27 
REMARK   22  A    between atoms: C_27  and  C_28 
REMARK   23  A    between atoms: C_28  and  C_29 
REMARK   24  A    between atoms: C_29  and  C_30 
REMARK   25  A    between atoms: C_30  and  C_31 
REMARK   26  A    between atoms: C_31  and  C_32 
REMARK   27  A    between atoms: C_32  and  C_33 
REMARK   28  A    between atoms: C_33  and  C_34 
REMARK   29  A    between atoms: C_34  and  C_35 
REMARK   30  A    between atoms: C_35  and  C_36 
REMARK   31  A    between atoms: C_36  and  C_37 
REMARK   32  A    between atoms: C_37  and  C_38 
ROOT
HETATM    1  C   UNL     2     -23.719  -3.709 -11.553  1.00  0.00     0.289 C 
HETATM    2  O   UNL     2     -23.051  -3.582 -12.738  1.00  0.00    -0.150 OA
HETATM    3  O   UNL     2     -24.816  -3.177 -11.176  1.00  0.00    -0.263 OA
HETATM    4 CA   UNL     3     -21.622  -3.488 -14.653  1.00  0.00     0.000 Ca
ENDROOT
BRANCH   1   5
HETATM    5  C   UNL     2     -22.991  -4.610 -10.562  1.00  0.00     0.114 C 
BRANCH   5   6
HETATM    6  C   UNL     2     -21.879  -3.934  -9.752  1.00  0.00     0.010 C 
BRANCH   6   7
HETATM    7  C   UNL     2     -22.344  -3.757  -8.293  1.00  0.00     0.000 C 
BRANCH   7   8
HETATM    8  C   UNL     2     -21.261  -4.060  -7.256  1.00  0.00     0.000 C 
BRANCH   8   9
HETATM    9  C   UNL     2     -21.678  -5.301  -6.463  1.00  0.00     0.000 C 
BRANCH   9  10
HETATM   10  C   UNL     2     -20.822  -5.547  -5.221  1.00  0.00     0.000 C 
BRANCH  10  11
HETATM   11  C   UNL     2     -21.617  -6.159  -4.065  1.00  0.00     0.000 C 
BRANCH  11  12
HETATM   12  C   UNL     2     -21.347  -7.648  -3.826  1.00  0.00     0.000 C 
BRANCH  12  13
HETATM   13  C   UNL     2     -20.193  -8.218  -4.612  1.00  0.00     0.000 C 
BRANCH  13  14
HETATM   14  C   UNL     2     -20.387  -9.645  -5.112  1.00  0.00     0.000 C 
BRANCH  14  15
HETATM   15  C   UNL     2     -21.579 -10.382  -4.478  1.00  0.00     0.000 C 
BRANCH  15  16
HETATM   16  C   UNL     2     -21.146 -11.607  -3.670  1.00  0.00     0.000 C 
BRANCH  16  17
HETATM   17  C   UNL     2     -22.023 -11.917  -2.444  1.00  0.00     0.000 C 
BRANCH  17  18
HETATM   18  C   UNL     2     -22.801 -10.715  -1.910  1.00  0.00     0.000 C 
BRANCH  18  19
HETATM   19  C   UNL     2     -21.986  -9.896  -0.914  1.00  0.00    -0.000 C 
BRANCH  19  20
HETATM   20  C   UNL     2     -22.849  -8.949  -0.093  1.00  0.00    -0.005 C 
HETATM   21  C   UNL     2     -22.293  -7.535  -0.125  1.00  0.00     0.005 C 
ENDBRANCH  19  20
ENDBRANCH  18  19
ENDBRANCH  17  18
ENDBRANCH  16  17
ENDBRANCH  15  16
ENDBRANCH  14  15
ENDBRANCH  13  14
ENDBRANCH  12  13
ENDBRANCH  11  12
ENDBRANCH  10  11
ENDBRANCH   9  10
ENDBRANCH   8   9
ENDBRANCH   7   8
ENDBRANCH   6   7
ENDBRANCH   5   6
ENDBRANCH   1   5
TORSDOF 32
ENDMDL
