MODEL 1
REMARK VINA RESULT:      -5.6      0.000      0.000
REMARK  4 active torsions:
REMARK  status: ('A' for Active; 'I' for Inactive)
REMARK    1  A    between atoms: N_2  and  C_5 
REMARK    2  A    between atoms: C_5  and  C_6 
REMARK    3  A    between atoms: C_5  and  C_13 
REMARK    4  A    between atoms: C_6  and  C_7 
ROOT
HETATM    1  C   UNL     1     -34.261  -1.846 -11.536  1.00  0.00     0.103 C 
ENDROOT
BRANCH   1   2
HETATM    2  C   UNL     1     -35.696  -1.439 -11.978  1.00  0.00     0.294 C 
BRANCH   2   3
HETATM    3  N   UNL     1     -35.744  -0.480 -13.301  1.00  0.00    -0.064 N 
HETATM    4  C   UNL     1     -34.872   0.736 -13.133  1.00  0.00     0.272 C 
HETATM    5  C   UNL     1     -37.170  -0.079 -13.657  1.00  0.00     0.272 C 
HETATM    6  C   UNL     1     -35.209  -1.306 -14.476  1.00  0.00     0.272 C 
ENDBRANCH   2   3
BRANCH   2   7
HETATM    7  C   UNL     1     -36.499  -1.033 -10.693  1.00  0.00     0.205 C 
HETATM    8  O   UNL     1     -35.818  -0.495  -9.777  1.00  0.00    -0.646 OA
HETATM    9  O   UNL     1     -37.728  -1.307 -10.715  1.00  0.00    -0.646 OA
ENDBRANCH   2   7
ENDBRANCH   1   2
BRANCH   1  10
HETATM   10  C   UNL     1     -33.952  -3.308 -11.490  1.00  0.00     0.029 A 
HETATM   11  C   UNL     1     -32.849  -3.947 -11.932  1.00  0.00     0.115 A 
HETATM   12  N   UNL     1     -32.941  -5.268 -11.575  1.00  0.00    -0.341 N 
HETATM   13  C   UNL     1     -34.151  -5.480 -10.907  1.00  0.00     0.176 A 
HETATM   14  H   UNL     1     -32.254  -5.990 -11.740  1.00  0.00     0.167 HD
HETATM   15  S   UNL     1     -34.672  -6.884 -10.230  1.00  0.00    -0.041 SA
HETATM   16  N   UNL     1     -34.782  -4.233 -10.899  1.00  0.00    -0.335 N 
HETATM   17  H   UNL     1     -35.697  -4.055 -10.495  1.00  0.00     0.168 HD
ENDBRANCH   1  10
TORSDOF 4
ENDMDL
MODEL 2
REMARK VINA RESULT:      -5.3     12.506     14.726
REMARK  4 active torsions:
REMARK  status: ('A' for Active; 'I' for Inactive)
REMARK    1  A    between atoms: N_2  and  C_5 
REMARK    2  A    between atoms: C_5  and  C_6 
REMARK    3  A    between atoms: C_5  and  C_13 
REMARK    4  A    between atoms: C_6  and  C_7 
ROOT
HETATM    1  C   UNL     1     -22.279  -3.817  -7.935  1.00  0.00     0.103 C 
ENDROOT
BRANCH   1   2
HETATM    2  C   UNL     1     -21.216  -4.951  -7.883  1.00  0.00     0.294 C 
BRANCH   2   3
HETATM    3  N   UNL     1     -20.957  -5.560  -6.388  1.00  0.00    -0.064 N 
HETATM    4  C   UNL     1     -22.240  -6.029  -5.753  1.00  0.00     0.272 C 
HETATM    5  C   UNL     1     -20.241  -4.561  -5.488  1.00  0.00     0.272 C 
HETATM    6  C   UNL     1     -20.022  -6.764  -6.546  1.00  0.00     0.272 C 
ENDBRANCH   2   3
BRANCH   2   7
HETATM    7  C   UNL     1     -19.996  -4.510  -8.766  1.00  0.00     0.205 C 
HETATM    8  O   UNL     1     -19.926  -5.054  -9.903  1.00  0.00    -0.646 OA
HETATM    9  O   UNL     1     -19.217  -3.678  -8.232  1.00  0.00    -0.646 OA
ENDBRANCH   2   7
ENDBRANCH   1   2
BRANCH   1  10
HETATM   10  C   UNL     1     -23.094  -3.706  -9.183  1.00  0.00     0.029 A 
HETATM   11  C   UNL     1     -24.434  -3.784  -9.320  1.00  0.00     0.115 A 
HETATM   12  N   UNL     1     -24.755  -3.504 -10.624  1.00  0.00    -0.341 N 
HETATM   13  C   UNL     1     -23.580  -3.264 -11.344  1.00  0.00     0.176 A 
HETATM   14  H   UNL     1     -25.682  -3.456 -11.024  1.00  0.00     0.167 HD
HETATM   15  S   UNL     1     -23.463  -2.821 -12.922  1.00  0.00    -0.041 SA
HETATM   16  N   UNL     1     -22.549  -3.432 -10.416  1.00  0.00    -0.335 N 
HETATM   17  H   UNL     1     -21.560  -3.338 -10.633  1.00  0.00     0.168 HD
ENDBRANCH   1  10
TORSDOF 4
ENDMDL
MODEL 3
REMARK VINA RESULT:      -5.2     11.907     13.514
REMARK  4 active torsions:
REMARK  status: ('A' for Active; 'I' for Inactive)
REMARK    1  A    between atoms: N_2  and  C_5 
REMARK    2  A    between atoms: C_5  and  C_6 
REMARK    3  A    between atoms: C_5  and  C_13 
REMARK    4  A    between atoms: C_6  and  C_7 
ROOT
HETATM    1  C   UNL     1     -22.244  -3.421  -8.559  1.00  0.00     0.103 C 
ENDROOT
BRANCH   1   2
HETATM    2  C   UNL     1     -22.899  -4.177  -9.750  1.00  0.00     0.294 C 
BRANCH   2   3
HETATM    3  N   UNL     1     -22.151  -3.942 -11.186  1.00  0.00    -0.064 N 
HETATM    4  C   UNL     1     -20.732  -4.445 -11.158  1.00  0.00     0.272 C 
HETATM    5  C   UNL     1     -22.199  -2.481 -11.614  1.00  0.00     0.272 C 
HETATM    6  C   UNL     1     -22.931  -4.739 -12.237  1.00  0.00     0.272 C 
ENDBRANCH   2   3
BRANCH   2   7
HETATM    7  C   UNL     1     -24.453  -3.993  -9.643  1.00  0.00     0.205 C 
HETATM    8  O   UNL     1     -24.851  -2.801  -9.535  1.00  0.00    -0.646 OA
HETATM    9  O   UNL     1     -25.125  -5.058  -9.659  1.00  0.00    -0.646 OA
ENDBRANCH   2   7
ENDBRANCH   1   2
BRANCH   1  10
HETATM   10  C   UNL     1     -21.555  -4.251  -7.524  1.00  0.00     0.029 A 
HETATM   11  C   UNL     1     -20.236  -4.323  -7.247  1.00  0.00     0.115 A 
HETATM   12  N   UNL     1     -20.067  -5.117  -6.142  1.00  0.00    -0.341 N 
HETATM   13  C   UNL     1     -21.314  -5.585  -5.718  1.00  0.00     0.176 A 
HETATM   14  H   UNL     1     -19.195  -5.333  -5.679  1.00  0.00     0.167 HD
HETATM   15  S   UNL     1     -21.624  -6.510  -4.395  1.00  0.00    -0.041 SA
HETATM   16  N   UNL     1     -22.229  -5.049  -6.629  1.00  0.00    -0.335 N 
HETATM   17  H   UNL     1     -23.231  -5.216  -6.602  1.00  0.00     0.168 HD
ENDBRANCH   1  10
TORSDOF 4
ENDMDL
MODEL 4
REMARK VINA RESULT:      -5.1      9.956     11.412
REMARK  4 active torsions:
REMARK  status: ('A' for Active; 'I' for Inactive)
REMARK    1  A    between atoms: N_2  and  C_5 
REMARK    2  A    between atoms: C_5  and  C_6 
REMARK    3  A    between atoms: C_5  and  C_13 
REMARK    4  A    between atoms: C_6  and  C_7 
ROOT
HETATM    1  C   UNL     1     -26.984  -5.919 -17.521  1.00  0.00     0.103 C 
ENDROOT
BRANCH   1   2
HETATM    2  C   UNL     1     -28.129  -6.867 -17.061  1.00  0.00     0.294 C 
BRANCH   2   3
HETATM    3  N   UNL     1     -29.459  -6.822 -18.012  1.00  0.00    -0.064 N 
HETATM    4  C   UNL     1     -30.720  -6.742 -17.193  1.00  0.00     0.272 C 
HETATM    5  C   UNL     1     -29.509  -8.006 -18.969  1.00  0.00     0.272 C 
HETATM    6  C   UNL     1     -29.356  -5.559 -18.873  1.00  0.00     0.272 C 
ENDBRANCH   2   3
BRANCH   2   7
HETATM    7  C   UNL     1     -28.279  -6.724 -15.506  1.00  0.00     0.205 C 
HETATM    8  O   UNL     1     -28.619  -5.579 -15.098  1.00  0.00    -0.646 OA
HETATM    9  O   UNL     1     -28.026  -7.762 -14.842  1.00  0.00    -0.646 OA
ENDBRANCH   2   7
ENDBRANCH   1   2
BRANCH   1  10
HETATM   10  C   UNL     1     -25.816  -6.548 -18.208  1.00  0.00     0.029 A 
HETATM   11  C   UNL     1     -24.682  -7.032 -17.660  1.00  0.00     0.115 A 
HETATM   12  N   UNL     1     -23.941  -7.627 -18.650  1.00  0.00    -0.341 N 
HETATM   13  C   UNL     1     -24.614  -7.494 -19.868  1.00  0.00     0.176 A 
HETATM   14  H   UNL     1     -23.057  -8.104 -18.542  1.00  0.00     0.167 HD
HETATM   15  S   UNL     1     -24.152  -8.108 -21.322  1.00  0.00    -0.041 SA
HETATM   16  N   UNL     1     -25.775  -6.781 -19.563  1.00  0.00    -0.335 N 
HETATM   17  H   UNL     1     -26.478  -6.508 -20.245  1.00  0.00     0.168 HD
ENDBRANCH   1  10
TORSDOF 4
ENDMDL
MODEL 5
REMARK VINA RESULT:      -4.8     10.660     12.135
REMARK  4 active torsions:
REMARK  status: ('A' for Active; 'I' for Inactive)
REMARK    1  A    between atoms: N_2  and  C_5 
REMARK    2  A    between atoms: C_5  and  C_6 
REMARK    3  A    between atoms: C_5  and  C_13 
REMARK    4  A    between atoms: C_6  and  C_7 
ROOT
HETATM    1  C   UNL     1     -26.986  -6.142 -18.761  1.00  0.00     0.103 C 
ENDROOT
BRANCH   1   2
HETATM    2  C   UNL     1     -27.544  -6.813 -17.473  1.00  0.00     0.294 C 
BRANCH   2   3
HETATM    3  N   UNL     1     -29.127  -6.512 -17.193  1.00  0.00    -0.064 N 
HETATM    4  C   UNL     1     -29.706  -5.590 -18.234  1.00  0.00     0.272 C 
HETATM    5  C   UNL     1     -29.357  -5.960 -15.792  1.00  0.00     0.272 C 
HETATM    6  C   UNL     1     -29.862  -7.855 -17.267  1.00  0.00     0.272 C 
ENDBRANCH   2   3
BRANCH   2   7
HETATM    7  C   UNL     1     -26.497  -6.601 -16.325  1.00  0.00     0.205 C 
HETATM    8  O   UNL     1     -25.712  -5.626 -16.482  1.00  0.00    -0.646 OA
HETATM    9  O   UNL     1     -26.547  -7.439 -15.387  1.00  0.00    -0.646 OA
ENDBRANCH   2   7
ENDBRANCH   1   2
BRANCH   1  10
HETATM   10  C   UNL     1     -26.232  -7.017 -19.710  1.00  0.00     0.029 A 
HETATM   11  C   UNL     1     -26.705  -7.713 -20.765  1.00  0.00     0.115 A 
HETATM   12  N   UNL     1     -25.643  -8.276 -21.425  1.00  0.00    -0.341 N 
HETATM   13  C   UNL     1     -24.460  -7.948 -20.755  1.00  0.00     0.176 A 
HETATM   14  H   UNL     1     -25.678  -8.830 -22.270  1.00  0.00     0.167 HD
HETATM   15  S   UNL     1     -22.929  -8.336 -21.208  1.00  0.00    -0.041 SA
HETATM   16  N   UNL     1     -24.867  -7.182 -19.659  1.00  0.00    -0.335 N 
HETATM   17  H   UNL     1     -24.237  -6.798 -18.961  1.00  0.00     0.168 HD
ENDBRANCH   1  10
TORSDOF 4
ENDMDL
MODEL 6
REMARK VINA RESULT:      -4.7     17.469     19.009
REMARK  4 active torsions:
REMARK  status: ('A' for Active; 'I' for Inactive)
REMARK    1  A    between atoms: N_2  and  C_5 
REMARK    2  A    between atoms: C_5  and  C_6 
REMARK    3  A    between atoms: C_5  and  C_13 
REMARK    4  A    between atoms: C_6  and  C_7 
ROOT
HETATM    1  C   UNL     1     -21.585  -8.973  -0.363  1.00  0.00     0.103 C 
ENDROOT
BRANCH   1   2
HETATM    2  C   UNL     1     -21.276 -10.362  -0.991  1.00  0.00     0.294 C 
BRANCH   2   3
HETATM    3  N   UNL     1     -22.596 -11.294  -1.241  1.00  0.00    -0.064 N 
HETATM    4  C   UNL     1     -23.761 -10.836  -0.404  1.00  0.00     0.272 C 
HETATM    5  C   UNL     1     -22.302 -12.768  -0.996  1.00  0.00     0.272 C 
HETATM    6  C   UNL     1     -22.974 -11.156  -2.720  1.00  0.00     0.272 C 
ENDBRANCH   2   3
BRANCH   2   7
HETATM    7  C   UNL     1     -20.030 -10.961  -0.249  1.00  0.00     0.205 C 
HETATM    8  O   UNL     1     -20.083 -10.928   1.011  1.00  0.00    -0.646 OA
HETATM    9  O   UNL     1     -19.111 -11.389  -0.996  1.00  0.00    -0.646 OA
ENDBRANCH   2   7
ENDBRANCH   1   2
BRANCH   1  10
HETATM   10  C   UNL     1     -21.816  -7.837  -1.307  1.00  0.00     0.029 A 
HETATM   11  C   UNL     1     -22.394  -6.644  -1.057  1.00  0.00     0.115 A 
HETATM   12  N   UNL     1     -22.285  -5.865  -2.181  1.00  0.00    -0.341 N 
HETATM   13  C   UNL     1     -21.640  -6.595  -3.184  1.00  0.00     0.176 A 
HETATM   14  H   UNL     1     -22.597  -4.910  -2.290  1.00  0.00     0.167 HD
HETATM   15  S   UNL     1     -21.221  -6.060  -4.680  1.00  0.00    -0.041 SA
HETATM   16  N   UNL     1     -21.387  -7.846  -2.614  1.00  0.00    -0.335 N 
HETATM   17  H   UNL     1     -20.935  -8.616  -3.098  1.00  0.00     0.168 HD
ENDBRANCH   1  10
TORSDOF 4
ENDMDL
MODEL 7
REMARK VINA RESULT:      -4.6      1.489      2.294
REMARK  4 active torsions:
REMARK  status: ('A' for Active; 'I' for Inactive)
REMARK    1  A    between atoms: N_2  and  C_5 
REMARK    2  A    between atoms: C_5  and  C_6 
REMARK    3  A    between atoms: C_5  and  C_13 
REMARK    4  A    between atoms: C_6  and  C_7 
ROOT
HETATM    1  C   UNL     1     -34.846  -1.364 -12.717  1.00  0.00     0.103 C 
ENDROOT
BRANCH   1   2
HETATM    2  C   UNL     1     -36.191  -0.755 -13.207  1.00  0.00     0.294 C 
BRANCH   2   3
HETATM    3  N   UNL     1     -36.122  -0.090 -14.699  1.00  0.00    -0.064 N 
HETATM    4  C   UNL     1     -37.489   0.311 -15.188  1.00  0.00     0.272 C 
HETATM    5  C   UNL     1     -35.440  -1.014 -15.698  1.00  0.00     0.272 C 
HETATM    6  C   UNL     1     -35.254   1.168 -14.593  1.00  0.00     0.272 C 
ENDBRANCH   2   3
BRANCH   2   7
HETATM    7  C   UNL     1     -36.812   0.061 -12.019  1.00  0.00     0.205 C 
HETATM    8  O   UNL     1     -38.073   0.113 -12.000  1.00  0.00    -0.646 OA
HETATM    9  O   UNL     1     -35.981   0.585 -11.232  1.00  0.00    -0.646 OA
ENDBRANCH   2   7
ENDBRANCH   1   2
BRANCH   1  10
HETATM   10  C   UNL     1     -34.924  -2.598 -11.878  1.00  0.00     0.029 A 
HETATM   11  C   UNL     1     -35.873  -2.946 -10.984  1.00  0.00     0.115 A 
HETATM   12  N   UNL     1     -35.606  -4.215 -10.538  1.00  0.00    -0.341 N 
HETATM   13  C   UNL     1     -34.436  -4.679 -11.149  1.00  0.00     0.176 A 
HETATM   14  H   UNL     1     -36.156  -4.758  -9.887  1.00  0.00     0.167 HD
HETATM   15  S   UNL     1     -33.759  -6.167 -10.982  1.00  0.00    -0.041 SA
HETATM   16  N   UNL     1     -34.011  -3.625 -11.961  1.00  0.00    -0.335 N 
HETATM   17  H   UNL     1     -33.172  -3.642 -12.533  1.00  0.00     0.168 HD
ENDBRANCH   1  10
TORSDOF 4
ENDMDL
MODEL 8
REMARK VINA RESULT:      -4.4     18.212     19.094
REMARK  4 active torsions:
REMARK  status: ('A' for Active; 'I' for Inactive)
REMARK    1  A    between atoms: N_2  and  C_5 
REMARK    2  A    between atoms: C_5  and  C_6 
REMARK    3  A    between atoms: C_5  and  C_13 
REMARK    4  A    between atoms: C_6  and  C_7 
ROOT
HETATM    1  C   UNL     1     -21.554  -8.652  -2.383  1.00  0.00     0.103 C 
ENDROOT
BRANCH   1   2
HETATM    2  C   UNL     1     -21.705  -9.107  -0.903  1.00  0.00     0.294 C 
BRANCH   2   3
HETATM    3  N   UNL     1     -22.474 -10.539  -0.717  1.00  0.00    -0.064 N 
HETATM    4  C   UNL     1     -22.591 -11.276  -2.025  1.00  0.00     0.272 C 
HETATM    5  C   UNL     1     -23.841 -10.366  -0.070  1.00  0.00     0.272 C 
HETATM    6  C   UNL     1     -21.630 -11.383   0.244  1.00  0.00     0.272 C 
ENDBRANCH   2   3
BRANCH   2   7
HETATM    7  C   UNL     1     -22.161  -7.865  -0.060  1.00  0.00     0.205 C 
HETATM    8  O   UNL     1     -22.761  -6.963  -0.706  1.00  0.00    -0.646 OA
HETATM    9  O   UNL     1     -21.859  -7.902   1.162  1.00  0.00    -0.646 OA
ENDBRANCH   2   7
ENDBRANCH   1   2
BRANCH   1  10
HETATM   10  C   UNL     1     -20.250  -8.942  -3.053  1.00  0.00     0.029 A 
HETATM   11  C   UNL     1     -19.932  -8.821  -4.358  1.00  0.00     0.115 A 
HETATM   12  N   UNL     1     -18.593  -9.079  -4.505  1.00  0.00    -0.341 N 
HETATM   13  C   UNL     1     -18.048  -9.399  -3.258  1.00  0.00     0.176 A 
HETATM   14  H   UNL     1     -18.057  -9.037  -5.361  1.00  0.00     0.167 HD
HETATM   15  S   UNL     1     -16.470  -9.713  -2.921  1.00  0.00    -0.041 SA
HETATM   16  N   UNL     1     -19.123  -9.337  -2.368  1.00  0.00    -0.335 N 
HETATM   17  H   UNL     1     -19.058  -9.534  -1.373  1.00  0.00     0.168 HD
ENDBRANCH   1  10
TORSDOF 4
ENDMDL
MODEL 9
REMARK VINA RESULT:      -4.4     16.397     17.644
REMARK  4 active torsions:
REMARK  status: ('A' for Active; 'I' for Inactive)
REMARK    1  A    between atoms: N_2  and  C_5 
REMARK    2  A    between atoms: C_5  and  C_6 
REMARK    3  A    between atoms: C_5  and  C_13 
REMARK    4  A    between atoms: C_6  and  C_7 
ROOT
HETATM    1  C   UNL     1     -20.989  -7.644  -2.069  1.00  0.00     0.103 C 
ENDROOT
BRANCH   1   2
HETATM    2  C   UNL     1     -21.313  -7.762  -3.585  1.00  0.00     0.294 C 
BRANCH   2   3
HETATM    3  N   UNL     1     -20.221  -8.629  -4.440  1.00  0.00    -0.064 N 
HETATM    4  C   UNL     1     -19.121  -9.156  -3.555  1.00  0.00     0.272 C 
HETATM    5  C   UNL     1     -19.645  -7.827  -5.599  1.00  0.00     0.272 C 
HETATM    6  C   UNL     1     -20.968  -9.820  -5.051  1.00  0.00     0.272 C 
ENDBRANCH   2   3
BRANCH   2   7
HETATM    7  C   UNL     1     -21.754  -6.346  -4.096  1.00  0.00     0.205 C 
HETATM    8  O   UNL     1     -22.718  -6.340  -4.911  1.00  0.00    -0.646 OA
HETATM    9  O   UNL     1     -21.083  -5.379  -3.650  1.00  0.00    -0.646 OA
ENDBRANCH   2   7
ENDBRANCH   1   2
BRANCH   1  10
HETATM   10  C   UNL     1     -21.886  -8.375  -1.123  1.00  0.00     0.029 A 
HETATM   11  C   UNL     1     -22.640  -7.871  -0.123  1.00  0.00     0.115 A 
HETATM   12  N   UNL     1     -23.396  -8.887   0.404  1.00  0.00    -0.341 N 
HETATM   13  C   UNL     1     -23.095 -10.078  -0.264  1.00  0.00     0.176 A 
HETATM   14  H   UNL     1     -24.079  -8.812   1.145  1.00  0.00     0.167 HD
HETATM   15  S   UNL     1     -23.798 -11.545  -0.031  1.00  0.00    -0.041 SA
HETATM   16  N   UNL     1     -22.116  -9.730  -1.198  1.00  0.00    -0.335 N 
HETATM   17  H   UNL     1     -21.674 -10.384  -1.838  1.00  0.00     0.168 HD
ENDBRANCH   1  10
TORSDOF 4
ENDMDL
