MODEL 1
REMARK VINA RESULT:      -1.1      0.000      0.000
REMARK  31 active torsions:
REMARK  status: ('A' for Active; 'I' for Inactive)
REMARK    1  A    between atoms: C_2  and  C_3 
REMARK    2  A    between atoms: C_3  and  C_4 
REMARK    3  A    between atoms: C_4  and  C_5 
REMARK    4  A    between atoms: C_5  and  C_6 
REMARK    5  A    between atoms: C_6  and  C_7 
REMARK    6  A    between atoms: C_7  and  C_8 
REMARK    7  A    between atoms: C_8  and  C_9 
REMARK    8  A    between atoms: C_9  and  C_10 
REMARK    9  A    between atoms: C_10  and  C_11 
REMARK   10  A    between atoms: C_11  and  C_12 
REMARK   11  A    between atoms: C_12  and  C_13 
REMARK   12  A    between atoms: C_13  and  C_14 
REMARK   13  A    between atoms: C_14  and  C_15 
REMARK   14  A    between atoms: C_15  and  C_16 
REMARK   15  A    between atoms: C_16  and  C_17 
REMARK   16  A    between atoms: C_17  and  C_18 
REMARK   17  A    between atoms: C_18  and  N_19 
REMARK   18  A    between atoms: N_19  and  C_22 
REMARK   19  A    between atoms: C_22  and  C_23 
REMARK   20  A    between atoms: C_23  and  C_24 
REMARK   21  A    between atoms: C_23  and  O_39 
REMARK   22  A    between atoms: C_24  and  O_25 
REMARK   23  A    between atoms: O_25  and  C_26 
REMARK   24  A    between atoms: C_26  and  C_27 
REMARK   25  A    between atoms: C_27  and  C_30 
REMARK   26  A    between atoms: C_30  and  C_31 
REMARK   27  A    between atoms: C_30  and  O_38 
REMARK       I    between atoms: C_31  and  N_33 
REMARK   28  A    between atoms: N_33  and  C_34 
REMARK   29  A    between atoms: C_34  and  C_35 
REMARK   30  A    between atoms: C_35  and  C_36 
REMARK   31  A    between atoms: C_36  and  O_37 
ROOT
HETATM    1 CL   UNL     2     -32.950  -3.303 -11.392  1.00  0.00     0.000 Cl
ENDROOT
TORSDOF 31
ENDMDL
MODEL 2
REMARK VINA RESULT:      -1.0      8.562      8.562
REMARK  31 active torsions:
REMARK  status: ('A' for Active; 'I' for Inactive)
REMARK    1  A    between atoms: C_2  and  C_3 
REMARK    2  A    between atoms: C_3  and  C_4 
REMARK    3  A    between atoms: C_4  and  C_5 
REMARK    4  A    between atoms: C_5  and  C_6 
REMARK    5  A    between atoms: C_6  and  C_7 
REMARK    6  A    between atoms: C_7  and  C_8 
REMARK    7  A    between atoms: C_8  and  C_9 
REMARK    8  A    between atoms: C_9  and  C_10 
REMARK    9  A    between atoms: C_10  and  C_11 
REMARK   10  A    between atoms: C_11  and  C_12 
REMARK   11  A    between atoms: C_12  and  C_13 
REMARK   12  A    between atoms: C_13  and  C_14 
REMARK   13  A    between atoms: C_14  and  C_15 
REMARK   14  A    between atoms: C_15  and  C_16 
REMARK   15  A    between atoms: C_16  and  C_17 
REMARK   16  A    between atoms: C_17  and  C_18 
REMARK   17  A    between atoms: C_18  and  N_19 
REMARK   18  A    between atoms: N_19  and  C_22 
REMARK   19  A    between atoms: C_22  and  C_23 
REMARK   20  A    between atoms: C_23  and  C_24 
REMARK   21  A    between atoms: C_23  and  O_39 
REMARK   22  A    between atoms: C_24  and  O_25 
REMARK   23  A    between atoms: O_25  and  C_26 
REMARK   24  A    between atoms: C_26  and  C_27 
REMARK   25  A    between atoms: C_27  and  C_30 
REMARK   26  A    between atoms: C_30  and  C_31 
REMARK   27  A    between atoms: C_30  and  O_38 
REMARK       I    between atoms: C_31  and  N_33 
REMARK   28  A    between atoms: N_33  and  C_34 
REMARK   29  A    between atoms: C_34  and  C_35 
REMARK   30  A    between atoms: C_35  and  C_36 
REMARK   31  A    between atoms: C_36  and  O_37 
ROOT
HETATM    1 CL   UNL     2     -37.016   0.580  -4.933  1.00  0.00     0.000 Cl
ENDROOT
TORSDOF 31
ENDMDL
MODEL 3
REMARK VINA RESULT:      -1.0     10.559     10.559
REMARK  31 active torsions:
REMARK  status: ('A' for Active; 'I' for Inactive)
REMARK    1  A    between atoms: C_2  and  C_3 
REMARK    2  A    between atoms: C_3  and  C_4 
REMARK    3  A    between atoms: C_4  and  C_5 
REMARK    4  A    between atoms: C_5  and  C_6 
REMARK    5  A    between atoms: C_6  and  C_7 
REMARK    6  A    between atoms: C_7  and  C_8 
REMARK    7  A    between atoms: C_8  and  C_9 
REMARK    8  A    between atoms: C_9  and  C_10 
REMARK    9  A    between atoms: C_10  and  C_11 
REMARK   10  A    between atoms: C_11  and  C_12 
REMARK   11  A    between atoms: C_12  and  C_13 
REMARK   12  A    between atoms: C_13  and  C_14 
REMARK   13  A    between atoms: C_14  and  C_15 
REMARK   14  A    between atoms: C_15  and  C_16 
REMARK   15  A    between atoms: C_16  and  C_17 
REMARK   16  A    between atoms: C_17  and  C_18 
REMARK   17  A    between atoms: C_18  and  N_19 
REMARK   18  A    between atoms: N_19  and  C_22 
REMARK   19  A    between atoms: C_22  and  C_23 
REMARK   20  A    between atoms: C_23  and  C_24 
REMARK   21  A    between atoms: C_23  and  O_39 
REMARK   22  A    between atoms: C_24  and  O_25 
REMARK   23  A    between atoms: O_25  and  C_26 
REMARK   24  A    between atoms: C_26  and  C_27 
REMARK   25  A    between atoms: C_27  and  C_30 
REMARK   26  A    between atoms: C_30  and  C_31 
REMARK   27  A    between atoms: C_30  and  O_38 
REMARK       I    between atoms: C_31  and  N_33 
REMARK   28  A    between atoms: N_33  and  C_34 
REMARK   29  A    between atoms: C_34  and  C_35 
REMARK   30  A    between atoms: C_35  and  C_36 
REMARK   31  A    between atoms: C_36  and  O_37 
ROOT
HETATM    1 CL   UNL     2     -34.319  -5.947  -1.261  1.00  0.00     0.000 Cl
ENDROOT
TORSDOF 31
ENDMDL
MODEL 4
REMARK VINA RESULT:      -1.0     11.260     11.260
REMARK  31 active torsions:
REMARK  status: ('A' for Active; 'I' for Inactive)
REMARK    1  A    between atoms: C_2  and  C_3 
REMARK    2  A    between atoms: C_3  and  C_4 
REMARK    3  A    between atoms: C_4  and  C_5 
REMARK    4  A    between atoms: C_5  and  C_6 
REMARK    5  A    between atoms: C_6  and  C_7 
REMARK    6  A    between atoms: C_7  and  C_8 
REMARK    7  A    between atoms: C_8  and  C_9 
REMARK    8  A    between atoms: C_9  and  C_10 
REMARK    9  A    between atoms: C_10  and  C_11 
REMARK   10  A    between atoms: C_11  and  C_12 
REMARK   11  A    between atoms: C_12  and  C_13 
REMARK   12  A    between atoms: C_13  and  C_14 
REMARK   13  A    between atoms: C_14  and  C_15 
REMARK   14  A    between atoms: C_15  and  C_16 
REMARK   15  A    between atoms: C_16  and  C_17 
REMARK   16  A    between atoms: C_17  and  C_18 
REMARK   17  A    between atoms: C_18  and  N_19 
REMARK   18  A    between atoms: N_19  and  C_22 
REMARK   19  A    between atoms: C_22  and  C_23 
REMARK   20  A    between atoms: C_23  and  C_24 
REMARK   21  A    between atoms: C_23  and  O_39 
REMARK   22  A    between atoms: C_24  and  O_25 
REMARK   23  A    between atoms: O_25  and  C_26 
REMARK   24  A    between atoms: C_26  and  C_27 
REMARK   25  A    between atoms: C_27  and  C_30 
REMARK   26  A    between atoms: C_30  and  C_31 
REMARK   27  A    between atoms: C_30  and  O_38 
REMARK       I    between atoms: C_31  and  N_33 
REMARK   28  A    between atoms: N_33  and  C_34 
REMARK   29  A    between atoms: C_34  and  C_35 
REMARK   30  A    between atoms: C_35  and  C_36 
REMARK   31  A    between atoms: C_36  and  O_37 
ROOT
HETATM    1 CL   UNL     2     -29.825   7.428 -12.753  1.00  0.00     0.000 Cl
ENDROOT
TORSDOF 31
ENDMDL
MODEL 5
REMARK VINA RESULT:      -1.0      4.740      4.740
REMARK  31 active torsions:
REMARK  status: ('A' for Active; 'I' for Inactive)
REMARK    1  A    between atoms: C_2  and  C_3 
REMARK    2  A    between atoms: C_3  and  C_4 
REMARK    3  A    between atoms: C_4  and  C_5 
REMARK    4  A    between atoms: C_5  and  C_6 
REMARK    5  A    between atoms: C_6  and  C_7 
REMARK    6  A    between atoms: C_7  and  C_8 
REMARK    7  A    between atoms: C_8  and  C_9 
REMARK    8  A    between atoms: C_9  and  C_10 
REMARK    9  A    between atoms: C_10  and  C_11 
REMARK   10  A    between atoms: C_11  and  C_12 
REMARK   11  A    between atoms: C_12  and  C_13 
REMARK   12  A    between atoms: C_13  and  C_14 
REMARK   13  A    between atoms: C_14  and  C_15 
REMARK   14  A    between atoms: C_15  and  C_16 
REMARK   15  A    between atoms: C_16  and  C_17 
REMARK   16  A    between atoms: C_17  and  C_18 
REMARK   17  A    between atoms: C_18  and  N_19 
REMARK   18  A    between atoms: N_19  and  C_22 
REMARK   19  A    between atoms: C_22  and  C_23 
REMARK   20  A    between atoms: C_23  and  C_24 
REMARK   21  A    between atoms: C_23  and  O_39 
REMARK   22  A    between atoms: C_24  and  O_25 
REMARK   23  A    between atoms: O_25  and  C_26 
REMARK   24  A    between atoms: C_26  and  C_27 
REMARK   25  A    between atoms: C_27  and  C_30 
REMARK   26  A    between atoms: C_30  and  C_31 
REMARK   27  A    between atoms: C_30  and  O_38 
REMARK       I    between atoms: C_31  and  N_33 
REMARK   28  A    between atoms: N_33  and  C_34 
REMARK   29  A    between atoms: C_34  and  C_35 
REMARK   30  A    between atoms: C_35  and  C_36 
REMARK   31  A    between atoms: C_36  and  O_37 
ROOT
HETATM    1 CL   UNL     2     -34.927  -7.262  -9.694  1.00  0.00     0.000 Cl
ENDROOT
TORSDOF 31
ENDMDL
MODEL 6
REMARK VINA RESULT:      -1.0     14.602     14.602
REMARK  31 active torsions:
REMARK  status: ('A' for Active; 'I' for Inactive)
REMARK    1  A    between atoms: C_2  and  C_3 
REMARK    2  A    between atoms: C_3  and  C_4 
REMARK    3  A    between atoms: C_4  and  C_5 
REMARK    4  A    between atoms: C_5  and  C_6 
REMARK    5  A    between atoms: C_6  and  C_7 
REMARK    6  A    between atoms: C_7  and  C_8 
REMARK    7  A    between atoms: C_8  and  C_9 
REMARK    8  A    between atoms: C_9  and  C_10 
REMARK    9  A    between atoms: C_10  and  C_11 
REMARK   10  A    between atoms: C_11  and  C_12 
REMARK   11  A    between atoms: C_12  and  C_13 
REMARK   12  A    between atoms: C_13  and  C_14 
REMARK   13  A    between atoms: C_14  and  C_15 
REMARK   14  A    between atoms: C_15  and  C_16 
REMARK   15  A    between atoms: C_16  and  C_17 
REMARK   16  A    between atoms: C_17  and  C_18 
REMARK   17  A    between atoms: C_18  and  N_19 
REMARK   18  A    between atoms: N_19  and  C_22 
REMARK   19  A    between atoms: C_22  and  C_23 
REMARK   20  A    between atoms: C_23  and  C_24 
REMARK   21  A    between atoms: C_23  and  O_39 
REMARK   22  A    between atoms: C_24  and  O_25 
REMARK   23  A    between atoms: O_25  and  C_26 
REMARK   24  A    between atoms: C_26  and  C_27 
REMARK   25  A    between atoms: C_27  and  C_30 
REMARK   26  A    between atoms: C_30  and  C_31 
REMARK   27  A    between atoms: C_30  and  O_38 
REMARK       I    between atoms: C_31  and  N_33 
REMARK   28  A    between atoms: N_33  and  C_34 
REMARK   29  A    between atoms: C_34  and  C_35 
REMARK   30  A    between atoms: C_35  and  C_36 
REMARK   31  A    between atoms: C_36  and  O_37 
ROOT
HETATM    1 CL   UNL     2     -22.240  -6.151  -1.885  1.00  0.00     0.000 Cl
ENDROOT
TORSDOF 31
ENDMDL
MODEL 7
REMARK VINA RESULT:      -0.9     12.032     12.032
REMARK  31 active torsions:
REMARK  status: ('A' for Active; 'I' for Inactive)
REMARK    1  A    between atoms: C_2  and  C_3 
REMARK    2  A    between atoms: C_3  and  C_4 
REMARK    3  A    between atoms: C_4  and  C_5 
REMARK    4  A    between atoms: C_5  and  C_6 
REMARK    5  A    between atoms: C_6  and  C_7 
REMARK    6  A    between atoms: C_7  and  C_8 
REMARK    7  A    between atoms: C_8  and  C_9 
REMARK    8  A    between atoms: C_9  and  C_10 
REMARK    9  A    between atoms: C_10  and  C_11 
REMARK   10  A    between atoms: C_11  and  C_12 
REMARK   11  A    between atoms: C_12  and  C_13 
REMARK   12  A    between atoms: C_13  and  C_14 
REMARK   13  A    between atoms: C_14  and  C_15 
REMARK   14  A    between atoms: C_15  and  C_16 
REMARK   15  A    between atoms: C_16  and  C_17 
REMARK   16  A    between atoms: C_17  and  C_18 
REMARK   17  A    between atoms: C_18  and  N_19 
REMARK   18  A    between atoms: N_19  and  C_22 
REMARK   19  A    between atoms: C_22  and  C_23 
REMARK   20  A    between atoms: C_23  and  C_24 
REMARK   21  A    between atoms: C_23  and  O_39 
REMARK   22  A    between atoms: C_24  and  O_25 
REMARK   23  A    between atoms: O_25  and  C_26 
REMARK   24  A    between atoms: C_26  and  C_27 
REMARK   25  A    between atoms: C_27  and  C_30 
REMARK   26  A    between atoms: C_30  and  C_31 
REMARK   27  A    between atoms: C_30  and  O_38 
REMARK       I    between atoms: C_31  and  N_33 
REMARK   28  A    between atoms: N_33  and  C_34 
REMARK   29  A    between atoms: C_34  and  C_35 
REMARK   30  A    between atoms: C_35  and  C_36 
REMARK   31  A    between atoms: C_36  and  O_37 
ROOT
HETATM    1 CL   UNL     2     -27.116   7.218 -11.166  1.00  0.00     0.000 Cl
ENDROOT
TORSDOF 31
ENDMDL
MODEL 8
REMARK VINA RESULT:      -0.9     16.131     16.131
REMARK  31 active torsions:
REMARK  status: ('A' for Active; 'I' for Inactive)
REMARK    1  A    between atoms: C_2  and  C_3 
REMARK    2  A    between atoms: C_3  and  C_4 
REMARK    3  A    between atoms: C_4  and  C_5 
REMARK    4  A    between atoms: C_5  and  C_6 
REMARK    5  A    between atoms: C_6  and  C_7 
REMARK    6  A    between atoms: C_7  and  C_8 
REMARK    7  A    between atoms: C_8  and  C_9 
REMARK    8  A    between atoms: C_9  and  C_10 
REMARK    9  A    between atoms: C_10  and  C_11 
REMARK   10  A    between atoms: C_11  and  C_12 
REMARK   11  A    between atoms: C_12  and  C_13 
REMARK   12  A    between atoms: C_13  and  C_14 
REMARK   13  A    between atoms: C_14  and  C_15 
REMARK   14  A    between atoms: C_15  and  C_16 
REMARK   15  A    between atoms: C_16  and  C_17 
REMARK   16  A    between atoms: C_17  and  C_18 
REMARK   17  A    between atoms: C_18  and  N_19 
REMARK   18  A    between atoms: N_19  and  C_22 
REMARK   19  A    between atoms: C_22  and  C_23 
REMARK   20  A    between atoms: C_23  and  C_24 
REMARK   21  A    between atoms: C_23  and  O_39 
REMARK   22  A    between atoms: C_24  and  O_25 
REMARK   23  A    between atoms: O_25  and  C_26 
REMARK   24  A    between atoms: C_26  and  C_27 
REMARK   25  A    between atoms: C_27  and  C_30 
REMARK   26  A    between atoms: C_30  and  C_31 
REMARK   27  A    between atoms: C_30  and  O_38 
REMARK       I    between atoms: C_31  and  N_33 
REMARK   28  A    between atoms: N_33  and  C_34 
REMARK   29  A    between atoms: C_34  and  C_35 
REMARK   30  A    between atoms: C_35  and  C_36 
REMARK   31  A    between atoms: C_36  and  O_37 
ROOT
HETATM    1 CL   UNL     2     -23.253  -8.075   0.583  1.00  0.00     0.000 Cl
ENDROOT
TORSDOF 31
ENDMDL
MODEL 9
REMARK VINA RESULT:      -0.9     30.917     30.917
REMARK  31 active torsions:
REMARK  status: ('A' for Active; 'I' for Inactive)
REMARK    1  A    between atoms: C_2  and  C_3 
REMARK    2  A    between atoms: C_3  and  C_4 
REMARK    3  A    between atoms: C_4  and  C_5 
REMARK    4  A    between atoms: C_5  and  C_6 
REMARK    5  A    between atoms: C_6  and  C_7 
REMARK    6  A    between atoms: C_7  and  C_8 
REMARK    7  A    between atoms: C_8  and  C_9 
REMARK    8  A    between atoms: C_9  and  C_10 
REMARK    9  A    between atoms: C_10  and  C_11 
REMARK   10  A    between atoms: C_11  and  C_12 
REMARK   11  A    between atoms: C_12  and  C_13 
REMARK   12  A    between atoms: C_13  and  C_14 
REMARK   13  A    between atoms: C_14  and  C_15 
REMARK   14  A    between atoms: C_15  and  C_16 
REMARK   15  A    between atoms: C_16  and  C_17 
REMARK   16  A    between atoms: C_17  and  C_18 
REMARK   17  A    between atoms: C_18  and  N_19 
REMARK   18  A    between atoms: N_19  and  C_22 
REMARK   19  A    between atoms: C_22  and  C_23 
REMARK   20  A    between atoms: C_23  and  C_24 
REMARK   21  A    between atoms: C_23  and  O_39 
REMARK   22  A    between atoms: C_24  and  O_25 
REMARK   23  A    between atoms: O_25  and  C_26 
REMARK   24  A    between atoms: C_26  and  C_27 
REMARK   25  A    between atoms: C_27  and  C_30 
REMARK   26  A    between atoms: C_30  and  C_31 
REMARK   27  A    between atoms: C_30  and  O_38 
REMARK       I    between atoms: C_31  and  N_33 
REMARK   28  A    between atoms: N_33  and  C_34 
REMARK   29  A    between atoms: C_34  and  C_35 
REMARK   30  A    between atoms: C_35  and  C_36 
REMARK   31  A    between atoms: C_36  and  O_37 
ROOT
HETATM    1 CL   UNL     2      -9.180 -12.838   5.926  1.00  0.00     0.000 Cl
ENDROOT
TORSDOF 31
ENDMDL
