MODEL 1
REMARK VINA RESULT:      -6.2      0.000      0.000
REMARK  10 active torsions:
REMARK  status: ('A' for Active; 'I' for Inactive)
REMARK    1  A    between atoms: C_1  and  C_2 
REMARK    2  A    between atoms: C_1  and  O_13 
REMARK    3  A    between atoms: C_2  and  C_3 
REMARK    4  A    between atoms: C_2  and  O_12 
REMARK    5  A    between atoms: C_3  and  C_4 
REMARK    6  A    between atoms: C_3  and  O_11 
REMARK    7  A    between atoms: C_4  and  C_5 
REMARK    8  A    between atoms: C_4  and  O_10 
REMARK    9  A    between atoms: C_5  and  C_6 
REMARK   10  A    between atoms: C_5  and  O_9 
ROOT
HETATM    1  C   UNL     1     -23.438  -3.616 -11.265  1.00  0.00     0.057 C 
ENDROOT
BRANCH   1   2
HETATM    2  C   UNL     1     -22.800  -2.874 -12.470  1.00  0.00     0.148 C 
BRANCH   2   3
HETATM    3  C   UNL     1     -23.790  -2.599 -13.618  1.00  0.00     0.196 C 
BRANCH   3   4
HETATM    4  O   UNL     1     -23.684  -3.522 -14.708  1.00  0.00    -0.398 OA
HETATM    5  H   UNL     1     -24.355  -3.216 -15.364  1.00  0.00     0.209 HD
ENDBRANCH   3   4
ENDBRANCH   2   3
BRANCH   2   6
HETATM    6  O   UNL     1     -21.731  -3.648 -13.019  1.00  0.00    -0.393 OA
HETATM    7  H   UNL     1     -21.289  -3.130 -13.714  1.00  0.00     0.210 HD
ENDBRANCH   2   6
ENDBRANCH   1   2
BRANCH   1   8
HETATM    8  C   UNL     1     -22.593  -3.520  -9.965  1.00  0.00     0.164 C 
BRANCH   8   9
HETATM    9  C   UNL     1     -22.960  -4.438  -8.791  1.00  0.00     0.247 C 
BRANCH   9  10
HETATM   10  C   UNL     1     -21.811  -4.554  -7.762  1.00  0.00     0.205 C 
HETATM   11  O   UNL     1     -21.536  -3.474  -7.168  1.00  0.00    -0.646 OA
HETATM   12  O   UNL     1     -21.255  -5.692  -7.696  1.00  0.00    -0.646 OA
ENDBRANCH   9  10
BRANCH   9  13
HETATM   13  O   UNL     1     -24.133  -3.878  -8.140  1.00  0.00    -0.382 OA
HETATM   14  H   UNL     1     -24.556  -4.673  -7.725  1.00  0.00     0.210 HD
ENDBRANCH   9  13
ENDBRANCH   8   9
BRANCH   8  15
HETATM   15  O   UNL     1     -21.204  -3.689 -10.305  1.00  0.00    -0.392 OA
HETATM   16  H   UNL     1     -20.731  -2.999  -9.793  1.00  0.00     0.210 HD
ENDBRANCH   8  15
ENDBRANCH   1   8
BRANCH   1  17
HETATM   17  O   UNL     1     -24.811  -3.222 -11.047  1.00  0.00     0.000 OA
HETATM   18  H   UNL     1     -25.206  -3.200 -11.967  1.00  0.00     0.000 HD
HETATM   19 NA   UNL     2     -26.154  -3.925  -9.584  1.00  0.00     0.000 Na
ENDBRANCH   1  17
TORSDOF 10
ENDMDL
MODEL 2
REMARK VINA RESULT:      -6.0      2.428      3.374
REMARK  10 active torsions:
REMARK  status: ('A' for Active; 'I' for Inactive)
REMARK    1  A    between atoms: C_1  and  C_2 
REMARK    2  A    between atoms: C_1  and  O_13 
REMARK    3  A    between atoms: C_2  and  C_3 
REMARK    4  A    between atoms: C_2  and  O_12 
REMARK    5  A    between atoms: C_3  and  C_4 
REMARK    6  A    between atoms: C_3  and  O_11 
REMARK    7  A    between atoms: C_4  and  C_5 
REMARK    8  A    between atoms: C_4  and  O_10 
REMARK    9  A    between atoms: C_5  and  C_6 
REMARK   10  A    between atoms: C_5  and  O_9 
ROOT
HETATM    1  C   UNL     1     -22.781  -2.918 -12.846  1.00  0.00     0.057 C 
ENDROOT
BRANCH   1   2
HETATM    2  C   UNL     1     -22.983  -2.781 -14.379  1.00  0.00     0.148 C 
BRANCH   2   3
HETATM    3  C   UNL     1     -23.547  -1.412 -14.805  1.00  0.00     0.196 C 
BRANCH   3   4
HETATM    4  O   UNL     1     -24.862  -1.146 -14.304  1.00  0.00    -0.398 OA
HETATM    5  H   UNL     1     -24.747  -0.391 -13.679  1.00  0.00     0.209 HD
ENDBRANCH   3   4
ENDBRANCH   2   3
BRANCH   2   6
HETATM    6  O   UNL     1     -23.898  -3.773 -14.849  1.00  0.00    -0.393 OA
HETATM    7  H   UNL     1     -24.796  -3.397 -14.857  1.00  0.00     0.210 HD
ENDBRANCH   2   6
ENDBRANCH   1   2
BRANCH   1   8
HETATM    8  C   UNL     1     -23.850  -3.815 -12.162  1.00  0.00     0.164 C 
BRANCH   8   9
HETATM    9  C   UNL     1     -23.504  -4.456 -10.811  1.00  0.00     0.247 C 
BRANCH   9  10
HETATM   10  C   UNL     1     -23.609  -3.447  -9.645  1.00  0.00     0.205 C 
HETATM   11  O   UNL     1     -22.539  -3.297  -8.991  1.00  0.00    -0.646 OA
HETATM   12  O   UNL     1     -24.762  -2.954  -9.456  1.00  0.00    -0.646 OA
ENDBRANCH   9  10
BRANCH   9  13
HETATM   13  O   UNL     1     -24.435  -5.549 -10.588  1.00  0.00    -0.382 OA
HETATM   14  H   UNL     1     -23.961  -6.112  -9.924  1.00  0.00     0.210 HD
ENDBRANCH   9  13
ENDBRANCH   8   9
BRANCH   8  15
HETATM   15  O   UNL     1     -25.075  -3.066 -12.050  1.00  0.00    -0.392 OA
HETATM   16  H   UNL     1     -24.793  -2.144 -11.873  1.00  0.00     0.210 HD
ENDBRANCH   8  15
ENDBRANCH   1   8
BRANCH   1  17
HETATM   17  O   UNL     1     -21.438  -3.326 -12.507  1.00  0.00     0.000 OA
HETATM   18  H   UNL     1     -21.154  -3.894 -13.281  1.00  0.00     0.000 HD
HETATM   19 NA   UNL     2     -19.874  -2.151 -11.723  1.00  0.00     0.000 Na
ENDBRANCH   1  17
TORSDOF 10
ENDMDL
MODEL 3
REMARK VINA RESULT:      -5.8      1.237      5.068
REMARK  10 active torsions:
REMARK  status: ('A' for Active; 'I' for Inactive)
REMARK    1  A    between atoms: C_1  and  C_2 
REMARK    2  A    between atoms: C_1  and  O_13 
REMARK    3  A    between atoms: C_2  and  C_3 
REMARK    4  A    between atoms: C_2  and  O_12 
REMARK    5  A    between atoms: C_3  and  C_4 
REMARK    6  A    between atoms: C_3  and  O_11 
REMARK    7  A    between atoms: C_4  and  C_5 
REMARK    8  A    between atoms: C_4  and  O_10 
REMARK    9  A    between atoms: C_5  and  C_6 
REMARK   10  A    between atoms: C_5  and  O_9 
ROOT
HETATM    1  C   UNL     1     -23.635  -3.351 -10.898  1.00  0.00     0.057 C 
ENDROOT
BRANCH   1   2
HETATM    2  C   UNL     1     -23.122  -4.404  -9.879  1.00  0.00     0.148 C 
BRANCH   2   3
HETATM    3  C   UNL     1     -23.412  -4.031  -8.412  1.00  0.00     0.196 C 
BRANCH   3   4
HETATM    4  O   UNL     1     -22.302  -3.426  -7.738  1.00  0.00    -0.398 OA
HETATM    5  H   UNL     1     -21.562  -3.459  -8.389  1.00  0.00     0.209 HD
ENDBRANCH   3   4
ENDBRANCH   2   3
BRANCH   2   6
HETATM    6  O   UNL     1     -21.706  -4.560  -9.997  1.00  0.00    -0.393 OA
HETATM    7  H   UNL     1     -21.404  -5.212  -9.340  1.00  0.00     0.210 HD
ENDBRANCH   2   6
ENDBRANCH   1   2
BRANCH   1   8
HETATM    8  C   UNL     1     -23.085  -3.566 -12.335  1.00  0.00     0.164 C 
BRANCH   8   9
HETATM    9  C   UNL     1     -24.029  -3.317 -13.519  1.00  0.00     0.247 C 
BRANCH   9  10
HETATM   10  C   UNL     1     -23.402  -2.378 -14.575  1.00  0.00     0.205 C 
HETATM   11  O   UNL     1     -23.941  -1.238 -14.639  1.00  0.00    -0.646 OA
HETATM   12  O   UNL     1     -22.480  -2.891 -15.278  1.00  0.00    -0.646 OA
ENDBRANCH   9  10
BRANCH   9  13
HETATM   13  O   UNL     1     -24.320  -4.603 -14.131  1.00  0.00    -0.382 OA
HETATM   14  H   UNL     1     -23.478  -5.109 -13.995  1.00  0.00     0.210 HD
ENDBRANCH   9  13
ENDBRANCH   8   9
BRANCH   8  15
HETATM   15  O   UNL     1     -21.886  -2.784 -12.490  1.00  0.00    -0.392 OA
HETATM   16  H   UNL     1     -21.614  -2.918 -13.423  1.00  0.00     0.210 HD
ENDBRANCH   8  15
ENDBRANCH   1   8
BRANCH   1  17
HETATM   17  O   UNL     1     -25.074  -3.232 -10.883  1.00  0.00     0.000 OA
HETATM   18  H   UNL     1     -25.353  -3.561 -11.787  1.00  0.00     0.000 HD
HETATM   19 NA   UNL     2     -26.415  -3.778  -9.353  1.00  0.00     0.000 Na
ENDBRANCH   1  17
TORSDOF 10
ENDMDL
MODEL 4
REMARK VINA RESULT:      -5.8      2.050      5.082
REMARK  10 active torsions:
REMARK  status: ('A' for Active; 'I' for Inactive)
REMARK    1  A    between atoms: C_1  and  C_2 
REMARK    2  A    between atoms: C_1  and  O_13 
REMARK    3  A    between atoms: C_2  and  C_3 
REMARK    4  A    between atoms: C_2  and  O_12 
REMARK    5  A    between atoms: C_3  and  C_4 
REMARK    6  A    between atoms: C_3  and  O_11 
REMARK    7  A    between atoms: C_4  and  C_5 
REMARK    8  A    between atoms: C_4  and  O_10 
REMARK    9  A    between atoms: C_5  and  C_6 
REMARK   10  A    between atoms: C_5  and  O_9 
ROOT
HETATM    1  C   UNL     1     -22.270  -4.570  -9.788  1.00  0.00     0.057 C 
ENDROOT
BRANCH   1   2
HETATM    2  C   UNL     1     -22.470  -3.822  -8.443  1.00  0.00     0.148 C 
BRANCH   2   3
HETATM    3  C   UNL     1     -21.425  -4.190  -7.373  1.00  0.00     0.196 C 
BRANCH   3   4
HETATM    4  O   UNL     1     -20.082  -3.845  -7.732  1.00  0.00    -0.398 OA
HETATM    5  H   UNL     1     -19.998  -2.888  -7.506  1.00  0.00     0.209 HD
ENDBRANCH   3   4
ENDBRANCH   2   3
BRANCH   2   6
HETATM    6  O   UNL     1     -23.754  -4.125  -7.893  1.00  0.00    -0.393 OA
HETATM    7  H   UNL     1     -23.724  -3.995  -6.929  1.00  0.00     0.210 HD
ENDBRANCH   2   6
ENDBRANCH   1   2
BRANCH   1   8
HETATM    8  C   UNL     1     -23.524  -4.534 -10.705  1.00  0.00     0.164 C 
BRANCH   8   9
HETATM    9  C   UNL     1     -24.184  -3.176 -10.980  1.00  0.00     0.247 C 
BRANCH   9  10
HETATM   10  C   UNL     1     -24.294  -2.878 -12.493  1.00  0.00     0.205 C 
HETATM   11  O   UNL     1     -25.416  -3.164 -12.997  1.00  0.00    -0.646 OA
HETATM   12  O   UNL     1     -23.234  -2.451 -13.041  1.00  0.00    -0.646 OA
ENDBRANCH   9  10
BRANCH   9  13
HETATM   13  O   UNL     1     -25.515  -3.205 -10.397  1.00  0.00    -0.382 OA
HETATM   14  H   UNL     1     -26.106  -3.171 -11.193  1.00  0.00     0.210 HD
ENDBRANCH   9  13
ENDBRANCH   8   9
BRANCH   8  15
HETATM   15  O   UNL     1     -23.202  -5.184 -11.949  1.00  0.00    -0.392 OA
HETATM   16  H   UNL     1     -24.069  -5.410 -12.349  1.00  0.00     0.210 HD
ENDBRANCH   8  15
ENDBRANCH   1   8
BRANCH   1  17
HETATM   17  O   UNL     1     -21.081  -4.135 -10.483  1.00  0.00     0.000 OA
HETATM   18  H   UNL     1     -20.487  -4.942 -10.474  1.00  0.00     0.000 HD
HETATM   19 NA   UNL     2     -20.943  -3.024 -12.268  1.00  0.00     0.000 Na
ENDBRANCH   1  17
TORSDOF 10
ENDMDL
MODEL 5
REMARK VINA RESULT:      -5.5      2.198      3.019
REMARK  10 active torsions:
REMARK  status: ('A' for Active; 'I' for Inactive)
REMARK    1  A    between atoms: C_1  and  C_2 
REMARK    2  A    between atoms: C_1  and  O_13 
REMARK    3  A    between atoms: C_2  and  C_3 
REMARK    4  A    between atoms: C_2  and  O_12 
REMARK    5  A    between atoms: C_3  and  C_4 
REMARK    6  A    between atoms: C_3  and  O_11 
REMARK    7  A    between atoms: C_4  and  C_5 
REMARK    8  A    between atoms: C_4  and  O_10 
REMARK    9  A    between atoms: C_5  and  C_6 
REMARK   10  A    between atoms: C_5  and  O_9 
ROOT
HETATM    1  C   UNL     1     -22.545  -3.204 -11.048  1.00  0.00     0.057 C 
ENDROOT
BRANCH   1   2
HETATM    2  C   UNL     1     -23.944  -3.657 -11.543  1.00  0.00     0.148 C 
BRANCH   2   3
HETATM    3  C   UNL     1     -24.361  -3.013 -12.880  1.00  0.00     0.196 C 
BRANCH   3   4
HETATM    4  O   UNL     1     -23.589  -1.860 -13.233  1.00  0.00    -0.398 OA
HETATM    5  H   UNL     1     -23.317  -2.014 -14.169  1.00  0.00     0.209 HD
ENDBRANCH   3   4
ENDBRANCH   2   3
BRANCH   2   6
HETATM    6  O   UNL     1     -24.946  -3.310 -10.584  1.00  0.00    -0.393 OA
HETATM    7  H   UNL     1     -25.683  -3.941 -10.655  1.00  0.00     0.210 HD
ENDBRANCH   2   6
ENDBRANCH   1   2
BRANCH   1   8
HETATM    8  C   UNL     1     -22.066  -3.963  -9.779  1.00  0.00     0.164 C 
BRANCH   8   9
HETATM    9  C   UNL     1     -20.556  -4.088  -9.533  1.00  0.00     0.247 C 
BRANCH   9  10
HETATM   10  C   UNL     1     -20.241  -4.775  -8.185  1.00  0.00     0.205 C 
HETATM   11  O   UNL     1     -21.125  -5.590  -7.800  1.00  0.00    -0.646 OA
HETATM   12  O   UNL     1     -19.178  -4.388  -7.613  1.00  0.00    -0.646 OA
ENDBRANCH   9  10
BRANCH   9  13
HETATM   13  O   UNL     1     -19.994  -4.875 -10.618  1.00  0.00    -0.382 OA
HETATM   14  H   UNL     1     -20.331  -5.788 -10.426  1.00  0.00     0.210 HD
ENDBRANCH   9  13
ENDBRANCH   8   9
BRANCH   8  15
HETATM   15  O   UNL     1     -22.705  -3.381  -8.627  1.00  0.00    -0.392 OA
HETATM   16  H   UNL     1     -22.858  -4.133  -8.015  1.00  0.00     0.210 HD
ENDBRANCH   8  15
ENDBRANCH   1   8
BRANCH   1  17
HETATM   17  O   UNL     1     -21.556  -3.236 -12.100  1.00  0.00     0.000 OA
HETATM   18  H   UNL     1     -20.812  -3.787 -11.717  1.00  0.00     0.000 HD
HETATM   19 NA   UNL     2     -21.851  -3.559 -14.161  1.00  0.00     0.000 Na
ENDBRANCH   1  17
TORSDOF 10
ENDMDL
MODEL 6
REMARK VINA RESULT:      -5.5      1.112      2.079
REMARK  10 active torsions:
REMARK  status: ('A' for Active; 'I' for Inactive)
REMARK    1  A    between atoms: C_1  and  C_2 
REMARK    2  A    between atoms: C_1  and  O_13 
REMARK    3  A    between atoms: C_2  and  C_3 
REMARK    4  A    between atoms: C_2  and  O_12 
REMARK    5  A    between atoms: C_3  and  C_4 
REMARK    6  A    between atoms: C_3  and  O_11 
REMARK    7  A    between atoms: C_4  and  C_5 
REMARK    8  A    between atoms: C_4  and  O_10 
REMARK    9  A    between atoms: C_5  and  C_6 
REMARK   10  A    between atoms: C_5  and  O_9 
ROOT
HETATM    1  C   UNL     1     -23.520  -4.523 -10.172  1.00  0.00     0.057 C 
ENDROOT
BRANCH   1   2
HETATM    2  C   UNL     1     -23.863  -3.858 -11.532  1.00  0.00     0.148 C 
BRANCH   2   3
HETATM    3  C   UNL     1     -22.783  -2.876 -12.026  1.00  0.00     0.196 C 
BRANCH   3   4
HETATM    4  O   UNL     1     -21.972  -3.394 -13.087  1.00  0.00    -0.398 OA
HETATM    5  H   UNL     1     -21.066  -3.461 -12.702  1.00  0.00     0.209 HD
ENDBRANCH   3   4
ENDBRANCH   2   3
BRANCH   2   6
HETATM    6  O   UNL     1     -25.083  -3.119 -11.429  1.00  0.00    -0.393 OA
HETATM    7  H   UNL     1     -25.678  -3.390 -12.149  1.00  0.00     0.210 HD
ENDBRANCH   2   6
ENDBRANCH   1   2
BRANCH   1   8
HETATM    8  C   UNL     1     -22.097  -4.170  -9.656  1.00  0.00     0.164 C 
BRANCH   8   9
HETATM    9  C   UNL     1     -21.762  -4.470  -8.188  1.00  0.00     0.247 C 
BRANCH   9  10
HETATM   10  C   UNL     1     -20.277  -4.855  -7.998  1.00  0.00     0.205 C 
HETATM   11  O   UNL     1     -20.088  -6.075  -7.734  1.00  0.00    -0.646 OA
HETATM   12  O   UNL     1     -19.453  -3.893  -8.068  1.00  0.00    -0.646 OA
ENDBRANCH   9  10
BRANCH   9  13
HETATM   13  O   UNL     1     -22.051  -3.274  -7.414  1.00  0.00    -0.382 OA
HETATM   14  H   UNL     1     -22.259  -2.602  -8.114  1.00  0.00     0.210 HD
ENDBRANCH   9  13
ENDBRANCH   8   9
BRANCH   8  15
HETATM   15  O   UNL     1     -21.128  -4.794 -10.518  1.00  0.00    -0.392 OA
HETATM   16  H   UNL     1     -20.839  -4.084 -11.131  1.00  0.00     0.210 HD
ENDBRANCH   8  15
ENDBRANCH   1   8
BRANCH   1  17
HETATM   17  O   UNL     1     -24.533  -4.275  -9.172  1.00  0.00     0.000 OA
HETATM   18  H   UNL     1     -24.080  -3.673  -8.512  1.00  0.00     0.000 HD
HETATM   19 NA   UNL     2     -26.567  -3.809  -9.460  1.00  0.00     0.000 Na
ENDBRANCH   1  17
TORSDOF 10
ENDMDL
MODEL 7
REMARK VINA RESULT:      -5.5      2.102      5.529
REMARK  10 active torsions:
REMARK  status: ('A' for Active; 'I' for Inactive)
REMARK    1  A    between atoms: C_1  and  C_2 
REMARK    2  A    between atoms: C_1  and  O_13 
REMARK    3  A    between atoms: C_2  and  C_3 
REMARK    4  A    between atoms: C_2  and  O_12 
REMARK    5  A    between atoms: C_3  and  C_4 
REMARK    6  A    between atoms: C_3  and  O_11 
REMARK    7  A    between atoms: C_4  and  C_5 
REMARK    8  A    between atoms: C_4  and  O_10 
REMARK    9  A    between atoms: C_5  and  C_6 
REMARK   10  A    between atoms: C_5  and  O_9 
ROOT
HETATM    1  C   UNL     1     -23.053  -4.036 -10.482  1.00  0.00     0.057 C 
ENDROOT
BRANCH   1   2
HETATM    2  C   UNL     1     -23.445  -3.438  -9.105  1.00  0.00     0.148 C 
BRANCH   2   3
HETATM    3  C   UNL     1     -22.943  -4.269  -7.908  1.00  0.00     0.196 C 
BRANCH   3   4
HETATM    4  O   UNL     1     -23.889  -4.372  -6.838  1.00  0.00    -0.398 OA
HETATM    5  H   UNL     1     -24.674  -4.818  -7.236  1.00  0.00     0.209 HD
ENDBRANCH   3   4
ENDBRANCH   2   3
BRANCH   2   6
HETATM    6  O   UNL     1     -24.867  -3.355  -8.988  1.00  0.00    -0.393 OA
HETATM    7  H   UNL     1     -25.196  -2.675  -9.602  1.00  0.00     0.210 HD
ENDBRANCH   2   6
ENDBRANCH   1   2
BRANCH   1   8
HETATM    8  C   UNL     1     -23.546  -3.186 -11.686  1.00  0.00     0.164 C 
BRANCH   8   9
HETATM    9  C   UNL     1     -23.069  -3.572 -13.093  1.00  0.00     0.247 C 
BRANCH   9  10
HETATM   10  C   UNL     1     -23.435  -2.501 -14.146  1.00  0.00     0.205 C 
HETATM   11  O   UNL     1     -24.458  -1.820 -13.858  1.00  0.00    -0.646 OA
HETATM   12  O   UNL     1     -22.706  -2.489 -15.184  1.00  0.00    -0.646 OA
ENDBRANCH   9  10
BRANCH   9  13
HETATM   13  O   UNL     1     -21.624  -3.725 -13.043  1.00  0.00    -0.382 OA
HETATM   14  H   UNL     1     -21.335  -2.932 -12.523  1.00  0.00     0.210 HD
ENDBRANCH   9  13
ENDBRANCH   8   9
BRANCH   8  15
HETATM   15  O   UNL     1     -24.985  -3.134 -11.653  1.00  0.00    -0.392 OA
HETATM   16  H   UNL     1     -25.232  -3.508 -10.781  1.00  0.00     0.210 HD
ENDBRANCH   8  15
ENDBRANCH   1   8
BRANCH   1  17
HETATM   17  O   UNL     1     -21.640  -4.326 -10.570  1.00  0.00     0.000 OA
HETATM   18  H   UNL     1     -21.395  -4.058 -11.503  1.00  0.00     0.000 HD
HETATM   19 NA   UNL     2     -20.130  -3.904  -9.162  1.00  0.00     0.000 Na
ENDBRANCH   1  17
TORSDOF 10
ENDMDL
MODEL 8
REMARK VINA RESULT:      -5.4      1.103      4.793
REMARK  10 active torsions:
REMARK  status: ('A' for Active; 'I' for Inactive)
REMARK    1  A    between atoms: C_1  and  C_2 
REMARK    2  A    between atoms: C_1  and  O_13 
REMARK    3  A    between atoms: C_2  and  C_3 
REMARK    4  A    between atoms: C_2  and  O_12 
REMARK    5  A    between atoms: C_3  and  C_4 
REMARK    6  A    between atoms: C_3  and  O_11 
REMARK    7  A    between atoms: C_4  and  C_5 
REMARK    8  A    between atoms: C_4  and  O_10 
REMARK    9  A    between atoms: C_5  and  C_6 
REMARK   10  A    between atoms: C_5  and  O_9 
ROOT
HETATM    1  C   UNL     1     -22.964  -3.739  -9.705  1.00  0.00     0.057 C 
ENDROOT
BRANCH   1   2
HETATM    2  C   UNL     1     -21.831  -4.629  -9.127  1.00  0.00     0.148 C 
BRANCH   2   3
HETATM    3  C   UNL     1     -21.711  -4.553  -7.593  1.00  0.00     0.196 C 
BRANCH   3   4
HETATM    4  O   UNL     1     -21.690  -3.217  -7.079  1.00  0.00    -0.398 OA
HETATM    5  H   UNL     1     -21.504  -2.647  -7.863  1.00  0.00     0.209 HD
ENDBRANCH   3   4
ENDBRANCH   2   3
BRANCH   2   6
HETATM    6  O   UNL     1     -20.567  -4.233  -9.665  1.00  0.00    -0.393 OA
HETATM    7  H   UNL     1     -20.707  -3.833 -10.541  1.00  0.00     0.210 HD
ENDBRANCH   2   6
ENDBRANCH   1   2
BRANCH   1   8
HETATM    8  C   UNL     1     -23.326  -4.080 -11.177  1.00  0.00     0.164 C 
BRANCH   8   9
HETATM    9  C   UNL     1     -24.051  -3.016 -12.012  1.00  0.00     0.247 C 
BRANCH   9  10
HETATM   10  C   UNL     1     -23.989  -3.324 -13.526  1.00  0.00     0.205 C 
HETATM   11  O   UNL     1     -23.589  -2.359 -14.235  1.00  0.00    -0.646 OA
HETATM   12  O   UNL     1     -24.406  -4.473 -13.864  1.00  0.00    -0.646 OA
ENDBRANCH   9  10
BRANCH   9  13
HETATM   13  O   UNL     1     -25.439  -2.987 -11.583  1.00  0.00    -0.382 OA
HETATM   14  H   UNL     1     -25.821  -2.244 -12.118  1.00  0.00     0.210 HD
ENDBRANCH   9  13
ENDBRANCH   8   9
BRANCH   8  15
HETATM   15  O   UNL     1     -22.130  -4.507 -11.857  1.00  0.00    -0.392 OA
HETATM   16  H   UNL     1     -22.253  -4.224 -12.788  1.00  0.00     0.210 HD
ENDBRANCH   8  15
ENDBRANCH   1   8
BRANCH   1  17
HETATM   17  O   UNL     1     -24.131  -3.720  -8.853  1.00  0.00     0.000 OA
HETATM   18  H   UNL     1     -23.954  -2.968  -8.216  1.00  0.00     0.000 HD
HETATM   19 NA   UNL     2     -26.157  -3.875  -9.410  1.00  0.00     0.000 Na
ENDBRANCH   1  17
TORSDOF 10
ENDMDL
MODEL 9
REMARK VINA RESULT:      -5.4      7.461      9.301
REMARK  10 active torsions:
REMARK  status: ('A' for Active; 'I' for Inactive)
REMARK    1  A    between atoms: C_1  and  C_2 
REMARK    2  A    between atoms: C_1  and  O_13 
REMARK    3  A    between atoms: C_2  and  C_3 
REMARK    4  A    between atoms: C_2  and  O_12 
REMARK    5  A    between atoms: C_3  and  C_4 
REMARK    6  A    between atoms: C_3  and  O_11 
REMARK    7  A    between atoms: C_4  and  C_5 
REMARK    8  A    between atoms: C_4  and  O_10 
REMARK    9  A    between atoms: C_5  and  C_6 
REMARK   10  A    between atoms: C_5  and  O_9 
ROOT
HETATM    1  C   UNL     1     -29.313  -6.806 -17.355  1.00  0.00     0.057 C 
ENDROOT
BRANCH   1   2
HETATM    2  C   UNL     1     -30.458  -6.089 -16.591  1.00  0.00     0.148 C 
BRANCH   2   3
HETATM    3  C   UNL     1     -31.094  -4.930 -17.383  1.00  0.00     0.196 C 
BRANCH   3   4
HETATM    4  O   UNL     1     -32.015  -4.143 -16.619  1.00  0.00    -0.398 OA
HETATM    5  H   UNL     1     -32.634  -4.798 -16.217  1.00  0.00     0.209 HD
ENDBRANCH   3   4
ENDBRANCH   2   3
BRANCH   2   6
HETATM    6  O   UNL     1     -29.968  -5.537 -15.367  1.00  0.00    -0.393 OA
HETATM    7  H   UNL     1     -29.957  -6.234 -14.687  1.00  0.00     0.210 HD
ENDBRANCH   2   6
ENDBRANCH   1   2
BRANCH   1   8
HETATM    8  C   UNL     1     -27.895  -6.373 -16.887  1.00  0.00     0.164 C 
BRANCH   8   9
HETATM    9  C   UNL     1     -27.056  -7.379 -16.086  1.00  0.00     0.247 C 
BRANCH   9  10
HETATM   10  C   UNL     1     -25.601  -6.895 -15.890  1.00  0.00     0.205 C 
HETATM   11  O   UNL     1     -24.741  -7.819 -15.912  1.00  0.00    -0.646 OA
HETATM   12  O   UNL     1     -25.466  -5.654 -15.668  1.00  0.00    -0.646 OA
ENDBRANCH   9  10
BRANCH   9  13
HETATM   13  O   UNL     1     -27.687  -7.547 -14.788  1.00  0.00    -0.382 OA
HETATM   14  H   UNL     1     -27.196  -6.901 -14.218  1.00  0.00     0.210 HD
ENDBRANCH   9  13
ENDBRANCH   8   9
BRANCH   8  15
HETATM   15  O   UNL     1     -27.152  -5.917 -18.033  1.00  0.00    -0.392 OA
HETATM   16  H   UNL     1     -27.485  -5.011 -18.207  1.00  0.00     0.210 HD
ENDBRANCH   8  15
ENDBRANCH   1   8
BRANCH   1  17
HETATM   17  O   UNL     1     -29.467  -8.242 -17.348  1.00  0.00     0.000 OA
HETATM   18  H   UNL     1     -30.359  -8.388 -16.916  1.00  0.00     0.000 HD
HETATM   19 NA   UNL     2     -29.067  -9.606 -18.903  1.00  0.00     0.000 Na
ENDBRANCH   1  17
TORSDOF 10
ENDMDL
