MODEL 1
REMARK VINA RESULT:      -6.7      0.000      0.000
REMARK WARNING: 32 MAX_TORS EXCEEDED!!!
REMARK  33 active torsions:
REMARK  status: ('A' for Active; 'I' for Inactive)
REMARK    1  A    between atoms: C_2  and  C_3 
REMARK    2  A    between atoms: C_3  and  C_4 
REMARK    3  A    between atoms: C_4  and  C_5 
REMARK    4  A    between atoms: C_5  and  C_6 
REMARK    5  A    between atoms: C_6  and  C_7 
REMARK    6  A    between atoms: C_7  and  C_8 
REMARK    7  A    between atoms: C_8  and  C_9 
REMARK    8  A    between atoms: C_9  and  C_10 
REMARK    9  A    between atoms: C_10  and  C_11 
REMARK   10  A    between atoms: C_11  and  C_12 
REMARK   11  A    between atoms: C_12  and  C_13 
REMARK   12  A    between atoms: C_13  and  C_14 
REMARK   13  A    between atoms: C_14  and  C_15 
REMARK   14  A    between atoms: C_15  and  C_16 
REMARK   15  A    between atoms: C_16  and  O_18 
REMARK   16  A    between atoms: C_20  and  C_21 
REMARK   17  A    between atoms: C_20  and  O_53 
REMARK   18  A    between atoms: C_22  and  O_52 
REMARK   19  A    between atoms: C_23  and  O_51 
REMARK   20  A    between atoms: C_24  and  O_50 
REMARK   21  A    between atoms: C_25  and  O_27 
REMARK   22  A    between atoms: O_27  and  C_28 
REMARK   23  A    between atoms: C_29  and  C_48 
REMARK   24  A    between atoms: C_31  and  O_36 
REMARK   25  A    between atoms: C_32  and  O_35 
REMARK   26  A    between atoms: C_33  and  O_34 
REMARK   27  A    between atoms: O_36  and  C_37 
REMARK   28  A    between atoms: C_38  and  C_46 
REMARK   29  A    between atoms: C_40  and  O_45 
REMARK   30  A    between atoms: C_41  and  O_44 
REMARK   31  A    between atoms: C_42  and  O_43 
REMARK   32  A    between atoms: C_46  and  O_47 
REMARK   33  A    between atoms: C_48  and  O_49 
ROOT
HETATM    1  C   UNL     1     -20.296  -5.202  -8.657  1.00  0.00     0.000 C 
ENDROOT
BRANCH   1   2
HETATM    2  C   UNL     1     -19.822  -4.227  -7.586  1.00  0.00     0.000 C 
BRANCH   2   3
HETATM    3  C   UNL     1     -19.788  -4.890  -6.213  1.00  0.00     0.000 C 
BRANCH   3   4
HETATM    4  C   UNL     1     -20.583  -6.190  -6.188  1.00  0.00     0.000 C 
BRANCH   4   5
HETATM    5  C   UNL     1     -21.839  -6.023  -5.350  1.00  0.00     0.000 C 
BRANCH   5   6
HETATM    6  C   UNL     1     -21.797  -6.996  -4.186  1.00  0.00     0.000 C 
BRANCH   6   7
HETATM    7  C   UNL     1     -21.308  -6.305  -2.920  1.00  0.00     0.000 C 
BRANCH   7   8
HETATM    8  C   UNL     1     -22.291  -6.454  -1.760  1.00  0.00    -0.000 C 
BRANCH   8   9
HETATM    9  C   UNL     1     -21.805  -7.407  -0.665  1.00  0.00    -0.005 C 
HETATM   10  C   UNL     1     -22.949  -8.076   0.092  1.00  0.00     0.005 C 
ENDBRANCH   8   9
ENDBRANCH   7   8
ENDBRANCH   6   7
ENDBRANCH   5   6
ENDBRANCH   4   5
ENDBRANCH   3   4
ENDBRANCH   2   3
ENDBRANCH   1   2
BRANCH   1  11
HETATM   11  C   UNL     1     -20.290  -4.578 -10.044  1.00  0.00     0.000 C 
BRANCH  11  12
HETATM   12  C   UNL     1     -21.609  -3.854 -10.332  1.00  0.00     0.000 C 
BRANCH  12  13
HETATM   13  C   UNL     1     -21.713  -3.253 -11.741  1.00  0.00     0.001 C 
BRANCH  13  14
HETATM   14  C   UNL     1     -23.069  -2.600 -11.999  1.00  0.00     0.010 C 
BRANCH  14  15
HETATM   15  C   UNL     1     -23.719  -3.137 -13.264  1.00  0.00     0.110 C 
BRANCH  15  16
HETATM   16  C   UNL     1     -23.429  -2.252 -14.443  1.00  0.00     0.139 C 
HETATM   17  O   UNL     1     -22.598  -2.516 -15.311  1.00  0.00    -0.650 OA
BRANCH  16  18
HETATM   18  O   UNL     1     -24.172  -1.120 -14.485  1.00  0.00    -0.776 OA
HETATM   19  H   UNL     1     -24.323  -0.725 -13.607  1.00  0.00     0.167 HD
ENDBRANCH  16  18
ENDBRANCH  15  16
ENDBRANCH  14  15
ENDBRANCH  13  14
ENDBRANCH  12  13
ENDBRANCH  11  12
ENDBRANCH   1  11
TORSDOF 33
ENDMDL
MODEL 2
REMARK VINA RESULT:      -6.6     12.808     14.507
REMARK WARNING: 32 MAX_TORS EXCEEDED!!!
REMARK  33 active torsions:
REMARK  status: ('A' for Active; 'I' for Inactive)
REMARK    1  A    between atoms: C_2  and  C_3 
REMARK    2  A    between atoms: C_3  and  C_4 
REMARK    3  A    between atoms: C_4  and  C_5 
REMARK    4  A    between atoms: C_5  and  C_6 
REMARK    5  A    between atoms: C_6  and  C_7 
REMARK    6  A    between atoms: C_7  and  C_8 
REMARK    7  A    between atoms: C_8  and  C_9 
REMARK    8  A    between atoms: C_9  and  C_10 
REMARK    9  A    between atoms: C_10  and  C_11 
REMARK   10  A    between atoms: C_11  and  C_12 
REMARK   11  A    between atoms: C_12  and  C_13 
REMARK   12  A    between atoms: C_13  and  C_14 
REMARK   13  A    between atoms: C_14  and  C_15 
REMARK   14  A    between atoms: C_15  and  C_16 
REMARK   15  A    between atoms: C_16  and  O_18 
REMARK   16  A    between atoms: C_20  and  C_21 
REMARK   17  A    between atoms: C_20  and  O_53 
REMARK   18  A    between atoms: C_22  and  O_52 
REMARK   19  A    between atoms: C_23  and  O_51 
REMARK   20  A    between atoms: C_24  and  O_50 
REMARK   21  A    between atoms: C_25  and  O_27 
REMARK   22  A    between atoms: O_27  and  C_28 
REMARK   23  A    between atoms: C_29  and  C_48 
REMARK   24  A    between atoms: C_31  and  O_36 
REMARK   25  A    between atoms: C_32  and  O_35 
REMARK   26  A    between atoms: C_33  and  O_34 
REMARK   27  A    between atoms: O_36  and  C_37 
REMARK   28  A    between atoms: C_38  and  C_46 
REMARK   29  A    between atoms: C_40  and  O_45 
REMARK   30  A    between atoms: C_41  and  O_44 
REMARK   31  A    between atoms: C_42  and  O_43 
REMARK   32  A    between atoms: C_46  and  O_47 
REMARK   33  A    between atoms: C_48  and  O_49 
ROOT
HETATM    1  C   UNL     1     -35.794  -1.836 -10.450  1.00  0.00     0.000 C 
ENDROOT
BRANCH   1   2
HETATM    2  C   UNL     1     -34.400  -2.186  -9.945  1.00  0.00     0.000 C 
BRANCH   2   3
HETATM    3  C   UNL     1     -33.367  -2.089 -11.063  1.00  0.00     0.000 C 
BRANCH   3   4
HETATM    4  C   UNL     1     -32.921  -3.463 -11.547  1.00  0.00     0.000 C 
BRANCH   4   5
HETATM    5  C   UNL     1     -33.843  -3.958 -12.648  1.00  0.00     0.000 C 
BRANCH   5   6
HETATM    6  C   UNL     1     -34.615  -5.166 -12.149  1.00  0.00     0.000 C 
BRANCH   6   7
HETATM    7  C   UNL     1     -33.868  -5.856 -11.016  1.00  0.00     0.000 C 
BRANCH   7   8
HETATM    8  C   UNL     1     -34.794  -6.255  -9.867  1.00  0.00    -0.000 C 
BRANCH   8   9
HETATM    9  C   UNL     1     -35.052  -7.761  -9.784  1.00  0.00    -0.005 C 
HETATM   10  C   UNL     1     -33.791  -8.594  -9.999  1.00  0.00     0.005 C 
ENDBRANCH   8   9
ENDBRANCH   7   8
ENDBRANCH   6   7
ENDBRANCH   5   6
ENDBRANCH   4   5
ENDBRANCH   3   4
ENDBRANCH   2   3
ENDBRANCH   1   2
BRANCH   1  11
HETATM   11  C   UNL     1     -35.767  -0.722 -11.486  1.00  0.00     0.000 C 
BRANCH  11  12
HETATM   12  C   UNL     1     -37.061  -0.695 -12.305  1.00  0.00     0.000 C 
BRANCH  12  13
HETATM   13  C   UNL     1     -36.932  -0.023 -13.679  1.00  0.00     0.001 C 
BRANCH  13  14
HETATM   14  C   UNL     1     -35.478   0.166 -14.102  1.00  0.00     0.010 C 
BRANCH  14  15
HETATM   15  C   UNL     1     -35.350   0.353 -15.606  1.00  0.00     0.110 C 
BRANCH  15  16
HETATM   16  C   UNL     1     -35.670  -0.918 -16.342  1.00  0.00     0.139 C 
HETATM   17  O   UNL     1     -35.164  -2.009 -16.079  1.00  0.00    -0.650 OA
BRANCH  16  18
HETATM   18  O   UNL     1     -36.582  -0.772 -17.332  1.00  0.00    -0.776 OA
HETATM   19  H   UNL     1     -37.411  -0.354 -17.035  1.00  0.00     0.167 HD
ENDBRANCH  16  18
ENDBRANCH  15  16
ENDBRANCH  14  15
ENDBRANCH  13  14
ENDBRANCH  12  13
ENDBRANCH  11  12
ENDBRANCH   1  11
TORSDOF 33
ENDMDL
MODEL 3
REMARK VINA RESULT:      -6.5      2.117      3.442
REMARK WARNING: 32 MAX_TORS EXCEEDED!!!
REMARK  33 active torsions:
REMARK  status: ('A' for Active; 'I' for Inactive)
REMARK    1  A    between atoms: C_2  and  C_3 
REMARK    2  A    between atoms: C_3  and  C_4 
REMARK    3  A    between atoms: C_4  and  C_5 
REMARK    4  A    between atoms: C_5  and  C_6 
REMARK    5  A    between atoms: C_6  and  C_7 
REMARK    6  A    between atoms: C_7  and  C_8 
REMARK    7  A    between atoms: C_8  and  C_9 
REMARK    8  A    between atoms: C_9  and  C_10 
REMARK    9  A    between atoms: C_10  and  C_11 
REMARK   10  A    between atoms: C_11  and  C_12 
REMARK   11  A    between atoms: C_12  and  C_13 
REMARK   12  A    between atoms: C_13  and  C_14 
REMARK   13  A    between atoms: C_14  and  C_15 
REMARK   14  A    between atoms: C_15  and  C_16 
REMARK   15  A    between atoms: C_16  and  O_18 
REMARK   16  A    between atoms: C_20  and  C_21 
REMARK   17  A    between atoms: C_20  and  O_53 
REMARK   18  A    between atoms: C_22  and  O_52 
REMARK   19  A    between atoms: C_23  and  O_51 
REMARK   20  A    between atoms: C_24  and  O_50 
REMARK   21  A    between atoms: C_25  and  O_27 
REMARK   22  A    between atoms: O_27  and  C_28 
REMARK   23  A    between atoms: C_29  and  C_48 
REMARK   24  A    between atoms: C_31  and  O_36 
REMARK   25  A    between atoms: C_32  and  O_35 
REMARK   26  A    between atoms: C_33  and  O_34 
REMARK   27  A    between atoms: O_36  and  C_37 
REMARK   28  A    between atoms: C_38  and  C_46 
REMARK   29  A    between atoms: C_40  and  O_45 
REMARK   30  A    between atoms: C_41  and  O_44 
REMARK   31  A    between atoms: C_42  and  O_43 
REMARK   32  A    between atoms: C_46  and  O_47 
REMARK   33  A    between atoms: C_48  and  O_49 
ROOT
HETATM    1  C   UNL     1     -20.431  -5.740  -6.428  1.00  0.00     0.000 C 
ENDROOT
BRANCH   1   2
HETATM    2  C   UNL     1     -21.796  -6.088  -5.847  1.00  0.00     0.000 C 
BRANCH   2   3
HETATM    3  C   UNL     1     -21.662  -7.006  -4.635  1.00  0.00     0.000 C 
BRANCH   3   4
HETATM    4  C   UNL     1     -21.977  -6.280  -3.334  1.00  0.00     0.000 C 
BRANCH   4   5
HETATM    5  C   UNL     1     -21.447  -7.069  -2.149  1.00  0.00     0.000 C 
BRANCH   5   6
HETATM    6  C   UNL     1     -22.323  -6.802  -0.938  1.00  0.00     0.000 C 
BRANCH   6   7
HETATM    7  C   UNL     1     -22.586  -8.088  -0.166  1.00  0.00     0.000 C 
BRANCH   7   8
HETATM    8  C   UNL     1     -21.721  -8.200   1.089  1.00  0.00    -0.000 C 
BRANCH   8   9
HETATM    9  C   UNL     1     -20.880  -9.478   1.140  1.00  0.00    -0.005 C 
HETATM   10  C   UNL     1     -21.031 -10.340  -0.111  1.00  0.00     0.005 C 
ENDBRANCH   8   9
ENDBRANCH   7   8
ENDBRANCH   6   7
ENDBRANCH   5   6
ENDBRANCH   4   5
ENDBRANCH   3   4
ENDBRANCH   2   3
ENDBRANCH   1   2
BRANCH   1  11
HETATM   11  C   UNL     1     -20.440  -4.403  -7.153  1.00  0.00     0.000 C 
BRANCH  11  12
HETATM   12  C   UNL     1     -20.157  -4.580  -8.648  1.00  0.00     0.000 C 
BRANCH  12  13
HETATM   13  C   UNL     1     -21.273  -4.075  -9.573  1.00  0.00     0.001 C 
BRANCH  13  14
HETATM   14  C   UNL     1     -22.629  -4.015  -8.874  1.00  0.00     0.010 C 
BRANCH  14  15
HETATM   15  C   UNL     1     -23.736  -4.584  -9.746  1.00  0.00     0.110 C 
BRANCH  15  16
HETATM   16  C   UNL     1     -24.564  -3.490 -10.360  1.00  0.00     0.139 C 
HETATM   17  O   UNL     1     -24.204  -2.819 -11.326  1.00  0.00    -0.650 OA
BRANCH  16  18
HETATM   18  O   UNL     1     -25.763  -3.298  -9.762  1.00  0.00    -0.776 OA
HETATM   19  H   UNL     1     -26.270  -2.556 -10.141  1.00  0.00     0.167 HD
ENDBRANCH  16  18
ENDBRANCH  15  16
ENDBRANCH  14  15
ENDBRANCH  13  14
ENDBRANCH  12  13
ENDBRANCH  11  12
ENDBRANCH   1  11
TORSDOF 33
ENDMDL
MODEL 4
REMARK VINA RESULT:      -6.4      2.348      4.082
REMARK WARNING: 32 MAX_TORS EXCEEDED!!!
REMARK  33 active torsions:
REMARK  status: ('A' for Active; 'I' for Inactive)
REMARK    1  A    between atoms: C_2  and  C_3 
REMARK    2  A    between atoms: C_3  and  C_4 
REMARK    3  A    between atoms: C_4  and  C_5 
REMARK    4  A    between atoms: C_5  and  C_6 
REMARK    5  A    between atoms: C_6  and  C_7 
REMARK    6  A    between atoms: C_7  and  C_8 
REMARK    7  A    between atoms: C_8  and  C_9 
REMARK    8  A    between atoms: C_9  and  C_10 
REMARK    9  A    between atoms: C_10  and  C_11 
REMARK   10  A    between atoms: C_11  and  C_12 
REMARK   11  A    between atoms: C_12  and  C_13 
REMARK   12  A    between atoms: C_13  and  C_14 
REMARK   13  A    between atoms: C_14  and  C_15 
REMARK   14  A    between atoms: C_15  and  C_16 
REMARK   15  A    between atoms: C_16  and  O_18 
REMARK   16  A    between atoms: C_20  and  C_21 
REMARK   17  A    between atoms: C_20  and  O_53 
REMARK   18  A    between atoms: C_22  and  O_52 
REMARK   19  A    between atoms: C_23  and  O_51 
REMARK   20  A    between atoms: C_24  and  O_50 
REMARK   21  A    between atoms: C_25  and  O_27 
REMARK   22  A    between atoms: O_27  and  C_28 
REMARK   23  A    between atoms: C_29  and  C_48 
REMARK   24  A    between atoms: C_31  and  O_36 
REMARK   25  A    between atoms: C_32  and  O_35 
REMARK   26  A    between atoms: C_33  and  O_34 
REMARK   27  A    between atoms: O_36  and  C_37 
REMARK   28  A    between atoms: C_38  and  C_46 
REMARK   29  A    between atoms: C_40  and  O_45 
REMARK   30  A    between atoms: C_41  and  O_44 
REMARK   31  A    between atoms: C_42  and  O_43 
REMARK   32  A    between atoms: C_46  and  O_47 
REMARK   33  A    between atoms: C_48  and  O_49 
ROOT
HETATM    1  C   UNL     1     -20.807  -6.657  -5.560  1.00  0.00     0.000 C 
ENDROOT
BRANCH   1   2
HETATM    2  C   UNL     1     -21.896  -6.576  -4.497  1.00  0.00     0.000 C 
BRANCH   2   3
HETATM    3  C   UNL     1     -21.297  -6.405  -3.104  1.00  0.00     0.000 C 
BRANCH   3   4
HETATM    4  C   UNL     1     -22.373  -6.271  -2.034  1.00  0.00     0.000 C 
BRANCH   4   5
HETATM    5  C   UNL     1     -22.027  -7.128  -0.830  1.00  0.00     0.000 C 
BRANCH   5   6
HETATM    6  C   UNL     1     -21.207  -8.322  -1.283  1.00  0.00     0.000 C 
BRANCH   6   7
HETATM    7  C   UNL     1     -21.736  -9.609  -0.666  1.00  0.00     0.000 C 
BRANCH   7   8
HETATM    8  C   UNL     1     -23.119  -9.429  -0.041  1.00  0.00    -0.000 C 
BRANCH   8   9
HETATM    9  C   UNL     1     -23.980 -10.694  -0.086  1.00  0.00    -0.005 C 
HETATM   10  C   UNL     1     -23.815 -11.480  -1.384  1.00  0.00     0.005 C 
ENDBRANCH   8   9
ENDBRANCH   7   8
ENDBRANCH   6   7
ENDBRANCH   5   6
ENDBRANCH   4   5
ENDBRANCH   3   4
ENDBRANCH   2   3
ENDBRANCH   1   2
BRANCH   1  11
HETATM   11  C   UNL     1     -21.262  -6.084  -6.893  1.00  0.00     0.000 C 
BRANCH  11  12
HETATM   12  C   UNL     1     -20.487  -4.809  -7.241  1.00  0.00     0.000 C 
BRANCH  12  13
HETATM   13  C   UNL     1     -20.955  -4.108  -8.525  1.00  0.00     0.001 C 
BRANCH  13  14
HETATM   14  C   UNL     1     -22.476  -4.015  -8.617  1.00  0.00     0.010 C 
BRANCH  14  15
HETATM   15  C   UNL     1     -22.985  -4.468  -9.977  1.00  0.00     0.110 C 
BRANCH  15  16
HETATM   16  C   UNL     1     -24.339  -3.886 -10.273  1.00  0.00     0.139 C 
HETATM   17  O   UNL     1     -24.545  -3.035 -11.139  1.00  0.00    -0.650 OA
BRANCH  16  18
HETATM   18  O   UNL     1     -25.337  -4.382  -9.506  1.00  0.00    -0.776 OA
HETATM   19  H   UNL     1     -25.210  -4.221  -8.553  1.00  0.00     0.167 HD
ENDBRANCH  16  18
ENDBRANCH  15  16
ENDBRANCH  14  15
ENDBRANCH  13  14
ENDBRANCH  12  13
ENDBRANCH  11  12
ENDBRANCH   1  11
TORSDOF 33
ENDMDL
MODEL 5
REMARK VINA RESULT:      -6.1     12.941     14.994
REMARK WARNING: 32 MAX_TORS EXCEEDED!!!
REMARK  33 active torsions:
REMARK  status: ('A' for Active; 'I' for Inactive)
REMARK    1  A    between atoms: C_2  and  C_3 
REMARK    2  A    between atoms: C_3  and  C_4 
REMARK    3  A    between atoms: C_4  and  C_5 
REMARK    4  A    between atoms: C_5  and  C_6 
REMARK    5  A    between atoms: C_6  and  C_7 
REMARK    6  A    between atoms: C_7  and  C_8 
REMARK    7  A    between atoms: C_8  and  C_9 
REMARK    8  A    between atoms: C_9  and  C_10 
REMARK    9  A    between atoms: C_10  and  C_11 
REMARK   10  A    between atoms: C_11  and  C_12 
REMARK   11  A    between atoms: C_12  and  C_13 
REMARK   12  A    between atoms: C_13  and  C_14 
REMARK   13  A    between atoms: C_14  and  C_15 
REMARK   14  A    between atoms: C_15  and  C_16 
REMARK   15  A    between atoms: C_16  and  O_18 
REMARK   16  A    between atoms: C_20  and  C_21 
REMARK   17  A    between atoms: C_20  and  O_53 
REMARK   18  A    between atoms: C_22  and  O_52 
REMARK   19  A    between atoms: C_23  and  O_51 
REMARK   20  A    between atoms: C_24  and  O_50 
REMARK   21  A    between atoms: C_25  and  O_27 
REMARK   22  A    between atoms: O_27  and  C_28 
REMARK   23  A    between atoms: C_29  and  C_48 
REMARK   24  A    between atoms: C_31  and  O_36 
REMARK   25  A    between atoms: C_32  and  O_35 
REMARK   26  A    between atoms: C_33  and  O_34 
REMARK   27  A    between atoms: O_36  and  C_37 
REMARK   28  A    between atoms: C_38  and  C_46 
REMARK   29  A    between atoms: C_40  and  O_45 
REMARK   30  A    between atoms: C_41  and  O_44 
REMARK   31  A    between atoms: C_42  and  O_43 
REMARK   32  A    between atoms: C_46  and  O_47 
REMARK   33  A    between atoms: C_48  and  O_49 
ROOT
HETATM    1  C   UNL     1     -35.206  -0.135 -13.367  1.00  0.00     0.000 C 
ENDROOT
BRANCH   1   2
HETATM    2  C   UNL     1     -35.374   0.236 -11.899  1.00  0.00     0.000 C 
BRANCH   2   3
HETATM    3  C   UNL     1     -36.540  -0.521 -11.268  1.00  0.00     0.000 C 
BRANCH   3   4
HETATM    4  C   UNL     1     -36.062  -1.630 -10.338  1.00  0.00     0.000 C 
BRANCH   4   5
HETATM    5  C   UNL     1     -35.396  -2.736 -11.137  1.00  0.00     0.000 C 
BRANCH   5   6
HETATM    6  C   UNL     1     -34.022  -3.015 -10.556  1.00  0.00     0.000 C 
BRANCH   6   7
HETATM    7  C   UNL     1     -33.167  -3.802 -11.540  1.00  0.00     0.000 C 
BRANCH   7   8
HETATM    8  C   UNL     1     -33.266  -5.311 -11.320  1.00  0.00    -0.000 C 
BRANCH   8   9
HETATM    9  C   UNL     1     -34.498  -5.732 -10.515  1.00  0.00    -0.005 C 
HETATM   10  C   UNL     1     -34.524  -7.227 -10.208  1.00  0.00     0.005 C 
ENDBRANCH   8   9
ENDBRANCH   7   8
ENDBRANCH   6   7
ENDBRANCH   5   6
ENDBRANCH   4   5
ENDBRANCH   3   4
ENDBRANCH   2   3
ENDBRANCH   1   2
BRANCH   1  11
HETATM   11  C   UNL     1     -34.871   1.072 -14.229  1.00  0.00     0.000 C 
BRANCH  11  12
HETATM   12  C   UNL     1     -35.684   1.070 -15.527  1.00  0.00     0.000 C 
BRANCH  12  13
HETATM   13  C   UNL     1     -36.937   0.182 -15.494  1.00  0.00     0.001 C 
BRANCH  13  14
HETATM   14  C   UNL     1     -36.804  -1.048 -16.389  1.00  0.00     0.010 C 
BRANCH  14  15
HETATM   15  C   UNL     1     -35.412  -1.159 -16.988  1.00  0.00     0.110 C 
BRANCH  15  16
HETATM   16  C   UNL     1     -34.716  -2.408 -16.523  1.00  0.00     0.139 C 
HETATM   17  O   UNL     1     -34.815  -2.864 -15.384  1.00  0.00    -0.650 OA
BRANCH  16  18
HETATM   18  O   UNL     1     -33.962  -3.010 -17.472  1.00  0.00    -0.776 OA
HETATM   19  H   UNL     1     -33.673  -2.404 -18.179  1.00  0.00     0.167 HD
ENDBRANCH  16  18
ENDBRANCH  15  16
ENDBRANCH  14  15
ENDBRANCH  13  14
ENDBRANCH  12  13
ENDBRANCH  11  12
ENDBRANCH   1  11
TORSDOF 33
ENDMDL
MODEL 6
REMARK VINA RESULT:      -6.1      1.933      2.581
REMARK WARNING: 32 MAX_TORS EXCEEDED!!!
REMARK  33 active torsions:
REMARK  status: ('A' for Active; 'I' for Inactive)
REMARK    1  A    between atoms: C_2  and  C_3 
REMARK    2  A    between atoms: C_3  and  C_4 
REMARK    3  A    between atoms: C_4  and  C_5 
REMARK    4  A    between atoms: C_5  and  C_6 
REMARK    5  A    between atoms: C_6  and  C_7 
REMARK    6  A    between atoms: C_7  and  C_8 
REMARK    7  A    between atoms: C_8  and  C_9 
REMARK    8  A    between atoms: C_9  and  C_10 
REMARK    9  A    between atoms: C_10  and  C_11 
REMARK   10  A    between atoms: C_11  and  C_12 
REMARK   11  A    between atoms: C_12  and  C_13 
REMARK   12  A    between atoms: C_13  and  C_14 
REMARK   13  A    between atoms: C_14  and  C_15 
REMARK   14  A    between atoms: C_15  and  C_16 
REMARK   15  A    between atoms: C_16  and  O_18 
REMARK   16  A    between atoms: C_20  and  C_21 
REMARK   17  A    between atoms: C_20  and  O_53 
REMARK   18  A    between atoms: C_22  and  O_52 
REMARK   19  A    between atoms: C_23  and  O_51 
REMARK   20  A    between atoms: C_24  and  O_50 
REMARK   21  A    between atoms: C_25  and  O_27 
REMARK   22  A    between atoms: O_27  and  C_28 
REMARK   23  A    between atoms: C_29  and  C_48 
REMARK   24  A    between atoms: C_31  and  O_36 
REMARK   25  A    between atoms: C_32  and  O_35 
REMARK   26  A    between atoms: C_33  and  O_34 
REMARK   27  A    between atoms: O_36  and  C_37 
REMARK   28  A    between atoms: C_38  and  C_46 
REMARK   29  A    between atoms: C_40  and  O_45 
REMARK   30  A    between atoms: C_41  and  O_44 
REMARK   31  A    between atoms: C_42  and  O_43 
REMARK   32  A    between atoms: C_46  and  O_47 
REMARK   33  A    between atoms: C_48  and  O_49 
ROOT
HETATM    1  C   UNL     1     -21.515  -4.021 -10.144  1.00  0.00     0.000 C 
ENDROOT
BRANCH   1   2
HETATM    2  C   UNL     1     -20.662  -4.131  -8.886  1.00  0.00     0.000 C 
BRANCH   2   3
HETATM    3  C   UNL     1     -21.413  -3.613  -7.664  1.00  0.00     0.000 C 
BRANCH   3   4
HETATM    4  C   UNL     1     -21.548  -4.680  -6.584  1.00  0.00     0.000 C 
BRANCH   4   5
HETATM    5  C   UNL     1     -20.178  -5.095  -6.079  1.00  0.00     0.000 C 
BRANCH   5   6
HETATM    6  C   UNL     1     -20.120  -6.608  -5.973  1.00  0.00     0.000 C 
BRANCH   6   7
HETATM    7  C   UNL     1     -21.246  -7.133  -5.093  1.00  0.00     0.000 C 
BRANCH   7   8
HETATM    8  C   UNL     1     -20.744  -8.102  -4.024  1.00  0.00    -0.000 C 
BRANCH   8   9
HETATM    9  C   UNL     1     -19.385  -8.725  -4.351  1.00  0.00    -0.005 C 
HETATM   10  C   UNL     1     -18.749  -9.427  -3.155  1.00  0.00     0.005 C 
ENDBRANCH   8   9
ENDBRANCH   7   8
ENDBRANCH   6   7
ENDBRANCH   5   6
ENDBRANCH   4   5
ENDBRANCH   3   4
ENDBRANCH   2   3
ENDBRANCH   1   2
BRANCH   1  11
HETATM   11  C   UNL     1     -22.855  -4.724  -9.992  1.00  0.00     0.000 C 
BRANCH  11  12
HETATM   12  C   UNL     1     -23.903  -4.130 -10.939  1.00  0.00     0.000 C 
BRANCH  12  13
HETATM   13  C   UNL     1     -23.416  -2.924 -11.754  1.00  0.00     0.001 C 
BRANCH  13  14
HETATM   14  C   UNL     1     -24.228  -2.716 -13.030  1.00  0.00     0.010 C 
BRANCH  14  15
HETATM   15  C   UNL     1     -23.333  -2.439 -14.227  1.00  0.00     0.110 C 
BRANCH  15  16
HETATM   16  C   UNL     1     -23.739  -1.175 -14.931  1.00  0.00     0.139 C 
HETATM   17  O   UNL     1     -23.077  -0.643 -15.821  1.00  0.00    -0.650 OA
BRANCH  16  18
HETATM   18  O   UNL     1     -24.917  -0.658 -14.508  1.00  0.00    -0.776 OA
HETATM   19  H   UNL     1     -24.966  -0.547 -13.541  1.00  0.00     0.167 HD
ENDBRANCH  16  18
ENDBRANCH  15  16
ENDBRANCH  14  15
ENDBRANCH  13  14
ENDBRANCH  12  13
ENDBRANCH  11  12
ENDBRANCH   1  11
TORSDOF 33
ENDMDL
MODEL 7
REMARK VINA RESULT:      -6.0      2.301      4.631
REMARK WARNING: 32 MAX_TORS EXCEEDED!!!
REMARK  33 active torsions:
REMARK  status: ('A' for Active; 'I' for Inactive)
REMARK    1  A    between atoms: C_2  and  C_3 
REMARK    2  A    between atoms: C_3  and  C_4 
REMARK    3  A    between atoms: C_4  and  C_5 
REMARK    4  A    between atoms: C_5  and  C_6 
REMARK    5  A    between atoms: C_6  and  C_7 
REMARK    6  A    between atoms: C_7  and  C_8 
REMARK    7  A    between atoms: C_8  and  C_9 
REMARK    8  A    between atoms: C_9  and  C_10 
REMARK    9  A    between atoms: C_10  and  C_11 
REMARK   10  A    between atoms: C_11  and  C_12 
REMARK   11  A    between atoms: C_12  and  C_13 
REMARK   12  A    between atoms: C_13  and  C_14 
REMARK   13  A    between atoms: C_14  and  C_15 
REMARK   14  A    between atoms: C_15  and  C_16 
REMARK   15  A    between atoms: C_16  and  O_18 
REMARK   16  A    between atoms: C_20  and  C_21 
REMARK   17  A    between atoms: C_20  and  O_53 
REMARK   18  A    between atoms: C_22  and  O_52 
REMARK   19  A    between atoms: C_23  and  O_51 
REMARK   20  A    between atoms: C_24  and  O_50 
REMARK   21  A    between atoms: C_25  and  O_27 
REMARK   22  A    between atoms: O_27  and  C_28 
REMARK   23  A    between atoms: C_29  and  C_48 
REMARK   24  A    between atoms: C_31  and  O_36 
REMARK   25  A    between atoms: C_32  and  O_35 
REMARK   26  A    between atoms: C_33  and  O_34 
REMARK   27  A    between atoms: O_36  and  C_37 
REMARK   28  A    between atoms: C_38  and  C_46 
REMARK   29  A    between atoms: C_40  and  O_45 
REMARK   30  A    between atoms: C_41  and  O_44 
REMARK   31  A    between atoms: C_42  and  O_43 
REMARK   32  A    between atoms: C_46  and  O_47 
REMARK   33  A    between atoms: C_48  and  O_49 
ROOT
HETATM    1  C   UNL     1     -20.705  -7.268  -4.926  1.00  0.00     0.000 C 
ENDROOT
BRANCH   1   2
HETATM    2  C   UNL     1     -21.748  -6.690  -3.978  1.00  0.00     0.000 C 
BRANCH   2   3
HETATM    3  C   UNL     1     -21.244  -6.687  -2.538  1.00  0.00     0.000 C 
BRANCH   3   4
HETATM    4  C   UNL     1     -22.385  -6.553  -1.536  1.00  0.00     0.000 C 
BRANCH   4   5
HETATM    5  C   UNL     1     -22.067  -7.329  -0.271  1.00  0.00     0.000 C 
BRANCH   5   6
HETATM    6  C   UNL     1     -21.379  -8.631  -0.640  1.00  0.00     0.000 C 
BRANCH   6   7
HETATM    7  C   UNL     1     -21.383  -9.598   0.535  1.00  0.00     0.000 C 
BRANCH   7   8
HETATM    8  C   UNL     1     -22.162 -10.877   0.234  1.00  0.00    -0.000 C 
BRANCH   8   9
HETATM    9  C   UNL     1     -23.629 -10.630  -0.129  1.00  0.00    -0.005 C 
HETATM   10  C   UNL     1     -24.130 -11.549  -1.239  1.00  0.00     0.005 C 
ENDBRANCH   8   9
ENDBRANCH   7   8
ENDBRANCH   6   7
ENDBRANCH   5   6
ENDBRANCH   4   5
ENDBRANCH   3   4
ENDBRANCH   2   3
ENDBRANCH   1   2
BRANCH   1  11
HETATM   11  C   UNL     1     -20.689  -6.552  -6.268  1.00  0.00     0.000 C 
BRANCH  11  12
HETATM   12  C   UNL     1     -20.034  -5.172  -6.153  1.00  0.00     0.000 C 
BRANCH  12  13
HETATM   13  C   UNL     1     -19.430  -4.640  -7.461  1.00  0.00     0.001 C 
BRANCH  13  14
HETATM   14  C   UNL     1     -20.497  -4.297  -8.498  1.00  0.00     0.010 C 
BRANCH  14  15
HETATM   15  C   UNL     1     -20.033  -4.621  -9.909  1.00  0.00     0.110 C 
BRANCH  15  16
HETATM   16  C   UNL     1     -20.985  -4.074 -10.935  1.00  0.00     0.139 C 
HETATM   17  O   UNL     1     -22.078  -4.577 -11.194  1.00  0.00    -0.650 OA
BRANCH  16  18
HETATM   18  O   UNL     1     -20.545  -2.958 -11.562  1.00  0.00    -0.776 OA
HETATM   19  H   UNL     1     -19.894  -3.140 -12.265  1.00  0.00     0.167 HD
ENDBRANCH  16  18
ENDBRANCH  15  16
ENDBRANCH  14  15
ENDBRANCH  13  14
ENDBRANCH  12  13
ENDBRANCH  11  12
ENDBRANCH   1  11
TORSDOF 33
ENDMDL
MODEL 8
REMARK VINA RESULT:      -5.8      5.687     10.520
REMARK WARNING: 32 MAX_TORS EXCEEDED!!!
REMARK  33 active torsions:
REMARK  status: ('A' for Active; 'I' for Inactive)
REMARK    1  A    between atoms: C_2  and  C_3 
REMARK    2  A    between atoms: C_3  and  C_4 
REMARK    3  A    between atoms: C_4  and  C_5 
REMARK    4  A    between atoms: C_5  and  C_6 
REMARK    5  A    between atoms: C_6  and  C_7 
REMARK    6  A    between atoms: C_7  and  C_8 
REMARK    7  A    between atoms: C_8  and  C_9 
REMARK    8  A    between atoms: C_9  and  C_10 
REMARK    9  A    between atoms: C_10  and  C_11 
REMARK   10  A    between atoms: C_11  and  C_12 
REMARK   11  A    between atoms: C_12  and  C_13 
REMARK   12  A    between atoms: C_13  and  C_14 
REMARK   13  A    between atoms: C_14  and  C_15 
REMARK   14  A    between atoms: C_15  and  C_16 
REMARK   15  A    between atoms: C_16  and  O_18 
REMARK   16  A    between atoms: C_20  and  C_21 
REMARK   17  A    between atoms: C_20  and  O_53 
REMARK   18  A    between atoms: C_22  and  O_52 
REMARK   19  A    between atoms: C_23  and  O_51 
REMARK   20  A    between atoms: C_24  and  O_50 
REMARK   21  A    between atoms: C_25  and  O_27 
REMARK   22  A    between atoms: O_27  and  C_28 
REMARK   23  A    between atoms: C_29  and  C_48 
REMARK   24  A    between atoms: C_31  and  O_36 
REMARK   25  A    between atoms: C_32  and  O_35 
REMARK   26  A    between atoms: C_33  and  O_34 
REMARK   27  A    between atoms: O_36  and  C_37 
REMARK   28  A    between atoms: C_38  and  C_46 
REMARK   29  A    between atoms: C_40  and  O_45 
REMARK   30  A    between atoms: C_41  and  O_44 
REMARK   31  A    between atoms: C_42  and  O_43 
REMARK   32  A    between atoms: C_46  and  O_47 
REMARK   33  A    between atoms: C_48  and  O_49 
ROOT
HETATM    1  C   UNL     1     -20.857  -7.412  -3.706  1.00  0.00     0.000 C 
ENDROOT
BRANCH   1   2
HETATM    2  C   UNL     1     -22.075  -6.661  -4.227  1.00  0.00     0.000 C 
BRANCH   2   3
HETATM    3  C   UNL     1     -21.804  -6.053  -5.600  1.00  0.00     0.000 C 
BRANCH   3   4
HETATM    4  C   UNL     1     -20.446  -5.364  -5.659  1.00  0.00     0.000 C 
BRANCH   4   5
HETATM    5  C   UNL     1     -20.492  -4.190  -6.621  1.00  0.00     0.000 C 
BRANCH   5   6
HETATM    6  C   UNL     1     -19.475  -4.408  -7.726  1.00  0.00     0.000 C 
BRANCH   6   7
HETATM    7  C   UNL     1     -20.167  -4.687  -9.053  1.00  0.00     0.000 C 
BRANCH   7   8
HETATM    8  C   UNL     1     -21.661  -4.369  -9.007  1.00  0.00    -0.000 C 
BRANCH   8   9
HETATM    9  C   UNL     1     -22.234  -3.928 -10.357  1.00  0.00    -0.005 C 
HETATM   10  C   UNL     1     -21.168  -3.384 -11.306  1.00  0.00     0.005 C 
ENDBRANCH   8   9
ENDBRANCH   7   8
ENDBRANCH   6   7
ENDBRANCH   5   6
ENDBRANCH   4   5
ENDBRANCH   3   4
ENDBRANCH   2   3
ENDBRANCH   1   2
BRANCH   1  11
HETATM   11  C   UNL     1     -20.883  -7.571  -2.194  1.00  0.00     0.000 C 
BRANCH  11  12
HETATM   12  C   UNL     1     -22.221  -7.105  -1.610  1.00  0.00     0.000 C 
BRANCH  12  13
HETATM   13  C   UNL     1     -22.336  -7.245  -0.086  1.00  0.00     0.001 C 
BRANCH  13  14
HETATM   14  C   UNL     1     -22.162  -8.688   0.382  1.00  0.00     0.010 C 
BRANCH  14  15
HETATM   15  C   UNL     1     -23.346  -9.555  -0.017  1.00  0.00     0.110 C 
BRANCH  15  16
HETATM   16  C   UNL     1     -22.906 -10.732  -0.842  1.00  0.00     0.139 C 
HETATM   17  O   UNL     1     -22.877 -10.734  -2.072  1.00  0.00    -0.650 OA
BRANCH  16  18
HETATM   18  O   UNL     1     -22.530 -11.810  -0.115  1.00  0.00    -0.776 OA
HETATM   19  H   UNL     1     -23.057 -12.608  -0.306  1.00  0.00     0.167 HD
ENDBRANCH  16  18
ENDBRANCH  15  16
ENDBRANCH  14  15
ENDBRANCH  13  14
ENDBRANCH  12  13
ENDBRANCH  11  12
ENDBRANCH   1  11
TORSDOF 33
ENDMDL
MODEL 9
REMARK VINA RESULT:      -5.6     12.721     15.501
REMARK WARNING: 32 MAX_TORS EXCEEDED!!!
REMARK  33 active torsions:
REMARK  status: ('A' for Active; 'I' for Inactive)
REMARK    1  A    between atoms: C_2  and  C_3 
REMARK    2  A    between atoms: C_3  and  C_4 
REMARK    3  A    between atoms: C_4  and  C_5 
REMARK    4  A    between atoms: C_5  and  C_6 
REMARK    5  A    between atoms: C_6  and  C_7 
REMARK    6  A    between atoms: C_7  and  C_8 
REMARK    7  A    between atoms: C_8  and  C_9 
REMARK    8  A    between atoms: C_9  and  C_10 
REMARK    9  A    between atoms: C_10  and  C_11 
REMARK   10  A    between atoms: C_11  and  C_12 
REMARK   11  A    between atoms: C_12  and  C_13 
REMARK   12  A    between atoms: C_13  and  C_14 
REMARK   13  A    between atoms: C_14  and  C_15 
REMARK   14  A    between atoms: C_15  and  C_16 
REMARK   15  A    between atoms: C_16  and  O_18 
REMARK   16  A    between atoms: C_20  and  C_21 
REMARK   17  A    between atoms: C_20  and  O_53 
REMARK   18  A    between atoms: C_22  and  O_52 
REMARK   19  A    between atoms: C_23  and  O_51 
REMARK   20  A    between atoms: C_24  and  O_50 
REMARK   21  A    between atoms: C_25  and  O_27 
REMARK   22  A    between atoms: O_27  and  C_28 
REMARK   23  A    between atoms: C_29  and  C_48 
REMARK   24  A    between atoms: C_31  and  O_36 
REMARK   25  A    between atoms: C_32  and  O_35 
REMARK   26  A    between atoms: C_33  and  O_34 
REMARK   27  A    between atoms: O_36  and  C_37 
REMARK   28  A    between atoms: C_38  and  C_46 
REMARK   29  A    between atoms: C_40  and  O_45 
REMARK   30  A    between atoms: C_41  and  O_44 
REMARK   31  A    between atoms: C_42  and  O_43 
REMARK   32  A    between atoms: C_46  and  O_47 
REMARK   33  A    between atoms: C_48  and  O_49 
ROOT
HETATM    1  C   UNL     1     -33.684  -3.716 -10.667  1.00  0.00     0.000 C 
ENDROOT
BRANCH   1   2
HETATM    2  C   UNL     1     -34.140  -2.265 -10.572  1.00  0.00     0.000 C 
BRANCH   2   3
HETATM    3  C   UNL     1     -35.661  -2.160 -10.625  1.00  0.00     0.000 C 
BRANCH   3   4
HETATM    4  C   UNL     1     -36.124  -0.744 -10.942  1.00  0.00     0.000 C 
BRANCH   4   5
HETATM    5  C   UNL     1     -36.188  -0.534 -12.444  1.00  0.00     0.000 C 
BRANCH   5   6
HETATM    6  C   UNL     1     -35.108   0.448 -12.860  1.00  0.00     0.000 C 
BRANCH   6   7
HETATM    7  C   UNL     1     -35.017   0.543 -14.376  1.00  0.00     0.000 C 
BRANCH   7   8
HETATM    8  C   UNL     1     -35.568  -0.700 -15.071  1.00  0.00    -0.000 C 
BRANCH   8   9
HETATM    9  C   UNL     1     -36.568  -0.385 -16.187  1.00  0.00    -0.005 C 
HETATM   10  C   UNL     1     -37.894   0.159 -15.662  1.00  0.00     0.005 C 
ENDBRANCH   8   9
ENDBRANCH   7   8
ENDBRANCH   6   7
ENDBRANCH   5   6
ENDBRANCH   4   5
ENDBRANCH   3   4
ENDBRANCH   2   3
ENDBRANCH   1   2
BRANCH   1  11
HETATM   11  C   UNL     1     -33.053  -4.032 -12.014  1.00  0.00     0.000 C 
BRANCH  11  12
HETATM   12  C   UNL     1     -33.955  -3.585 -13.168  1.00  0.00     0.000 C 
BRANCH  12  13
HETATM   13  C   UNL     1     -34.070  -4.597 -14.318  1.00  0.00     0.001 C 
BRANCH  13  14
HETATM   14  C   UNL     1     -33.991  -3.933 -15.690  1.00  0.00     0.010 C 
BRANCH  14  15
HETATM   15  C   UNL     1     -33.202  -4.777 -16.678  1.00  0.00     0.110 C 
BRANCH  15  16
HETATM   16  C   UNL     1     -31.791  -4.277 -16.816  1.00  0.00     0.139 C 
HETATM   17  O   UNL     1     -31.487  -3.231 -17.388  1.00  0.00    -0.650 OA
BRANCH  16  18
HETATM   18  O   UNL     1     -30.859  -5.078 -16.247  1.00  0.00    -0.776 OA
HETATM   19  H   UNL     1     -31.034  -6.028 -16.378  1.00  0.00     0.167 HD
ENDBRANCH  16  18
ENDBRANCH  15  16
ENDBRANCH  14  15
ENDBRANCH  13  14
ENDBRANCH  12  13
ENDBRANCH  11  12
ENDBRANCH   1  11
TORSDOF 33
ENDMDL
