MODEL 1
REMARK VINA RESULT:      -6.4      0.000      0.000
REMARK  25 active torsions:
REMARK  status: ('A' for Active; 'I' for Inactive)
REMARK    1  A    between atoms: C_2  and  C_3 
REMARK    2  A    between atoms: C_3  and  C_4 
REMARK    3  A    between atoms: C_4  and  C_5 
REMARK    4  A    between atoms: C_5  and  C_6 
REMARK    5  A    between atoms: C_6  and  C_7 
REMARK    6  A    between atoms: C_7  and  C_8 
REMARK    7  A    between atoms: C_8  and  C_9 
REMARK    8  A    between atoms: C_9  and  C_10 
REMARK    9  A    between atoms: C_10  and  O_11 
REMARK   10  A    between atoms: O_11  and  C_12 
REMARK   11  A    between atoms: C_12  and  C_14 
REMARK   12  A    between atoms: C_14  and  C_15 
REMARK   13  A    between atoms: C_15  and  C_16 
REMARK   14  A    between atoms: C_16  and  C_17 
REMARK   15  A    between atoms: C_17  and  C_18 
REMARK   16  A    between atoms: C_18  and  C_19 
REMARK   17  A    between atoms: C_19  and  C_20 
REMARK   18  A    between atoms: C_20  and  C_21 
REMARK   19  A    between atoms: C_22  and  C_23 
REMARK   20  A    between atoms: C_23  and  C_24 
REMARK   21  A    between atoms: C_24  and  C_25 
REMARK   22  A    between atoms: C_25  and  C_26 
REMARK   23  A    between atoms: C_26  and  C_27 
REMARK   24  A    between atoms: C_27  and  C_28 
REMARK   25  A    between atoms: C_28  and  C_29 
ROOT
HETATM    1  C   UNL     1     -21.314  -6.806  -3.154  1.00  0.00     0.010 C 
ENDROOT
BRANCH   1   2
HETATM    2  C   UNL     1     -22.137  -6.932  -4.433  1.00  0.00     0.111 C 
BRANCH   2   3
HETATM    3  C   UNL     1     -21.264  -6.889  -5.661  1.00  0.00     0.258 C 
HETATM    4  O   UNL     1     -20.429  -7.721  -5.981  1.00  0.00    -0.265 OA
BRANCH   3   5
HETATM    5  O   UNL     1     -21.464  -5.700  -6.295  1.00  0.00    -0.321 OA
BRANCH   5   6
HETATM    6  C   UNL     1     -20.430  -4.755  -6.028  1.00  0.00     0.178 C 
BRANCH   6   7
HETATM    7  C   UNL     1     -19.569  -4.499  -7.254  1.00  0.00     0.027 C 
BRANCH   7   8
HETATM    8  C   UNL     1     -20.320  -4.918  -8.517  1.00  0.00     0.002 C 
BRANCH   8   9
HETATM    9  C   UNL     1     -20.072  -3.937  -9.656  1.00  0.00     0.000 C 
BRANCH   9  10
HETATM   10  C   UNL     1     -20.797  -4.379 -10.922  1.00  0.00     0.000 C 
BRANCH  10  11
HETATM   11  C   UNL     1     -21.450  -3.186 -11.610  1.00  0.00     0.000 C 
BRANCH  11  12
HETATM   12  C   UNL     1     -22.964  -3.228 -11.440  1.00  0.00     0.000 C 
BRANCH  12  13
HETATM   13  C   UNL     1     -23.438  -4.659 -11.224  1.00  0.00    -0.000 C 
BRANCH  13  14
HETATM   14  C   UNL     1     -24.322  -4.759  -9.985  1.00  0.00    -0.005 C 
HETATM   15  C   UNL     1     -23.849  -3.801  -8.907  1.00  0.00     0.005 C 
ENDBRANCH  13  14
ENDBRANCH  12  13
ENDBRANCH  11  12
ENDBRANCH  10  11
ENDBRANCH   9  10
ENDBRANCH   8   9
ENDBRANCH   7   8
ENDBRANCH   6   7
ENDBRANCH   5   6
ENDBRANCH   3   5
ENDBRANCH   2   3
ENDBRANCH   1   2
BRANCH   1  16
HETATM   16  C   UNL     1     -22.179  -6.611  -1.911  1.00  0.00     0.000 C 
BRANCH  16  17
HETATM   17  C   UNL     1     -21.650  -7.416  -0.728  1.00  0.00     0.000 C 
BRANCH  17  18
HETATM   18  C   UNL     1     -22.754  -8.228  -0.072  1.00  0.00     0.000 C 
BRANCH  18  19
HETATM   19  C   UNL     1     -22.370  -9.702  -0.028  1.00  0.00     0.004 C 
BRANCH  19  20
HETATM   20  C   UNL     1     -23.499 -10.553  -0.581  1.00  0.00     0.027 C 
BRANCH  20  21
HETATM   21  C   UNL     1     -23.211 -10.954  -1.989  1.00  0.00    -0.031 C 
HETATM   22  C   UNL     1     -22.153 -10.496  -2.672  1.00  0.00    -0.031 C 
BRANCH  22  23
HETATM   23  C   UNL     1     -21.868 -10.894  -4.077  1.00  0.00     0.027 C 
BRANCH  23  24
HETATM   24  C   UNL     1     -20.379 -10.739  -4.378  1.00  0.00     0.004 C 
BRANCH  24  25
HETATM   25  C   UNL     1     -19.623 -10.394  -3.107  1.00  0.00     0.000 C 
BRANCH  25  26
HETATM   26  C   UNL     1     -18.665  -9.233  -3.359  1.00  0.00     0.000 C 
BRANCH  26  27
HETATM   27  C   UNL     1     -17.321  -9.504  -2.699  1.00  0.00     0.000 C 
BRANCH  27  28
HETATM   28  C   UNL     1     -16.510 -10.489  -3.534  1.00  0.00    -0.000 C 
BRANCH  28  29
HETATM   29  C   UNL     1     -16.224  -9.917  -4.918  1.00  0.00    -0.005 C 
HETATM   30  C   UNL     1     -16.464 -10.964  -5.991  1.00  0.00     0.005 C 
ENDBRANCH  28  29
ENDBRANCH  27  28
ENDBRANCH  26  27
ENDBRANCH  25  26
ENDBRANCH  24  25
ENDBRANCH  23  24
ENDBRANCH  22  23
ENDBRANCH  20  21
ENDBRANCH  19  20
ENDBRANCH  18  19
ENDBRANCH  17  18
ENDBRANCH  16  17
ENDBRANCH   1  16
TORSDOF 25
ENDMDL
MODEL 2
REMARK VINA RESULT:      -6.0      1.997      3.030
REMARK  25 active torsions:
REMARK  status: ('A' for Active; 'I' for Inactive)
REMARK    1  A    between atoms: C_2  and  C_3 
REMARK    2  A    between atoms: C_3  and  C_4 
REMARK    3  A    between atoms: C_4  and  C_5 
REMARK    4  A    between atoms: C_5  and  C_6 
REMARK    5  A    between atoms: C_6  and  C_7 
REMARK    6  A    between atoms: C_7  and  C_8 
REMARK    7  A    between atoms: C_8  and  C_9 
REMARK    8  A    between atoms: C_9  and  C_10 
REMARK    9  A    between atoms: C_10  and  O_11 
REMARK   10  A    between atoms: O_11  and  C_12 
REMARK   11  A    between atoms: C_12  and  C_14 
REMARK   12  A    between atoms: C_14  and  C_15 
REMARK   13  A    between atoms: C_15  and  C_16 
REMARK   14  A    between atoms: C_16  and  C_17 
REMARK   15  A    between atoms: C_17  and  C_18 
REMARK   16  A    between atoms: C_18  and  C_19 
REMARK   17  A    between atoms: C_19  and  C_20 
REMARK   18  A    between atoms: C_20  and  C_21 
REMARK   19  A    between atoms: C_22  and  C_23 
REMARK   20  A    between atoms: C_23  and  C_24 
REMARK   21  A    between atoms: C_24  and  C_25 
REMARK   22  A    between atoms: C_25  and  C_26 
REMARK   23  A    between atoms: C_26  and  C_27 
REMARK   24  A    between atoms: C_27  and  C_28 
REMARK   25  A    between atoms: C_28  and  C_29 
ROOT
HETATM    1  C   UNL     1     -20.897  -7.466  -2.180  1.00  0.00     0.010 C 
ENDROOT
BRANCH   1   2
HETATM    2  C   UNL     1     -21.860  -6.398  -2.693  1.00  0.00     0.111 C 
BRANCH   2   3
HETATM    3  C   UNL     1     -21.925  -6.387  -4.199  1.00  0.00     0.258 C 
HETATM    4  O   UNL     1     -22.937  -6.283  -4.875  1.00  0.00    -0.265 OA
BRANCH   3   5
HETATM    5  O   UNL     1     -20.681  -6.644  -4.690  1.00  0.00    -0.321 OA
BRANCH   5   6
HETATM    6  C   UNL     1     -20.538  -6.256  -6.055  1.00  0.00     0.178 C 
BRANCH   6   7
HETATM    7  C   UNL     1     -19.892  -4.886  -6.188  1.00  0.00     0.027 C 
BRANCH   7   8
HETATM    8  C   UNL     1     -20.668  -4.037  -7.193  1.00  0.00     0.002 C 
BRANCH   8   9
HETATM    9  C   UNL     1     -19.975  -4.019  -8.549  1.00  0.00     0.000 C 
BRANCH   9  10
HETATM   10  C   UNL     1     -20.945  -4.398  -9.662  1.00  0.00     0.000 C 
BRANCH  10  11
HETATM   11  C   UNL     1     -20.534  -3.745 -10.977  1.00  0.00     0.000 C 
BRANCH  11  12
HETATM   12  C   UNL     1     -21.666  -2.885 -11.529  1.00  0.00     0.000 C 
BRANCH  12  13
HETATM   13  C   UNL     1     -22.996  -3.620 -11.420  1.00  0.00    -0.000 C 
BRANCH  13  14
HETATM   14  C   UNL     1     -24.041  -2.993 -12.338  1.00  0.00    -0.005 C 
HETATM   15  C   UNL     1     -23.543  -2.951 -13.771  1.00  0.00     0.005 C 
ENDBRANCH  13  14
ENDBRANCH  12  13
ENDBRANCH  11  12
ENDBRANCH  10  11
ENDBRANCH   9  10
ENDBRANCH   8   9
ENDBRANCH   7   8
ENDBRANCH   6   7
ENDBRANCH   5   6
ENDBRANCH   3   5
ENDBRANCH   2   3
ENDBRANCH   1   2
BRANCH   1  16
HETATM   16  C   UNL     1     -21.230  -7.930  -0.764  1.00  0.00     0.000 C 
BRANCH  16  17
HETATM   17  C   UNL     1     -22.617  -7.465  -0.333  1.00  0.00     0.000 C 
BRANCH  17  18
HETATM   18  C   UNL     1     -23.336  -8.536   0.471  1.00  0.00     0.000 C 
BRANCH  18  19
HETATM   19  C   UNL     1     -22.711  -9.900   0.210  1.00  0.00     0.004 C 
BRANCH  19  20
HETATM   20  C   UNL     1     -23.727 -10.825  -0.436  1.00  0.00     0.027 C 
BRANCH  20  21
HETATM   21  C   UNL     1     -23.478 -10.932  -1.904  1.00  0.00    -0.031 C 
HETATM   22  C   UNL     1     -22.325 -11.385  -2.413  1.00  0.00    -0.031 C 
BRANCH  22  23
HETATM   23  C   UNL     1     -22.077 -11.488  -3.877  1.00  0.00     0.027 C 
BRANCH  23  24
HETATM   24  C   UNL     1     -21.592 -10.149  -4.426  1.00  0.00     0.004 C 
BRANCH  24  25
HETATM   25  C   UNL     1     -20.782 -10.366  -5.693  1.00  0.00     0.000 C 
BRANCH  25  26
HETATM   26  C   UNL     1     -20.210 -11.780  -5.719  1.00  0.00     0.000 C 
BRANCH  26  27
HETATM   27  C   UNL     1     -19.895 -12.197  -7.148  1.00  0.00     0.000 C 
BRANCH  27  28
HETATM   28  C   UNL     1     -20.821 -13.327  -7.586  1.00  0.00    -0.000 C 
BRANCH  28  29
HETATM   29  C   UNL     1     -21.251 -14.168  -6.390  1.00  0.00    -0.005 C 
HETATM   30  C   UNL     1     -22.473 -15.001  -6.732  1.00  0.00     0.005 C 
ENDBRANCH  28  29
ENDBRANCH  27  28
ENDBRANCH  26  27
ENDBRANCH  25  26
ENDBRANCH  24  25
ENDBRANCH  23  24
ENDBRANCH  22  23
ENDBRANCH  20  21
ENDBRANCH  19  20
ENDBRANCH  18  19
ENDBRANCH  17  18
ENDBRANCH  16  17
ENDBRANCH   1  16
TORSDOF 25
ENDMDL
MODEL 3
REMARK VINA RESULT:      -6.0      1.375      2.152
REMARK  25 active torsions:
REMARK  status: ('A' for Active; 'I' for Inactive)
REMARK    1  A    between atoms: C_2  and  C_3 
REMARK    2  A    between atoms: C_3  and  C_4 
REMARK    3  A    between atoms: C_4  and  C_5 
REMARK    4  A    between atoms: C_5  and  C_6 
REMARK    5  A    between atoms: C_6  and  C_7 
REMARK    6  A    between atoms: C_7  and  C_8 
REMARK    7  A    between atoms: C_8  and  C_9 
REMARK    8  A    between atoms: C_9  and  C_10 
REMARK    9  A    between atoms: C_10  and  O_11 
REMARK   10  A    between atoms: O_11  and  C_12 
REMARK   11  A    between atoms: C_12  and  C_14 
REMARK   12  A    between atoms: C_14  and  C_15 
REMARK   13  A    between atoms: C_15  and  C_16 
REMARK   14  A    between atoms: C_16  and  C_17 
REMARK   15  A    between atoms: C_17  and  C_18 
REMARK   16  A    between atoms: C_18  and  C_19 
REMARK   17  A    between atoms: C_19  and  C_20 
REMARK   18  A    between atoms: C_20  and  C_21 
REMARK   19  A    between atoms: C_22  and  C_23 
REMARK   20  A    between atoms: C_23  and  C_24 
REMARK   21  A    between atoms: C_24  and  C_25 
REMARK   22  A    between atoms: C_25  and  C_26 
REMARK   23  A    between atoms: C_26  and  C_27 
REMARK   24  A    between atoms: C_27  and  C_28 
REMARK   25  A    between atoms: C_28  and  C_29 
ROOT
HETATM    1  C   UNL     1     -21.247  -6.703  -2.615  1.00  0.00     0.010 C 
ENDROOT
BRANCH   1   2
HETATM    2  C   UNL     1     -21.605  -7.977  -3.376  1.00  0.00     0.111 C 
BRANCH   2   3
HETATM    3  C   UNL     1     -21.514  -7.777  -4.867  1.00  0.00     0.258 C 
HETATM    4  O   UNL     1     -21.269  -8.641  -5.695  1.00  0.00    -0.265 OA
BRANCH   3   5
HETATM    5  O   UNL     1     -21.621  -6.447  -5.135  1.00  0.00    -0.321 OA
BRANCH   5   6
HETATM    6  C   UNL     1     -21.000  -6.083  -6.366  1.00  0.00     0.178 C 
BRANCH   6   7
HETATM    7  C   UNL     1     -20.013  -4.941  -6.184  1.00  0.00     0.027 C 
BRANCH   7   8
HETATM    8  C   UNL     1     -20.030  -4.034  -7.414  1.00  0.00     0.002 C 
BRANCH   8   9
HETATM    9  C   UNL     1     -20.085  -4.849  -8.699  1.00  0.00     0.000 C 
BRANCH   9  10
HETATM   10  C   UNL     1     -20.831  -4.093  -9.792  1.00  0.00     0.000 C 
BRANCH  10  11
HETATM   11  C   UNL     1     -22.315  -4.439  -9.767  1.00  0.00     0.000 C 
BRANCH  11  12
HETATM   12  C   UNL     1     -22.870  -4.541 -11.183  1.00  0.00     0.000 C 
BRANCH  12  13
HETATM   13  C   UNL     1     -22.081  -3.647 -12.131  1.00  0.00    -0.000 C 
BRANCH  13  14
HETATM   14  C   UNL     1     -23.013  -2.742 -12.930  1.00  0.00    -0.005 C 
HETATM   15  C   UNL     1     -24.461  -2.983 -12.540  1.00  0.00     0.005 C 
ENDBRANCH  13  14
ENDBRANCH  12  13
ENDBRANCH  11  12
ENDBRANCH  10  11
ENDBRANCH   9  10
ENDBRANCH   8   9
ENDBRANCH   7   8
ENDBRANCH   6   7
ENDBRANCH   5   6
ENDBRANCH   3   5
ENDBRANCH   2   3
ENDBRANCH   1   2
BRANCH   1  16
HETATM   16  C   UNL     1     -22.169  -6.445  -1.426  1.00  0.00     0.000 C 
BRANCH  16  17
HETATM   17  C   UNL     1     -22.546  -7.743  -0.718  1.00  0.00     0.000 C 
BRANCH  17  18
HETATM   18  C   UNL     1     -21.959  -7.801   0.682  1.00  0.00     0.000 C 
BRANCH  18  19
HETATM   19  C   UNL     1     -21.132  -9.068   0.854  1.00  0.00     0.004 C 
BRANCH  19  20
HETATM   20  C   UNL     1     -21.763 -10.213   0.082  1.00  0.00     0.027 C 
BRANCH  20  21
HETATM   21  C   UNL     1     -20.751 -10.878  -0.789  1.00  0.00    -0.031 C 
HETATM   22  C   UNL     1     -19.740 -10.213  -1.365  1.00  0.00    -0.031 C 
BRANCH  22  23
HETATM   23  C   UNL     1     -18.732 -10.878  -2.235  1.00  0.00     0.027 C 
BRANCH  23  24
HETATM   24  C   UNL     1     -19.042 -10.603  -3.705  1.00  0.00     0.004 C 
BRANCH  24  25
HETATM   25  C   UNL     1     -18.041  -9.613  -4.274  1.00  0.00     0.000 C 
BRANCH  25  26
HETATM   26  C   UNL     1     -17.863  -9.839  -5.772  1.00  0.00     0.000 C 
BRANCH  26  27
HETATM   27  C   UNL     1     -16.543 -10.545  -6.048  1.00  0.00     0.000 C 
BRANCH  27  28
HETATM   28  C   UNL     1     -15.563 -10.297  -4.907  1.00  0.00    -0.000 C 
BRANCH  28  29
HETATM   29  C   UNL     1     -14.876 -11.594  -4.494  1.00  0.00    -0.005 C 
HETATM   30  C   UNL     1     -15.262 -11.977  -3.077  1.00  0.00     0.005 C 
ENDBRANCH  28  29
ENDBRANCH  27  28
ENDBRANCH  26  27
ENDBRANCH  25  26
ENDBRANCH  24  25
ENDBRANCH  23  24
ENDBRANCH  22  23
ENDBRANCH  20  21
ENDBRANCH  19  20
ENDBRANCH  18  19
ENDBRANCH  17  18
ENDBRANCH  16  17
ENDBRANCH   1  16
TORSDOF 25
ENDMDL
MODEL 4
REMARK VINA RESULT:      -5.9      2.279      7.860
REMARK  25 active torsions:
REMARK  status: ('A' for Active; 'I' for Inactive)
REMARK    1  A    between atoms: C_2  and  C_3 
REMARK    2  A    between atoms: C_3  and  C_4 
REMARK    3  A    between atoms: C_4  and  C_5 
REMARK    4  A    between atoms: C_5  and  C_6 
REMARK    5  A    between atoms: C_6  and  C_7 
REMARK    6  A    between atoms: C_7  and  C_8 
REMARK    7  A    between atoms: C_8  and  C_9 
REMARK    8  A    between atoms: C_9  and  C_10 
REMARK    9  A    between atoms: C_10  and  O_11 
REMARK   10  A    between atoms: O_11  and  C_12 
REMARK   11  A    between atoms: C_12  and  C_14 
REMARK   12  A    between atoms: C_14  and  C_15 
REMARK   13  A    between atoms: C_15  and  C_16 
REMARK   14  A    between atoms: C_16  and  C_17 
REMARK   15  A    between atoms: C_17  and  C_18 
REMARK   16  A    between atoms: C_18  and  C_19 
REMARK   17  A    between atoms: C_19  and  C_20 
REMARK   18  A    between atoms: C_20  and  C_21 
REMARK   19  A    between atoms: C_22  and  C_23 
REMARK   20  A    between atoms: C_23  and  C_24 
REMARK   21  A    between atoms: C_24  and  C_25 
REMARK   22  A    between atoms: C_25  and  C_26 
REMARK   23  A    between atoms: C_26  and  C_27 
REMARK   24  A    between atoms: C_27  and  C_28 
REMARK   25  A    between atoms: C_28  and  C_29 
ROOT
HETATM    1  C   UNL     1     -23.632 -11.501   0.093  1.00  0.00     0.010 C 
ENDROOT
BRANCH   1   2
HETATM    2  C   UNL     1     -23.909 -12.290  -1.185  1.00  0.00     0.111 C 
BRANCH   2   3
HETATM    3  C   UNL     1     -22.664 -12.963  -1.701  1.00  0.00     0.258 C 
HETATM    4  O   UNL     1     -21.719 -13.346  -1.027  1.00  0.00    -0.265 OA
BRANCH   3   5
HETATM    5  O   UNL     1     -22.700 -12.961  -3.062  1.00  0.00    -0.321 OA
BRANCH   5   6
HETATM    6  C   UNL     1     -21.579 -12.296  -3.641  1.00  0.00     0.178 C 
BRANCH   6   7
HETATM    7  C   UNL     1     -21.853 -10.818  -3.866  1.00  0.00     0.027 C 
BRANCH   7   8
HETATM    8  C   UNL     1     -21.150 -10.343  -5.136  1.00  0.00     0.002 C 
BRANCH   8   9
HETATM    9  C   UNL     1     -19.736 -10.904  -5.226  1.00  0.00     0.000 C 
BRANCH   9  10
HETATM   10  C   UNL     1     -18.701  -9.810  -4.988  1.00  0.00     0.000 C 
BRANCH  10  11
HETATM   11  C   UNL     1     -18.787  -9.292  -3.557  1.00  0.00     0.000 C 
BRANCH  11  12
HETATM   12  C   UNL     1     -17.493  -9.575  -2.802  1.00  0.00     0.000 C 
BRANCH  12  13
HETATM   13  C   UNL     1     -16.319  -9.663  -3.768  1.00  0.00    -0.000 C 
BRANCH  13  14
HETATM   14  C   UNL     1     -15.550 -10.965  -3.574  1.00  0.00    -0.005 C 
HETATM   15  C   UNL     1     -15.192 -11.584  -4.914  1.00  0.00     0.005 C 
ENDBRANCH  13  14
ENDBRANCH  12  13
ENDBRANCH  11  12
ENDBRANCH  10  11
ENDBRANCH   9  10
ENDBRANCH   8   9
ENDBRANCH   7   8
ENDBRANCH   6   7
ENDBRANCH   5   6
ENDBRANCH   3   5
ENDBRANCH   2   3
ENDBRANCH   1   2
BRANCH   1  16
HETATM   16  C   UNL     1     -23.360 -10.022  -0.173  1.00  0.00     0.000 C 
BRANCH  16  17
HETATM   17  C   UNL     1     -21.877  -9.693  -0.038  1.00  0.00     0.000 C 
BRANCH  17  18
HETATM   18  C   UNL     1     -21.478  -8.544  -0.950  1.00  0.00     0.000 C 
BRANCH  18  19
HETATM   19  C   UNL     1     -22.233  -7.279  -0.563  1.00  0.00     0.004 C 
BRANCH  19  20
HETATM   20  C   UNL     1     -22.196  -6.279  -1.705  1.00  0.00     0.027 C 
BRANCH  20  21
HETATM   21  C   UNL     1     -21.740  -6.939  -2.964  1.00  0.00    -0.031 C 
HETATM   22  C   UNL     1     -21.473  -6.256  -4.085  1.00  0.00    -0.031 C 
BRANCH  22  23
HETATM   23  C   UNL     1     -21.021  -6.915  -5.340  1.00  0.00     0.027 C 
BRANCH  23  24
HETATM   24  C   UNL     1     -19.943  -6.073  -6.020  1.00  0.00     0.004 C 
BRANCH  24  25
HETATM   25  C   UNL     1     -20.370  -5.721  -7.435  1.00  0.00     0.000 C 
BRANCH  25  26
HETATM   26  C   UNL     1     -20.198  -4.226  -7.684  1.00  0.00     0.000 C 
BRANCH  26  27
HETATM   27  C   UNL     1     -21.494  -3.487  -7.387  1.00  0.00     0.000 C 
BRANCH  27  28
HETATM   28  C   UNL     1     -22.690  -4.299  -7.873  1.00  0.00    -0.000 C 
BRANCH  28  29
HETATM   29  C   UNL     1     -23.237  -3.728  -9.176  1.00  0.00    -0.005 C 
HETATM   30  C   UNL     1     -23.579  -4.843 -10.147  1.00  0.00     0.005 C 
ENDBRANCH  28  29
ENDBRANCH  27  28
ENDBRANCH  26  27
ENDBRANCH  25  26
ENDBRANCH  24  25
ENDBRANCH  23  24
ENDBRANCH  22  23
ENDBRANCH  20  21
ENDBRANCH  19  20
ENDBRANCH  18  19
ENDBRANCH  17  18
ENDBRANCH  16  17
ENDBRANCH   1  16
TORSDOF 25
ENDMDL
MODEL 5
REMARK VINA RESULT:      -5.9     14.443     17.211
REMARK  25 active torsions:
REMARK  status: ('A' for Active; 'I' for Inactive)
REMARK    1  A    between atoms: C_2  and  C_3 
REMARK    2  A    between atoms: C_3  and  C_4 
REMARK    3  A    between atoms: C_4  and  C_5 
REMARK    4  A    between atoms: C_5  and  C_6 
REMARK    5  A    between atoms: C_6  and  C_7 
REMARK    6  A    between atoms: C_7  and  C_8 
REMARK    7  A    between atoms: C_8  and  C_9 
REMARK    8  A    between atoms: C_9  and  C_10 
REMARK    9  A    between atoms: C_10  and  O_11 
REMARK   10  A    between atoms: O_11  and  C_12 
REMARK   11  A    between atoms: C_12  and  C_14 
REMARK   12  A    between atoms: C_14  and  C_15 
REMARK   13  A    between atoms: C_15  and  C_16 
REMARK   14  A    between atoms: C_16  and  C_17 
REMARK   15  A    between atoms: C_17  and  C_18 
REMARK   16  A    between atoms: C_18  and  C_19 
REMARK   17  A    between atoms: C_19  and  C_20 
REMARK   18  A    between atoms: C_20  and  C_21 
REMARK   19  A    between atoms: C_22  and  C_23 
REMARK   20  A    between atoms: C_23  and  C_24 
REMARK   21  A    between atoms: C_24  and  C_25 
REMARK   22  A    between atoms: C_25  and  C_26 
REMARK   23  A    between atoms: C_26  and  C_27 
REMARK   24  A    between atoms: C_27  and  C_28 
REMARK   25  A    between atoms: C_28  and  C_29 
ROOT
HETATM    1  C   UNL     1     -33.830  -2.644 -17.195  1.00  0.00     0.010 C 
ENDROOT
BRANCH   1   2
HETATM    2  C   UNL     1     -35.257  -2.521 -16.667  1.00  0.00     0.111 C 
BRANCH   2   3
HETATM    3  C   UNL     1     -35.638  -1.083 -16.428  1.00  0.00     0.258 C 
HETATM    4  O   UNL     1     -36.626  -0.516 -16.871  1.00  0.00    -0.265 OA
BRANCH   3   5
HETATM    5  O   UNL     1     -34.632  -0.474 -15.742  1.00  0.00    -0.321 OA
BRANCH   5   6
HETATM    6  C   UNL     1     -35.058   0.716 -15.082  1.00  0.00     0.178 C 
BRANCH   6   7
HETATM    7  C   UNL     1     -35.744   0.414 -13.759  1.00  0.00     0.027 C 
BRANCH   7   8
HETATM    8  C   UNL     1     -34.702   0.062 -12.699  1.00  0.00     0.002 C 
BRANCH   8   9
HETATM    9  C   UNL     1     -34.962  -1.318 -12.109  1.00  0.00     0.000 C 
BRANCH   9  10
HETATM   10  C   UNL     1     -34.004  -1.607 -10.958  1.00  0.00     0.000 C 
BRANCH  10  11
HETATM   11  C   UNL     1     -33.990  -3.096 -10.633  1.00  0.00     0.000 C 
BRANCH  11  12
HETATM   12  C   UNL     1     -33.142  -3.861 -11.643  1.00  0.00     0.000 C 
BRANCH  12  13
HETATM   13  C   UNL     1     -33.209  -5.358 -11.373  1.00  0.00    -0.000 C 
BRANCH  13  14
HETATM   14  C   UNL     1     -34.129  -5.658 -10.195  1.00  0.00    -0.005 C 
HETATM   15  C   UNL     1     -34.620  -7.094 -10.247  1.00  0.00     0.005 C 
ENDBRANCH  13  14
ENDBRANCH  12  13
ENDBRANCH  11  12
ENDBRANCH  10  11
ENDBRANCH   9  10
ENDBRANCH   8   9
ENDBRANCH   7   8
ENDBRANCH   6   7
ENDBRANCH   5   6
ENDBRANCH   3   5
ENDBRANCH   2   3
ENDBRANCH   1   2
BRANCH   1  16
HETATM   16  C   UNL     1     -33.172  -3.969 -16.817  1.00  0.00     0.000 C 
BRANCH  16  17
HETATM   17  C   UNL     1     -31.705  -4.005 -17.232  1.00  0.00     0.000 C 
BRANCH  17  18
HETATM   18  C   UNL     1     -31.019  -5.267 -16.737  1.00  0.00     0.000 C 
BRANCH  18  19
HETATM   19  C   UNL     1     -31.670  -6.498 -17.355  1.00  0.00     0.004 C 
BRANCH  19  20
HETATM   20  C   UNL     1     -30.615  -7.377 -18.003  1.00  0.00     0.027 C 
BRANCH  20  21
HETATM   21  C   UNL     1     -29.247  -6.860 -17.705  1.00  0.00    -0.031 C 
HETATM   22  C   UNL     1     -28.366  -6.544 -18.663  1.00  0.00    -0.031 C 
BRANCH  22  23
HETATM   23  C   UNL     1     -27.001  -6.031 -18.364  1.00  0.00     0.027 C 
BRANCH  23  24
HETATM   24  C   UNL     1     -25.989  -6.623 -19.342  1.00  0.00     0.004 C 
BRANCH  24  25
HETATM   25  C   UNL     1     -26.705  -7.192 -20.555  1.00  0.00     0.000 C 
BRANCH  25  26
HETATM   26  C   UNL     1     -25.807  -8.187 -21.282  1.00  0.00     0.000 C 
BRANCH  26  27
HETATM   27  C   UNL     1     -24.376  -7.669 -21.334  1.00  0.00     0.000 C 
BRANCH  27  28
HETATM   28  C   UNL     1     -23.830  -7.764 -22.754  1.00  0.00    -0.000 C 
BRANCH  28  29
HETATM   29  C   UNL     1     -22.580  -8.635 -22.796  1.00  0.00    -0.005 C 
HETATM   30  C   UNL     1     -21.992  -8.796 -21.406  1.00  0.00     0.005 C 
ENDBRANCH  28  29
ENDBRANCH  27  28
ENDBRANCH  26  27
ENDBRANCH  25  26
ENDBRANCH  24  25
ENDBRANCH  23  24
ENDBRANCH  22  23
ENDBRANCH  20  21
ENDBRANCH  19  20
ENDBRANCH  18  19
ENDBRANCH  17  18
ENDBRANCH  16  17
ENDBRANCH   1  16
TORSDOF 25
ENDMDL
MODEL 6
REMARK VINA RESULT:      -5.8      2.493      7.950
REMARK  25 active torsions:
REMARK  status: ('A' for Active; 'I' for Inactive)
REMARK    1  A    between atoms: C_2  and  C_3 
REMARK    2  A    between atoms: C_3  and  C_4 
REMARK    3  A    between atoms: C_4  and  C_5 
REMARK    4  A    between atoms: C_5  and  C_6 
REMARK    5  A    between atoms: C_6  and  C_7 
REMARK    6  A    between atoms: C_7  and  C_8 
REMARK    7  A    between atoms: C_8  and  C_9 
REMARK    8  A    between atoms: C_9  and  C_10 
REMARK    9  A    between atoms: C_10  and  O_11 
REMARK   10  A    between atoms: O_11  and  C_12 
REMARK   11  A    between atoms: C_12  and  C_14 
REMARK   12  A    between atoms: C_14  and  C_15 
REMARK   13  A    between atoms: C_15  and  C_16 
REMARK   14  A    between atoms: C_16  and  C_17 
REMARK   15  A    between atoms: C_17  and  C_18 
REMARK   16  A    between atoms: C_18  and  C_19 
REMARK   17  A    between atoms: C_19  and  C_20 
REMARK   18  A    between atoms: C_20  and  C_21 
REMARK   19  A    between atoms: C_22  and  C_23 
REMARK   20  A    between atoms: C_23  and  C_24 
REMARK   21  A    between atoms: C_24  and  C_25 
REMARK   22  A    between atoms: C_25  and  C_26 
REMARK   23  A    between atoms: C_26  and  C_27 
REMARK   24  A    between atoms: C_27  and  C_28 
REMARK   25  A    between atoms: C_28  and  C_29 
ROOT
HETATM    1  C   UNL     1     -23.058 -10.166  -0.695  1.00  0.00     0.010 C 
ENDROOT
BRANCH   1   2
HETATM    2  C   UNL     1     -23.988 -11.375  -0.740  1.00  0.00     0.111 C 
BRANCH   2   3
HETATM    3  C   UNL     1     -23.220 -12.669  -0.665  1.00  0.00     0.258 C 
HETATM    4  O   UNL     1     -23.662 -13.783  -0.903  1.00  0.00    -0.265 OA
BRANCH   3   5
HETATM    5  O   UNL     1     -21.983 -12.412  -0.159  1.00  0.00    -0.321 OA
BRANCH   5   6
HETATM    6  C   UNL     1     -20.981 -13.277  -0.691  1.00  0.00     0.178 C 
BRANCH   6   7
HETATM    7  C   UNL     1     -20.222 -12.624  -1.836  1.00  0.00     0.027 C 
BRANCH   7   8
HETATM    8  C   UNL     1     -19.194 -11.637  -1.286  1.00  0.00     0.002 C 
BRANCH   8   9
HETATM    9  C   UNL     1     -19.435 -10.233  -1.825  1.00  0.00     0.000 C 
BRANCH   9  10
HETATM   10  C   UNL     1     -18.210  -9.720  -2.573  1.00  0.00     0.000 C 
BRANCH  10  11
HETATM   11  C   UNL     1     -18.283 -10.102  -4.047  1.00  0.00     0.000 C 
BRANCH  11  12
HETATM   12  C   UNL     1     -19.524  -9.503  -4.699  1.00  0.00     0.000 C 
BRANCH  12  13
HETATM   13  C   UNL     1     -20.210 -10.532  -5.587  1.00  0.00    -0.000 C 
BRANCH  13  14
HETATM   14  C   UNL     1     -21.428 -11.128  -4.889  1.00  0.00    -0.005 C 
HETATM   15  C   UNL     1     -22.138 -10.078  -4.054  1.00  0.00     0.005 C 
ENDBRANCH  13  14
ENDBRANCH  12  13
ENDBRANCH  11  12
ENDBRANCH  10  11
ENDBRANCH   9  10
ENDBRANCH   8   9
ENDBRANCH   7   8
ENDBRANCH   6   7
ENDBRANCH   5   6
ENDBRANCH   3   5
ENDBRANCH   2   3
ENDBRANCH   1   2
BRANCH   1  16
HETATM   16  C   UNL     1     -23.453  -9.156   0.380  1.00  0.00     0.000 C 
BRANCH  16  17
HETATM   17  C   UNL     1     -22.378  -8.090   0.570  1.00  0.00     0.000 C 
BRANCH  17  18
HETATM   18  C   UNL     1     -21.678  -7.767  -0.739  1.00  0.00     0.000 C 
BRANCH  18  19
HETATM   19  C   UNL     1     -22.378  -6.609  -1.438  1.00  0.00     0.004 C 
BRANCH  19  20
HETATM   20  C   UNL     1     -21.409  -5.893  -2.362  1.00  0.00     0.027 C 
BRANCH  20  21
HETATM   21  C   UNL     1     -21.397  -6.536  -3.708  1.00  0.00    -0.031 C 
HETATM   22  C   UNL     1     -21.096  -5.867  -4.829  1.00  0.00    -0.031 C 
BRANCH  22  23
HETATM   23  C   UNL     1     -21.086  -6.510  -6.171  1.00  0.00     0.027 C 
BRANCH  23  24
HETATM   24  C   UNL     1     -20.042  -5.847  -7.067  1.00  0.00     0.004 C 
BRANCH  24  25
HETATM   25  C   UNL     1     -20.398  -4.387  -7.291  1.00  0.00     0.000 C 
BRANCH  25  26
HETATM   26  C   UNL     1     -19.744  -3.873  -8.569  1.00  0.00     0.000 C 
BRANCH  26  27
HETATM   27  C   UNL     1     -20.209  -4.689  -9.767  1.00  0.00     0.000 C 
BRANCH  27  28
HETATM   28  C   UNL     1     -20.578  -3.768 -10.924  1.00  0.00    -0.000 C 
BRANCH  28  29
HETATM   29  C   UNL     1     -22.058  -3.405 -10.876  1.00  0.00    -0.005 C 
HETATM   30  C   UNL     1     -22.884  -4.586 -10.401  1.00  0.00     0.005 C 
ENDBRANCH  28  29
ENDBRANCH  27  28
ENDBRANCH  26  27
ENDBRANCH  25  26
ENDBRANCH  24  25
ENDBRANCH  23  24
ENDBRANCH  22  23
ENDBRANCH  20  21
ENDBRANCH  19  20
ENDBRANCH  18  19
ENDBRANCH  17  18
ENDBRANCH  16  17
ENDBRANCH   1  16
TORSDOF 25
ENDMDL
MODEL 7
REMARK VINA RESULT:      -5.7      2.495      3.778
REMARK  25 active torsions:
REMARK  status: ('A' for Active; 'I' for Inactive)
REMARK    1  A    between atoms: C_2  and  C_3 
REMARK    2  A    between atoms: C_3  and  C_4 
REMARK    3  A    between atoms: C_4  and  C_5 
REMARK    4  A    between atoms: C_5  and  C_6 
REMARK    5  A    between atoms: C_6  and  C_7 
REMARK    6  A    between atoms: C_7  and  C_8 
REMARK    7  A    between atoms: C_8  and  C_9 
REMARK    8  A    between atoms: C_9  and  C_10 
REMARK    9  A    between atoms: C_10  and  O_11 
REMARK   10  A    between atoms: O_11  and  C_12 
REMARK   11  A    between atoms: C_12  and  C_14 
REMARK   12  A    between atoms: C_14  and  C_15 
REMARK   13  A    between atoms: C_15  and  C_16 
REMARK   14  A    between atoms: C_16  and  C_17 
REMARK   15  A    between atoms: C_17  and  C_18 
REMARK   16  A    between atoms: C_18  and  C_19 
REMARK   17  A    between atoms: C_19  and  C_20 
REMARK   18  A    between atoms: C_20  and  C_21 
REMARK   19  A    between atoms: C_22  and  C_23 
REMARK   20  A    between atoms: C_23  and  C_24 
REMARK   21  A    between atoms: C_24  and  C_25 
REMARK   22  A    between atoms: C_25  and  C_26 
REMARK   23  A    between atoms: C_26  and  C_27 
REMARK   24  A    between atoms: C_27  and  C_28 
REMARK   25  A    between atoms: C_28  and  C_29 
ROOT
HETATM    1  C   UNL     1     -21.353  -9.393  -1.074  1.00  0.00     0.010 C 
ENDROOT
BRANCH   1   2
HETATM    2  C   UNL     1     -21.042  -7.933  -1.396  1.00  0.00     0.111 C 
BRANCH   2   3
HETATM    3  C   UNL     1     -22.244  -7.050  -1.183  1.00  0.00     0.258 C 
HETATM    4  O   UNL     1     -23.059  -7.149  -0.278  1.00  0.00    -0.265 OA
BRANCH   3   5
HETATM    5  O   UNL     1     -22.351  -6.198  -2.240  1.00  0.00    -0.321 OA
BRANCH   5   6
HETATM    6  C   UNL     1     -21.459  -6.527  -3.303  1.00  0.00     0.178 C 
BRANCH   6   7
HETATM    7  C   UNL     1     -22.178  -6.609  -4.639  1.00  0.00     0.027 C 
BRANCH   7   8
HETATM    8  C   UNL     1     -21.193  -6.362  -5.780  1.00  0.00     0.002 C 
BRANCH   8   9
HETATM    9  C   UNL     1     -20.475  -5.029  -5.609  1.00  0.00     0.000 C 
BRANCH   9  10
HETATM   10  C   UNL     1     -20.691  -4.135  -6.825  1.00  0.00     0.000 C 
BRANCH  10  11
HETATM   11  C   UNL     1     -22.038  -4.430  -7.475  1.00  0.00     0.000 C 
BRANCH  11  12
HETATM   12  C   UNL     1     -21.975  -4.190  -8.979  1.00  0.00     0.000 C 
BRANCH  12  13
HETATM   13  C   UNL     1     -20.541  -4.308  -9.479  1.00  0.00    -0.000 C 
BRANCH  13  14
HETATM   14  C   UNL     1     -20.482  -4.185 -10.998  1.00  0.00    -0.005 C 
HETATM   15  C   UNL     1     -21.546  -3.227 -11.502  1.00  0.00     0.005 C 
ENDBRANCH  13  14
ENDBRANCH  12  13
ENDBRANCH  11  12
ENDBRANCH  10  11
ENDBRANCH   9  10
ENDBRANCH   8   9
ENDBRANCH   7   8
ENDBRANCH   6   7
ENDBRANCH   5   6
ENDBRANCH   3   5
ENDBRANCH   2   3
ENDBRANCH   1   2
BRANCH   1  16
HETATM   16  C   UNL     1     -21.861 -10.169  -2.286  1.00  0.00     0.000 C 
BRANCH  16  17
HETATM   17  C   UNL     1     -23.187 -10.865  -1.991  1.00  0.00     0.000 C 
BRANCH  17  18
HETATM   18  C   UNL     1     -23.627 -10.632  -0.555  1.00  0.00     0.000 C 
BRANCH  18  19
HETATM   19  C   UNL     1     -23.727 -11.959   0.186  1.00  0.00     0.004 C 
BRANCH  19  20
HETATM   20  C   UNL     1     -23.944 -13.093  -0.800  1.00  0.00     0.027 C 
BRANCH  20  21
HETATM   21  C   UNL     1     -22.799 -14.050  -0.757  1.00  0.00    -0.031 C 
HETATM   22  C   UNL     1     -21.587 -13.710  -0.299  1.00  0.00    -0.031 C 
BRANCH  22  23
HETATM   23  C   UNL     1     -20.445 -14.663  -0.260  1.00  0.00     0.027 C 
BRANCH  23  24
HETATM   24  C   UNL     1     -19.157 -13.930   0.110  1.00  0.00     0.004 C 
BRANCH  24  25
HETATM   25  C   UNL     1     -19.322 -12.438  -0.120  1.00  0.00     0.000 C 
BRANCH  25  26
HETATM   26  C   UNL     1     -17.958 -11.772  -0.275  1.00  0.00     0.000 C 
BRANCH  26  27
HETATM   27  C   UNL     1     -17.761 -11.299  -1.708  1.00  0.00     0.000 C 
BRANCH  27  28
HETATM   28  C   UNL     1     -16.278 -11.102  -2.001  1.00  0.00    -0.000 C 
BRANCH  28  29
HETATM   29  C   UNL     1     -16.032  -9.754  -2.669  1.00  0.00    -0.005 C 
HETATM   30  C   UNL     1     -16.214  -9.859  -4.172  1.00  0.00     0.005 C 
ENDBRANCH  28  29
ENDBRANCH  27  28
ENDBRANCH  26  27
ENDBRANCH  25  26
ENDBRANCH  24  25
ENDBRANCH  23  24
ENDBRANCH  22  23
ENDBRANCH  20  21
ENDBRANCH  19  20
ENDBRANCH  18  19
ENDBRANCH  17  18
ENDBRANCH  16  17
ENDBRANCH   1  16
TORSDOF 25
ENDMDL
MODEL 8
REMARK VINA RESULT:      -5.7      1.688      2.436
REMARK  25 active torsions:
REMARK  status: ('A' for Active; 'I' for Inactive)
REMARK    1  A    between atoms: C_2  and  C_3 
REMARK    2  A    between atoms: C_3  and  C_4 
REMARK    3  A    between atoms: C_4  and  C_5 
REMARK    4  A    between atoms: C_5  and  C_6 
REMARK    5  A    between atoms: C_6  and  C_7 
REMARK    6  A    between atoms: C_7  and  C_8 
REMARK    7  A    between atoms: C_8  and  C_9 
REMARK    8  A    between atoms: C_9  and  C_10 
REMARK    9  A    between atoms: C_10  and  O_11 
REMARK   10  A    between atoms: O_11  and  C_12 
REMARK   11  A    between atoms: C_12  and  C_14 
REMARK   12  A    between atoms: C_14  and  C_15 
REMARK   13  A    between atoms: C_15  and  C_16 
REMARK   14  A    between atoms: C_16  and  C_17 
REMARK   15  A    between atoms: C_17  and  C_18 
REMARK   16  A    between atoms: C_18  and  C_19 
REMARK   17  A    between atoms: C_19  and  C_20 
REMARK   18  A    between atoms: C_20  and  C_21 
REMARK   19  A    between atoms: C_22  and  C_23 
REMARK   20  A    between atoms: C_23  and  C_24 
REMARK   21  A    between atoms: C_24  and  C_25 
REMARK   22  A    between atoms: C_25  and  C_26 
REMARK   23  A    between atoms: C_26  and  C_27 
REMARK   24  A    between atoms: C_27  and  C_28 
REMARK   25  A    between atoms: C_28  and  C_29 
ROOT
HETATM    1  C   UNL     1     -21.109  -7.002  -2.317  1.00  0.00     0.010 C 
ENDROOT
BRANCH   1   2
HETATM    2  C   UNL     1     -21.545  -7.753  -3.573  1.00  0.00     0.111 C 
BRANCH   2   3
HETATM    3  C   UNL     1     -21.836  -6.809  -4.710  1.00  0.00     0.258 C 
HETATM    4  O   UNL     1     -22.889  -6.220  -4.906  1.00  0.00    -0.265 OA
BRANCH   3   5
HETATM    5  O   UNL     1     -20.776  -6.817  -5.565  1.00  0.00    -0.321 OA
BRANCH   5   6
HETATM    6  C   UNL     1     -20.953  -5.930  -6.668  1.00  0.00     0.178 C 
BRANCH   6   7
HETATM    7  C   UNL     1     -20.113  -4.672  -6.521  1.00  0.00     0.027 C 
BRANCH   7   8
HETATM    8  C   UNL     1     -20.127  -3.879  -7.827  1.00  0.00     0.002 C 
BRANCH   8   9
HETATM    9  C   UNL     1     -20.065  -4.805  -9.035  1.00  0.00     0.000 C 
BRANCH   9  10
HETATM   10  C   UNL     1     -21.008  -4.330 -10.134  1.00  0.00     0.000 C 
BRANCH  10  11
HETATM   11  C   UNL     1     -22.388  -4.026  -9.562  1.00  0.00     0.000 C 
BRANCH  11  12
HETATM   12  C   UNL     1     -23.330  -3.535 -10.656  1.00  0.00     0.000 C 
BRANCH  12  13
HETATM   13  C   UNL     1     -22.539  -2.945 -11.816  1.00  0.00    -0.000 C 
BRANCH  13  14
HETATM   14  C   UNL     1     -23.472  -2.454 -12.918  1.00  0.00    -0.005 C 
HETATM   15  C   UNL     1     -22.947  -2.851 -14.286  1.00  0.00     0.005 C 
ENDBRANCH  13  14
ENDBRANCH  12  13
ENDBRANCH  11  12
ENDBRANCH  10  11
ENDBRANCH   9  10
ENDBRANCH   8   9
ENDBRANCH   7   8
ENDBRANCH   6   7
ENDBRANCH   5   6
ENDBRANCH   3   5
ENDBRANCH   2   3
ENDBRANCH   1   2
BRANCH   1  16
HETATM   16  C   UNL     1     -22.289  -6.541  -1.465  1.00  0.00     0.000 C 
BRANCH  16  17
HETATM   17  C   UNL     1     -22.668  -7.585  -0.420  1.00  0.00     0.000 C 
BRANCH  17  18
HETATM   18  C   UNL     1     -21.528  -7.837   0.552  1.00  0.00     0.000 C 
BRANCH  18  19
HETATM   19  C   UNL     1     -21.312  -9.333   0.735  1.00  0.00     0.004 C 
BRANCH  19  20
HETATM   20  C   UNL     1     -21.965 -10.098  -0.403  1.00  0.00     0.027 C 
BRANCH  20  21
HETATM   21  C   UNL     1     -20.929 -10.727  -1.274  1.00  0.00    -0.031 C 
HETATM   22  C   UNL     1     -20.202 -11.784  -0.888  1.00  0.00    -0.031 C 
BRANCH  22  23
HETATM   23  C   UNL     1     -19.167 -12.409  -1.756  1.00  0.00     0.027 C 
BRANCH  23  24
HETATM   24  C   UNL     1     -18.064 -13.026  -0.900  1.00  0.00     0.004 C 
BRANCH  24  25
HETATM   25  C   UNL     1     -17.100 -11.948  -0.433  1.00  0.00     0.000 C 
BRANCH  25  26
HETATM   26  C   UNL     1     -15.912 -11.852  -1.384  1.00  0.00     0.000 C 
BRANCH  26  27
HETATM   27  C   UNL     1     -15.915 -10.509  -2.101  1.00  0.00     0.000 C 
BRANCH  27  28
HETATM   28  C   UNL     1     -15.585 -10.697  -3.578  1.00  0.00    -0.000 C 
BRANCH  28  29
HETATM   29  C   UNL     1     -16.613  -9.992  -4.455  1.00  0.00    -0.005 C 
HETATM   30  C   UNL     1     -16.106  -9.865  -5.879  1.00  0.00     0.005 C 
ENDBRANCH  28  29
ENDBRANCH  27  28
ENDBRANCH  26  27
ENDBRANCH  25  26
ENDBRANCH  24  25
ENDBRANCH  23  24
ENDBRANCH  22  23
ENDBRANCH  20  21
ENDBRANCH  19  20
ENDBRANCH  18  19
ENDBRANCH  17  18
ENDBRANCH  16  17
ENDBRANCH   1  16
TORSDOF 25
ENDMDL
MODEL 9
REMARK VINA RESULT:      -5.7     17.029     19.880
REMARK  25 active torsions:
REMARK  status: ('A' for Active; 'I' for Inactive)
REMARK    1  A    between atoms: C_2  and  C_3 
REMARK    2  A    between atoms: C_3  and  C_4 
REMARK    3  A    between atoms: C_4  and  C_5 
REMARK    4  A    between atoms: C_5  and  C_6 
REMARK    5  A    between atoms: C_6  and  C_7 
REMARK    6  A    between atoms: C_7  and  C_8 
REMARK    7  A    between atoms: C_8  and  C_9 
REMARK    8  A    between atoms: C_9  and  C_10 
REMARK    9  A    between atoms: C_10  and  O_11 
REMARK   10  A    between atoms: O_11  and  C_12 
REMARK   11  A    between atoms: C_12  and  C_14 
REMARK   12  A    between atoms: C_14  and  C_15 
REMARK   13  A    between atoms: C_15  and  C_16 
REMARK   14  A    between atoms: C_16  and  C_17 
REMARK   15  A    between atoms: C_17  and  C_18 
REMARK   16  A    between atoms: C_18  and  C_19 
REMARK   17  A    between atoms: C_19  and  C_20 
REMARK   18  A    between atoms: C_20  and  C_21 
REMARK   19  A    between atoms: C_22  and  C_23 
REMARK   20  A    between atoms: C_23  and  C_24 
REMARK   21  A    between atoms: C_24  and  C_25 
REMARK   22  A    between atoms: C_25  and  C_26 
REMARK   23  A    between atoms: C_26  and  C_27 
REMARK   24  A    between atoms: C_27  and  C_28 
REMARK   25  A    between atoms: C_28  and  C_29 
ROOT
HETATM    1  C   UNL     1     -18.114   9.897   2.616  1.00  0.00     0.010 C 
ENDROOT
BRANCH   1   2
HETATM    2  C   UNL     1     -17.393  10.178   3.932  1.00  0.00     0.111 C 
BRANCH   2   3
HETATM    3  C   UNL     1     -17.895   9.290   5.041  1.00  0.00     0.258 C 
HETATM    4  O   UNL     1     -18.991   8.752   5.093  1.00  0.00    -0.265 OA
BRANCH   3   5
HETATM    5  O   UNL     1     -16.977   9.287   6.046  1.00  0.00    -0.321 OA
BRANCH   5   6
HETATM    6  C   UNL     1     -16.438  10.583   6.302  1.00  0.00     0.178 C 
BRANCH   6   7
HETATM    7  C   UNL     1     -14.977  10.515   6.718  1.00  0.00     0.027 C 
BRANCH   7   8
HETATM    8  C   UNL     1     -14.468   9.079   6.604  1.00  0.00     0.002 C 
BRANCH   8   9
HETATM    9  C   UNL     1     -13.234   9.001   5.715  1.00  0.00     0.000 C 
BRANCH   9  10
HETATM   10  C   UNL     1     -13.613   9.143   4.245  1.00  0.00     0.000 C 
BRANCH  10  11
HETATM   11  C   UNL     1     -14.495   7.980   3.804  1.00  0.00     0.000 C 
BRANCH  11  12
HETATM   12  C   UNL     1     -14.817   8.081   2.318  1.00  0.00     0.000 C 
BRANCH  12  13
HETATM   13  C   UNL     1     -13.846   9.026   1.623  1.00  0.00    -0.000 C 
BRANCH  13  14
HETATM   14  C   UNL     1     -14.588   9.994   0.708  1.00  0.00    -0.005 C 
HETATM   15  C   UNL     1     -14.846  11.313   1.414  1.00  0.00     0.005 C 
ENDBRANCH  13  14
ENDBRANCH  12  13
ENDBRANCH  11  12
ENDBRANCH  10  11
ENDBRANCH   9  10
ENDBRANCH   8   9
ENDBRANCH   7   8
ENDBRANCH   6   7
ENDBRANCH   5   6
ENDBRANCH   3   5
ENDBRANCH   2   3
ENDBRANCH   1   2
BRANCH   1  16
HETATM   16  C   UNL     1     -18.903  11.100   2.106  1.00  0.00     0.000 C 
BRANCH  16  17
HETATM   17  C   UNL     1     -20.403  10.821   2.093  1.00  0.00     0.000 C 
BRANCH  17  18
HETATM   18  C   UNL     1     -20.695   9.345   2.301  1.00  0.00     0.000 C 
BRANCH  18  19
HETATM   19  C   UNL     1     -21.956   9.170   3.137  1.00  0.00     0.004 C 
BRANCH  19  20
HETATM   20  C   UNL     1     -22.971  10.242   2.782  1.00  0.00     0.027 C 
BRANCH  20  21
HETATM   21  C   UNL     1     -24.177   9.631   2.150  1.00  0.00    -0.031 C 
HETATM   22  C   UNL     1     -24.127   8.957   0.993  1.00  0.00    -0.031 C 
BRANCH  22  23
HETATM   23  C   UNL     1     -25.331   8.351   0.362  1.00  0.00     0.027 C 
BRANCH  23  24
HETATM   24  C   UNL     1     -24.917   7.410  -0.767  1.00  0.00     0.004 C 
BRANCH  24  25
HETATM   25  C   UNL     1     -23.412   7.203  -0.750  1.00  0.00     0.000 C 
BRANCH  25  26
HETATM   26  C   UNL     1     -22.867   7.156  -2.174  1.00  0.00     0.000 C 
BRANCH  26  27
HETATM   27  C   UNL     1     -22.574   8.563  -2.675  1.00  0.00     0.000 C 
BRANCH  27  28
HETATM   28  C   UNL     1     -21.957   8.512  -4.068  1.00  0.00    -0.000 C 
BRANCH  28  29
HETATM   29  C   UNL     1     -20.700   9.372  -4.135  1.00  0.00    -0.005 C 
HETATM   30  C   UNL     1     -21.059  10.827  -4.374  1.00  0.00     0.005 C 
ENDBRANCH  28  29
ENDBRANCH  27  28
ENDBRANCH  26  27
ENDBRANCH  25  26
ENDBRANCH  24  25
ENDBRANCH  23  24
ENDBRANCH  22  23
ENDBRANCH  20  21
ENDBRANCH  19  20
ENDBRANCH  18  19
ENDBRANCH  17  18
ENDBRANCH  16  17
ENDBRANCH   1  16
TORSDOF 25
ENDMDL
