MODEL 1
REMARK VINA RESULT:      -5.2      0.000      0.000
REMARK  0 active torsions:
REMARK  status: ('A' for Active; 'I' for Inactive)
ROOT
HETATM    1  C   UNL     1     -22.677  -3.719  -9.205  1.00  0.00     0.168 C 
HETATM    2  N   UNL     1     -23.065  -3.445 -10.565  1.00  0.00    -0.288 N 
HETATM    3  C   UNL     1     -24.365  -3.258 -10.989  1.00  0.00     0.255 A 
HETATM    4  O   UNL     1     -25.382  -3.288 -10.315  1.00  0.00    -0.267 OA
HETATM    5  C   UNL     1     -24.390  -3.004 -12.443  1.00  0.00     0.108 A 
HETATM    6  C   UNL     1     -23.155  -3.025 -12.947  1.00  0.00     0.096 A 
HETATM    7  S   UNL     1     -21.903  -3.333 -11.800  1.00  0.00     0.003 SA
HETATM    8 CL   UNL     1     -22.808  -2.770 -14.600  1.00  0.00    -0.075 Cl
ENDROOT
TORSDOF 0
ENDMDL
MODEL 2
REMARK VINA RESULT:      -5.1      2.355      3.205
REMARK  0 active torsions:
REMARK  status: ('A' for Active; 'I' for Inactive)
ROOT
HETATM    1  C   UNL     1     -24.375  -2.918 -12.707  1.00  0.00     0.168 C 
HETATM    2  N   UNL     1     -23.725  -3.263 -11.469  1.00  0.00    -0.288 N 
HETATM    3  C   UNL     1     -24.363  -3.380 -10.251  1.00  0.00     0.255 A 
HETATM    4  O   UNL     1     -25.548  -3.220 -10.011  1.00  0.00    -0.267 OA
HETATM    5  C   UNL     1     -23.388  -3.741  -9.203  1.00  0.00     0.108 A 
HETATM    6  C   UNL     1     -22.162  -3.855  -9.717  1.00  0.00     0.096 A 
HETATM    7  S   UNL     1     -22.052  -3.559 -11.414  1.00  0.00     0.003 SA
HETATM    8 CL   UNL     1     -20.786  -4.261  -8.791  1.00  0.00    -0.075 Cl
ENDROOT
TORSDOF 0
ENDMDL
MODEL 3
REMARK VINA RESULT:      -4.5      2.420      2.682
REMARK  0 active torsions:
REMARK  status: ('A' for Active; 'I' for Inactive)
ROOT
HETATM    1  C   UNL     1     -25.214  -3.225  -9.614  1.00  0.00     0.168 C 
HETATM    2  N   UNL     1     -23.952  -3.442 -10.275  1.00  0.00    -0.288 N 
HETATM    3  C   UNL     1     -23.702  -3.161 -11.602  1.00  0.00     0.255 A 
HETATM    4  O   UNL     1     -24.472  -2.694 -12.426  1.00  0.00    -0.267 OA
HETATM    5  C   UNL     1     -22.308  -3.514 -11.939  1.00  0.00     0.108 A 
HETATM    6  C   UNL     1     -21.675  -4.005 -10.873  1.00  0.00     0.096 A 
HETATM    7  S   UNL     1     -22.626  -4.093  -9.435  1.00  0.00     0.003 SA
HETATM    8 CL   UNL     1     -20.047  -4.518 -10.898  1.00  0.00    -0.075 Cl
ENDROOT
TORSDOF 0
ENDMDL
MODEL 4
REMARK VINA RESULT:      -4.5      3.369      4.097
REMARK  0 active torsions:
REMARK  status: ('A' for Active; 'I' for Inactive)
ROOT
HETATM    1  C   UNL     1     -24.347  -2.995 -12.456  1.00  0.00     0.168 C 
HETATM    2  N   UNL     1     -23.665  -3.416 -11.259  1.00  0.00    -0.288 N 
HETATM    3  C   UNL     1     -22.346  -3.818 -11.206  1.00  0.00     0.255 A 
HETATM    4  O   UNL     1     -21.547  -3.884 -12.126  1.00  0.00    -0.267 OA
HETATM    5  C   UNL     1     -21.985  -4.185  -9.822  1.00  0.00     0.108 A 
HETATM    6  C   UNL     1     -23.027  -4.028  -9.005  1.00  0.00     0.096 A 
HETATM    7  S   UNL     1     -24.470  -3.458  -9.763  1.00  0.00     0.003 SA
HETATM    8 CL   UNL     1     -22.971  -4.360  -7.331  1.00  0.00    -0.075 Cl
ENDROOT
TORSDOF 0
ENDMDL
MODEL 5
REMARK VINA RESULT:      -4.4      2.550      2.812
REMARK  0 active torsions:
REMARK  status: ('A' for Active; 'I' for Inactive)
ROOT
HETATM    1  C   UNL     1     -22.565  -4.320  -7.741  1.00  0.00     0.168 C 
HETATM    2  N   UNL     1     -22.746  -3.965  -9.125  1.00  0.00    -0.288 N 
HETATM    3  C   UNL     1     -21.728  -3.874 -10.053  1.00  0.00     0.255 A 
HETATM    4  O   UNL     1     -20.537  -4.072  -9.877  1.00  0.00    -0.267 OA
HETATM    5  C   UNL     1     -22.276  -3.482 -11.367  1.00  0.00     0.108 A 
HETATM    6  C   UNL     1     -23.598  -3.324 -11.299  1.00  0.00     0.096 A 
HETATM    7  S   UNL     1     -24.289  -3.610  -9.743  1.00  0.00     0.003 SA
HETATM    8 CL   UNL     1     -24.563  -2.871 -12.633  1.00  0.00    -0.075 Cl
ENDROOT
TORSDOF 0
ENDMDL
MODEL 6
REMARK VINA RESULT:      -4.3      3.518      4.056
REMARK  0 active torsions:
REMARK  status: ('A' for Active; 'I' for Inactive)
ROOT
HETATM    1  C   UNL     1     -24.497  -3.447  -9.905  1.00  0.00     0.168 C 
HETATM    2  N   UNL     1     -23.081  -3.676  -9.772  1.00  0.00    -0.288 N 
HETATM    3  C   UNL     1     -22.176  -3.623 -10.812  1.00  0.00     0.255 A 
HETATM    4  O   UNL     1     -22.400  -3.379 -11.987  1.00  0.00    -0.267 OA
HETATM    5  C   UNL     1     -20.817  -3.915 -10.314  1.00  0.00     0.108 A 
HETATM    6  C   UNL     1     -20.836  -4.150  -9.001  1.00  0.00     0.096 A 
HETATM    7  S   UNL     1     -22.394  -4.051  -8.264  1.00  0.00     0.003 SA
HETATM    8 CL   UNL     1     -19.440  -4.523  -8.090  1.00  0.00    -0.075 Cl
ENDROOT
TORSDOF 0
ENDMDL
MODEL 7
REMARK VINA RESULT:      -4.2      3.920      4.335
REMARK  0 active torsions:
REMARK  status: ('A' for Active; 'I' for Inactive)
ROOT
HETATM    1  C   UNL     1     -20.480  -4.812  -5.624  1.00  0.00     0.168 C 
HETATM    2  N   UNL     1     -20.900  -4.564  -6.979  1.00  0.00    -0.288 N 
HETATM    3  C   UNL     1     -22.214  -4.487  -7.393  1.00  0.00     0.255 A 
HETATM    4  O   UNL     1     -23.220  -4.608  -6.713  1.00  0.00    -0.267 OA
HETATM    5  C   UNL     1     -22.271  -4.226  -8.846  1.00  0.00     0.108 A 
HETATM    6  C   UNL     1     -21.044  -4.137  -9.358  1.00  0.00     0.096 A 
HETATM    7  S   UNL     1     -19.761  -4.344  -8.221  1.00  0.00     0.003 SA
HETATM    8 CL   UNL     1     -20.732  -3.842 -11.011  1.00  0.00    -0.075 Cl
ENDROOT
TORSDOF 0
ENDMDL
MODEL 8
REMARK VINA RESULT:      -4.2      2.493      2.972
REMARK  0 active torsions:
REMARK  status: ('A' for Active; 'I' for Inactive)
ROOT
HETATM    1  C   UNL     1     -20.299  -5.017  -8.145  1.00  0.00     0.168 C 
HETATM    2  N   UNL     1     -21.420  -4.459  -8.858  1.00  0.00    -0.288 N 
HETATM    3  C   UNL     1     -22.666  -4.234  -8.311  1.00  0.00     0.255 A 
HETATM    4  O   UNL     1     -23.032  -4.456  -7.168  1.00  0.00    -0.267 OA
HETATM    5  C   UNL     1     -23.568  -3.661  -9.330  1.00  0.00     0.108 A 
HETATM    6  C   UNL     1     -22.935  -3.517 -10.494  1.00  0.00     0.096 A 
HETATM    7  S   UNL     1     -21.285  -4.025 -10.496  1.00  0.00     0.003 SA
HETATM    8 CL   UNL     1     -23.674  -2.883 -11.897  1.00  0.00    -0.075 Cl
ENDROOT
TORSDOF 0
ENDMDL
MODEL 9
REMARK VINA RESULT:      -4.1      3.534      3.944
REMARK  0 active torsions:
REMARK  status: ('A' for Active; 'I' for Inactive)
ROOT
HETATM    1  C   UNL     1     -19.778  -4.693  -8.110  1.00  0.00     0.168 C 
HETATM    2  N   UNL     1     -20.966  -4.342  -8.845  1.00  0.00    -0.288 N 
HETATM    3  C   UNL     1     -21.026  -4.187 -10.215  1.00  0.00     0.255 A 
HETATM    4  O   UNL     1     -20.119  -4.315 -11.022  1.00  0.00    -0.267 OA
HETATM    5  C   UNL     1     -22.398  -3.822 -10.622  1.00  0.00     0.108 A 
HETATM    6  C   UNL     1     -23.200  -3.742  -9.560  1.00  0.00     0.096 A 
HETATM    7  S   UNL     1     -22.442  -4.077  -8.045  1.00  0.00     0.003 SA
HETATM    8 CL   UNL     1     -24.857  -3.341  -9.658  1.00  0.00    -0.075 Cl
ENDROOT
TORSDOF 0
ENDMDL
