MODEL 1
REMARK VINA RESULT:      -4.2      0.000      0.000
REMARK  22 active torsions:
REMARK  status: ('A' for Active; 'I' for Inactive)
REMARK    1  A    between atoms: C_2  and  C_4 
REMARK    2  A    between atoms: C_4  and  C_5 
REMARK    3  A    between atoms: C_5  and  C_6 
REMARK    4  A    between atoms: C_6  and  C_7 
REMARK    5  A    between atoms: C_7  and  C_8 
REMARK    6  A    between atoms: C_8  and  C_9 
REMARK    7  A    between atoms: C_9  and  C_10 
REMARK    8  A    between atoms: C_10  and  C_11 
REMARK    9  A    between atoms: C_11  and  C_12 
REMARK   10  A    between atoms: C_12  and  C_13 
REMARK   11  A    between atoms: C_13  and  C_14 
REMARK   12  A    between atoms: C_14  and  C_15 
REMARK   13  A    between atoms: C_15  and  C_16 
REMARK   14  A    between atoms: C_16  and  C_17 
REMARK   15  A    between atoms: C_17  and  C_18 
REMARK       I    between atoms: C_18  and  N_20 
REMARK   16  A    between atoms: N_20  and  C_21 
REMARK   17  A    between atoms: C_21  and  C_22 
REMARK   18  A    between atoms: C_22  and  C_23 
REMARK   19  A    between atoms: C_23  and  N_24 
REMARK   20  A    between atoms: C_32  and  C_33 
REMARK   21  A    between atoms: C_32  and  O_36 
REMARK   22  A    between atoms: C_33  and  O_35 
ROOT
HETATM    1  C   UNL     2     -30.168 -14.500 -19.676  1.00  0.00     0.050 C 
HETATM    2  C   UNL     2     -29.893 -14.712 -21.158  1.00  0.00     0.211 C 
ENDROOT
BRANCH   2   3
HETATM    3  C   UNL     2     -31.254 -14.869 -21.880  1.00  0.00     0.169 C 
HETATM    4  O   UNL     2     -31.892 -15.912 -21.950  1.00  0.00    -0.648 OA
BRANCH   3   5
HETATM    5  O   UNL     2     -31.750 -13.754 -22.450  1.00  0.00    -0.775 OA
HETATM    6  H   UNL     2     -32.160 -14.065 -23.293  1.00  0.00     0.167 HD
ENDBRANCH   3   5
ENDBRANCH   2   3
BRANCH   2   7
HETATM    7  O   UNL     2     -28.964 -13.710 -21.551  1.00  0.00    -0.385 OA
HETATM    8  H   UNL     2     -28.244 -13.712 -20.897  1.00  0.00     0.210 HD
ENDBRANCH   2   7
TORSDOF 22
ENDMDL
MODEL 2
REMARK VINA RESULT:      -4.2     15.314     16.085
REMARK  22 active torsions:
REMARK  status: ('A' for Active; 'I' for Inactive)
REMARK    1  A    between atoms: C_2  and  C_4 
REMARK    2  A    between atoms: C_4  and  C_5 
REMARK    3  A    between atoms: C_5  and  C_6 
REMARK    4  A    between atoms: C_6  and  C_7 
REMARK    5  A    between atoms: C_7  and  C_8 
REMARK    6  A    between atoms: C_8  and  C_9 
REMARK    7  A    between atoms: C_9  and  C_10 
REMARK    8  A    between atoms: C_10  and  C_11 
REMARK    9  A    between atoms: C_11  and  C_12 
REMARK   10  A    between atoms: C_12  and  C_13 
REMARK   11  A    between atoms: C_13  and  C_14 
REMARK   12  A    between atoms: C_14  and  C_15 
REMARK   13  A    between atoms: C_15  and  C_16 
REMARK   14  A    between atoms: C_16  and  C_17 
REMARK   15  A    between atoms: C_17  and  C_18 
REMARK       I    between atoms: C_18  and  N_20 
REMARK   16  A    between atoms: N_20  and  C_21 
REMARK   17  A    between atoms: C_21  and  C_22 
REMARK   18  A    between atoms: C_22  and  C_23 
REMARK   19  A    between atoms: C_23  and  N_24 
REMARK   20  A    between atoms: C_32  and  C_33 
REMARK   21  A    between atoms: C_32  and  O_36 
REMARK   22  A    between atoms: C_33  and  O_35 
ROOT
HETATM    1  C   UNL     2     -22.760  -2.601 -12.431  1.00  0.00     0.050 C 
HETATM    2  C   UNL     2     -23.982  -2.730 -13.330  1.00  0.00     0.211 C 
ENDROOT
BRANCH   2   3
HETATM    3  C   UNL     2     -23.815  -1.740 -14.510  1.00  0.00     0.169 C 
HETATM    4  O   UNL     2     -22.948  -1.818 -15.370  1.00  0.00    -0.648 OA
BRANCH   3   5
HETATM    5  O   UNL     2     -24.717  -0.742 -14.571  1.00  0.00    -0.775 OA
HETATM    6  H   UNL     2     -25.587  -1.180 -14.401  1.00  0.00     0.167 HD
ENDBRANCH   3   5
ENDBRANCH   2   3
BRANCH   2   7
HETATM    7  O   UNL     2     -24.178  -4.120 -13.559  1.00  0.00    -0.385 OA
HETATM    8  H   UNL     2     -25.088  -4.234 -13.883  1.00  0.00     0.210 HD
ENDBRANCH   2   7
TORSDOF 22
ENDMDL
MODEL 3
REMARK VINA RESULT:      -4.2     16.067     16.369
REMARK  22 active torsions:
REMARK  status: ('A' for Active; 'I' for Inactive)
REMARK    1  A    between atoms: C_2  and  C_4 
REMARK    2  A    between atoms: C_4  and  C_5 
REMARK    3  A    between atoms: C_5  and  C_6 
REMARK    4  A    between atoms: C_6  and  C_7 
REMARK    5  A    between atoms: C_7  and  C_8 
REMARK    6  A    between atoms: C_8  and  C_9 
REMARK    7  A    between atoms: C_9  and  C_10 
REMARK    8  A    between atoms: C_10  and  C_11 
REMARK    9  A    between atoms: C_11  and  C_12 
REMARK   10  A    between atoms: C_12  and  C_13 
REMARK   11  A    between atoms: C_13  and  C_14 
REMARK   12  A    between atoms: C_14  and  C_15 
REMARK   13  A    between atoms: C_15  and  C_16 
REMARK   14  A    between atoms: C_16  and  C_17 
REMARK   15  A    between atoms: C_17  and  C_18 
REMARK       I    between atoms: C_18  and  N_20 
REMARK   16  A    between atoms: N_20  and  C_21 
REMARK   17  A    between atoms: C_21  and  C_22 
REMARK   18  A    between atoms: C_22  and  C_23 
REMARK   19  A    between atoms: C_23  and  N_24 
REMARK   20  A    between atoms: C_32  and  C_33 
REMARK   21  A    between atoms: C_32  and  O_36 
REMARK   22  A    between atoms: C_33  and  O_35 
ROOT
HETATM    1  C   UNL     2     -21.896  -2.889 -11.547  1.00  0.00     0.050 C 
HETATM    2  C   UNL     2     -22.846  -3.475 -12.584  1.00  0.00     0.211 C 
ENDROOT
BRANCH   2   3
HETATM    3  C   UNL     2     -24.271  -2.954 -12.276  1.00  0.00     0.169 C 
HETATM    4  O   UNL     2     -24.890  -3.180 -11.244  1.00  0.00    -0.648 OA
BRANCH   3   5
HETATM    5  O   UNL     2     -24.836  -2.187 -13.228  1.00  0.00    -0.775 OA
HETATM    6  H   UNL     2     -24.857  -1.279 -12.838  1.00  0.00     0.167 HD
ENDBRANCH   3   5
ENDBRANCH   2   3
BRANCH   2   7
HETATM    7  O   UNL     2     -22.245  -3.264 -13.856  1.00  0.00    -0.385 OA
HETATM    8  H   UNL     2     -21.286  -3.189 -13.713  1.00  0.00     0.210 HD
ENDBRANCH   2   7
TORSDOF 22
ENDMDL
MODEL 4
REMARK VINA RESULT:      -4.1     16.834     17.380
REMARK  22 active torsions:
REMARK  status: ('A' for Active; 'I' for Inactive)
REMARK    1  A    between atoms: C_2  and  C_4 
REMARK    2  A    between atoms: C_4  and  C_5 
REMARK    3  A    between atoms: C_5  and  C_6 
REMARK    4  A    between atoms: C_6  and  C_7 
REMARK    5  A    between atoms: C_7  and  C_8 
REMARK    6  A    between atoms: C_8  and  C_9 
REMARK    7  A    between atoms: C_9  and  C_10 
REMARK    8  A    between atoms: C_10  and  C_11 
REMARK    9  A    between atoms: C_11  and  C_12 
REMARK   10  A    between atoms: C_12  and  C_13 
REMARK   11  A    between atoms: C_13  and  C_14 
REMARK   12  A    between atoms: C_14  and  C_15 
REMARK   13  A    between atoms: C_15  and  C_16 
REMARK   14  A    between atoms: C_16  and  C_17 
REMARK   15  A    between atoms: C_17  and  C_18 
REMARK       I    between atoms: C_18  and  N_20 
REMARK   16  A    between atoms: N_20  and  C_21 
REMARK   17  A    between atoms: C_21  and  C_22 
REMARK   18  A    between atoms: C_22  and  C_23 
REMARK   19  A    between atoms: C_23  and  N_24 
REMARK   20  A    between atoms: C_32  and  C_33 
REMARK   21  A    between atoms: C_32  and  O_36 
REMARK   22  A    between atoms: C_33  and  O_35 
ROOT
HETATM    1  C   UNL     2     -22.738  -4.749  -9.798  1.00  0.00     0.050 C 
HETATM    2  C   UNL     2     -23.601  -3.672  -9.155  1.00  0.00     0.211 C 
ENDROOT
BRANCH   2   3
HETATM    3  C   UNL     2     -24.717  -3.289 -10.158  1.00  0.00     0.169 C 
HETATM    4  O   UNL     2     -24.533  -3.021 -11.339  1.00  0.00    -0.648 OA
BRANCH   3   5
HETATM    5  O   UNL     2     -25.970  -3.274  -9.666  1.00  0.00    -0.775 OA
HETATM    6  H   UNL     2     -26.341  -4.160  -9.899  1.00  0.00     0.167 HD
ENDBRANCH   3   5
ENDBRANCH   2   3
BRANCH   2   7
HETATM    7  O   UNL     2     -23.915  -4.126  -7.844  1.00  0.00    -0.385 OA
HETATM    8  H   UNL     2     -23.758  -3.384  -7.236  1.00  0.00     0.210 HD
ENDBRANCH   2   7
TORSDOF 22
ENDMDL
MODEL 5
REMARK VINA RESULT:      -4.1     15.796     16.505
REMARK  22 active torsions:
REMARK  status: ('A' for Active; 'I' for Inactive)
REMARK    1  A    between atoms: C_2  and  C_4 
REMARK    2  A    between atoms: C_4  and  C_5 
REMARK    3  A    between atoms: C_5  and  C_6 
REMARK    4  A    between atoms: C_6  and  C_7 
REMARK    5  A    between atoms: C_7  and  C_8 
REMARK    6  A    between atoms: C_8  and  C_9 
REMARK    7  A    between atoms: C_9  and  C_10 
REMARK    8  A    between atoms: C_10  and  C_11 
REMARK    9  A    between atoms: C_11  and  C_12 
REMARK   10  A    between atoms: C_12  and  C_13 
REMARK   11  A    between atoms: C_13  and  C_14 
REMARK   12  A    between atoms: C_14  and  C_15 
REMARK   13  A    between atoms: C_15  and  C_16 
REMARK   14  A    between atoms: C_16  and  C_17 
REMARK   15  A    between atoms: C_17  and  C_18 
REMARK       I    between atoms: C_18  and  N_20 
REMARK   16  A    between atoms: N_20  and  C_21 
REMARK   17  A    between atoms: C_21  and  C_22 
REMARK   18  A    between atoms: C_22  and  C_23 
REMARK   19  A    between atoms: C_23  and  N_24 
REMARK   20  A    between atoms: C_32  and  C_33 
REMARK   21  A    between atoms: C_32  and  O_36 
REMARK   22  A    between atoms: C_33  and  O_35 
ROOT
HETATM    1  C   UNL     2     -23.951  -4.804 -10.322  1.00  0.00     0.050 C 
HETATM    2  C   UNL     2     -24.462  -3.377 -10.470  1.00  0.00     0.211 C 
ENDROOT
BRANCH   2   3
HETATM    3  C   UNL     2     -24.323  -2.971 -11.959  1.00  0.00     0.169 C 
HETATM    4  O   UNL     2     -25.150  -3.214 -12.828  1.00  0.00    -0.648 OA
BRANCH   3   5
HETATM    5  O   UNL     2     -23.207  -2.290 -12.281  1.00  0.00    -0.775 OA
HETATM    6  H   UNL     2     -23.240  -2.209 -13.265  1.00  0.00     0.167 HD
ENDBRANCH   3   5
ENDBRANCH   2   3
BRANCH   2   7
HETATM    7  O   UNL     2     -25.718  -3.319  -9.807  1.00  0.00    -0.385 OA
HETATM    8  H   UNL     2     -26.015  -4.236  -9.670  1.00  0.00     0.210 HD
ENDBRANCH   2   7
TORSDOF 22
ENDMDL
MODEL 6
REMARK VINA RESULT:      -4.1      2.161      3.088
REMARK  22 active torsions:
REMARK  status: ('A' for Active; 'I' for Inactive)
REMARK    1  A    between atoms: C_2  and  C_4 
REMARK    2  A    between atoms: C_4  and  C_5 
REMARK    3  A    between atoms: C_5  and  C_6 
REMARK    4  A    between atoms: C_6  and  C_7 
REMARK    5  A    between atoms: C_7  and  C_8 
REMARK    6  A    between atoms: C_8  and  C_9 
REMARK    7  A    between atoms: C_9  and  C_10 
REMARK    8  A    between atoms: C_10  and  C_11 
REMARK    9  A    between atoms: C_11  and  C_12 
REMARK   10  A    between atoms: C_12  and  C_13 
REMARK   11  A    between atoms: C_13  and  C_14 
REMARK   12  A    between atoms: C_14  and  C_15 
REMARK   13  A    between atoms: C_15  and  C_16 
REMARK   14  A    between atoms: C_16  and  C_17 
REMARK   15  A    between atoms: C_17  and  C_18 
REMARK       I    between atoms: C_18  and  N_20 
REMARK   16  A    between atoms: N_20  and  C_21 
REMARK   17  A    between atoms: C_21  and  C_22 
REMARK   18  A    between atoms: C_22  and  C_23 
REMARK   19  A    between atoms: C_23  and  N_24 
REMARK   20  A    between atoms: C_32  and  C_33 
REMARK   21  A    between atoms: C_32  and  O_36 
REMARK   22  A    between atoms: C_33  and  O_35 
ROOT
HETATM    1  C   UNL     2     -29.802 -16.005 -20.864  1.00  0.00     0.050 C 
HETATM    2  C   UNL     2     -30.732 -14.831 -20.590  1.00  0.00     0.211 C 
ENDROOT
BRANCH   2   3
HETATM    3  C   UNL     2     -30.345 -14.222 -19.220  1.00  0.00     0.169 C 
HETATM    4  O   UNL     2     -29.537 -13.317 -19.061  1.00  0.00    -0.648 OA
BRANCH   3   5
HETATM    5  O   UNL     2     -30.975 -14.740 -18.147  1.00  0.00    -0.775 OA
HETATM    6  H   UNL     2     -30.297 -15.313 -17.712  1.00  0.00     0.167 HD
ENDBRANCH   3   5
ENDBRANCH   2   3
BRANCH   2   7
HETATM    7  O   UNL     2     -30.748 -14.036 -21.769  1.00  0.00    -0.385 OA
HETATM    8  H   UNL     2     -30.008 -13.408 -21.704  1.00  0.00     0.210 HD
ENDBRANCH   2   7
TORSDOF 22
ENDMDL
MODEL 7
REMARK VINA RESULT:      -4.0     10.270     10.533
REMARK  22 active torsions:
REMARK  status: ('A' for Active; 'I' for Inactive)
REMARK    1  A    between atoms: C_2  and  C_4 
REMARK    2  A    between atoms: C_4  and  C_5 
REMARK    3  A    between atoms: C_5  and  C_6 
REMARK    4  A    between atoms: C_6  and  C_7 
REMARK    5  A    between atoms: C_7  and  C_8 
REMARK    6  A    between atoms: C_8  and  C_9 
REMARK    7  A    between atoms: C_9  and  C_10 
REMARK    8  A    between atoms: C_10  and  C_11 
REMARK    9  A    between atoms: C_11  and  C_12 
REMARK   10  A    between atoms: C_12  and  C_13 
REMARK   11  A    between atoms: C_13  and  C_14 
REMARK   12  A    between atoms: C_14  and  C_15 
REMARK   13  A    between atoms: C_15  and  C_16 
REMARK   14  A    between atoms: C_16  and  C_17 
REMARK   15  A    between atoms: C_17  and  C_18 
REMARK       I    between atoms: C_18  and  N_20 
REMARK   16  A    between atoms: N_20  and  C_21 
REMARK   17  A    between atoms: C_21  and  C_22 
REMARK   18  A    between atoms: C_22  and  C_23 
REMARK   19  A    between atoms: C_23  and  N_24 
REMARK   20  A    between atoms: C_32  and  C_33 
REMARK   21  A    between atoms: C_32  and  O_36 
REMARK   22  A    between atoms: C_33  and  O_35 
ROOT
HETATM    1  C   UNL     2     -24.505  -7.119 -18.425  1.00  0.00     0.050 C 
HETATM    2  C   UNL     2     -24.563  -7.161 -16.904  1.00  0.00     0.211 C 
ENDROOT
BRANCH   2   3
HETATM    3  C   UNL     2     -25.971  -6.688 -16.465  1.00  0.00     0.169 C 
HETATM    4  O   UNL     2     -26.551  -5.709 -16.916  1.00  0.00    -0.648 OA
BRANCH   3   5
HETATM    5  O   UNL     2     -26.579  -7.442 -15.529  1.00  0.00    -0.775 OA
HETATM    6  H   UNL     2     -27.530  -7.454 -15.796  1.00  0.00     0.167 HD
ENDBRANCH   3   5
ENDBRANCH   2   3
BRANCH   2   7
HETATM    7  O   UNL     2     -24.057  -8.430 -16.509  1.00  0.00    -0.385 OA
HETATM    8  H   UNL     2     -24.689  -8.808 -15.873  1.00  0.00     0.210 HD
ENDBRANCH   2   7
TORSDOF 22
ENDMDL
MODEL 8
REMARK VINA RESULT:      -3.9     13.502     14.084
REMARK  22 active torsions:
REMARK  status: ('A' for Active; 'I' for Inactive)
REMARK    1  A    between atoms: C_2  and  C_4 
REMARK    2  A    between atoms: C_4  and  C_5 
REMARK    3  A    between atoms: C_5  and  C_6 
REMARK    4  A    between atoms: C_6  and  C_7 
REMARK    5  A    between atoms: C_7  and  C_8 
REMARK    6  A    between atoms: C_8  and  C_9 
REMARK    7  A    between atoms: C_9  and  C_10 
REMARK    8  A    between atoms: C_10  and  C_11 
REMARK    9  A    between atoms: C_11  and  C_12 
REMARK   10  A    between atoms: C_12  and  C_13 
REMARK   11  A    between atoms: C_13  and  C_14 
REMARK   12  A    between atoms: C_14  and  C_15 
REMARK   13  A    between atoms: C_15  and  C_16 
REMARK   14  A    between atoms: C_16  and  C_17 
REMARK   15  A    between atoms: C_17  and  C_18 
REMARK       I    between atoms: C_18  and  N_20 
REMARK   16  A    between atoms: N_20  and  C_21 
REMARK   17  A    between atoms: C_21  and  C_22 
REMARK   18  A    between atoms: C_22  and  C_23 
REMARK   19  A    between atoms: C_23  and  N_24 
REMARK   20  A    between atoms: C_32  and  C_33 
REMARK   21  A    between atoms: C_32  and  O_36 
REMARK   22  A    between atoms: C_33  and  O_35 
ROOT
HETATM    1  C   UNL     2     -33.111  -3.061 -11.223  1.00  0.00     0.050 C 
HETATM    2  C   UNL     2     -33.253  -4.380 -11.971  1.00  0.00     0.211 C 
ENDROOT
BRANCH   2   3
HETATM    3  C   UNL     2     -34.294  -4.181 -13.100  1.00  0.00     0.169 C 
HETATM    4  O   UNL     2     -34.502  -3.123 -13.680  1.00  0.00    -0.648 OA
BRANCH   3   5
HETATM    5  O   UNL     2     -34.994  -5.275 -13.455  1.00  0.00    -0.775 OA
HETATM    6  H   UNL     2     -35.436  -5.026 -14.302  1.00  0.00     0.167 HD
ENDBRANCH   3   5
ENDBRANCH   2   3
BRANCH   2   7
HETATM    7  O   UNL     2     -31.935  -4.832 -12.258  1.00  0.00    -0.385 OA
HETATM    8  H   UNL     2     -32.016  -5.696 -12.699  1.00  0.00     0.210 HD
ENDBRANCH   2   7
TORSDOF 22
ENDMDL
MODEL 9
REMARK VINA RESULT:      -3.9     16.367     17.045
REMARK  22 active torsions:
REMARK  status: ('A' for Active; 'I' for Inactive)
REMARK    1  A    between atoms: C_2  and  C_4 
REMARK    2  A    between atoms: C_4  and  C_5 
REMARK    3  A    between atoms: C_5  and  C_6 
REMARK    4  A    between atoms: C_6  and  C_7 
REMARK    5  A    between atoms: C_7  and  C_8 
REMARK    6  A    between atoms: C_8  and  C_9 
REMARK    7  A    between atoms: C_9  and  C_10 
REMARK    8  A    between atoms: C_10  and  C_11 
REMARK    9  A    between atoms: C_11  and  C_12 
REMARK   10  A    between atoms: C_12  and  C_13 
REMARK   11  A    between atoms: C_13  and  C_14 
REMARK   12  A    between atoms: C_14  and  C_15 
REMARK   13  A    between atoms: C_15  and  C_16 
REMARK   14  A    between atoms: C_16  and  C_17 
REMARK   15  A    between atoms: C_17  and  C_18 
REMARK       I    between atoms: C_18  and  N_20 
REMARK   16  A    between atoms: N_20  and  C_21 
REMARK   17  A    between atoms: C_21  and  C_22 
REMARK   18  A    between atoms: C_22  and  C_23 
REMARK   19  A    between atoms: C_23  and  N_24 
REMARK   20  A    between atoms: C_32  and  C_33 
REMARK   21  A    between atoms: C_32  and  O_36 
REMARK   22  A    between atoms: C_33  and  O_35 
ROOT
HETATM    1  C   UNL     2     -22.543  -3.273 -11.334  1.00  0.00     0.050 C 
HETATM    2  C   UNL     2     -24.051  -3.481 -11.380  1.00  0.00     0.211 C 
ENDROOT
BRANCH   2   3
HETATM    3  C   UNL     2     -24.577  -3.495  -9.924  1.00  0.00     0.169 C 
HETATM    4  O   UNL     2     -23.889  -3.707  -8.935  1.00  0.00    -0.648 OA
BRANCH   3   5
HETATM    5  O   UNL     2     -25.890  -3.236  -9.771  1.00  0.00    -0.775 OA
HETATM    6  H   UNL     2     -26.067  -2.474 -10.376  1.00  0.00     0.167 HD
ENDBRANCH   3   5
ENDBRANCH   2   3
BRANCH   2   7
HETATM    7  O   UNL     2     -24.562  -2.563 -12.339  1.00  0.00    -0.385 OA
HETATM    8  H   UNL     2     -24.702  -1.716 -11.881  1.00  0.00     0.210 HD
ENDBRANCH   2   7
TORSDOF 22
ENDMDL
