MODEL 1
REMARK VINA RESULT:      -6.0      0.000      0.000
REMARK  4 active torsions:
REMARK  status: ('A' for Active; 'I' for Inactive)
REMARK    1  A    between atoms: C_4  and  O_7 
REMARK    2  A    between atoms: O_7  and  C_8 
REMARK    3  A    between atoms: C_8  and  C_9 
REMARK    4  A    between atoms: C_9  and  O_10 
ROOT
HETATM    1  C   UNL     1     -22.116  -4.092 -10.011  1.00  0.00     0.000 A 
HETATM    2  C   UNL     1     -23.510  -4.140 -10.020  1.00  0.00     0.003 A 
HETATM    3  C   UNL     1     -24.227  -3.589 -11.085  1.00  0.00     0.037 A 
HETATM    4  C   UNL     1     -23.551  -2.985 -12.149  1.00  0.00     0.068 A 
HETATM    5  C   UNL     1     -22.155  -2.960 -12.143  1.00  0.00     0.037 A 
HETATM    6  C   UNL     1     -21.436  -3.502 -11.075  1.00  0.00     0.003 A 
ENDROOT
BRANCH   4   7
HETATM    7  O   UNL     1     -24.139  -2.439 -13.255  1.00  0.00    -0.349 OA
BRANCH   7   8
HETATM    8  C   UNL     1     -23.332  -2.394 -14.439  1.00  0.00     0.201 C 
BRANCH   8   9
HETATM    9  C   UNL     1     -23.608  -1.066 -15.140  1.00  0.00     0.190 C 
BRANCH   9  10
HETATM   10  O   UNL     1     -24.858  -0.530 -14.708  1.00  0.00    -0.399 OA
HETATM   11  H   UNL     1     -25.542  -0.992 -15.229  1.00  0.00     0.209 HD
ENDBRANCH   9  10
ENDBRANCH   8   9
ENDBRANCH   7   8
ENDBRANCH   4   7
TORSDOF 4
ENDMDL
MODEL 2
REMARK VINA RESULT:      -5.9      0.331      1.533
REMARK  4 active torsions:
REMARK  status: ('A' for Active; 'I' for Inactive)
REMARK    1  A    between atoms: C_4  and  O_7 
REMARK    2  A    between atoms: O_7  and  C_8 
REMARK    3  A    between atoms: C_8  and  C_9 
REMARK    4  A    between atoms: C_9  and  O_10 
ROOT
HETATM    1  C   UNL     1     -21.976  -4.068  -9.783  1.00  0.00     0.000 A 
HETATM    2  C   UNL     1     -21.231  -3.789 -10.928  1.00  0.00     0.003 A 
HETATM    3  C   UNL     1     -21.850  -3.242 -12.055  1.00  0.00     0.037 A 
HETATM    4  C   UNL     1     -23.221  -2.973 -12.042  1.00  0.00     0.068 A 
HETATM    5  C   UNL     1     -23.957  -3.236 -10.885  1.00  0.00     0.037 A 
HETATM    6  C   UNL     1     -23.342  -3.791  -9.760  1.00  0.00     0.003 A 
ENDROOT
BRANCH   4   7
HETATM    7  O   UNL     1     -23.931  -2.416 -13.070  1.00  0.00    -0.349 OA
BRANCH   7   8
HETATM    8  C   UNL     1     -23.293  -2.432 -14.353  1.00  0.00     0.201 C 
BRANCH   8   9
HETATM    9  C   UNL     1     -23.623  -1.114 -15.052  1.00  0.00     0.190 C 
BRANCH   9  10
HETATM   10  O   UNL     1     -24.893  -0.630 -14.618  1.00  0.00    -0.399 OA
HETATM   11  H   UNL     1     -25.505  -1.388 -14.678  1.00  0.00     0.209 HD
ENDBRANCH   9  10
ENDBRANCH   8   9
ENDBRANCH   7   8
ENDBRANCH   4   7
TORSDOF 4
ENDMDL
MODEL 3
REMARK VINA RESULT:      -5.7     10.566     12.017
REMARK  4 active torsions:
REMARK  status: ('A' for Active; 'I' for Inactive)
REMARK    1  A    between atoms: C_4  and  O_7 
REMARK    2  A    between atoms: O_7  and  C_8 
REMARK    3  A    between atoms: C_8  and  C_9 
REMARK    4  A    between atoms: C_9  and  O_10 
ROOT
HETATM    1  C   UNL     1     -33.841  -2.400 -11.225  1.00  0.00     0.000 A 
HETATM    2  C   UNL     1     -35.151  -2.811 -10.984  1.00  0.00     0.003 A 
HETATM    3  C   UNL     1     -35.467  -4.172 -10.952  1.00  0.00     0.037 A 
HETATM    4  C   UNL     1     -34.471  -5.129 -11.162  1.00  0.00     0.068 A 
HETATM    5  C   UNL     1     -33.158  -4.710 -11.382  1.00  0.00     0.037 A 
HETATM    6  C   UNL     1     -32.841  -3.350 -11.424  1.00  0.00     0.003 A 
ENDROOT
BRANCH   4   7
HETATM    7  O   UNL     1     -34.652  -6.484 -11.128  1.00  0.00    -0.349 OA
BRANCH   7   8
HETATM    8  C   UNL     1     -34.901  -7.052  -9.835  1.00  0.00     0.201 C 
BRANCH   8   9
HETATM    9  C   UNL     1     -34.387  -8.490  -9.853  1.00  0.00     0.190 C 
BRANCH   9  10
HETATM   10  O   UNL     1     -33.105  -8.549 -10.476  1.00  0.00    -0.399 OA
HETATM   11  H   UNL     1     -33.234  -8.222 -11.387  1.00  0.00     0.209 HD
ENDBRANCH   9  10
ENDBRANCH   8   9
ENDBRANCH   7   8
ENDBRANCH   4   7
TORSDOF 4
ENDMDL
MODEL 4
REMARK VINA RESULT:      -5.4      1.685      2.213
REMARK  4 active torsions:
REMARK  status: ('A' for Active; 'I' for Inactive)
REMARK    1  A    between atoms: C_4  and  O_7 
REMARK    2  A    between atoms: O_7  and  C_8 
REMARK    3  A    between atoms: C_8  and  C_9 
REMARK    4  A    between atoms: C_9  and  O_10 
ROOT
HETATM    1  C   UNL     1     -20.931  -4.097  -8.477  1.00  0.00     0.000 A 
HETATM    2  C   UNL     1     -22.297  -3.817  -8.487  1.00  0.00     0.003 A 
HETATM    3  C   UNL     1     -23.003  -3.797  -9.693  1.00  0.00     0.037 A 
HETATM    4  C   UNL     1     -22.343  -4.056 -10.897  1.00  0.00     0.068 A 
HETATM    5  C   UNL     1     -20.979  -4.355 -10.877  1.00  0.00     0.037 A 
HETATM    6  C   UNL     1     -20.270  -4.367  -9.674  1.00  0.00     0.003 A 
ENDROOT
BRANCH   4   7
HETATM    7  O   UNL     1     -22.929  -4.092 -12.132  1.00  0.00    -0.349 OA
BRANCH   7   8
HETATM    8  C   UNL     1     -23.379  -2.834 -12.650  1.00  0.00     0.201 C 
BRANCH   8   9
HETATM    9  C   UNL     1     -22.985  -2.770 -14.124  1.00  0.00     0.190 C 
BRANCH   9  10
HETATM   10  O   UNL     1     -23.741  -3.717 -14.878  1.00  0.00    -0.399 OA
HETATM   11  H   UNL     1     -24.429  -4.054 -14.273  1.00  0.00     0.209 HD
ENDBRANCH   9  10
ENDBRANCH   8   9
ENDBRANCH   7   8
ENDBRANCH   4   7
TORSDOF 4
ENDMDL
MODEL 5
REMARK VINA RESULT:      -5.4     11.048     11.948
REMARK  4 active torsions:
REMARK  status: ('A' for Active; 'I' for Inactive)
REMARK    1  A    between atoms: C_4  and  O_7 
REMARK    2  A    between atoms: O_7  and  C_8 
REMARK    3  A    between atoms: C_8  and  C_9 
REMARK    4  A    between atoms: C_9  and  O_10 
ROOT
HETATM    1  C   UNL     1     -33.209  -5.122 -11.297  1.00  0.00     0.000 A 
HETATM    2  C   UNL     1     -34.509  -5.380 -10.864  1.00  0.00     0.003 A 
HETATM    3  C   UNL     1     -35.470  -4.366 -10.876  1.00  0.00     0.037 A 
HETATM    4  C   UNL     1     -35.132  -3.085 -11.322  1.00  0.00     0.068 A 
HETATM    5  C   UNL     1     -33.834  -2.839 -11.772  1.00  0.00     0.037 A 
HETATM    6  C   UNL     1     -32.870  -3.849 -11.752  1.00  0.00     0.003 A 
ENDROOT
BRANCH   4   7
HETATM    7  O   UNL     1     -35.989  -2.022 -11.405  1.00  0.00    -0.349 OA
BRANCH   7   8
HETATM    8  C   UNL     1     -35.656  -1.021 -12.375  1.00  0.00     0.201 C 
BRANCH   8   9
HETATM    9  C   UNL     1     -36.925  -0.227 -12.679  1.00  0.00     0.190 C 
BRANCH   9  10
HETATM   10  O   UNL     1     -37.579  -0.763 -13.828  1.00  0.00    -0.399 OA
HETATM   11  H   UNL     1     -36.978  -1.444 -14.187  1.00  0.00     0.209 HD
ENDBRANCH   9  10
ENDBRANCH   8   9
ENDBRANCH   7   8
ENDBRANCH   4   7
TORSDOF 4
ENDMDL
MODEL 6
REMARK VINA RESULT:      -5.3      1.746      2.887
REMARK  4 active torsions:
REMARK  status: ('A' for Active; 'I' for Inactive)
REMARK    1  A    between atoms: C_4  and  O_7 
REMARK    2  A    between atoms: O_7  and  C_8 
REMARK    3  A    between atoms: C_8  and  C_9 
REMARK    4  A    between atoms: C_9  and  O_10 
ROOT
HETATM    1  C   UNL     1     -20.495  -4.585  -8.236  1.00  0.00     0.000 A 
HETATM    2  C   UNL     1     -20.068  -4.673  -9.561  1.00  0.00     0.003 A 
HETATM    3  C   UNL     1     -20.906  -4.257 -10.599  1.00  0.00     0.037 A 
HETATM    4  C   UNL     1     -22.178  -3.752 -10.316  1.00  0.00     0.068 A 
HETATM    5  C   UNL     1     -22.590  -3.648  -8.986  1.00  0.00     0.037 A 
HETATM    6  C   UNL     1     -21.758  -4.071  -7.947  1.00  0.00     0.003 A 
ENDROOT
BRANCH   4   7
HETATM    7  O   UNL     1     -23.073  -3.291 -11.242  1.00  0.00    -0.349 OA
BRANCH   7   8
HETATM    8  C   UNL     1     -22.539  -2.997 -12.539  1.00  0.00     0.201 C 
BRANCH   8   9
HETATM    9  C   UNL     1     -23.716  -2.775 -13.486  1.00  0.00     0.190 C 
BRANCH   9  10
HETATM   10  O   UNL     1     -23.493  -3.457 -14.719  1.00  0.00    -0.399 OA
HETATM   11  H   UNL     1     -22.556  -3.303 -14.945  1.00  0.00     0.209 HD
ENDBRANCH   9  10
ENDBRANCH   8   9
ENDBRANCH   7   8
ENDBRANCH   4   7
TORSDOF 4
ENDMDL
MODEL 7
REMARK VINA RESULT:      -5.3     11.242     12.325
REMARK  4 active torsions:
REMARK  status: ('A' for Active; 'I' for Inactive)
REMARK    1  A    between atoms: C_4  and  O_7 
REMARK    2  A    between atoms: O_7  and  C_8 
REMARK    3  A    between atoms: C_8  and  C_9 
REMARK    4  A    between atoms: C_9  and  O_10 
ROOT
HETATM    1  C   UNL     1     -33.586  -4.591 -11.252  1.00  0.00     0.000 A 
HETATM    2  C   UNL     1     -34.954  -4.613 -10.986  1.00  0.00     0.003 A 
HETATM    3  C   UNL     1     -35.646  -3.420 -10.757  1.00  0.00     0.037 A 
HETATM    4  C   UNL     1     -34.970  -2.198 -10.793  1.00  0.00     0.068 A 
HETATM    5  C   UNL     1     -33.604  -2.183 -11.079  1.00  0.00     0.037 A 
HETATM    6  C   UNL     1     -32.908  -3.374 -11.300  1.00  0.00     0.003 A 
ENDROOT
BRANCH   4   7
HETATM    7  O   UNL     1     -35.541  -0.969 -10.612  1.00  0.00    -0.349 OA
BRANCH   7   8
HETATM    8  C   UNL     1     -36.786  -0.953  -9.902  1.00  0.00     0.201 C 
BRANCH   8   9
HETATM    9  C   UNL     1     -36.896   0.391  -9.186  1.00  0.00     0.190 C 
BRANCH   9  10
HETATM   10  O   UNL     1     -35.989   0.440  -8.085  1.00  0.00    -0.399 OA
HETATM   11  H   UNL     1     -35.108   0.610  -8.470  1.00  0.00     0.209 HD
ENDBRANCH   9  10
ENDBRANCH   8   9
ENDBRANCH   7   8
ENDBRANCH   4   7
TORSDOF 4
ENDMDL
MODEL 8
REMARK VINA RESULT:      -5.2     10.501     11.408
REMARK  4 active torsions:
REMARK  status: ('A' for Active; 'I' for Inactive)
REMARK    1  A    between atoms: C_4  and  O_7 
REMARK    2  A    between atoms: O_7  and  C_8 
REMARK    3  A    between atoms: C_8  and  C_9 
REMARK    4  A    between atoms: C_9  and  O_10 
ROOT
HETATM    1  C   UNL     1     -32.802  -3.618 -11.484  1.00  0.00     0.000 A 
HETATM    2  C   UNL     1     -33.258  -2.524 -10.751  1.00  0.00     0.003 A 
HETATM    3  C   UNL     1     -34.359  -1.787 -11.196  1.00  0.00     0.037 A 
HETATM    4  C   UNL     1     -35.009  -2.143 -12.381  1.00  0.00     0.068 A 
HETATM    5  C   UNL     1     -34.558  -3.252 -13.100  1.00  0.00     0.037 A 
HETATM    6  C   UNL     1     -33.453  -3.984 -12.661  1.00  0.00     0.003 A 
ENDROOT
BRANCH   4   7
HETATM    7  O   UNL     1     -36.108  -1.518 -12.902  1.00  0.00    -0.349 OA
BRANCH   7   8
HETATM    8  C   UNL     1     -35.944  -0.133 -13.234  1.00  0.00     0.201 C 
BRANCH   8   9
HETATM    9  C   UNL     1     -35.630  -0.047 -14.726  1.00  0.00     0.190 C 
BRANCH   9  10
HETATM   10  O   UNL     1     -34.344   0.539 -14.926  1.00  0.00    -0.399 OA
HETATM   11  H   UNL     1     -34.455   1.494 -14.757  1.00  0.00     0.209 HD
ENDBRANCH   9  10
ENDBRANCH   8   9
ENDBRANCH   7   8
ENDBRANCH   4   7
TORSDOF 4
ENDMDL
MODEL 9
REMARK VINA RESULT:      -5.2      3.419      4.893
REMARK  4 active torsions:
REMARK  status: ('A' for Active; 'I' for Inactive)
REMARK    1  A    between atoms: C_4  and  O_7 
REMARK    2  A    between atoms: O_7  and  C_8 
REMARK    3  A    between atoms: C_8  and  C_9 
REMARK    4  A    between atoms: C_9  and  O_10 
ROOT
HETATM    1  C   UNL     1     -20.022  -4.953  -6.348  1.00  0.00     0.000 A 
HETATM    2  C   UNL     1     -19.344  -4.535  -7.492  1.00  0.00     0.003 A 
HETATM    3  C   UNL     1     -20.057  -4.141  -8.628  1.00  0.00     0.037 A 
HETATM    4  C   UNL     1     -21.454  -4.164  -8.624  1.00  0.00     0.068 A 
HETATM    5  C   UNL     1     -22.126  -4.565  -7.467  1.00  0.00     0.037 A 
HETATM    6  C   UNL     1     -21.416  -4.968  -6.334  1.00  0.00     0.003 A 
ENDROOT
BRANCH   4   7
HETATM    7  O   UNL     1     -22.258  -3.777  -9.660  1.00  0.00    -0.349 OA
BRANCH   7   8
HETATM    8  C   UNL     1     -23.552  -4.391  -9.715  1.00  0.00     0.201 C 
BRANCH   8   9
HETATM    9  C   UNL     1     -24.486  -3.440 -10.460  1.00  0.00     0.190 C 
BRANCH   9  10
HETATM   10  O   UNL     1     -25.686  -3.241  -9.713  1.00  0.00    -0.399 OA
HETATM   11  H   UNL     1     -25.938  -4.120  -9.371  1.00  0.00     0.209 HD
ENDBRANCH   9  10
ENDBRANCH   8   9
ENDBRANCH   7   8
ENDBRANCH   4   7
TORSDOF 4
ENDMDL
