MODEL 1
REMARK VINA RESULT:      -6.3      0.000      0.000
REMARK  2 active torsions:
REMARK  status: ('A' for Active; 'I' for Inactive)
REMARK    1  A    between atoms: CA_6  and  C_7 
REMARK    2  A    between atoms: C_7  and  O_8 
ROOT
HETATM    1  C   UNL     1     -24.414  -2.908 -12.587  1.00  0.00     0.045 C 
HETATM    2  C   UNL     1     -23.566  -3.116 -11.335  1.00  0.00     0.105 C 
HETATM    3  C   UNL     1     -22.183  -3.051 -11.906  1.00  0.00     0.218 C 
HETATM    4  O   UNL     1     -21.210  -2.456 -11.469  1.00  0.00    -0.274 OA
HETATM    5  N   UNL     1     -22.231  -3.651 -13.144  1.00  0.00    -0.347 N 
HETATM    6  CA  UNL     1     -23.532  -3.367 -13.755  1.00  0.00     0.187 C 
HETATM    7  H   UNL     1     -21.415  -3.600 -13.740  1.00  0.00     0.163 HD
ENDROOT
BRANCH   6   8
HETATM    8  C   UNL     1     -23.461  -2.158 -14.743  1.00  0.00     0.312 C 
HETATM    9  OXT UNL     1     -22.486  -2.116 -15.521  1.00  0.00    -0.260 OA
BRANCH   8  10
HETATM   10  O   UNL     1     -24.446  -1.345 -14.620  1.00  0.00    -0.148 OA
HETATM   11 NA   UNL     2     -25.124   0.515 -14.484  1.00  0.00     0.000 Na
ENDBRANCH   8  10
ENDBRANCH   6   8
TORSDOF 2
ENDMDL
MODEL 2
REMARK VINA RESULT:      -5.9      3.157      3.698
REMARK  2 active torsions:
REMARK  status: ('A' for Active; 'I' for Inactive)
REMARK    1  A    between atoms: CA_6  and  C_7 
REMARK    2  A    between atoms: C_7  and  O_8 
ROOT
HETATM    1  C   UNL     1     -23.070  -4.496  -9.550  1.00  0.00     0.045 C 
HETATM    2  C   UNL     1     -21.543  -4.498  -9.581  1.00  0.00     0.105 C 
HETATM    3  C   UNL     1     -21.279  -3.955 -10.951  1.00  0.00     0.218 C 
HETATM    4  O   UNL     1     -20.467  -3.107 -11.286  1.00  0.00    -0.274 OA
HETATM    5  N   UNL     1     -22.257  -4.460 -11.778  1.00  0.00    -0.347 N 
HETATM    6  CA  UNL     1     -23.505  -4.572 -11.019  1.00  0.00     0.187 C 
HETATM    7  H   UNL     1     -22.318  -4.111 -12.727  1.00  0.00     0.163 HD
ENDROOT
BRANCH   6   8
HETATM    8  C   UNL     1     -24.444  -3.345 -11.254  1.00  0.00     0.312 C 
HETATM    9  OXT UNL     1     -24.264  -2.684 -12.298  1.00  0.00    -0.260 OA
BRANCH   8  10
HETATM   10  O   UNL     1     -25.302  -3.177 -10.316  1.00  0.00    -0.148 OA
HETATM   11 NA   UNL     2     -26.927  -3.785  -9.352  1.00  0.00     0.000 Na
ENDBRANCH   8  10
ENDBRANCH   6   8
TORSDOF 2
ENDMDL
MODEL 3
REMARK VINA RESULT:      -5.6      2.021      2.405
REMARK  2 active torsions:
REMARK  status: ('A' for Active; 'I' for Inactive)
REMARK    1  A    between atoms: CA_6  and  C_7 
REMARK    2  A    between atoms: C_7  and  O_8 
ROOT
HETATM    1  C   UNL     1     -21.922  -3.501 -12.244  1.00  0.00     0.045 C 
HETATM    2  C   UNL     1     -21.954  -4.363 -10.984  1.00  0.00     0.105 C 
HETATM    3  C   UNL     1     -23.414  -4.337 -10.651  1.00  0.00     0.218 C 
HETATM    4  O   UNL     1     -24.131  -5.266 -10.315  1.00  0.00    -0.274 OA
HETATM    5  N   UNL     1     -23.875  -3.079 -10.966  1.00  0.00    -0.347 N 
HETATM    6  CA  UNL     1     -23.155  -2.594 -12.147  1.00  0.00     0.187 C 
HETATM    7  H   UNL     1     -24.870  -2.901 -10.922  1.00  0.00     0.163 HD
ENDROOT
BRANCH   6   8
HETATM    8  C   UNL     1     -23.966  -2.829 -13.462  1.00  0.00     0.312 C 
HETATM    9  OXT UNL     1     -24.316  -4.000 -13.713  1.00  0.00    -0.260 OA
BRANCH   8  10
HETATM   10  O   UNL     1     -24.174  -1.752 -14.127  1.00  0.00    -0.148 OA
HETATM   11 NA   UNL     2     -25.049   0.023 -14.283  1.00  0.00     0.000 Na
ENDBRANCH   8  10
ENDBRANCH   6   8
TORSDOF 2
ENDMDL
MODEL 4
REMARK VINA RESULT:      -5.6      3.721      4.770
REMARK  2 active torsions:
REMARK  status: ('A' for Active; 'I' for Inactive)
REMARK    1  A    between atoms: CA_6  and  C_7 
REMARK    2  A    between atoms: C_7  and  O_8 
ROOT
HETATM    1  C   UNL     1     -21.958  -4.146 -10.630  1.00  0.00     0.045 C 
HETATM    2  C   UNL     1     -21.470  -3.657 -11.991  1.00  0.00     0.105 C 
HETATM    3  C   UNL     1     -22.769  -3.374 -12.682  1.00  0.00     0.218 C 
HETATM    4  O   UNL     1     -23.071  -2.404 -13.358  1.00  0.00    -0.274 OA
HETATM    5  N   UNL     1     -23.660  -4.339 -12.271  1.00  0.00    -0.347 N 
HETATM    6  CA  UNL     1     -23.374  -4.682 -10.875  1.00  0.00     0.187 C 
HETATM    7  H   UNL     1     -24.632  -4.249 -12.540  1.00  0.00     0.163 HD
ENDROOT
BRANCH   6   8
HETATM    8  C   UNL     1     -24.304  -3.913  -9.884  1.00  0.00     0.312 C 
HETATM    9  OXT UNL     1     -25.286  -3.316 -10.372  1.00  0.00    -0.260 OA
BRANCH   8  10
HETATM   10  O   UNL     1     -23.926  -4.002  -8.661  1.00  0.00    -0.148 OA
HETATM   11 NA   UNL     2     -24.367  -4.305  -6.750  1.00  0.00     0.000 Na
ENDBRANCH   8  10
ENDBRANCH   6   8
TORSDOF 2
ENDMDL
MODEL 5
REMARK VINA RESULT:      -5.5     11.246     11.788
REMARK  2 active torsions:
REMARK  status: ('A' for Active; 'I' for Inactive)
REMARK    1  A    between atoms: CA_6  and  C_7 
REMARK    2  A    between atoms: C_7  and  O_8 
ROOT
HETATM    1  C   UNL     1     -33.210  -2.953 -11.293  1.00  0.00     0.045 C 
HETATM    2  C   UNL     1     -33.325  -4.475 -11.345  1.00  0.00     0.105 C 
HETATM    3  C   UNL     1     -34.725  -4.644 -11.850  1.00  0.00     0.218 C 
HETATM    4  O   UNL     1     -35.132  -5.403 -12.716  1.00  0.00    -0.274 OA
HETATM    5  N   UNL     1     -35.480  -3.643 -11.282  1.00  0.00    -0.347 N 
HETATM    6  CA  UNL     1     -34.650  -2.443 -11.150  1.00  0.00     0.187 C 
HETATM    7  H   UNL     1     -36.435  -3.517 -11.595  1.00  0.00     0.163 HD
ENDROOT
BRANCH   6   8
HETATM    8  C   UNL     1     -34.872  -1.446 -12.333  1.00  0.00     0.312 C 
HETATM    9  OXT UNL     1     -34.878  -1.925 -13.486  1.00  0.00    -0.260 OA
BRANCH   8  10
HETATM   10  O   UNL     1     -35.027  -0.232 -11.950  1.00  0.00    -0.148 OA
HETATM   11 NA   UNL     2     -35.559   1.066 -10.547  1.00  0.00     0.000 Na
ENDBRANCH   8  10
ENDBRANCH   6   8
TORSDOF 2
ENDMDL
MODEL 6
REMARK VINA RESULT:      -5.5     11.089     11.735
REMARK  2 active torsions:
REMARK  status: ('A' for Active; 'I' for Inactive)
REMARK    1  A    between atoms: CA_6  and  C_7 
REMARK    2  A    between atoms: C_7  and  O_8 
ROOT
HETATM    1  C   UNL     1     -33.245  -2.879 -11.083  1.00  0.00     0.045 C 
HETATM    2  C   UNL     1     -33.337  -4.387 -11.300  1.00  0.00     0.105 C 
HETATM    3  C   UNL     1     -34.725  -4.517 -11.849  1.00  0.00     0.218 C 
HETATM    4  O   UNL     1     -35.105  -5.184 -12.798  1.00  0.00    -0.274 OA
HETATM    5  N   UNL     1     -35.504  -3.592 -11.192  1.00  0.00    -0.347 N 
HETATM    6  CA  UNL     1     -34.693  -2.403 -10.915  1.00  0.00     0.187 C 
HETATM    7  H   UNL     1     -36.454  -3.445 -11.509  1.00  0.00     0.163 HD
ENDROOT
BRANCH   6   8
HETATM    8  C   UNL     1     -34.908  -1.288 -11.989  1.00  0.00     0.312 C 
HETATM    9  OXT UNL     1     -35.271  -0.167 -11.579  1.00  0.00    -0.260 OA
BRANCH   8  10
HETATM   10  O   UNL     1     -34.672  -1.686 -13.185  1.00  0.00    -0.148 OA
HETATM   11 NA   UNL     2     -34.193  -3.145 -14.441  1.00  0.00     0.000 Na
ENDBRANCH   8  10
ENDBRANCH   6   8
TORSDOF 2
ENDMDL
MODEL 7
REMARK VINA RESULT:      -5.4      4.173      4.794
REMARK  2 active torsions:
REMARK  status: ('A' for Active; 'I' for Inactive)
REMARK    1  A    between atoms: CA_6  and  C_7 
REMARK    2  A    between atoms: C_7  and  O_8 
ROOT
HETATM    1  C   UNL     1     -21.453  -4.000 -10.553  1.00  0.00     0.045 C 
HETATM    2  C   UNL     1     -20.596  -4.211  -9.308  1.00  0.00     0.105 C 
HETATM    3  C   UNL     1     -21.649  -4.400  -8.258  1.00  0.00     0.218 C 
HETATM    4  O   UNL     1     -21.690  -5.236  -7.370  1.00  0.00    -0.274 OA
HETATM    5  N   UNL     1     -22.688  -3.556  -8.577  1.00  0.00    -0.347 N 
HETATM    6  CA  UNL     1     -22.797  -3.471 -10.036  1.00  0.00     0.187 C 
HETATM    7  H   UNL     1     -23.549  -3.625  -8.049  1.00  0.00     0.163 HD
ENDROOT
BRANCH   6   8
HETATM    8  C   UNL     1     -23.887  -4.441 -10.597  1.00  0.00     0.312 C 
HETATM    9  OXT UNL     1     -23.609  -5.065 -11.642  1.00  0.00    -0.260 OA
BRANCH   8  10
HETATM   10  O   UNL     1     -24.953  -4.470  -9.885  1.00  0.00    -0.148 OA
HETATM   11 NA   UNL     2     -26.726  -3.705  -9.425  1.00  0.00     0.000 Na
ENDBRANCH   8  10
ENDBRANCH   6   8
TORSDOF 2
ENDMDL
MODEL 8
REMARK VINA RESULT:      -5.4      2.639      3.389
REMARK  2 active torsions:
REMARK  status: ('A' for Active; 'I' for Inactive)
REMARK    1  A    between atoms: CA_6  and  C_7 
REMARK    2  A    between atoms: C_7  and  O_8 
ROOT
HETATM    1  C   UNL     1     -22.919  -4.474  -9.439  1.00  0.00     0.045 C 
HETATM    2  C   UNL     1     -21.397  -4.469  -9.564  1.00  0.00     0.105 C 
HETATM    3  C   UNL     1     -21.221  -3.951 -10.959  1.00  0.00     0.218 C 
HETATM    4  O   UNL     1     -20.438  -3.105 -11.359  1.00  0.00    -0.274 OA
HETATM    5  N   UNL     1     -22.245  -4.477 -11.714  1.00  0.00    -0.347 N 
HETATM    6  CA  UNL     1     -23.443  -4.582 -10.877  1.00  0.00     0.187 C 
HETATM    7  H   UNL     1     -22.367  -4.148 -12.663  1.00  0.00     0.163 HD
ENDROOT
BRANCH   6   8
HETATM    8  C   UNL     1     -24.403  -3.365 -11.077  1.00  0.00     0.312 C 
HETATM    9  OXT UNL     1     -25.328  -3.229 -10.251  1.00  0.00    -0.260 OA
BRANCH   8  10
HETATM   10  O   UNL     1     -24.101  -2.645 -12.095  1.00  0.00    -0.148 OA
HETATM   11 NA   UNL     2     -22.926  -2.292 -13.654  1.00  0.00     0.000 Na
ENDBRANCH   8  10
ENDBRANCH   6   8
TORSDOF 2
ENDMDL
MODEL 9
REMARK VINA RESULT:      -5.2      4.285      5.102
REMARK  2 active torsions:
REMARK  status: ('A' for Active; 'I' for Inactive)
REMARK    1  A    between atoms: CA_6  and  C_7 
REMARK    2  A    between atoms: C_7  and  O_8 
ROOT
HETATM    1  C   UNL     1     -21.432  -4.309 -10.056  1.00  0.00     0.045 C 
HETATM    2  C   UNL     1     -20.847  -4.348  -8.647  1.00  0.00     0.105 C 
HETATM    3  C   UNL     1     -22.087  -4.234  -7.814  1.00  0.00     0.218 C 
HETATM    4  O   UNL     1     -22.392  -4.873  -6.820  1.00  0.00    -0.274 OA
HETATM    5  N   UNL     1     -22.938  -3.379  -8.477  1.00  0.00    -0.347 N 
HETATM    6  CA  UNL     1     -22.770  -3.572  -9.920  1.00  0.00     0.187 C 
HETATM    7  H   UNL     1     -23.882  -3.267  -8.128  1.00  0.00     0.163 HD
ENDROOT
BRANCH   6   8
HETATM    8  C   UNL     1     -23.853  -4.531 -10.510  1.00  0.00     0.312 C 
HETATM    9  OXT UNL     1     -24.904  -4.675  -9.853  1.00  0.00    -0.260 OA
BRANCH   8  10
HETATM   10  O   UNL     1     -23.507  -5.058 -11.628  1.00  0.00    -0.148 OA
HETATM   11 NA   UNL     2     -23.870  -6.335 -13.103  1.00  0.00     0.000 Na
ENDBRANCH   8  10
ENDBRANCH   6   8
TORSDOF 2
ENDMDL
