MODEL 1
REMARK VINA RESULT:      -6.5      0.000      0.000
REMARK  1 active torsions:
REMARK  status: ('A' for Active; 'I' for Inactive)
REMARK    1  A    between atoms: C_6  and  C_10 
ROOT
HETATM    1  C   UNL     1     -34.433  -6.426 -10.627  1.00  0.00     0.077 C 
HETATM    2  C   UNL     1     -34.243  -5.032 -11.136  1.00  0.00     0.056 C 
HETATM    3  C   UNL     1     -33.975  -3.995 -10.339  1.00  0.00     0.084 C 
HETATM    4  C   UNL     1     -33.793  -2.674 -10.945  1.00  0.00     0.172 C 
HETATM    5  O   UNL     1     -33.406  -1.743 -10.240  1.00  0.00    -0.292 OA
HETATM    6  C   UNL     1     -34.092  -2.492 -12.395  1.00  0.00     0.228 C 
HETATM    7  C   UNL     1     -34.273  -3.736 -13.196  1.00  0.00     0.282 C 
HETATM    8  O   UNL     1     -34.349  -3.693 -14.423  1.00  0.00    -0.264 OA
HETATM    9  O   UNL     1     -34.350  -4.922 -12.535  1.00  0.00    -0.283 OA
ENDROOT
BRANCH   6  10
HETATM   10  C   UNL     1     -35.285  -1.591 -12.577  1.00  0.00     0.144 C 
HETATM   11  O   UNL     1     -36.367  -1.855 -12.047  1.00  0.00    -0.297 OA
HETATM   12  C   UNL     1     -35.132  -0.368 -13.444  1.00  0.00     0.092 C 
ENDBRANCH   6  10
TORSDOF 1
ENDMDL
MODEL 2
REMARK VINA RESULT:      -6.1     10.742     11.630
REMARK  1 active torsions:
REMARK  status: ('A' for Active; 'I' for Inactive)
REMARK    1  A    between atoms: C_6  and  C_10 
ROOT
HETATM    1  C   UNL     1     -21.753  -4.951  -7.616  1.00  0.00     0.077 C 
HETATM    2  C   UNL     1     -22.476  -4.251  -8.724  1.00  0.00     0.056 C 
HETATM    3  C   UNL     1     -23.800  -4.085  -8.738  1.00  0.00     0.084 C 
HETATM    4  C   UNL     1     -24.404  -3.370  -9.866  1.00  0.00     0.172 C 
HETATM    5  O   UNL     1     -25.601  -3.087  -9.820  1.00  0.00    -0.292 OA
HETATM    6  C   UNL     1     -23.556  -3.017 -11.041  1.00  0.00     0.228 C 
HETATM    7  C   UNL     1     -22.083  -3.154 -10.860  1.00  0.00     0.282 C 
HETATM    8  O   UNL     1     -21.299  -2.724 -11.705  1.00  0.00    -0.264 OA
HETATM    9  O   UNL     1     -21.626  -3.764  -9.734  1.00  0.00    -0.283 OA
ENDROOT
BRANCH   6  10
HETATM   10  C   UNL     1     -23.994  -3.790 -12.257  1.00  0.00     0.144 C 
HETATM   11  O   UNL     1     -24.613  -3.240 -13.171  1.00  0.00    -0.297 OA
HETATM   12  C   UNL     1     -23.677  -5.261 -12.321  1.00  0.00     0.092 C 
ENDBRANCH   6  10
TORSDOF 1
ENDMDL
MODEL 3
REMARK VINA RESULT:      -5.7     13.234     14.584
REMARK  1 active torsions:
REMARK  status: ('A' for Active; 'I' for Inactive)
REMARK    1  A    between atoms: C_6  and  C_10 
ROOT
HETATM    1  C   UNL     1     -21.626  -4.323 -11.081  1.00  0.00     0.077 C 
HETATM    2  C   UNL     1     -21.318  -4.399  -9.618  1.00  0.00     0.056 C 
HETATM    3  C   UNL     1     -20.074  -4.445  -9.137  1.00  0.00     0.084 C 
HETATM    4  C   UNL     1     -19.886  -4.504  -7.685  1.00  0.00     0.172 C 
HETATM    5  O   UNL     1     -18.748  -4.402  -7.227  1.00  0.00    -0.292 OA
HETATM    6  C   UNL     1     -21.075  -4.696  -6.805  1.00  0.00     0.228 C 
HETATM    7  C   UNL     1     -22.409  -4.521  -7.446  1.00  0.00     0.282 C 
HETATM    8  O   UNL     1     -23.437  -4.486  -6.770  1.00  0.00    -0.264 OA
HETATM    9  O   UNL     1     -22.463  -4.394  -8.799  1.00  0.00    -0.283 OA
ENDROOT
BRANCH   6  10
HETATM   10  C   UNL     1     -21.012  -6.037  -6.121  1.00  0.00     0.144 C 
HETATM   11  O   UNL     1     -20.933  -7.080  -6.775  1.00  0.00    -0.297 OA
HETATM   12  C   UNL     1     -21.072  -6.076  -4.616  1.00  0.00     0.092 C 
ENDBRANCH   6  10
TORSDOF 1
ENDMDL
MODEL 4
REMARK VINA RESULT:      -5.3      1.850      2.760
REMARK  1 active torsions:
REMARK  status: ('A' for Active; 'I' for Inactive)
REMARK    1  A    between atoms: C_6  and  C_10 
ROOT
HETATM    1  C   UNL     1     -34.177  -3.918 -11.547  1.00  0.00     0.077 C 
HETATM    2  C   UNL     1     -34.568  -2.669 -12.275  1.00  0.00     0.056 C 
HETATM    3  C   UNL     1     -34.808  -1.511 -11.657  1.00  0.00     0.084 C 
HETATM    4  C   UNL     1     -35.170  -0.346 -12.468  1.00  0.00     0.172 C 
HETATM    5  O   UNL     1     -35.252   0.756 -11.926  1.00  0.00    -0.292 OA
HETATM    6  C   UNL     1     -35.438  -0.529 -13.924  1.00  0.00     0.228 C 
HETATM    7  C   UNL     1     -35.032  -1.836 -14.514  1.00  0.00     0.282 C 
HETATM    8  O   UNL     1     -35.051  -2.015 -15.731  1.00  0.00    -0.264 OA
HETATM    9  O   UNL     1     -34.634  -2.827 -13.672  1.00  0.00    -0.283 OA
ENDROOT
BRANCH   6  10
HETATM   10  C   UNL     1     -36.888  -0.262 -14.230  1.00  0.00     0.144 C 
HETATM   11  O   UNL     1     -37.782  -0.715 -13.510  1.00  0.00    -0.297 OA
HETATM   12  C   UNL     1     -37.224   0.553 -15.451  1.00  0.00     0.092 C 
ENDBRANCH   6  10
TORSDOF 1
ENDMDL
MODEL 5
REMARK VINA RESULT:      -5.3     14.481     15.813
REMARK  1 active torsions:
REMARK  status: ('A' for Active; 'I' for Inactive)
REMARK    1  A    between atoms: C_6  and  C_10 
ROOT
HETATM    1  C   UNL     1     -21.553  -7.171  -1.547  1.00  0.00     0.077 C 
HETATM    2  C   UNL     1     -21.375  -7.226  -3.032  1.00  0.00     0.056 C 
HETATM    3  C   UNL     1     -20.425  -7.951  -3.625  1.00  0.00     0.084 C 
HETATM    4  C   UNL     1     -20.350  -7.944  -5.088  1.00  0.00     0.172 C 
HETATM    5  O   UNL     1     -19.574  -8.718  -5.649  1.00  0.00    -0.292 OA
HETATM    6  C   UNL     1     -21.206  -6.995  -5.856  1.00  0.00     0.228 C 
HETATM    7  C   UNL     1     -22.296  -6.321  -5.095  1.00  0.00     0.282 C 
HETATM    8  O   UNL     1     -23.157  -5.660  -5.674  1.00  0.00    -0.264 OA
HETATM    9  O   UNL     1     -22.318  -6.460  -3.743  1.00  0.00    -0.283 OA
ENDROOT
BRANCH   6  10
HETATM   10  C   UNL     1     -20.355  -5.962  -6.548  1.00  0.00     0.144 C 
HETATM   11  O   UNL     1     -20.031  -6.095  -7.731  1.00  0.00    -0.297 OA
HETATM   12  C   UNL     1     -19.889  -4.770  -5.753  1.00  0.00     0.092 C 
ENDBRANCH   6  10
TORSDOF 1
ENDMDL
MODEL 6
REMARK VINA RESULT:      -5.3      1.812      2.718
REMARK  1 active torsions:
REMARK  status: ('A' for Active; 'I' for Inactive)
REMARK    1  A    between atoms: C_6  and  C_10 
ROOT
HETATM    1  C   UNL     1     -33.983  -4.301 -13.894  1.00  0.00     0.077 C 
HETATM    2  C   UNL     1     -34.320  -3.132 -13.023  1.00  0.00     0.056 C 
HETATM    3  C   UNL     1     -33.938  -3.039 -11.748  1.00  0.00     0.084 C 
HETATM    4  C   UNL     1     -34.311  -1.842 -10.991  1.00  0.00     0.172 C 
HETATM    5  O   UNL     1     -33.844  -1.680  -9.863  1.00  0.00    -0.292 OA
HETATM    6  C   UNL     1     -35.253  -0.859 -11.600  1.00  0.00     0.228 C 
HETATM    7  C   UNL     1     -35.520  -1.015 -13.058  1.00  0.00     0.282 C 
HETATM    8  O   UNL     1     -36.140  -0.155 -13.683  1.00  0.00    -0.264 OA
HETATM    9  O   UNL     1     -35.057  -2.131 -13.683  1.00  0.00    -0.283 OA
ENDROOT
BRANCH   6  10
HETATM   10  C   UNL     1     -36.555  -0.839 -10.843  1.00  0.00     0.144 C 
HETATM   11  O   UNL     1     -37.282  -1.834 -10.804  1.00  0.00    -0.297 OA
HETATM   12  C   UNL     1     -36.961   0.437 -10.153  1.00  0.00     0.092 C 
ENDBRANCH   6  10
TORSDOF 1
ENDMDL
MODEL 7
REMARK VINA RESULT:      -5.2     15.784     17.268
REMARK  1 active torsions:
REMARK  status: ('A' for Active; 'I' for Inactive)
REMARK    1  A    between atoms: C_6  and  C_10 
ROOT
HETATM    1  C   UNL     1     -22.067  -8.153   1.174  1.00  0.00     0.077 C 
HETATM    2  C   UNL     1     -21.704  -7.862  -0.249  1.00  0.00     0.056 C 
HETATM    3  C   UNL     1     -22.359  -6.976  -1.001  1.00  0.00     0.084 C 
HETATM    4  C   UNL     1     -21.909  -6.758  -2.378  1.00  0.00     0.172 C 
HETATM    5  O   UNL     1     -22.412  -5.844  -3.032  1.00  0.00    -0.292 OA
HETATM    6  C   UNL     1     -20.865  -7.656  -2.953  1.00  0.00     0.228 C 
HETATM    7  C   UNL     1     -20.138  -8.528  -1.988  1.00  0.00     0.282 C 
HETATM    8  O   UNL     1     -19.147  -9.170  -2.338  1.00  0.00    -0.264 OA
HETATM    9  O   UNL     1     -20.593  -8.595  -0.709  1.00  0.00    -0.283 OA
ENDROOT
BRANCH   6  10
HETATM   10  C   UNL     1     -21.445  -8.495  -4.061  1.00  0.00     0.144 C 
HETATM   11  O   UNL     1     -22.028  -9.554  -3.817  1.00  0.00    -0.297 OA
HETATM   12  C   UNL     1     -21.275  -8.021  -5.481  1.00  0.00     0.092 C 
ENDBRANCH   6  10
TORSDOF 1
ENDMDL
MODEL 8
REMARK VINA RESULT:      -4.9     15.594     17.339
REMARK  1 active torsions:
REMARK  status: ('A' for Active; 'I' for Inactive)
REMARK    1  A    between atoms: C_6  and  C_10 
ROOT
HETATM    1  C   UNL     1     -22.053  -6.282  -5.435  1.00  0.00     0.077 C 
HETATM    2  C   UNL     1     -21.567  -6.884  -4.154  1.00  0.00     0.056 C 
HETATM    3  C   UNL     1     -20.602  -7.804  -4.103  1.00  0.00     0.084 C 
HETATM    4  C   UNL     1     -20.192  -8.316  -2.792  1.00  0.00     0.172 C 
HETATM    5  O   UNL     1     -19.209  -9.055  -2.722  1.00  0.00    -0.292 OA
HETATM    6  C   UNL     1     -20.981  -7.939  -1.584  1.00  0.00     0.228 C 
HETATM    7  C   UNL     1     -21.959  -6.827  -1.753  1.00  0.00     0.282 C 
HETATM    8  O   UNL     1     -22.527  -6.330  -0.781  1.00  0.00    -0.264 OA
HETATM    9  O   UNL     1     -22.206  -6.371  -3.010  1.00  0.00    -0.283 OA
ENDROOT
BRANCH   6  10
HETATM   10  C   UNL     1     -21.677  -9.146  -1.012  1.00  0.00     0.144 C 
HETATM   11  O   UNL     1     -22.411  -9.847  -1.712  1.00  0.00    -0.297 OA
HETATM   12  C   UNL     1     -21.473  -9.464   0.447  1.00  0.00     0.092 C 
ENDBRANCH   6  10
TORSDOF 1
ENDMDL
MODEL 9
REMARK VINA RESULT:      -4.9     15.589     16.475
REMARK  1 active torsions:
REMARK  status: ('A' for Active; 'I' for Inactive)
REMARK    1  A    between atoms: C_6  and  C_10 
ROOT
HETATM    1  C   UNL     1     -19.691  -5.224  -6.836  1.00  0.00     0.077 C 
HETATM    2  C   UNL     1     -20.421  -6.072  -5.841  1.00  0.00     0.056 C 
HETATM    3  C   UNL     1     -20.980  -5.579  -4.734  1.00  0.00     0.084 C 
HETATM    4  C   UNL     1     -21.683  -6.499  -3.836  1.00  0.00     0.172 C 
HETATM    5  O   UNL     1     -22.322  -6.036  -2.891  1.00  0.00    -0.292 OA
HETATM    6  C   UNL     1     -21.595  -7.967  -4.084  1.00  0.00     0.228 C 
HETATM    7  C   UNL     1     -21.040  -8.385  -5.402  1.00  0.00     0.282 C 
HETATM    8  O   UNL     1     -21.090  -9.559  -5.767  1.00  0.00    -0.264 OA
HETATM    9  O   UNL     1     -20.480  -7.433  -6.196  1.00  0.00    -0.283 OA
ENDROOT
BRANCH   6  10
HETATM   10  C   UNL     1     -20.834  -8.643  -2.974  1.00  0.00     0.144 C 
HETATM   11  O   UNL     1     -19.602  -8.605  -2.935  1.00  0.00    -0.297 OA
HETATM   12  C   UNL     1     -21.613  -9.390  -1.923  1.00  0.00     0.092 C 
ENDBRANCH   6  10
TORSDOF 1
ENDMDL
