MODEL 1
REMARK VINA RESULT:      -1.1      0.000      0.000
REMARK  11 active torsions:
REMARK  status: ('A' for Active; 'I' for Inactive)
REMARK    1  A    between atoms: N_2  and  C_4 
REMARK    2  A    between atoms: N_2  and  C_7 
REMARK    3  A    between atoms: C_4  and  C_5 
REMARK    4  A    between atoms: C_5  and  O_6 
REMARK    5  A    between atoms: C_7  and  C_8 
REMARK    6  A    between atoms: C_8  and  C_9 
REMARK    7  A    between atoms: C_8  and  O_16 
REMARK    8  A    between atoms: C_9  and  N_10 
REMARK    9  A    between atoms: N_10  and  C_13 
REMARK   10  A    between atoms: C_13  and  C_14 
REMARK   11  A    between atoms: C_14  and  O_15 
ROOT
HETATM    1 CL   UNL     2     -32.951  -3.302 -11.391  1.00  0.00     0.000 Cl
ENDROOT
TORSDOF 11
ENDMDL
MODEL 2
REMARK VINA RESULT:      -1.0      8.562      8.562
REMARK  11 active torsions:
REMARK  status: ('A' for Active; 'I' for Inactive)
REMARK    1  A    between atoms: N_2  and  C_4 
REMARK    2  A    between atoms: N_2  and  C_7 
REMARK    3  A    between atoms: C_4  and  C_5 
REMARK    4  A    between atoms: C_5  and  O_6 
REMARK    5  A    between atoms: C_7  and  C_8 
REMARK    6  A    between atoms: C_8  and  C_9 
REMARK    7  A    between atoms: C_8  and  O_16 
REMARK    8  A    between atoms: C_9  and  N_10 
REMARK    9  A    between atoms: N_10  and  C_13 
REMARK   10  A    between atoms: C_13  and  C_14 
REMARK   11  A    between atoms: C_14  and  O_15 
ROOT
HETATM    1 CL   UNL     2     -37.016   0.580  -4.933  1.00  0.00     0.000 Cl
ENDROOT
TORSDOF 11
ENDMDL
MODEL 3
REMARK VINA RESULT:      -1.0     11.259     11.259
REMARK  11 active torsions:
REMARK  status: ('A' for Active; 'I' for Inactive)
REMARK    1  A    between atoms: N_2  and  C_4 
REMARK    2  A    between atoms: N_2  and  C_7 
REMARK    3  A    between atoms: C_4  and  C_5 
REMARK    4  A    between atoms: C_5  and  O_6 
REMARK    5  A    between atoms: C_7  and  C_8 
REMARK    6  A    between atoms: C_8  and  C_9 
REMARK    7  A    between atoms: C_8  and  O_16 
REMARK    8  A    between atoms: C_9  and  N_10 
REMARK    9  A    between atoms: N_10  and  C_13 
REMARK   10  A    between atoms: C_13  and  C_14 
REMARK   11  A    between atoms: C_14  and  O_15 
ROOT
HETATM    1 CL   UNL     2     -29.825   7.428 -12.753  1.00  0.00     0.000 Cl
ENDROOT
TORSDOF 11
ENDMDL
MODEL 4
REMARK VINA RESULT:      -1.0     14.601     14.601
REMARK  11 active torsions:
REMARK  status: ('A' for Active; 'I' for Inactive)
REMARK    1  A    between atoms: N_2  and  C_4 
REMARK    2  A    between atoms: N_2  and  C_7 
REMARK    3  A    between atoms: C_4  and  C_5 
REMARK    4  A    between atoms: C_5  and  O_6 
REMARK    5  A    between atoms: C_7  and  C_8 
REMARK    6  A    between atoms: C_8  and  C_9 
REMARK    7  A    between atoms: C_8  and  O_16 
REMARK    8  A    between atoms: C_9  and  N_10 
REMARK    9  A    between atoms: N_10  and  C_13 
REMARK   10  A    between atoms: C_13  and  C_14 
REMARK   11  A    between atoms: C_14  and  O_15 
ROOT
HETATM    1 CL   UNL     2     -22.240  -6.151  -1.885  1.00  0.00     0.000 Cl
ENDROOT
TORSDOF 11
ENDMDL
MODEL 5
REMARK VINA RESULT:      -0.9      1.578      1.578
REMARK  11 active torsions:
REMARK  status: ('A' for Active; 'I' for Inactive)
REMARK    1  A    between atoms: N_2  and  C_4 
REMARK    2  A    between atoms: N_2  and  C_7 
REMARK    3  A    between atoms: C_4  and  C_5 
REMARK    4  A    between atoms: C_5  and  O_6 
REMARK    5  A    between atoms: C_7  and  C_8 
REMARK    6  A    between atoms: C_8  and  C_9 
REMARK    7  A    between atoms: C_8  and  O_16 
REMARK    8  A    between atoms: C_9  and  N_10 
REMARK    9  A    between atoms: N_10  and  C_13 
REMARK   10  A    between atoms: C_13  and  C_14 
REMARK   11  A    between atoms: C_14  and  O_15 
ROOT
HETATM    1 CL   UNL     2     -33.854  -4.232 -10.491  1.00  0.00     0.000 Cl
ENDROOT
TORSDOF 11
ENDMDL
MODEL 6
REMARK VINA RESULT:      -0.9     12.032     12.032
REMARK  11 active torsions:
REMARK  status: ('A' for Active; 'I' for Inactive)
REMARK    1  A    between atoms: N_2  and  C_4 
REMARK    2  A    between atoms: N_2  and  C_7 
REMARK    3  A    between atoms: C_4  and  C_5 
REMARK    4  A    between atoms: C_5  and  O_6 
REMARK    5  A    between atoms: C_7  and  C_8 
REMARK    6  A    between atoms: C_8  and  C_9 
REMARK    7  A    between atoms: C_8  and  O_16 
REMARK    8  A    between atoms: C_9  and  N_10 
REMARK    9  A    between atoms: N_10  and  C_13 
REMARK   10  A    between atoms: C_13  and  C_14 
REMARK   11  A    between atoms: C_14  and  O_15 
ROOT
HETATM    1 CL   UNL     2     -27.117   7.218 -11.166  1.00  0.00     0.000 Cl
ENDROOT
TORSDOF 11
ENDMDL
MODEL 7
REMARK VINA RESULT:      -0.9     30.910     30.910
REMARK  11 active torsions:
REMARK  status: ('A' for Active; 'I' for Inactive)
REMARK    1  A    between atoms: N_2  and  C_4 
REMARK    2  A    between atoms: N_2  and  C_7 
REMARK    3  A    between atoms: C_4  and  C_5 
REMARK    4  A    between atoms: C_5  and  O_6 
REMARK    5  A    between atoms: C_7  and  C_8 
REMARK    6  A    between atoms: C_8  and  C_9 
REMARK    7  A    between atoms: C_8  and  O_16 
REMARK    8  A    between atoms: C_9  and  N_10 
REMARK    9  A    between atoms: N_10  and  C_13 
REMARK   10  A    between atoms: C_13  and  C_14 
REMARK   11  A    between atoms: C_14  and  O_15 
ROOT
HETATM    1 CL   UNL     2      -9.186 -12.833   5.925  1.00  0.00     0.000 Cl
ENDROOT
TORSDOF 11
ENDMDL
MODEL 8
REMARK VINA RESULT:      -0.9     11.497     11.497
REMARK  11 active torsions:
REMARK  status: ('A' for Active; 'I' for Inactive)
REMARK    1  A    between atoms: N_2  and  C_4 
REMARK    2  A    between atoms: N_2  and  C_7 
REMARK    3  A    between atoms: C_4  and  C_5 
REMARK    4  A    between atoms: C_5  and  O_6 
REMARK    5  A    between atoms: C_7  and  C_8 
REMARK    6  A    between atoms: C_8  and  C_9 
REMARK    7  A    between atoms: C_8  and  O_16 
REMARK    8  A    between atoms: C_9  and  N_10 
REMARK    9  A    between atoms: N_10  and  C_13 
REMARK   10  A    between atoms: C_13  and  C_14 
REMARK   11  A    between atoms: C_14  and  O_15 
ROOT
HETATM    1 CL   UNL     2     -26.117   5.849 -10.070  1.00  0.00     0.000 Cl
ENDROOT
TORSDOF 11
ENDMDL
MODEL 9
REMARK VINA RESULT:      -0.9     18.623     18.623
REMARK  11 active torsions:
REMARK  status: ('A' for Active; 'I' for Inactive)
REMARK    1  A    between atoms: N_2  and  C_4 
REMARK    2  A    between atoms: N_2  and  C_7 
REMARK    3  A    between atoms: C_4  and  C_5 
REMARK    4  A    between atoms: C_5  and  O_6 
REMARK    5  A    between atoms: C_7  and  C_8 
REMARK    6  A    between atoms: C_8  and  C_9 
REMARK    7  A    between atoms: C_8  and  O_16 
REMARK    8  A    between atoms: C_9  and  N_10 
REMARK    9  A    between atoms: N_10  and  C_13 
REMARK   10  A    between atoms: C_13  and  C_14 
REMARK   11  A    between atoms: C_14  and  O_15 
ROOT
HETATM    1 CL   UNL     2     -29.163   6.522   3.969  1.00  0.00     0.000 Cl
ENDROOT
TORSDOF 11
ENDMDL
