MODEL 1
REMARK VINA RESULT:     -10.6      0.000      0.000
REMARK  10 active torsions:
REMARK  status: ('A' for Active; 'I' for Inactive)
REMARK    1  A    between atoms: C_3  and  C_10 
REMARK    2  A    between atoms: C_11  and  C_12 
REMARK    3  A    between atoms: C_13  and  C_14 
REMARK    4  A    between atoms: C_15  and  C_16 
REMARK    5  A    between atoms: C_17  and  C_18 
REMARK    6  A    between atoms: C_19  and  C_20 
REMARK    7  A    between atoms: C_21  and  C_23 
REMARK    8  A    between atoms: C_24  and  C_25 
REMARK    9  A    between atoms: C_26  and  C_28 
REMARK   10  A    between atoms: C_29  and  C_30 
ROOT
HETATM    1  C   UNL     1     -22.181 -10.033  -1.110  1.00  0.00     0.001 C 
HETATM    2  C   UNL     1     -21.000  -9.454  -1.438  1.00  0.00     0.001 C 
ENDROOT
BRANCH   1   3
HETATM    3  C   UNL     1     -22.480 -10.922   0.013  1.00  0.00     0.007 C 
HETATM    4  C   UNL     1     -23.031 -12.167  -0.069  1.00  0.00    -0.062 C 
HETATM    5  C   UNL     1     -23.285 -13.081   1.104  1.00  0.00     0.048 C 
BRANCH   4   6
HETATM    6  C   UNL     1     -23.491 -12.700  -1.346  1.00  0.00     0.007 C 
HETATM    7  C   UNL     1     -22.764 -12.434  -2.433  1.00  0.00     0.001 C 
BRANCH   7   8
HETATM    8  C   UNL     1     -22.924 -12.925  -3.772  1.00  0.00     0.007 C 
HETATM    9  C   UNL     1     -21.998 -12.674  -4.725  1.00  0.00    -0.062 C 
HETATM   10  C   UNL     1     -22.034 -13.407  -6.029  1.00  0.00     0.048 C 
BRANCH   9  11
HETATM   11  C   UNL     1     -20.930 -11.680  -4.567  1.00  0.00     0.007 C 
HETATM   12  C   UNL     1     -19.708 -12.039  -4.141  1.00  0.00     0.009 C 
BRANCH  12  13
HETATM   13  C   UNL     1     -18.544 -11.219  -3.835  1.00  0.00    -0.048 C 
HETATM   14  C   UNL     1     -17.911 -11.470  -2.646  1.00  0.00    -0.077 C 
HETATM   15  C   UNL     1     -18.226 -12.557  -1.627  1.00  0.00     0.044 C 
HETATM   16  C   UNL     1     -16.733 -10.654  -2.168  1.00  0.00     0.034 C 
HETATM   17  C   UNL     1     -16.579  -9.397  -2.999  1.00  0.00     0.005 C 
HETATM   18  C   UNL     1     -16.506  -9.833  -4.462  1.00  0.00     0.014 C 
HETATM   19  C   UNL     1     -17.913 -10.292  -4.950  1.00  0.00    -0.020 C 
HETATM   20  C   UNL     1     -17.717 -11.116  -6.252  1.00  0.00     0.020 C 
HETATM   21  C   UNL     1     -18.649  -8.990  -5.395  1.00  0.00     0.020 C 
ENDBRANCH  12  13
ENDBRANCH   9  11
ENDBRANCH   7   8
ENDBRANCH   4   6
ENDBRANCH   1   3
BRANCH   2  22
HETATM   22  C   UNL     1     -20.874  -8.358  -2.422  1.00  0.00     0.007 C 
HETATM   23  C   UNL     1     -21.444  -7.126  -2.428  1.00  0.00    -0.062 C 
HETATM   24  C   UNL     1     -22.317  -6.508  -1.358  1.00  0.00     0.048 C 
BRANCH  23  25
HETATM   25  C   UNL     1     -21.275  -6.155  -3.534  1.00  0.00     0.007 C 
HETATM   26  C   UNL     1     -21.552  -6.425  -4.829  1.00  0.00     0.001 C 
BRANCH  26  27
HETATM   27  C   UNL     1     -21.865  -5.415  -5.853  1.00  0.00     0.007 C 
HETATM   28  C   UNL     1     -20.983  -4.780  -6.668  1.00  0.00    -0.062 C 
HETATM   29  C   UNL     1     -19.492  -4.802  -6.427  1.00  0.00     0.048 C 
BRANCH  28  30
HETATM   30  C   UNL     1     -21.442  -4.050  -7.878  1.00  0.00     0.007 C 
HETATM   31  C   UNL     1     -21.667  -4.613  -9.087  1.00  0.00     0.009 C 
BRANCH  31  32
HETATM   32  C   UNL     1     -22.278  -4.014 -10.285  1.00  0.00    -0.048 C 
HETATM   33  C   UNL     1     -21.560  -3.439 -11.283  1.00  0.00    -0.077 C 
HETATM   34  C   UNL     1     -22.202  -2.842 -12.525  1.00  0.00     0.034 C 
HETATM   35  C   UNL     1     -20.054  -3.366 -11.337  1.00  0.00     0.044 C 
HETATM   36  C   UNL     1     -23.713  -2.678 -12.455  1.00  0.00     0.005 C 
HETATM   37  C   UNL     1     -24.340  -3.915 -11.840  1.00  0.00     0.014 C 
HETATM   38  C   UNL     1     -23.824  -4.188 -10.398  1.00  0.00    -0.020 C 
HETATM   39  C   UNL     1     -24.297  -5.623 -10.056  1.00  0.00     0.020 C 
HETATM   40  C   UNL     1     -24.521  -3.216  -9.422  1.00  0.00     0.020 C 
ENDBRANCH  31  32
ENDBRANCH  28  30
ENDBRANCH  26  27
ENDBRANCH  23  25
ENDBRANCH   2  22
TORSDOF 10
ENDMDL
MODEL 2
REMARK VINA RESULT:     -10.5      1.047      1.824
REMARK  10 active torsions:
REMARK  status: ('A' for Active; 'I' for Inactive)
REMARK    1  A    between atoms: C_3  and  C_10 
REMARK    2  A    between atoms: C_11  and  C_12 
REMARK    3  A    between atoms: C_13  and  C_14 
REMARK    4  A    between atoms: C_15  and  C_16 
REMARK    5  A    between atoms: C_17  and  C_18 
REMARK    6  A    between atoms: C_19  and  C_20 
REMARK    7  A    between atoms: C_21  and  C_23 
REMARK    8  A    between atoms: C_24  and  C_25 
REMARK    9  A    between atoms: C_26  and  C_28 
REMARK   10  A    between atoms: C_29  and  C_30 
ROOT
HETATM    1  C   UNL     1     -21.183  -9.201  -0.203  1.00  0.00     0.001 C 
HETATM    2  C   UNL     1     -22.062  -8.180  -0.355  1.00  0.00     0.001 C 
ENDROOT
BRANCH   1   3
HETATM    3  C   UNL     1     -21.310 -10.397   0.628  1.00  0.00     0.007 C 
HETATM    4  C   UNL     1     -21.970 -11.544   0.297  1.00  0.00    -0.062 C 
HETATM    5  C   UNL     1     -22.045 -12.781   1.156  1.00  0.00     0.048 C 
BRANCH   4   6
HETATM    6  C   UNL     1     -22.738 -11.635  -0.940  1.00  0.00     0.007 C 
HETATM    7  C   UNL     1     -22.079 -11.920  -2.065  1.00  0.00     0.001 C 
BRANCH   7   8
HETATM    8  C   UNL     1     -22.599 -12.179  -3.377  1.00  0.00     0.007 C 
HETATM    9  C   UNL     1     -21.773 -12.394  -4.428  1.00  0.00    -0.062 C 
HETATM   10  C   UNL     1     -22.311 -12.926  -5.719  1.00  0.00     0.048 C 
BRANCH   9  11
HETATM   11  C   UNL     1     -20.333 -12.113  -4.389  1.00  0.00     0.007 C 
HETATM   12  C   UNL     1     -19.694 -11.627  -5.466  1.00  0.00     0.009 C 
BRANCH  12  13
HETATM   13  C   UNL     1     -18.278 -11.361  -5.673  1.00  0.00    -0.048 C 
HETATM   14  C   UNL     1     -17.600 -12.234  -6.484  1.00  0.00    -0.077 C 
HETATM   15  C   UNL     1     -18.161 -13.416  -7.264  1.00  0.00     0.044 C 
HETATM   16  C   UNL     1     -16.116 -12.120  -6.734  1.00  0.00     0.034 C 
HETATM   17  C   UNL     1     -15.480 -11.153  -5.758  1.00  0.00     0.005 C 
HETATM   18  C   UNL     1     -16.250  -9.838  -5.864  1.00  0.00     0.014 C 
HETATM   19  C   UNL     1     -17.652  -9.988  -5.199  1.00  0.00    -0.020 C 
HETATM   20  C   UNL     1     -18.542  -8.818  -5.700  1.00  0.00     0.020 C 
HETATM   21  C   UNL     1     -17.428  -9.712  -3.680  1.00  0.00     0.020 C 
ENDBRANCH  12  13
ENDBRANCH   9  11
ENDBRANCH   7   8
ENDBRANCH   4   6
ENDBRANCH   1   3
BRANCH   2  22
HETATM   22  C   UNL     1     -21.960  -7.168  -1.427  1.00  0.00     0.007 C 
HETATM   23  C   UNL     1     -21.680  -7.324  -2.746  1.00  0.00    -0.062 C 
HETATM   24  C   UNL     1     -21.472  -8.621  -3.498  1.00  0.00     0.048 C 
BRANCH  23  25
HETATM   25  C   UNL     1     -21.540  -6.191  -3.691  1.00  0.00     0.007 C 
HETATM   26  C   UNL     1     -21.179  -6.325  -4.987  1.00  0.00     0.001 C 
BRANCH  26  27
HETATM   27  C   UNL     1     -21.485  -5.356  -6.051  1.00  0.00     0.007 C 
HETATM   28  C   UNL     1     -20.592  -4.686  -6.825  1.00  0.00    -0.062 C 
HETATM   29  C   UNL     1     -19.120  -4.617  -6.493  1.00  0.00     0.048 C 
BRANCH  28  30
HETATM   30  C   UNL     1     -21.015  -4.009  -8.079  1.00  0.00     0.007 C 
HETATM   31  C   UNL     1     -21.680  -4.602  -9.096  1.00  0.00     0.009 C 
BRANCH  31  32
HETATM   32  C   UNL     1     -22.285  -3.984 -10.288  1.00  0.00    -0.048 C 
HETATM   33  C   UNL     1     -21.563  -3.403 -11.278  1.00  0.00    -0.077 C 
HETATM   34  C   UNL     1     -22.199  -2.786 -12.513  1.00  0.00     0.034 C 
HETATM   35  C   UNL     1     -20.056  -3.339 -11.330  1.00  0.00     0.044 C 
HETATM   36  C   UNL     1     -23.709  -2.612 -12.443  1.00  0.00     0.005 C 
HETATM   37  C   UNL     1     -24.345  -3.852 -11.844  1.00  0.00     0.014 C 
HETATM   38  C   UNL     1     -23.832  -4.146 -10.405  1.00  0.00    -0.020 C 
HETATM   39  C   UNL     1     -24.315  -5.582 -10.081  1.00  0.00     0.020 C 
HETATM   40  C   UNL     1     -24.524  -3.182  -9.418  1.00  0.00     0.020 C 
ENDBRANCH  31  32
ENDBRANCH  28  30
ENDBRANCH  26  27
ENDBRANCH  23  25
ENDBRANCH   2  22
TORSDOF 10
ENDMDL
MODEL 3
REMARK VINA RESULT:      -9.8      0.949      1.923
REMARK  10 active torsions:
REMARK  status: ('A' for Active; 'I' for Inactive)
REMARK    1  A    between atoms: C_3  and  C_10 
REMARK    2  A    between atoms: C_11  and  C_12 
REMARK    3  A    between atoms: C_13  and  C_14 
REMARK    4  A    between atoms: C_15  and  C_16 
REMARK    5  A    between atoms: C_17  and  C_18 
REMARK    6  A    between atoms: C_19  and  C_20 
REMARK    7  A    between atoms: C_21  and  C_23 
REMARK    8  A    between atoms: C_24  and  C_25 
REMARK    9  A    between atoms: C_26  and  C_28 
REMARK   10  A    between atoms: C_29  and  C_30 
ROOT
HETATM    1  C   UNL     1     -22.273 -10.077  -0.943  1.00  0.00     0.001 C 
HETATM    2  C   UNL     1     -21.097  -9.522  -1.328  1.00  0.00     0.001 C 
ENDROOT
BRANCH   1   3
HETATM    3  C   UNL     1     -22.535 -10.967   0.187  1.00  0.00     0.007 C 
HETATM    4  C   UNL     1     -23.117 -12.199   0.126  1.00  0.00    -0.062 C 
HETATM    5  C   UNL     1     -23.333 -13.115   1.305  1.00  0.00     0.048 C 
BRANCH   4   6
HETATM    6  C   UNL     1     -23.655 -12.711  -1.129  1.00  0.00     0.007 C 
HETATM    7  C   UNL     1     -22.993 -13.701  -1.734  1.00  0.00     0.001 C 
BRANCH   7   8
HETATM    8  C   UNL     1     -23.361 -14.455  -2.898  1.00  0.00     0.007 C 
HETATM    9  C   UNL     1     -22.799 -14.201  -4.102  1.00  0.00    -0.062 C 
HETATM   10  C   UNL     1     -22.981 -15.156  -5.240  1.00  0.00     0.048 C 
BRANCH   9  11
HETATM   11  C   UNL     1     -22.007 -12.997  -4.383  1.00  0.00     0.007 C 
HETATM   12  C   UNL     1     -20.732 -12.897  -3.975  1.00  0.00     0.009 C 
BRANCH  12  13
HETATM   13  C   UNL     1     -19.804 -11.780  -4.068  1.00  0.00    -0.048 C 
HETATM   14  C   UNL     1     -18.839 -11.699  -3.098  1.00  0.00    -0.077 C 
HETATM   15  C   UNL     1     -18.564 -12.679  -1.965  1.00  0.00     0.044 C 
HETATM   16  C   UNL     1     -17.853 -10.558  -3.030  1.00  0.00     0.034 C 
HETATM   17  C   UNL     1     -18.275  -9.429  -3.947  1.00  0.00     0.005 C 
HETATM   18  C   UNL     1     -18.466 -10.029  -5.339  1.00  0.00     0.014 C 
HETATM   19  C   UNL     1     -19.767 -10.887  -5.373  1.00  0.00    -0.020 C 
HETATM   20  C   UNL     1     -19.695 -11.806  -6.622  1.00  0.00     0.020 C 
HETATM   21  C   UNL     1     -20.924  -9.883  -5.668  1.00  0.00     0.020 C 
ENDBRANCH  12  13
ENDBRANCH   9  11
ENDBRANCH   7   8
ENDBRANCH   4   6
ENDBRANCH   1   3
BRANCH   2  22
HETATM   22  C   UNL     1     -20.996  -8.423  -2.310  1.00  0.00     0.007 C 
HETATM   23  C   UNL     1     -21.530  -7.175  -2.276  1.00  0.00    -0.062 C 
HETATM   24  C   UNL     1     -22.324  -6.542  -1.154  1.00  0.00     0.048 C 
BRANCH  23  25
HETATM   25  C   UNL     1     -21.398  -6.200  -3.383  1.00  0.00     0.007 C 
HETATM   26  C   UNL     1     -21.704  -6.469  -4.672  1.00  0.00     0.001 C 
BRANCH  26  27
HETATM   27  C   UNL     1     -22.052  -5.459  -5.684  1.00  0.00     0.007 C 
HETATM   28  C   UNL     1     -21.193  -4.806  -6.511  1.00  0.00    -0.062 C 
HETATM   29  C   UNL     1     -19.699  -4.806  -6.297  1.00  0.00     0.048 C 
BRANCH  28  30
HETATM   30  C   UNL     1     -21.685  -4.077  -7.710  1.00  0.00     0.007 C 
HETATM   31  C   UNL     1     -21.905  -4.634  -8.923  1.00  0.00     0.009 C 
BRANCH  31  32
HETATM   32  C   UNL     1     -22.543  -4.041 -10.109  1.00  0.00    -0.048 C 
HETATM   33  C   UNL     1     -23.882  -3.856 -10.224  1.00  0.00    -0.077 C 
HETATM   34  C   UNL     1     -24.528  -3.224 -11.447  1.00  0.00     0.034 C 
HETATM   35  C   UNL     1     -24.898  -4.183  -9.158  1.00  0.00     0.044 C 
HETATM   36  C   UNL     1     -23.611  -3.065 -12.651  1.00  0.00     0.005 C 
HETATM   37  C   UNL     1     -22.253  -2.555 -12.204  1.00  0.00     0.014 C 
HETATM   38  C   UNL     1     -21.559  -3.519 -11.200  1.00  0.00    -0.020 C 
HETATM   39  C   UNL     1     -20.374  -2.715 -10.609  1.00  0.00     0.020 C 
HETATM   40  C   UNL     1     -20.973  -4.718 -11.977  1.00  0.00     0.020 C 
ENDBRANCH  31  32
ENDBRANCH  28  30
ENDBRANCH  26  27
ENDBRANCH  23  25
ENDBRANCH   2  22
TORSDOF 10
ENDMDL
MODEL 4
REMARK VINA RESULT:      -9.7      1.324      4.340
REMARK  10 active torsions:
REMARK  status: ('A' for Active; 'I' for Inactive)
REMARK    1  A    between atoms: C_3  and  C_10 
REMARK    2  A    between atoms: C_11  and  C_12 
REMARK    3  A    between atoms: C_13  and  C_14 
REMARK    4  A    between atoms: C_15  and  C_16 
REMARK    5  A    between atoms: C_17  and  C_18 
REMARK    6  A    between atoms: C_19  and  C_20 
REMARK    7  A    between atoms: C_21  and  C_23 
REMARK    8  A    between atoms: C_24  and  C_25 
REMARK    9  A    between atoms: C_26  and  C_28 
REMARK   10  A    between atoms: C_29  and  C_30 
ROOT
HETATM    1  C   UNL     1     -17.146  -9.532  -3.082  1.00  0.00     0.001 C 
HETATM    2  C   UNL     1     -18.431  -9.357  -2.685  1.00  0.00     0.001 C 
ENDROOT
BRANCH   1   3
HETATM    3  C   UNL     1     -16.158 -10.486  -2.578  1.00  0.00     0.007 C 
HETATM    4  C   UNL     1     -15.755 -11.632  -3.198  1.00  0.00    -0.062 C 
HETATM    5  C   UNL     1     -14.699 -12.574  -2.676  1.00  0.00     0.048 C 
BRANCH   4   6
HETATM    6  C   UNL     1     -16.391 -12.081  -4.431  1.00  0.00     0.007 C 
HETATM    7  C   UNL     1     -17.599 -12.643  -4.343  1.00  0.00     0.001 C 
BRANCH   7   8
HETATM    8  C   UNL     1     -18.483 -13.058  -5.394  1.00  0.00     0.007 C 
HETATM    9  C   UNL     1     -19.781 -12.676  -5.409  1.00  0.00    -0.062 C 
HETATM   10  C   UNL     1     -20.618 -12.882  -6.633  1.00  0.00     0.048 C 
BRANCH   9  11
HETATM   11  C   UNL     1     -20.453 -12.066  -4.256  1.00  0.00     0.007 C 
HETATM   12  C   UNL     1     -20.366 -12.615  -3.034  1.00  0.00     0.009 C 
BRANCH  12  13
HETATM   13  C   UNL     1     -21.012 -12.232  -1.787  1.00  0.00    -0.048 C 
HETATM   14  C   UNL     1     -20.193 -12.023  -0.708  1.00  0.00    -0.077 C 
HETATM   15  C   UNL     1     -18.671 -12.067  -0.665  1.00  0.00     0.044 C 
HETATM   16  C   UNL     1     -20.729 -11.687   0.662  1.00  0.00     0.034 C 
HETATM   17  C   UNL     1     -22.224 -11.921   0.726  1.00  0.00     0.005 C 
HETATM   18  C   UNL     1     -22.852 -11.128  -0.419  1.00  0.00     0.014 C 
HETATM   19  C   UNL     1     -22.540 -11.824  -1.779  1.00  0.00    -0.020 C 
HETATM   20  C   UNL     1     -22.802 -10.791  -2.910  1.00  0.00     0.020 C 
HETATM   21  C   UNL     1     -23.643 -12.913  -1.956  1.00  0.00     0.020 C 
ENDBRANCH  12  13
ENDBRANCH   9  11
ENDBRANCH   7   8
ENDBRANCH   4   6
ENDBRANCH   1   3
BRANCH   2  22
HETATM   22  C   UNL     1     -19.419  -8.564  -3.446  1.00  0.00     0.007 C 
HETATM   23  C   UNL     1     -20.553  -7.950  -3.021  1.00  0.00    -0.062 C 
HETATM   24  C   UNL     1     -21.071  -7.849  -1.603  1.00  0.00     0.048 C 
BRANCH  23  25
HETATM   25  C   UNL     1     -21.488  -7.245  -3.929  1.00  0.00     0.007 C 
HETATM   26  C   UNL     1     -21.217  -6.064  -4.529  1.00  0.00     0.001 C 
BRANCH  26  27
HETATM   27  C   UNL     1     -21.859  -5.579  -5.761  1.00  0.00     0.007 C 
HETATM   28  C   UNL     1     -21.236  -5.085  -6.863  1.00  0.00    -0.062 C 
HETATM   29  C   UNL     1     -19.782  -4.677  -6.862  1.00  0.00     0.048 C 
BRANCH  28  30
HETATM   30  C   UNL     1     -21.954  -4.952  -8.158  1.00  0.00     0.007 C 
HETATM   31  C   UNL     1     -22.146  -3.792  -8.826  1.00  0.00     0.009 C 
BRANCH  31  32
HETATM   32  C   UNL     1     -22.688  -3.584 -10.178  1.00  0.00    -0.048 C 
HETATM   33  C   UNL     1     -24.010  -3.433 -10.440  1.00  0.00    -0.077 C 
HETATM   34  C   UNL     1     -24.556  -3.199 -11.839  1.00  0.00     0.034 C 
HETATM   35  C   UNL     1     -25.103  -3.413  -9.400  1.00  0.00     0.044 C 
HETATM   36  C   UNL     1     -23.557  -3.420 -12.966  1.00  0.00     0.005 C 
HETATM   37  C   UNL     1     -22.218  -2.808 -12.599  1.00  0.00     0.014 C 
HETATM   38  C   UNL     1     -21.619  -3.426 -11.303  1.00  0.00    -0.020 C 
HETATM   39  C   UNL     1     -20.453  -2.488 -10.901  1.00  0.00     0.020 C 
HETATM   40  C   UNL     1     -21.018  -4.808 -11.637  1.00  0.00     0.020 C 
ENDBRANCH  31  32
ENDBRANCH  28  30
ENDBRANCH  26  27
ENDBRANCH  23  25
ENDBRANCH   2  22
TORSDOF 10
ENDMDL
MODEL 5
REMARK VINA RESULT:      -9.6      1.424      4.213
REMARK  10 active torsions:
REMARK  status: ('A' for Active; 'I' for Inactive)
REMARK    1  A    between atoms: C_3  and  C_10 
REMARK    2  A    between atoms: C_11  and  C_12 
REMARK    3  A    between atoms: C_13  and  C_14 
REMARK    4  A    between atoms: C_15  and  C_16 
REMARK    5  A    between atoms: C_17  and  C_18 
REMARK    6  A    between atoms: C_19  and  C_20 
REMARK    7  A    between atoms: C_21  and  C_23 
REMARK    8  A    between atoms: C_24  and  C_25 
REMARK    9  A    between atoms: C_26  and  C_28 
REMARK   10  A    between atoms: C_29  and  C_30 
ROOT
HETATM    1  C   UNL     1     -16.624  -9.691  -3.126  1.00  0.00     0.001 C 
HETATM    2  C   UNL     1     -17.960  -9.743  -2.899  1.00  0.00     0.001 C 
ENDROOT
BRANCH   1   3
HETATM    3  C   UNL     1     -15.579 -10.584  -2.629  1.00  0.00     0.007 C 
HETATM    4  C   UNL     1     -15.288 -11.829  -3.104  1.00  0.00    -0.062 C 
HETATM    5  C   UNL     1     -14.172 -12.711  -2.602  1.00  0.00     0.048 C 
BRANCH   4   6
HETATM    6  C   UNL     1     -16.114 -12.448  -4.135  1.00  0.00     0.007 C 
HETATM    7  C   UNL     1     -15.646 -12.463  -5.385  1.00  0.00     0.001 C 
BRANCH   7   8
HETATM    8  C   UNL     1     -16.194 -13.101  -6.548  1.00  0.00     0.007 C 
HETATM    9  C   UNL     1     -17.485 -12.914  -6.906  1.00  0.00    -0.062 C 
HETATM   10  C   UNL     1     -17.970 -13.356  -8.251  1.00  0.00     0.048 C 
BRANCH   9  11
HETATM   11  C   UNL     1     -18.484 -12.299  -6.024  1.00  0.00     0.007 C 
HETATM   12  C   UNL     1     -19.340 -13.054  -5.316  1.00  0.00     0.009 C 
BRANCH  12  13
HETATM   13  C   UNL     1     -20.449 -12.659  -4.460  1.00  0.00    -0.048 C 
HETATM   14  C   UNL     1     -20.227 -12.701  -3.108  1.00  0.00    -0.077 C 
HETATM   15  C   UNL     1     -18.933 -13.039  -2.380  1.00  0.00     0.044 C 
HETATM   16  C   UNL     1     -21.306 -12.384  -2.101  1.00  0.00     0.034 C 
HETATM   17  C   UNL     1     -22.664 -12.332  -2.768  1.00  0.00     0.005 C 
HETATM   18  C   UNL     1     -22.558 -11.341  -3.926  1.00  0.00     0.014 C 
HETATM   19  C   UNL     1     -21.726 -11.968  -5.086  1.00  0.00    -0.020 C 
HETATM   20  C   UNL     1     -21.278 -10.814  -6.024  1.00  0.00     0.020 C 
HETATM   21  C   UNL     1     -22.740 -12.808  -5.923  1.00  0.00     0.020 C 
ENDBRANCH  12  13
ENDBRANCH   9  11
ENDBRANCH   7   8
ENDBRANCH   4   6
ENDBRANCH   1   3
BRANCH   2  22
HETATM   22  C   UNL     1     -18.950  -8.964  -3.671  1.00  0.00     0.007 C 
HETATM   23  C   UNL     1     -20.181  -8.522  -3.309  1.00  0.00    -0.062 C 
HETATM   24  C   UNL     1     -20.845  -8.647  -1.955  1.00  0.00     0.048 C 
BRANCH  23  25
HETATM   25  C   UNL     1     -21.095  -7.807  -4.230  1.00  0.00     0.007 C 
HETATM   26  C   UNL     1     -20.851  -6.578  -4.739  1.00  0.00     0.001 C 
BRANCH  26  27
HETATM   27  C   UNL     1     -21.440  -6.046  -5.978  1.00  0.00     0.007 C 
HETATM   28  C   UNL     1     -20.794  -5.367  -6.961  1.00  0.00    -0.062 C 
HETATM   29  C   UNL     1     -19.411  -4.788  -6.776  1.00  0.00     0.048 C 
BRANCH  28  30
HETATM   30  C   UNL     1     -21.407  -5.186  -8.303  1.00  0.00     0.007 C 
HETATM   31  C   UNL     1     -22.011  -4.056  -8.736  1.00  0.00     0.009 C 
BRANCH  31  32
HETATM   32  C   UNL     1     -22.491  -3.726 -10.087  1.00  0.00    -0.048 C 
HETATM   33  C   UNL     1     -21.690  -3.245 -11.070  1.00  0.00    -0.077 C 
HETATM   34  C   UNL     1     -22.194  -2.927 -12.468  1.00  0.00     0.034 C 
HETATM   35  C   UNL     1     -20.203  -3.020 -10.944  1.00  0.00     0.044 C 
HETATM   36  C   UNL     1     -23.708  -2.916 -12.620  1.00  0.00     0.005 C 
HETATM   37  C   UNL     1     -24.311  -4.099 -11.886  1.00  0.00     0.014 C 
HETATM   38  C   UNL     1     -23.985  -4.080 -10.364  1.00  0.00    -0.020 C 
HETATM   39  C   UNL     1     -24.379  -5.484  -9.842  1.00  0.00     0.020 C 
HETATM   40  C   UNL     1     -24.895  -3.046  -9.668  1.00  0.00     0.020 C 
ENDBRANCH  31  32
ENDBRANCH  28  30
ENDBRANCH  26  27
ENDBRANCH  23  25
ENDBRANCH   2  22
TORSDOF 10
ENDMDL
MODEL 6
REMARK VINA RESULT:      -9.6      1.871      3.993
REMARK  10 active torsions:
REMARK  status: ('A' for Active; 'I' for Inactive)
REMARK    1  A    between atoms: C_3  and  C_10 
REMARK    2  A    between atoms: C_11  and  C_12 
REMARK    3  A    between atoms: C_13  and  C_14 
REMARK    4  A    between atoms: C_15  and  C_16 
REMARK    5  A    between atoms: C_17  and  C_18 
REMARK    6  A    between atoms: C_19  and  C_20 
REMARK    7  A    between atoms: C_21  and  C_23 
REMARK    8  A    between atoms: C_24  and  C_25 
REMARK    9  A    between atoms: C_26  and  C_28 
REMARK   10  A    between atoms: C_29  and  C_30 
ROOT
HETATM    1  C   UNL     1     -19.955 -11.020  -1.732  1.00  0.00     0.001 C 
HETATM    2  C   UNL     1     -20.740 -11.331  -2.793  1.00  0.00     0.001 C 
ENDROOT
BRANCH   1   3
HETATM    3  C   UNL     1     -19.052 -11.890  -0.979  1.00  0.00     0.007 C 
HETATM    4  C   UNL     1     -17.693 -11.786  -0.921  1.00  0.00    -0.062 C 
HETATM    5  C   UNL     1     -16.790 -12.671  -0.098  1.00  0.00     0.048 C 
BRANCH   4   6
HETATM    6  C   UNL     1     -16.982 -10.809  -1.736  1.00  0.00     0.007 C 
HETATM    7  C   UNL     1     -16.665 -11.151  -2.988  1.00  0.00     0.001 C 
BRANCH   7   8
HETATM    8  C   UNL     1     -16.079 -10.349  -4.024  1.00  0.00     0.007 C 
HETATM    9  C   UNL     1     -16.338 -10.595  -5.329  1.00  0.00    -0.062 C 
HETATM   10  C   UNL     1     -15.948  -9.602  -6.379  1.00  0.00     0.048 C 
BRANCH   9  11
HETATM   11  C   UNL     1     -16.984 -11.824  -5.804  1.00  0.00     0.007 C 
HETATM   12  C   UNL     1     -18.289 -12.050  -5.582  1.00  0.00     0.009 C 
BRANCH  12  13
HETATM   13  C   UNL     1     -19.101 -13.220  -5.884  1.00  0.00    -0.048 C 
HETATM   14  C   UNL     1     -19.089 -14.232  -4.960  1.00  0.00    -0.077 C 
HETATM   15  C   UNL     1     -18.387 -14.259  -3.609  1.00  0.00     0.044 C 
HETATM   16  C   UNL     1     -19.830 -15.530  -5.172  1.00  0.00     0.034 C 
HETATM   17  C   UNL     1     -20.290 -15.657  -6.609  1.00  0.00     0.005 C 
HETATM   18  C   UNL     1     -21.094 -14.400  -6.936  1.00  0.00     0.014 C 
HETATM   19  C   UNL     1     -20.136 -13.179  -7.080  1.00  0.00    -0.020 C 
HETATM   20  C   UNL     1     -20.993 -11.888  -6.973  1.00  0.00     0.020 C 
HETATM   21  C   UNL     1     -19.629 -13.214  -8.555  1.00  0.00     0.020 C 
ENDBRANCH  12  13
ENDBRANCH   9  11
ENDBRANCH   7   8
ENDBRANCH   4   6
ENDBRANCH   1   3
BRANCH   2  22
HETATM   22  C   UNL     1     -21.395 -10.319  -3.648  1.00  0.00     0.007 C 
HETATM   23  C   UNL     1     -20.864  -9.240  -4.279  1.00  0.00    -0.062 C 
HETATM   24  C   UNL     1     -19.409  -8.828  -4.337  1.00  0.00     0.048 C 
BRANCH  23  25
HETATM   25  C   UNL     1     -21.672  -8.267  -5.050  1.00  0.00     0.007 C 
HETATM   26  C   UNL     1     -21.709  -6.940  -4.794  1.00  0.00     0.001 C 
BRANCH  26  27
HETATM   27  C   UNL     1     -22.076  -5.903  -5.771  1.00  0.00     0.007 C 
HETATM   28  C   UNL     1     -21.256  -4.962  -6.308  1.00  0.00    -0.062 C 
HETATM   29  C   UNL     1     -19.891  -4.653  -5.741  1.00  0.00     0.048 C 
BRANCH  28  30
HETATM   30  C   UNL     1     -21.649  -4.203  -7.524  1.00  0.00     0.007 C 
HETATM   31  C   UNL     1     -21.708  -4.714  -8.775  1.00  0.00     0.009 C 
BRANCH  31  32
HETATM   32  C   UNL     1     -22.242  -4.097 -10.000  1.00  0.00    -0.048 C 
HETATM   33  C   UNL     1     -21.459  -3.586 -10.983  1.00  0.00    -0.077 C 
HETATM   34  C   UNL     1     -22.022  -2.970 -12.254  1.00  0.00     0.034 C 
HETATM   35  C   UNL     1     -19.950  -3.610 -10.991  1.00  0.00     0.044 C 
HETATM   36  C   UNL     1     -23.521  -2.708 -12.233  1.00  0.00     0.005 C 
HETATM   37  C   UNL     1     -24.245  -3.892 -11.621  1.00  0.00     0.014 C 
HETATM   38  C   UNL     1     -23.792  -4.173 -10.159  1.00  0.00    -0.020 C 
HETATM   39  C   UNL     1     -24.366  -5.570  -9.812  1.00  0.00     0.020 C 
HETATM   40  C   UNL     1     -24.454  -3.144  -9.220  1.00  0.00     0.020 C 
ENDBRANCH  31  32
ENDBRANCH  28  30
ENDBRANCH  26  27
ENDBRANCH  23  25
ENDBRANCH   2  22
TORSDOF 10
ENDMDL
MODEL 7
REMARK VINA RESULT:      -9.5      4.874     12.662
REMARK  10 active torsions:
REMARK  status: ('A' for Active; 'I' for Inactive)
REMARK    1  A    between atoms: C_3  and  C_10 
REMARK    2  A    between atoms: C_11  and  C_12 
REMARK    3  A    between atoms: C_13  and  C_14 
REMARK    4  A    between atoms: C_15  and  C_16 
REMARK    5  A    between atoms: C_17  and  C_18 
REMARK    6  A    between atoms: C_19  and  C_20 
REMARK    7  A    between atoms: C_21  and  C_23 
REMARK    8  A    between atoms: C_24  and  C_25 
REMARK    9  A    between atoms: C_26  and  C_28 
REMARK   10  A    between atoms: C_29  and  C_30 
ROOT
HETATM    1  C   UNL     1     -19.434  -9.190  -4.292  1.00  0.00     0.001 C 
HETATM    2  C   UNL     1     -18.918  -9.253  -3.040  1.00  0.00     0.001 C 
ENDROOT
BRANCH   1   3
HETATM    3  C   UNL     1     -19.848  -8.010  -5.050  1.00  0.00     0.007 C 
HETATM    4  C   UNL     1     -20.870  -7.164  -4.731  1.00  0.00    -0.062 C 
HETATM    5  C   UNL     1     -21.244  -5.926  -5.507  1.00  0.00     0.048 C 
BRANCH   4   6
HETATM    6  C   UNL     1     -21.750  -7.445  -3.604  1.00  0.00     0.007 C 
HETATM    7  C   UNL     1     -21.559  -6.759  -2.475  1.00  0.00     0.001 C 
BRANCH   7   8
HETATM    8  C   UNL     1     -22.345  -6.756  -1.274  1.00  0.00     0.007 C 
HETATM    9  C   UNL     1     -22.268  -7.772  -0.385  1.00  0.00    -0.062 C 
HETATM   10  C   UNL     1     -22.874  -7.637   0.976  1.00  0.00     0.048 C 
BRANCH   9  11
HETATM   11  C   UNL     1     -21.619  -9.055  -0.683  1.00  0.00     0.007 C 
HETATM   12  C   UNL     1     -22.341 -10.131  -1.035  1.00  0.00     0.009 C 
BRANCH  12  13
HETATM   13  C   UNL     1     -21.919 -11.500  -1.287  1.00  0.00    -0.048 C 
HETATM   14  C   UNL     1     -21.985 -11.936  -2.585  1.00  0.00    -0.077 C 
HETATM   15  C   UNL     1     -22.378 -11.139  -3.822  1.00  0.00     0.044 C 
HETATM   16  C   UNL     1     -21.644 -13.352  -2.982  1.00  0.00     0.034 C 
HETATM   17  C   UNL     1     -21.536 -14.241  -1.761  1.00  0.00     0.005 C 
HETATM   18  C   UNL     1     -20.535 -13.582  -0.813  1.00  0.00     0.014 C 
HETATM   19  C   UNL     1     -21.176 -12.321  -0.157  1.00  0.00    -0.020 C 
HETATM   20  C   UNL     1     -20.027 -11.459   0.433  1.00  0.00     0.020 C 
HETATM   21  C   UNL     1     -21.969 -12.848   1.079  1.00  0.00     0.020 C 
ENDBRANCH  12  13
ENDBRANCH   9  11
ENDBRANCH   7   8
ENDBRANCH   4   6
ENDBRANCH   1   3
BRANCH   2  22
HETATM   22  C   UNL     1     -18.277 -10.461  -2.481  1.00  0.00     0.007 C 
HETATM   23  C   UNL     1     -16.961 -10.755  -2.328  1.00  0.00    -0.062 C 
HETATM   24  C   UNL     1     -15.776  -9.861  -2.624  1.00  0.00     0.048 C 
BRANCH  23  25
HETATM   25  C   UNL     1     -16.468 -12.053  -1.812  1.00  0.00     0.007 C 
HETATM   26  C   UNL     1     -15.263 -12.583  -2.118  1.00  0.00     0.001 C 
BRANCH  26  27
HETATM   27  C   UNL     1     -14.543 -13.571  -1.298  1.00  0.00     0.007 C 
HETATM   28  C   UNL     1     -13.341 -14.140  -1.576  1.00  0.00    -0.062 C 
HETATM   29  C   UNL     1     -12.700 -14.060  -2.941  1.00  0.00     0.048 C 
BRANCH  28  30
HETATM   30  C   UNL     1     -12.564 -14.848  -0.525  1.00  0.00     0.007 C 
HETATM   31  C   UNL     1     -11.881 -14.247   0.475  1.00  0.00     0.009 C 
BRANCH  31  32
HETATM   32  C   UNL     1     -11.231 -14.857   1.646  1.00  0.00    -0.048 C 
HETATM   33  C   UNL     1     -11.823 -15.795   2.427  1.00  0.00    -0.077 C 
HETATM   34  C   UNL     1     -11.133 -16.433   3.622  1.00  0.00     0.034 C 
HETATM   35  C   UNL     1     -13.195 -16.378   2.193  1.00  0.00     0.044 C 
HETATM   36  C   UNL     1      -9.842 -15.755   4.058  1.00  0.00     0.005 C 
HETATM   37  C   UNL     1      -9.006 -15.403   2.843  1.00  0.00     0.014 C 
HETATM   38  C   UNL     1      -9.746 -14.438   1.873  1.00  0.00    -0.020 C 
HETATM   39  C   UNL     1      -8.911 -14.447   0.568  1.00  0.00     0.020 C 
HETATM   40  C   UNL     1      -9.699 -13.009   2.453  1.00  0.00     0.020 C 
ENDBRANCH  31  32
ENDBRANCH  28  30
ENDBRANCH  26  27
ENDBRANCH  23  25
ENDBRANCH   2  22
TORSDOF 10
ENDMDL
MODEL 8
REMARK VINA RESULT:      -9.4      1.550      4.331
REMARK  10 active torsions:
REMARK  status: ('A' for Active; 'I' for Inactive)
REMARK    1  A    between atoms: C_3  and  C_10 
REMARK    2  A    between atoms: C_11  and  C_12 
REMARK    3  A    between atoms: C_13  and  C_14 
REMARK    4  A    between atoms: C_15  and  C_16 
REMARK    5  A    between atoms: C_17  and  C_18 
REMARK    6  A    between atoms: C_19  and  C_20 
REMARK    7  A    between atoms: C_21  and  C_23 
REMARK    8  A    between atoms: C_24  and  C_25 
REMARK    9  A    between atoms: C_26  and  C_28 
REMARK   10  A    between atoms: C_29  and  C_30 
ROOT
HETATM    1  C   UNL     1     -17.854 -10.106  -2.938  1.00  0.00     0.001 C 
HETATM    2  C   UNL     1     -17.922  -9.767  -4.250  1.00  0.00     0.001 C 
ENDROOT
BRANCH   1   3
HETATM    3  C   UNL     1     -16.739 -10.710  -2.210  1.00  0.00     0.007 C 
HETATM    4  C   UNL     1     -16.796 -11.830  -1.432  1.00  0.00    -0.062 C 
HETATM    5  C   UNL     1     -15.618 -12.458  -0.729  1.00  0.00     0.048 C 
BRANCH   4   6
HETATM    6  C   UNL     1     -18.067 -12.491  -1.164  1.00  0.00     0.007 C 
HETATM    7  C   UNL     1     -18.487 -13.416  -2.031  1.00  0.00     0.001 C 
BRANCH   7   8
HETATM    8  C   UNL     1     -19.625 -14.286  -1.945  1.00  0.00     0.007 C 
HETATM    9  C   UNL     1     -20.885 -13.793  -1.950  1.00  0.00    -0.062 C 
HETATM   10  C   UNL     1     -22.055 -14.707  -2.133  1.00  0.00     0.048 C 
BRANCH   9  11
HETATM   11  C   UNL     1     -21.193 -12.370  -1.764  1.00  0.00     0.007 C 
HETATM   12  C   UNL     1     -21.576 -11.896  -0.568  1.00  0.00     0.009 C 
BRANCH  12  13
HETATM   13  C   UNL     1     -22.006 -10.559  -0.184  1.00  0.00    -0.048 C 
HETATM   14  C   UNL     1     -23.356 -10.356  -0.069  1.00  0.00    -0.077 C 
HETATM   15  C   UNL     1     -24.473 -11.380  -0.220  1.00  0.00     0.044 C 
HETATM   16  C   UNL     1     -23.948  -9.006   0.255  1.00  0.00     0.034 C 
HETATM   17  C   UNL     1     -22.903  -7.917   0.122  1.00  0.00     0.005 C 
HETATM   18  C   UNL     1     -21.717  -8.324   0.995  1.00  0.00     0.014 C 
HETATM   19  C   UNL     1     -20.946  -9.502   0.328  1.00  0.00    -0.020 C 
HETATM   20  C   UNL     1     -20.050 -10.158   1.414  1.00  0.00     0.020 C 
HETATM   21  C   UNL     1     -19.953  -8.839  -0.677  1.00  0.00     0.020 C 
ENDBRANCH  12  13
ENDBRANCH   9  11
ENDBRANCH   7   8
ENDBRANCH   4   6
ENDBRANCH   1   3
BRANCH   2  22
HETATM   22  C   UNL     1     -18.985  -8.911  -4.817  1.00  0.00     0.007 C 
HETATM   23  C   UNL     1     -20.334  -9.019  -4.715  1.00  0.00    -0.062 C 
HETATM   24  C   UNL     1     -21.120 -10.027  -3.904  1.00  0.00     0.048 C 
BRANCH  23  25
HETATM   25  C   UNL     1     -21.280  -8.114  -5.408  1.00  0.00     0.007 C 
HETATM   26  C   UNL     1     -21.438  -6.806  -5.105  1.00  0.00     0.001 C 
BRANCH  26  27
HETATM   27  C   UNL     1     -21.965  -5.786  -6.025  1.00  0.00     0.007 C 
HETATM   28  C   UNL     1     -21.248  -4.850  -6.702  1.00  0.00    -0.062 C 
HETATM   29  C   UNL     1     -19.812  -4.527  -6.366  1.00  0.00     0.048 C 
BRANCH  28  30
HETATM   30  C   UNL     1     -21.837  -4.111  -7.849  1.00  0.00     0.007 C 
HETATM   31  C   UNL     1     -21.645  -4.418  -9.152  1.00  0.00     0.009 C 
BRANCH  31  32
HETATM   32  C   UNL     1     -22.312  -3.860 -10.340  1.00  0.00    -0.048 C 
HETATM   33  C   UNL     1     -21.649  -3.232 -11.344  1.00  0.00    -0.077 C 
HETATM   34  C   UNL     1     -22.347  -2.677 -12.576  1.00  0.00     0.034 C 
HETATM   35  C   UNL     1     -20.153  -3.053 -11.417  1.00  0.00     0.044 C 
HETATM   36  C   UNL     1     -23.865  -2.620 -12.486  1.00  0.00     0.005 C 
HETATM   37  C   UNL     1     -24.396  -3.901 -11.869  1.00  0.00     0.014 C 
HETATM   38  C   UNL     1     -23.843  -4.141 -10.435  1.00  0.00    -0.020 C 
HETATM   39  C   UNL     1     -24.209  -5.607 -10.093  1.00  0.00     0.020 C 
HETATM   40  C   UNL     1     -24.594  -3.225  -9.446  1.00  0.00     0.020 C 
ENDBRANCH  31  32
ENDBRANCH  28  30
ENDBRANCH  26  27
ENDBRANCH  23  25
ENDBRANCH   2  22
TORSDOF 10
ENDMDL
MODEL 9
REMARK VINA RESULT:      -9.0      1.309      3.581
REMARK  10 active torsions:
REMARK  status: ('A' for Active; 'I' for Inactive)
REMARK    1  A    between atoms: C_3  and  C_10 
REMARK    2  A    between atoms: C_11  and  C_12 
REMARK    3  A    between atoms: C_13  and  C_14 
REMARK    4  A    between atoms: C_15  and  C_16 
REMARK    5  A    between atoms: C_17  and  C_18 
REMARK    6  A    between atoms: C_19  and  C_20 
REMARK    7  A    between atoms: C_21  and  C_23 
REMARK    8  A    between atoms: C_24  and  C_25 
REMARK    9  A    between atoms: C_26  and  C_28 
REMARK   10  A    between atoms: C_29  and  C_30 
ROOT
HETATM    1  C   UNL     1     -22.274 -10.386  -0.618  1.00  0.00     0.001 C 
HETATM    2  C   UNL     1     -22.382  -9.043  -0.467  1.00  0.00     0.001 C 
ENDROOT
BRANCH   1   3
HETATM    3  C   UNL     1     -22.652 -11.442   0.321  1.00  0.00     0.007 C 
HETATM    4  C   UNL     1     -21.866 -12.482   0.724  1.00  0.00    -0.062 C 
HETATM    5  C   UNL     1     -22.266 -13.531   1.731  1.00  0.00     0.048 C 
BRANCH   4   6
HETATM    6  C   UNL     1     -20.550 -12.698   0.135  1.00  0.00     0.007 C 
HETATM    7  C   UNL     1     -19.649 -11.719   0.241  1.00  0.00     0.001 C 
BRANCH   7   8
HETATM    8  C   UNL     1     -18.266 -11.717  -0.141  1.00  0.00     0.007 C 
HETATM    9  C   UNL     1     -17.894 -11.906  -1.428  1.00  0.00    -0.062 C 
HETATM   10  C   UNL     1     -16.487 -11.635  -1.858  1.00  0.00     0.048 C 
BRANCH   9  11
HETATM   11  C   UNL     1     -18.810 -12.394  -2.466  1.00  0.00     0.007 C 
HETATM   12  C   UNL     1     -19.078 -11.655  -3.555  1.00  0.00     0.009 C 
BRANCH  12  13
HETATM   13  C   UNL     1     -20.006 -11.902  -4.649  1.00  0.00    -0.048 C 
HETATM   14  C   UNL     1     -19.456 -12.211  -5.865  1.00  0.00    -0.077 C 
HETATM   15  C   UNL     1     -17.984 -12.403  -6.206  1.00  0.00     0.044 C 
HETATM   16  C   UNL     1     -20.293 -12.426  -7.102  1.00  0.00     0.034 C 
HETATM   17  C   UNL     1     -21.716 -11.959  -6.875  1.00  0.00     0.005 C 
HETATM   18  C   UNL     1     -22.227 -12.672  -5.623  1.00  0.00     0.014 C 
HETATM   19  C   UNL     1     -21.552 -12.067  -4.355  1.00  0.00    -0.020 C 
HETATM   20  C   UNL     1     -21.748 -13.073  -3.188  1.00  0.00     0.020 C 
HETATM   21  C   UNL     1     -22.413 -10.823  -3.974  1.00  0.00     0.020 C 
ENDBRANCH  12  13
ENDBRANCH   9  11
ENDBRANCH   7   8
ENDBRANCH   4   6
ENDBRANCH   1   3
BRANCH   2  22
HETATM   22  C   UNL     1     -22.233  -8.083  -1.581  1.00  0.00     0.007 C 
HETATM   23  C   UNL     1     -21.135  -7.764  -2.313  1.00  0.00    -0.062 C 
HETATM   24  C   UNL     1     -19.757  -8.385  -2.228  1.00  0.00     0.048 C 
BRANCH  23  25
HETATM   25  C   UNL     1     -21.128  -6.717  -3.361  1.00  0.00     0.007 C 
HETATM   26  C   UNL     1     -21.545  -6.914  -4.632  1.00  0.00     0.001 C 
BRANCH  26  27
HETATM   27  C   UNL     1     -22.008  -5.853  -5.541  1.00  0.00     0.007 C 
HETATM   28  C   UNL     1     -21.249  -5.139  -6.413  1.00  0.00    -0.062 C 
HETATM   29  C   UNL     1     -19.740  -5.126  -6.356  1.00  0.00     0.048 C 
BRANCH  28  30
HETATM   30  C   UNL     1     -21.872  -4.350  -7.508  1.00  0.00     0.007 C 
HETATM   31  C   UNL     1     -21.700  -4.583  -8.829  1.00  0.00     0.009 C 
BRANCH  31  32
HETATM   32  C   UNL     1     -22.398  -3.974  -9.973  1.00  0.00    -0.048 C 
HETATM   33  C   UNL     1     -23.739  -3.777 -10.012  1.00  0.00    -0.077 C 
HETATM   34  C   UNL     1     -24.446  -3.128 -11.192  1.00  0.00     0.034 C 
HETATM   35  C   UNL     1     -24.697  -4.105  -8.894  1.00  0.00     0.044 C 
HETATM   36  C   UNL     1     -23.596  -2.966 -12.443  1.00  0.00     0.005 C 
HETATM   37  C   UNL     1     -22.212  -2.472 -12.068  1.00  0.00     0.014 C 
HETATM   38  C   UNL     1     -21.471  -3.451 -11.113  1.00  0.00    -0.020 C 
HETATM   39  C   UNL     1     -20.248  -2.661 -10.582  1.00  0.00     0.020 C 
HETATM   40  C   UNL     1     -20.940  -4.647 -11.932  1.00  0.00     0.020 C 
ENDBRANCH  31  32
ENDBRANCH  28  30
ENDBRANCH  26  27
ENDBRANCH  23  25
ENDBRANCH   2  22
TORSDOF 10
ENDMDL
