MODEL 1
REMARK VINA RESULT:      -6.6      0.000      0.000
REMARK  16 active torsions:
REMARK  status: ('A' for Active; 'I' for Inactive)
REMARK    1  A    between atoms: C_2  and  C_3 
REMARK    2  A    between atoms: C_3  and  C_4 
REMARK    3  A    between atoms: C_4  and  C_5 
REMARK    4  A    between atoms: C_5  and  C_6 
REMARK    5  A    between atoms: C_6  and  C_7 
REMARK    6  A    between atoms: C_7  and  C_8 
REMARK    7  A    between atoms: C_8  and  C_9 
REMARK    8  A    between atoms: C_9  and  C_10 
REMARK    9  A    between atoms: C_10  and  C_11 
REMARK   10  A    between atoms: C_11  and  C_12 
REMARK   11  A    between atoms: C_12  and  C_13 
REMARK   12  A    between atoms: C_13  and  C_14 
REMARK   13  A    between atoms: C_14  and  C_15 
REMARK   14  A    between atoms: C_15  and  C_16 
REMARK   15  A    between atoms: C_16  and  C_17 
REMARK   16  A    between atoms: C_17  and  C_18 
ROOT
HETATM    1  C   UNL     1     -20.368  -6.325  -5.705  1.00  0.00     0.000 C 
ENDROOT
BRANCH   1   2
HETATM    2  C   UNL     1     -21.723  -6.419  -5.025  1.00  0.00     0.000 C 
BRANCH   2   3
HETATM    3  C   UNL     1     -21.699  -7.504  -3.963  1.00  0.00     0.000 C 
BRANCH   3   4
HETATM    4  C   UNL     1     -21.161  -6.946  -2.657  1.00  0.00     0.000 C 
BRANCH   4   5
HETATM    5  C   UNL     1     -22.292  -6.354  -1.832  1.00  0.00     0.000 C 
BRANCH   5   6
HETATM    6  C   UNL     1     -22.464  -7.134  -0.539  1.00  0.00     0.000 C 
BRANCH   6   7
HETATM    7  C   UNL     1     -21.299  -8.099  -0.344  1.00  0.00     0.000 C 
BRANCH   7   8
HETATM    8  C   UNL     1     -21.765  -9.359   0.376  1.00  0.00    -0.000 C 
BRANCH   8   9
HETATM    9  C   UNL     1     -22.370 -10.354  -0.605  1.00  0.00    -0.005 C 
HETATM   10  C   UNL     1     -23.810 -10.665  -0.233  1.00  0.00     0.005 C 
ENDBRANCH   8   9
ENDBRANCH   7   8
ENDBRANCH   6   7
ENDBRANCH   5   6
ENDBRANCH   4   5
ENDBRANCH   3   4
ENDBRANCH   2   3
ENDBRANCH   1   2
BRANCH   1  11
HETATM   11  C   UNL     1     -19.950  -4.871  -5.831  1.00  0.00     0.000 C 
BRANCH  11  12
HETATM   12  C   UNL     1     -19.574  -4.557  -7.268  1.00  0.00     0.000 C 
BRANCH  12  13
HETATM   13  C   UNL     1     -20.778  -4.747  -8.173  1.00  0.00     0.000 C 
BRANCH  13  14
HETATM   14  C   UNL     1     -21.867  -3.755  -7.806  1.00  0.00     0.000 C 
BRANCH  14  15
HETATM   15  C   UNL     1     -23.240  -4.345  -8.090  1.00  0.00     0.000 C 
BRANCH  15  16
HETATM   16  C   UNL     1     -23.830  -3.688  -9.328  1.00  0.00     0.000 C 
BRANCH  16  17
HETATM   17  C   UNL     1     -23.828  -4.646 -10.514  1.00  0.00     0.004 C 
BRANCH  17  18
HETATM   18  C   UNL     1     -23.311  -3.984 -11.800  1.00  0.00    -0.023 C 
HETATM   19  C   UNL     1     -24.347  -3.050 -12.429  1.00  0.00     0.009 C 
HETATM   20  C   UNL     1     -22.028  -3.210 -11.496  1.00  0.00     0.009 C 
ENDBRANCH  17  18
ENDBRANCH  16  17
ENDBRANCH  15  16
ENDBRANCH  14  15
ENDBRANCH  13  14
ENDBRANCH  12  13
ENDBRANCH  11  12
ENDBRANCH   1  11
TORSDOF 16
ENDMDL
MODEL 2
REMARK VINA RESULT:      -6.6      1.097      9.836
REMARK  16 active torsions:
REMARK  status: ('A' for Active; 'I' for Inactive)
REMARK    1  A    between atoms: C_2  and  C_3 
REMARK    2  A    between atoms: C_3  and  C_4 
REMARK    3  A    between atoms: C_4  and  C_5 
REMARK    4  A    between atoms: C_5  and  C_6 
REMARK    5  A    between atoms: C_6  and  C_7 
REMARK    6  A    between atoms: C_7  and  C_8 
REMARK    7  A    between atoms: C_8  and  C_9 
REMARK    8  A    between atoms: C_9  and  C_10 
REMARK    9  A    between atoms: C_10  and  C_11 
REMARK   10  A    between atoms: C_11  and  C_12 
REMARK   11  A    between atoms: C_12  and  C_13 
REMARK   12  A    between atoms: C_13  and  C_14 
REMARK   13  A    between atoms: C_14  and  C_15 
REMARK   14  A    between atoms: C_15  and  C_16 
REMARK   15  A    between atoms: C_16  and  C_17 
REMARK   16  A    between atoms: C_17  and  C_18 
ROOT
HETATM    1  C   UNL     1     -20.796  -6.957  -5.256  1.00  0.00     0.000 C 
ENDROOT
BRANCH   1   2
HETATM    2  C   UNL     1     -20.795  -6.112  -6.519  1.00  0.00     0.000 C 
BRANCH   2   3
HETATM    3  C   UNL     1     -20.568  -4.652  -6.170  1.00  0.00     0.000 C 
BRANCH   3   4
HETATM    4  C   UNL     1     -20.887  -3.772  -7.366  1.00  0.00     0.000 C 
BRANCH   4   5
HETATM    5  C   UNL     1     -21.211  -4.629  -8.579  1.00  0.00     0.000 C 
BRANCH   5   6
HETATM    6  C   UNL     1     -20.292  -4.272  -9.735  1.00  0.00     0.000 C 
BRANCH   6   7
HETATM    7  C   UNL     1     -21.055  -4.328 -11.055  1.00  0.00     0.000 C 
BRANCH   7   8
HETATM    8  C   UNL     1     -21.541  -2.938 -11.449  1.00  0.00    -0.000 C 
BRANCH   8   9
HETATM    9  C   UNL     1     -22.859  -3.017 -12.207  1.00  0.00    -0.005 C 
HETATM   10  C   UNL     1     -24.023  -3.183 -11.244  1.00  0.00     0.005 C 
ENDBRANCH   8   9
ENDBRANCH   7   8
ENDBRANCH   6   7
ENDBRANCH   5   6
ENDBRANCH   4   5
ENDBRANCH   3   4
ENDBRANCH   2   3
ENDBRANCH   1   2
BRANCH   1  11
HETATM   11  C   UNL     1     -21.317  -6.141  -4.087  1.00  0.00     0.000 C 
BRANCH  11  12
HETATM   12  C   UNL     1     -21.428  -7.013  -2.849  1.00  0.00     0.000 C 
BRANCH  12  13
HETATM   13  C   UNL     1     -22.274  -6.315  -1.798  1.00  0.00     0.000 C 
BRANCH  13  14
HETATM   14  C   UNL     1     -22.359  -7.170  -0.547  1.00  0.00     0.000 C 
BRANCH  14  15
HETATM   15  C   UNL     1     -21.382  -8.332  -0.630  1.00  0.00     0.000 C 
BRANCH  15  16
HETATM   16  C   UNL     1     -21.921  -9.508   0.170  1.00  0.00     0.000 C 
BRANCH  16  17
HETATM   17  C   UNL     1     -23.437  -9.614   0.042  1.00  0.00     0.004 C 
BRANCH  17  18
HETATM   18  C   UNL     1     -23.882 -10.967  -0.533  1.00  0.00    -0.023 C 
HETATM   19  C   UNL     1     -23.310 -11.219  -1.929  1.00  0.00     0.009 C 
HETATM   20  C   UNL     1     -23.458 -12.089   0.414  1.00  0.00     0.009 C 
ENDBRANCH  17  18
ENDBRANCH  16  17
ENDBRANCH  15  16
ENDBRANCH  14  15
ENDBRANCH  13  14
ENDBRANCH  12  13
ENDBRANCH  11  12
ENDBRANCH   1  11
TORSDOF 16
ENDMDL
MODEL 3
REMARK VINA RESULT:      -6.3      1.232      2.762
REMARK  16 active torsions:
REMARK  status: ('A' for Active; 'I' for Inactive)
REMARK    1  A    between atoms: C_2  and  C_3 
REMARK    2  A    between atoms: C_3  and  C_4 
REMARK    3  A    between atoms: C_4  and  C_5 
REMARK    4  A    between atoms: C_5  and  C_6 
REMARK    5  A    between atoms: C_6  and  C_7 
REMARK    6  A    between atoms: C_7  and  C_8 
REMARK    7  A    between atoms: C_8  and  C_9 
REMARK    8  A    between atoms: C_9  and  C_10 
REMARK    9  A    between atoms: C_10  and  C_11 
REMARK   10  A    between atoms: C_11  and  C_12 
REMARK   11  A    between atoms: C_12  and  C_13 
REMARK   12  A    between atoms: C_13  and  C_14 
REMARK   13  A    between atoms: C_14  and  C_15 
REMARK   14  A    between atoms: C_15  and  C_16 
REMARK   15  A    between atoms: C_16  and  C_17 
REMARK   16  A    between atoms: C_17  and  C_18 
ROOT
HETATM    1  C   UNL     1     -21.244  -6.021  -3.507  1.00  0.00     0.000 C 
ENDROOT
BRANCH   1   2
HETATM    2  C   UNL     1     -21.487  -7.162  -2.534  1.00  0.00     0.000 C 
BRANCH   2   3
HETATM    3  C   UNL     1     -22.367  -6.694  -1.389  1.00  0.00     0.000 C 
BRANCH   3   4
HETATM    4  C   UNL     1     -22.023  -7.453  -0.120  1.00  0.00     0.000 C 
BRANCH   4   5
HETATM    5  C   UNL     1     -23.138  -8.426   0.230  1.00  0.00     0.000 C 
BRANCH   5   6
HETATM    6  C   UNL     1     -22.850  -9.792  -0.369  1.00  0.00     0.000 C 
BRANCH   6   7
HETATM    7  C   UNL     1     -23.962 -10.773  -0.013  1.00  0.00     0.000 C 
BRANCH   7   8
HETATM    8  C   UNL     1     -24.045 -11.885  -1.052  1.00  0.00    -0.000 C 
BRANCH   8   9
HETATM    9  C   UNL     1     -23.749 -13.240  -0.423  1.00  0.00    -0.005 C 
HETATM   10  C   UNL     1     -23.316 -13.077   1.024  1.00  0.00     0.005 C 
ENDBRANCH   8   9
ENDBRANCH   7   8
ENDBRANCH   6   7
ENDBRANCH   5   6
ENDBRANCH   4   5
ENDBRANCH   3   4
ENDBRANCH   2   3
ENDBRANCH   1   2
BRANCH   1  11
HETATM   11  C   UNL     1     -21.877  -6.339  -4.849  1.00  0.00     0.000 C 
BRANCH  11  12
HETATM   12  C   UNL     1     -20.840  -6.244  -5.953  1.00  0.00     0.000 C 
BRANCH  12  13
HETATM   13  C   UNL     1     -20.030  -4.968  -5.795  1.00  0.00     0.000 C 
BRANCH  13  14
HETATM   14  C   UNL     1     -19.845  -4.299  -7.145  1.00  0.00     0.000 C 
BRANCH  14  15
HETATM   15  C   UNL     1     -20.221  -5.254  -8.267  1.00  0.00     0.000 C 
BRANCH  15  16
HETATM   16  C   UNL     1     -20.715  -4.460  -9.467  1.00  0.00     0.000 C 
BRANCH  16  17
HETATM   17  C   UNL     1     -22.205  -4.156  -9.351  1.00  0.00     0.004 C 
BRANCH  17  18
HETATM   18  C   UNL     1     -22.794  -3.615 -10.663  1.00  0.00    -0.023 C 
HETATM   19  C   UNL     1     -21.726  -2.994 -11.566  1.00  0.00     0.009 C 
HETATM   20  C   UNL     1     -23.512  -4.742 -11.404  1.00  0.00     0.009 C 
ENDBRANCH  17  18
ENDBRANCH  16  17
ENDBRANCH  15  16
ENDBRANCH  14  15
ENDBRANCH  13  14
ENDBRANCH  12  13
ENDBRANCH  11  12
ENDBRANCH   1  11
TORSDOF 16
ENDMDL
MODEL 4
REMARK VINA RESULT:      -6.0      1.430      2.170
REMARK  16 active torsions:
REMARK  status: ('A' for Active; 'I' for Inactive)
REMARK    1  A    between atoms: C_2  and  C_3 
REMARK    2  A    between atoms: C_3  and  C_4 
REMARK    3  A    between atoms: C_4  and  C_5 
REMARK    4  A    between atoms: C_5  and  C_6 
REMARK    5  A    between atoms: C_6  and  C_7 
REMARK    6  A    between atoms: C_7  and  C_8 
REMARK    7  A    between atoms: C_8  and  C_9 
REMARK    8  A    between atoms: C_9  and  C_10 
REMARK    9  A    between atoms: C_10  and  C_11 
REMARK   10  A    between atoms: C_11  and  C_12 
REMARK   11  A    between atoms: C_12  and  C_13 
REMARK   12  A    between atoms: C_13  and  C_14 
REMARK   13  A    between atoms: C_14  and  C_15 
REMARK   14  A    between atoms: C_15  and  C_16 
REMARK   15  A    between atoms: C_16  and  C_17 
REMARK   16  A    between atoms: C_17  and  C_18 
ROOT
HETATM    1  C   UNL     1     -21.100  -6.155  -6.034  1.00  0.00     0.000 C 
ENDROOT
BRANCH   1   2
HETATM    2  C   UNL     1     -21.024  -5.643  -4.605  1.00  0.00     0.000 C 
BRANCH   2   3
HETATM    3  C   UNL     1     -21.435  -6.737  -3.637  1.00  0.00     0.000 C 
BRANCH   3   4
HETATM    4  C   UNL     1     -20.945  -8.087  -4.132  1.00  0.00     0.000 C 
BRANCH   4   5
HETATM    5  C   UNL     1     -20.077  -8.752  -3.075  1.00  0.00     0.000 C 
BRANCH   5   6
HETATM    6  C   UNL     1     -20.361  -8.151  -1.709  1.00  0.00     0.000 C 
BRANCH   6   7
HETATM    7  C   UNL     1     -21.236  -9.092  -0.887  1.00  0.00     0.000 C 
BRANCH   7   8
HETATM    8  C   UNL     1     -20.973  -8.900   0.602  1.00  0.00    -0.000 C 
BRANCH   8   9
HETATM    9  C   UNL     1     -22.057  -8.042   1.240  1.00  0.00    -0.005 C 
HETATM   10  C   UNL     1     -23.270  -7.946   0.330  1.00  0.00     0.005 C 
ENDBRANCH   8   9
ENDBRANCH   7   8
ENDBRANCH   6   7
ENDBRANCH   5   6
ENDBRANCH   4   5
ENDBRANCH   3   4
ENDBRANCH   2   3
ENDBRANCH   1   2
BRANCH   1  11
HETATM   11  C   UNL     1     -20.010  -5.514  -6.873  1.00  0.00     0.000 C 
BRANCH  11  12
HETATM   12  C   UNL     1     -20.432  -4.121  -7.304  1.00  0.00     0.000 C 
BRANCH  12  13
HETATM   13  C   UNL     1     -21.830  -4.163  -7.896  1.00  0.00     0.000 C 
BRANCH  13  14
HETATM   14  C   UNL     1     -21.759  -4.489  -9.377  1.00  0.00     0.000 C 
BRANCH  14  15
HETATM   15  C   UNL     1     -20.456  -3.978  -9.972  1.00  0.00     0.000 C 
BRANCH  15  16
HETATM   16  C   UNL     1     -20.740  -3.271 -11.288  1.00  0.00     0.000 C 
BRANCH  16  17
HETATM   17  C   UNL     1     -21.924  -3.906 -12.010  1.00  0.00     0.004 C 
BRANCH  17  18
HETATM   18  C   UNL     1     -22.956  -2.863 -12.468  1.00  0.00    -0.023 C 
HETATM   19  C   UNL     1     -23.028  -2.749 -13.992  1.00  0.00     0.009 C 
HETATM   20  C   UNL     1     -24.331  -3.224 -11.906  1.00  0.00     0.009 C 
ENDBRANCH  17  18
ENDBRANCH  16  17
ENDBRANCH  15  16
ENDBRANCH  14  15
ENDBRANCH  13  14
ENDBRANCH  12  13
ENDBRANCH  11  12
ENDBRANCH   1  11
TORSDOF 16
ENDMDL
MODEL 5
REMARK VINA RESULT:      -6.0      1.206      9.771
REMARK  16 active torsions:
REMARK  status: ('A' for Active; 'I' for Inactive)
REMARK    1  A    between atoms: C_2  and  C_3 
REMARK    2  A    between atoms: C_3  and  C_4 
REMARK    3  A    between atoms: C_4  and  C_5 
REMARK    4  A    between atoms: C_5  and  C_6 
REMARK    5  A    between atoms: C_6  and  C_7 
REMARK    6  A    between atoms: C_7  and  C_8 
REMARK    7  A    between atoms: C_8  and  C_9 
REMARK    8  A    between atoms: C_9  and  C_10 
REMARK    9  A    between atoms: C_10  and  C_11 
REMARK   10  A    between atoms: C_11  and  C_12 
REMARK   11  A    between atoms: C_12  and  C_13 
REMARK   12  A    between atoms: C_13  and  C_14 
REMARK   13  A    between atoms: C_14  and  C_15 
REMARK   14  A    between atoms: C_15  and  C_16 
REMARK   15  A    between atoms: C_16  and  C_17 
REMARK   16  A    between atoms: C_17  and  C_18 
ROOT
HETATM    1  C   UNL     1     -21.393  -7.766  -4.258  1.00  0.00     0.000 C 
ENDROOT
BRANCH   1   2
HETATM    2  C   UNL     1     -20.683  -7.141  -5.447  1.00  0.00     0.000 C 
BRANCH   2   3
HETATM    3  C   UNL     1     -21.064  -5.677  -5.571  1.00  0.00     0.000 C 
BRANCH   3   4
HETATM    4  C   UNL     1     -19.897  -4.878  -6.127  1.00  0.00     0.000 C 
BRANCH   4   5
HETATM    5  C   UNL     1     -20.243  -4.326  -7.500  1.00  0.00     0.000 C 
BRANCH   5   6
HETATM    6  C   UNL     1     -21.469  -3.434  -7.414  1.00  0.00     0.000 C 
BRANCH   6   7
HETATM    7  C   UNL     1     -22.597  -3.996  -8.273  1.00  0.00     0.000 C 
BRANCH   7   8
HETATM    8  C   UNL     1     -22.034  -4.663  -9.522  1.00  0.00    -0.000 C 
BRANCH   8   9
HETATM    9  C   UNL     1     -21.980  -3.682 -10.686  1.00  0.00    -0.005 C 
HETATM   10  C   UNL     1     -20.552  -3.498 -11.167  1.00  0.00     0.005 C 
ENDBRANCH   8   9
ENDBRANCH   7   8
ENDBRANCH   6   7
ENDBRANCH   5   6
ENDBRANCH   4   5
ENDBRANCH   3   4
ENDBRANCH   2   3
ENDBRANCH   1   2
BRANCH   1  11
HETATM   11  C   UNL     1     -21.030  -7.020  -2.987  1.00  0.00     0.000 C 
BRANCH  11  12
HETATM   12  C   UNL     1     -22.278  -6.443  -2.344  1.00  0.00     0.000 C 
BRANCH  12  13
HETATM   13  C   UNL     1     -22.272  -6.728  -0.852  1.00  0.00     0.000 C 
BRANCH  13  14
HETATM   14  C   UNL     1     -22.132  -8.220  -0.608  1.00  0.00     0.000 C 
BRANCH  14  15
HETATM   15  C   UNL     1     -21.740  -8.487   0.837  1.00  0.00     0.000 C 
BRANCH  15  16
HETATM   16  C   UNL     1     -20.990  -9.807   0.926  1.00  0.00     0.000 C 
BRANCH  16  17
HETATM   17  C   UNL     1     -21.498 -10.800  -0.114  1.00  0.00     0.004 C 
BRANCH  17  18
HETATM   18  C   UNL     1     -22.628 -11.688   0.430  1.00  0.00    -0.023 C 
HETATM   19  C   UNL     1     -23.967 -11.407  -0.254  1.00  0.00     0.009 C 
HETATM   20  C   UNL     1     -22.252 -13.159   0.254  1.00  0.00     0.009 C 
ENDBRANCH  17  18
ENDBRANCH  16  17
ENDBRANCH  15  16
ENDBRANCH  14  15
ENDBRANCH  13  14
ENDBRANCH  12  13
ENDBRANCH  11  12
ENDBRANCH   1  11
TORSDOF 16
ENDMDL
MODEL 6
REMARK VINA RESULT:      -5.8      1.447      2.344
REMARK  16 active torsions:
REMARK  status: ('A' for Active; 'I' for Inactive)
REMARK    1  A    between atoms: C_2  and  C_3 
REMARK    2  A    between atoms: C_3  and  C_4 
REMARK    3  A    between atoms: C_4  and  C_5 
REMARK    4  A    between atoms: C_5  and  C_6 
REMARK    5  A    between atoms: C_6  and  C_7 
REMARK    6  A    between atoms: C_7  and  C_8 
REMARK    7  A    between atoms: C_8  and  C_9 
REMARK    8  A    between atoms: C_9  and  C_10 
REMARK    9  A    between atoms: C_10  and  C_11 
REMARK   10  A    between atoms: C_11  and  C_12 
REMARK   11  A    between atoms: C_12  and  C_13 
REMARK   12  A    between atoms: C_13  and  C_14 
REMARK   13  A    between atoms: C_14  and  C_15 
REMARK   14  A    between atoms: C_15  and  C_16 
REMARK   15  A    between atoms: C_16  and  C_17 
REMARK   16  A    between atoms: C_17  and  C_18 
ROOT
HETATM    1  C   UNL     1     -19.964  -8.094  -3.928  1.00  0.00     0.000 C 
ENDROOT
BRANCH   1   2
HETATM    2  C   UNL     1     -20.873  -9.211  -3.445  1.00  0.00     0.000 C 
BRANCH   2   3
HETATM    3  C   UNL     1     -21.891  -8.667  -2.459  1.00  0.00     0.000 C 
BRANCH   3   4
HETATM    4  C   UNL     1     -21.679  -7.176  -2.258  1.00  0.00     0.000 C 
BRANCH   4   5
HETATM    5  C   UNL     1     -22.229  -6.744  -0.908  1.00  0.00     0.000 C 
BRANCH   5   6
HETATM    6  C   UNL     1     -22.827  -7.935  -0.179  1.00  0.00     0.000 C 
BRANCH   6   7
HETATM    7  C   UNL     1     -22.198  -8.081   1.203  1.00  0.00     0.000 C 
BRANCH   7   8
HETATM    8  C   UNL     1     -20.935  -8.931   1.127  1.00  0.00    -0.000 C 
BRANCH   8   9
HETATM    9  C   UNL     1     -21.261 -10.353   0.692  1.00  0.00    -0.005 C 
HETATM   10  C   UNL     1     -20.100 -10.959  -0.078  1.00  0.00     0.005 C 
ENDBRANCH   8   9
ENDBRANCH   7   8
ENDBRANCH   6   7
ENDBRANCH   5   6
ENDBRANCH   4   5
ENDBRANCH   3   4
ENDBRANCH   2   3
ENDBRANCH   1   2
BRANCH   1  11
HETATM   11  C   UNL     1     -20.074  -7.950  -5.435  1.00  0.00     0.000 C 
BRANCH  11  12
HETATM   12  C   UNL     1     -20.988  -6.790  -5.785  1.00  0.00     0.000 C 
BRANCH  12  13
HETATM   13  C   UNL     1     -20.203  -5.489  -5.772  1.00  0.00     0.000 C 
BRANCH  13  14
HETATM   14  C   UNL     1     -20.863  -4.473  -6.686  1.00  0.00     0.000 C 
BRANCH  14  15
HETATM   15  C   UNL     1     -21.040  -5.050  -8.082  1.00  0.00     0.000 C 
BRANCH  15  16
HETATM   16  C   UNL     1     -20.434  -4.103  -9.105  1.00  0.00     0.000 C 
BRANCH  16  17
HETATM   17  C   UNL     1     -20.960  -4.395 -10.506  1.00  0.00     0.004 C 
BRANCH  17  18
HETATM   18  C   UNL     1     -22.313  -3.717 -10.775  1.00  0.00    -0.023 C 
HETATM   19  C   UNL     1     -22.282  -2.837 -12.026  1.00  0.00     0.009 C 
HETATM   20  C   UNL     1     -23.399  -4.783 -10.915  1.00  0.00     0.009 C 
ENDBRANCH  17  18
ENDBRANCH  16  17
ENDBRANCH  15  16
ENDBRANCH  14  15
ENDBRANCH  13  14
ENDBRANCH  12  13
ENDBRANCH  11  12
ENDBRANCH   1  11
TORSDOF 16
ENDMDL
MODEL 7
REMARK VINA RESULT:      -5.7      1.414      3.308
REMARK  16 active torsions:
REMARK  status: ('A' for Active; 'I' for Inactive)
REMARK    1  A    between atoms: C_2  and  C_3 
REMARK    2  A    between atoms: C_3  and  C_4 
REMARK    3  A    between atoms: C_4  and  C_5 
REMARK    4  A    between atoms: C_5  and  C_6 
REMARK    5  A    between atoms: C_6  and  C_7 
REMARK    6  A    between atoms: C_7  and  C_8 
REMARK    7  A    between atoms: C_8  and  C_9 
REMARK    8  A    between atoms: C_9  and  C_10 
REMARK    9  A    between atoms: C_10  and  C_11 
REMARK   10  A    between atoms: C_11  and  C_12 
REMARK   11  A    between atoms: C_12  and  C_13 
REMARK   12  A    between atoms: C_13  and  C_14 
REMARK   13  A    between atoms: C_14  and  C_15 
REMARK   14  A    between atoms: C_15  and  C_16 
REMARK   15  A    between atoms: C_16  and  C_17 
REMARK   16  A    between atoms: C_17  and  C_18 
ROOT
HETATM    1  C   UNL     1     -22.433  -6.492  -2.768  1.00  0.00     0.000 C 
ENDROOT
BRANCH   1   2
HETATM    2  C   UNL     1     -22.021  -6.549  -1.307  1.00  0.00     0.000 C 
BRANCH   2   3
HETATM    3  C   UNL     1     -22.024  -7.988  -0.821  1.00  0.00     0.000 C 
BRANCH   3   4
HETATM    4  C   UNL     1     -22.896  -8.120   0.416  1.00  0.00     0.000 C 
BRANCH   4   5
HETATM    5  C   UNL     1     -23.803  -9.334   0.294  1.00  0.00     0.000 C 
BRANCH   5   6
HETATM    6  C   UNL     1     -23.127 -10.413  -0.534  1.00  0.00     0.000 C 
BRANCH   6   7
HETATM    7  C   UNL     1     -23.167 -11.749   0.201  1.00  0.00     0.000 C 
BRANCH   7   8
HETATM    8  C   UNL     1     -21.768 -12.343   0.305  1.00  0.00    -0.000 C 
BRANCH   8   9
HETATM    9  C   UNL     1     -20.729 -11.396  -0.281  1.00  0.00    -0.005 C 
HETATM   10  C   UNL     1     -19.338 -11.754   0.211  1.00  0.00     0.005 C 
ENDBRANCH   8   9
ENDBRANCH   7   8
ENDBRANCH   6   7
ENDBRANCH   5   6
ENDBRANCH   4   5
ENDBRANCH   3   4
ENDBRANCH   2   3
ENDBRANCH   1   2
BRANCH   1  11
HETATM   11  C   UNL     1     -21.260  -6.046  -3.621  1.00  0.00     0.000 C 
BRANCH  11  12
HETATM   12  C   UNL     1     -20.914  -7.120  -4.637  1.00  0.00     0.000 C 
BRANCH  12  13
HETATM   13  C   UNL     1     -21.217  -6.623  -6.040  1.00  0.00     0.000 C 
BRANCH  13  14
HETATM   14  C   UNL     1     -19.990  -5.953  -6.632  1.00  0.00     0.000 C 
BRANCH  14  15
HETATM   15  C   UNL     1     -20.196  -4.449  -6.717  1.00  0.00     0.000 C 
BRANCH  15  16
HETATM   16  C   UNL     1     -21.580  -4.155  -7.274  1.00  0.00     0.000 C 
BRANCH  16  17
HETATM   17  C   UNL     1     -21.533  -3.946  -8.784  1.00  0.00     0.004 C 
BRANCH  17  18
HETATM   18  C   UNL     1     -22.783  -4.495  -9.489  1.00  0.00    -0.023 C 
HETATM   19  C   UNL     1     -24.034  -3.672  -9.175  1.00  0.00     0.009 C 
HETATM   20  C   UNL     1     -22.546  -4.527 -10.999  1.00  0.00     0.009 C 
ENDBRANCH  17  18
ENDBRANCH  16  17
ENDBRANCH  15  16
ENDBRANCH  14  15
ENDBRANCH  13  14
ENDBRANCH  12  13
ENDBRANCH  11  12
ENDBRANCH   1  11
TORSDOF 16
ENDMDL
MODEL 8
REMARK VINA RESULT:      -5.6      1.639      3.696
REMARK  16 active torsions:
REMARK  status: ('A' for Active; 'I' for Inactive)
REMARK    1  A    between atoms: C_2  and  C_3 
REMARK    2  A    between atoms: C_3  and  C_4 
REMARK    3  A    between atoms: C_4  and  C_5 
REMARK    4  A    between atoms: C_5  and  C_6 
REMARK    5  A    between atoms: C_6  and  C_7 
REMARK    6  A    between atoms: C_7  and  C_8 
REMARK    7  A    between atoms: C_8  and  C_9 
REMARK    8  A    between atoms: C_9  and  C_10 
REMARK    9  A    between atoms: C_10  and  C_11 
REMARK   10  A    between atoms: C_11  and  C_12 
REMARK   11  A    between atoms: C_12  and  C_13 
REMARK   12  A    between atoms: C_13  and  C_14 
REMARK   13  A    between atoms: C_14  and  C_15 
REMARK   14  A    between atoms: C_15  and  C_16 
REMARK   15  A    between atoms: C_16  and  C_17 
REMARK   16  A    between atoms: C_17  and  C_18 
ROOT
HETATM    1  C   UNL     1     -20.515  -7.494  -2.293  1.00  0.00     0.000 C 
ENDROOT
BRANCH   1   2
HETATM    2  C   UNL     1     -21.638  -8.401  -1.819  1.00  0.00     0.000 C 
BRANCH   2   3
HETATM    3  C   UNL     1     -22.352  -7.772  -0.636  1.00  0.00     0.000 C 
BRANCH   3   4
HETATM    4  C   UNL     1     -22.524  -8.793   0.475  1.00  0.00     0.000 C 
BRANCH   4   5
HETATM    5  C   UNL     1     -23.778  -9.620   0.240  1.00  0.00     0.000 C 
BRANCH   5   6
HETATM    6  C   UNL     1     -23.409 -11.065  -0.047  1.00  0.00     0.000 C 
BRANCH   6   7
HETATM    7  C   UNL     1     -23.855 -11.457  -1.451  1.00  0.00     0.000 C 
BRANCH   7   8
HETATM    8  C   UNL     1     -22.650 -11.818  -2.312  1.00  0.00    -0.000 C 
BRANCH   8   9
HETATM    9  C   UNL     1     -22.792 -11.243  -3.715  1.00  0.00    -0.005 C 
HETATM   10  C   UNL     1     -21.431 -11.086  -4.371  1.00  0.00     0.005 C 
ENDBRANCH   8   9
ENDBRANCH   7   8
ENDBRANCH   6   7
ENDBRANCH   5   6
ENDBRANCH   4   5
ENDBRANCH   3   4
ENDBRANCH   2   3
ENDBRANCH   1   2
BRANCH   1  11
HETATM   11  C   UNL     1     -21.043  -6.508  -3.318  1.00  0.00     0.000 C 
BRANCH  11  12
HETATM   12  C   UNL     1     -21.903  -7.227  -4.342  1.00  0.00     0.000 C 
BRANCH  12  13
HETATM   13  C   UNL     1     -21.079  -7.547  -5.578  1.00  0.00     0.000 C 
BRANCH  13  14
HETATM   14  C   UNL     1     -20.439  -6.282  -6.119  1.00  0.00     0.000 C 
BRANCH  14  15
HETATM   15  C   UNL     1     -21.466  -5.444  -6.864  1.00  0.00     0.000 C 
BRANCH  15  16
HETATM   16  C   UNL     1     -20.882  -4.073  -7.167  1.00  0.00     0.000 C 
BRANCH  16  17
HETATM   17  C   UNL     1     -20.198  -4.054  -8.531  1.00  0.00     0.004 C 
BRANCH  17  18
HETATM   18  C   UNL     1     -21.160  -4.420  -9.671  1.00  0.00    -0.023 C 
HETATM   19  C   UNL     1     -22.436  -3.577  -9.647  1.00  0.00     0.009 C 
HETATM   20  C   UNL     1     -20.449  -4.251 -11.014  1.00  0.00     0.009 C 
ENDBRANCH  17  18
ENDBRANCH  16  17
ENDBRANCH  15  16
ENDBRANCH  14  15
ENDBRANCH  13  14
ENDBRANCH  12  13
ENDBRANCH  11  12
ENDBRANCH   1  11
TORSDOF 16
ENDMDL
MODEL 9
REMARK VINA RESULT:      -5.6     18.454     20.664
REMARK  16 active torsions:
REMARK  status: ('A' for Active; 'I' for Inactive)
REMARK    1  A    between atoms: C_2  and  C_3 
REMARK    2  A    between atoms: C_3  and  C_4 
REMARK    3  A    between atoms: C_4  and  C_5 
REMARK    4  A    between atoms: C_5  and  C_6 
REMARK    5  A    between atoms: C_6  and  C_7 
REMARK    6  A    between atoms: C_7  and  C_8 
REMARK    7  A    between atoms: C_8  and  C_9 
REMARK    8  A    between atoms: C_9  and  C_10 
REMARK    9  A    between atoms: C_10  and  C_11 
REMARK   10  A    between atoms: C_11  and  C_12 
REMARK   11  A    between atoms: C_12  and  C_13 
REMARK   12  A    between atoms: C_13  and  C_14 
REMARK   13  A    between atoms: C_14  and  C_15 
REMARK   14  A    between atoms: C_15  and  C_16 
REMARK   15  A    between atoms: C_16  and  C_17 
REMARK   16  A    between atoms: C_17  and  C_18 
ROOT
HETATM    1  C   UNL     1     -15.651  10.034   6.548  1.00  0.00     0.000 C 
ENDROOT
BRANCH   1   2
HETATM    2  C   UNL     1     -14.548   9.014   6.775  1.00  0.00     0.000 C 
BRANCH   2   3
HETATM    3  C   UNL     1     -13.835   8.716   5.468  1.00  0.00     0.000 C 
BRANCH   3   4
HETATM    4  C   UNL     1     -14.782   8.028   4.500  1.00  0.00     0.000 C 
BRANCH   4   5
HETATM    5  C   UNL     1     -14.438   8.408   3.069  1.00  0.00     0.000 C 
BRANCH   5   6
HETATM    6  C   UNL     1     -13.323   9.441   3.053  1.00  0.00     0.000 C 
BRANCH   6   7
HETATM    7  C   UNL     1     -13.056   9.910   1.627  1.00  0.00     0.000 C 
BRANCH   7   8
HETATM    8  C   UNL     1     -14.360  10.009   0.844  1.00  0.00    -0.000 C 
BRANCH   8   9
HETATM    9  C   UNL     1     -14.441  11.326   0.085  1.00  0.00    -0.005 C 
HETATM   10  C   UNL     1     -14.030  12.485   0.976  1.00  0.00     0.005 C 
ENDBRANCH   8   9
ENDBRANCH   7   8
ENDBRANCH   6   7
ENDBRANCH   5   6
ENDBRANCH   4   5
ENDBRANCH   3   4
ENDBRANCH   2   3
ENDBRANCH   1   2
BRANCH   1  11
HETATM   11  C   UNL     1     -15.094  11.439   6.687  1.00  0.00     0.000 C 
BRANCH  11  12
HETATM   12  C   UNL     1     -15.802  12.380   5.730  1.00  0.00     0.000 C 
BRANCH  12  13
HETATM   13  C   UNL     1     -16.013  11.695   4.390  1.00  0.00     0.000 C 
BRANCH  13  14
HETATM   14  C   UNL     1     -16.757  12.620   3.444  1.00  0.00     0.000 C 
BRANCH  14  15
HETATM   15  C   UNL     1     -17.431  11.820   2.340  1.00  0.00     0.000 C 
BRANCH  15  16
HETATM   16  C   UNL     1     -17.396  10.340   2.691  1.00  0.00     0.000 C 
BRANCH  16  17
HETATM   17  C   UNL     1     -18.803   9.753   2.742  1.00  0.00     0.004 C 
BRANCH  17  18
HETATM   18  C   UNL     1     -18.991   8.791   3.924  1.00  0.00    -0.023 C 
HETATM   19  C   UNL     1     -18.995   9.519   5.270  1.00  0.00     0.009 C 
HETATM   20  C   UNL     1     -20.296   8.014   3.749  1.00  0.00     0.009 C 
ENDBRANCH  17  18
ENDBRANCH  16  17
ENDBRANCH  15  16
ENDBRANCH  14  15
ENDBRANCH  13  14
ENDBRANCH  12  13
ENDBRANCH  11  12
ENDBRANCH   1  11
TORSDOF 16
ENDMDL
