MODEL 1
REMARK VINA RESULT:      -7.5      0.000      0.000
REMARK  21 active torsions:
REMARK  status: ('A' for Active; 'I' for Inactive)
REMARK    1  A    between atoms: C_2  and  C_3 
REMARK    2  A    between atoms: C_3  and  C_4 
REMARK    3  A    between atoms: C_4  and  C_5 
REMARK    4  A    between atoms: C_5  and  C_6 
REMARK    5  A    between atoms: C_6  and  C_7 
REMARK    6  A    between atoms: C_7  and  C_8 
REMARK    7  A    between atoms: C_8  and  C_9 
REMARK    8  A    between atoms: C_10  and  C_11 
REMARK    9  A    between atoms: C_11  and  C_12 
REMARK   10  A    between atoms: C_12  and  C_13 
REMARK   11  A    between atoms: C_13  and  C_14 
REMARK   12  A    between atoms: C_14  and  C_15 
REMARK   13  A    between atoms: C_15  and  C_16 
REMARK   14  A    between atoms: C_16  and  C_17 
REMARK   15  A    between atoms: C_17  and  C_18 
REMARK   16  A    between atoms: C_18  and  O_20 
REMARK   17  A    between atoms: O_20  and  C_21 
REMARK   18  A    between atoms: C_21  and  C_22 
REMARK   19  A    between atoms: C_22  and  C_23 
REMARK   20  A    between atoms: C_22  and  O_25 
REMARK   21  A    between atoms: C_23  and  O_24 
ROOT
HETATM    1  C   UNL     1     -21.446  -4.459  -7.223  1.00  0.00     0.000 C 
ENDROOT
BRANCH   1   2
HETATM    2  C   UNL     1     -20.229  -4.658  -6.331  1.00  0.00     0.000 C 
BRANCH   2   3
HETATM    3  C   UNL     1     -20.164  -6.090  -5.809  1.00  0.00     0.004 C 
BRANCH   3   4
HETATM    4  C   UNL     1     -21.554  -6.713  -5.791  1.00  0.00     0.027 C 
BRANCH   4   5
HETATM    5  C   UNL     1     -22.031  -6.891  -4.383  1.00  0.00    -0.031 C 
HETATM    6  C   UNL     1     -21.628  -6.116  -3.367  1.00  0.00    -0.031 C 
BRANCH   6   7
HETATM    7  C   UNL     1     -22.106  -6.291  -1.961  1.00  0.00     0.027 C 
BRANCH   7   8
HETATM    8  C   UNL     1     -21.430  -7.495  -1.316  1.00  0.00     0.004 C 
BRANCH   8   9
HETATM    9  C   UNL     1     -21.979  -7.726   0.087  1.00  0.00     0.000 C 
BRANCH   9  10
HETATM   10  C   UNL     1     -22.944  -8.905   0.105  1.00  0.00     0.000 C 
BRANCH  10  11
HETATM   11  C   UNL     1     -22.255 -10.175  -0.384  1.00  0.00     0.000 C 
BRANCH  11  12
HETATM   12  C   UNL     1     -23.114 -10.889  -1.423  1.00  0.00    -0.000 C 
BRANCH  12  13
HETATM   13  C   UNL     1     -24.173 -11.760  -0.754  1.00  0.00    -0.005 C 
HETATM   14  C   UNL     1     -23.547 -12.681   0.279  1.00  0.00     0.005 C 
ENDBRANCH  12  13
ENDBRANCH  11  12
ENDBRANCH  10  11
ENDBRANCH   9  10
ENDBRANCH   8   9
ENDBRANCH   7   8
ENDBRANCH   6   7
ENDBRANCH   4   5
ENDBRANCH   3   4
ENDBRANCH   2   3
ENDBRANCH   1   2
BRANCH   1  15
HETATM   15  C   UNL     1     -21.066  -4.550  -8.700  1.00  0.00     0.000 C 
BRANCH  15  16
HETATM   16  C   UNL     1     -22.061  -3.764  -9.540  1.00  0.00     0.010 C 
BRANCH  16  17
HETATM   17  C   UNL     1     -23.504  -3.961  -9.080  1.00  0.00     0.111 C 
BRANCH  17  18
HETATM   18  C   UNL     1     -24.449  -3.529 -10.174  1.00  0.00     0.258 C 
HETATM   19  O   UNL     1     -25.556  -3.035  -9.972  1.00  0.00    -0.265 OA
BRANCH  18  20
HETATM   20  O   UNL     1     -23.943  -3.840 -11.394  1.00  0.00    -0.319 OA
BRANCH  20  21
HETATM   21  C   UNL     1     -24.313  -2.940 -12.437  1.00  0.00     0.212 C 
BRANCH  21  22
HETATM   22  C   UNL     1     -23.478  -3.098 -13.700  1.00  0.00     0.166 C 
BRANCH  22  23
HETATM   23  C   UNL     1     -23.574  -1.880 -14.621  1.00  0.00     0.198 C 
BRANCH  23  24
HETATM   24  O   UNL     1     -24.782  -1.177 -14.352  1.00  0.00    -0.398 OA
HETATM   25  H   UNL     1     -25.461  -1.560 -14.941  1.00  0.00     0.209 HD
ENDBRANCH  23  24
ENDBRANCH  22  23
BRANCH  22  26
HETATM   26  O   UNL     1     -22.098  -3.282 -13.336  1.00  0.00    -0.391 OA
HETATM   27  H   UNL     1     -21.572  -2.551 -13.709  1.00  0.00     0.210 HD
ENDBRANCH  22  26
ENDBRANCH  21  22
ENDBRANCH  20  21
ENDBRANCH  18  20
ENDBRANCH  17  18
ENDBRANCH  16  17
ENDBRANCH  15  16
ENDBRANCH   1  15
TORSDOF 21
ENDMDL
MODEL 2
REMARK VINA RESULT:      -7.1      1.636      3.075
REMARK  21 active torsions:
REMARK  status: ('A' for Active; 'I' for Inactive)
REMARK    1  A    between atoms: C_2  and  C_3 
REMARK    2  A    between atoms: C_3  and  C_4 
REMARK    3  A    between atoms: C_4  and  C_5 
REMARK    4  A    between atoms: C_5  and  C_6 
REMARK    5  A    between atoms: C_6  and  C_7 
REMARK    6  A    between atoms: C_7  and  C_8 
REMARK    7  A    between atoms: C_8  and  C_9 
REMARK    8  A    between atoms: C_10  and  C_11 
REMARK    9  A    between atoms: C_11  and  C_12 
REMARK   10  A    between atoms: C_12  and  C_13 
REMARK   11  A    between atoms: C_13  and  C_14 
REMARK   12  A    between atoms: C_14  and  C_15 
REMARK   13  A    between atoms: C_15  and  C_16 
REMARK   14  A    between atoms: C_16  and  C_17 
REMARK   15  A    between atoms: C_17  and  C_18 
REMARK   16  A    between atoms: C_18  and  O_20 
REMARK   17  A    between atoms: O_20  and  C_21 
REMARK   18  A    between atoms: C_21  and  C_22 
REMARK   19  A    between atoms: C_22  and  C_23 
REMARK   20  A    between atoms: C_22  and  O_25 
REMARK   21  A    between atoms: C_23  and  O_24 
ROOT
HETATM    1  C   UNL     1     -21.267  -5.604  -5.584  1.00  0.00     0.000 C 
ENDROOT
BRANCH   1   2
HETATM    2  C   UNL     1     -20.998  -7.061  -5.234  1.00  0.00     0.000 C 
BRANCH   2   3
HETATM    3  C   UNL     1     -21.186  -7.308  -3.741  1.00  0.00     0.004 C 
BRANCH   3   4
HETATM    4  C   UNL     1     -21.475  -5.998  -3.018  1.00  0.00     0.027 C 
BRANCH   4   5
HETATM    5  C   UNL     1     -22.125  -6.261  -1.696  1.00  0.00    -0.031 C 
HETATM    6  C   UNL     1     -22.187  -7.478  -1.137  1.00  0.00    -0.031 C 
BRANCH   6   7
HETATM    7  C   UNL     1     -22.834  -7.742   0.186  1.00  0.00     0.027 C 
BRANCH   7   8
HETATM    8  C   UNL     1     -21.819  -8.312   1.169  1.00  0.00     0.004 C 
BRANCH   8   9
HETATM    9  C   UNL     1     -20.802  -9.184   0.441  1.00  0.00     0.000 C 
BRANCH   9  10
HETATM   10  C   UNL     1     -20.578 -10.494   1.187  1.00  0.00     0.000 C 
BRANCH  10  11
HETATM   11  C   UNL     1     -21.319 -11.638   0.503  1.00  0.00     0.000 C 
BRANCH  11  12
HETATM   12  C   UNL     1     -21.764 -11.231  -0.899  1.00  0.00    -0.000 C 
BRANCH  12  13
HETATM   13  C   UNL     1     -23.183 -11.713  -1.185  1.00  0.00    -0.005 C 
HETATM   14  C   UNL     1     -24.173 -11.097  -0.212  1.00  0.00     0.005 C 
ENDBRANCH  12  13
ENDBRANCH  11  12
ENDBRANCH  10  11
ENDBRANCH   9  10
ENDBRANCH   8   9
ENDBRANCH   7   8
ENDBRANCH   6   7
ENDBRANCH   4   5
ENDBRANCH   3   4
ENDBRANCH   2   3
ENDBRANCH   1   2
BRANCH   1  15
HETATM   15  C   UNL     1     -19.990  -4.907  -6.050  1.00  0.00     0.000 C 
BRANCH  15  16
HETATM   16  C   UNL     1     -20.249  -4.172  -7.357  1.00  0.00     0.010 C 
BRANCH  16  17
HETATM   17  C   UNL     1     -21.008  -5.025  -8.370  1.00  0.00     0.111 C 
BRANCH  17  18
HETATM   18  C   UNL     1     -21.001  -4.342  -9.716  1.00  0.00     0.258 C 
HETATM   19  O   UNL     1     -20.142  -4.523 -10.575  1.00  0.00    -0.265 OA
BRANCH  18  20
HETATM   20  O   UNL     1     -22.019  -3.448  -9.804  1.00  0.00    -0.319 OA
BRANCH  20  21
HETATM   21  C   UNL     1     -22.623  -3.362 -11.093  1.00  0.00     0.212 C 
BRANCH  21  22
HETATM   22  C   UNL     1     -24.028  -3.945 -11.145  1.00  0.00     0.166 C 
BRANCH  22  23
HETATM   23  C   UNL     1     -24.629  -4.146  -9.752  1.00  0.00     0.198 C 
BRANCH  23  24
HETATM   24  O   UNL     1     -24.895  -2.879  -9.163  1.00  0.00    -0.398 OA
HETATM   25  H   UNL     1     -24.752  -2.985  -8.202  1.00  0.00     0.209 HD
ENDBRANCH  23  24
ENDBRANCH  22  23
BRANCH  22  26
HETATM   26  O   UNL     1     -24.884  -3.055 -11.882  1.00  0.00    -0.391 OA
HETATM   27  H   UNL     1     -24.832  -3.278 -12.830  1.00  0.00     0.210 HD
ENDBRANCH  22  26
ENDBRANCH  21  22
ENDBRANCH  20  21
ENDBRANCH  18  20
ENDBRANCH  17  18
ENDBRANCH  16  17
ENDBRANCH  15  16
ENDBRANCH   1  15
TORSDOF 21
ENDMDL
MODEL 3
REMARK VINA RESULT:      -7.1      1.550      2.103
REMARK  21 active torsions:
REMARK  status: ('A' for Active; 'I' for Inactive)
REMARK    1  A    between atoms: C_2  and  C_3 
REMARK    2  A    between atoms: C_3  and  C_4 
REMARK    3  A    between atoms: C_4  and  C_5 
REMARK    4  A    between atoms: C_5  and  C_6 
REMARK    5  A    between atoms: C_6  and  C_7 
REMARK    6  A    between atoms: C_7  and  C_8 
REMARK    7  A    between atoms: C_8  and  C_9 
REMARK    8  A    between atoms: C_10  and  C_11 
REMARK    9  A    between atoms: C_11  and  C_12 
REMARK   10  A    between atoms: C_12  and  C_13 
REMARK   11  A    between atoms: C_13  and  C_14 
REMARK   12  A    between atoms: C_14  and  C_15 
REMARK   13  A    between atoms: C_15  and  C_16 
REMARK   14  A    between atoms: C_16  and  C_17 
REMARK   15  A    between atoms: C_17  and  C_18 
REMARK   16  A    between atoms: C_18  and  O_20 
REMARK   17  A    between atoms: O_20  and  C_21 
REMARK   18  A    between atoms: C_21  and  C_22 
REMARK   19  A    between atoms: C_22  and  C_23 
REMARK   20  A    between atoms: C_22  and  O_25 
REMARK   21  A    between atoms: C_23  and  O_24 
ROOT
HETATM    1  C   UNL     1     -20.585  -4.056  -6.997  1.00  0.00     0.000 C 
ENDROOT
BRANCH   1   2
HETATM    2  C   UNL     1     -20.191  -5.372  -6.341  1.00  0.00     0.000 C 
BRANCH   2   3
HETATM    3  C   UNL     1     -21.203  -5.773  -5.273  1.00  0.00     0.004 C 
BRANCH   3   4
HETATM    4  C   UNL     1     -21.448  -7.276  -5.311  1.00  0.00     0.027 C 
BRANCH   4   5
HETATM    5  C   UNL     1     -21.441  -7.845  -3.926  1.00  0.00    -0.031 C 
HETATM    6  C   UNL     1     -21.296  -7.094  -2.825  1.00  0.00    -0.031 C 
BRANCH   6   7
HETATM    7  C   UNL     1     -21.292  -7.660  -1.441  1.00  0.00     0.027 C 
BRANCH   7   8
HETATM    8  C   UNL     1     -22.429  -7.064  -0.620  1.00  0.00     0.004 C 
BRANCH   8   9
HETATM    9  C   UNL     1     -23.039  -8.121   0.293  1.00  0.00     0.000 C 
BRANCH   9  10
HETATM   10  C   UNL     1     -22.563  -9.515  -0.097  1.00  0.00     0.000 C 
BRANCH  10  11
HETATM   11  C   UNL     1     -23.725 -10.503  -0.097  1.00  0.00     0.000 C 
BRANCH  11  12
HETATM   12  C   UNL     1     -23.812 -11.234  -1.432  1.00  0.00    -0.000 C 
BRANCH  12  13
HETATM   13  C   UNL     1     -22.618 -10.898  -2.320  1.00  0.00    -0.005 C 
HETATM   14  C   UNL     1     -22.604 -11.769  -3.565  1.00  0.00     0.005 C 
ENDBRANCH  12  13
ENDBRANCH  11  12
ENDBRANCH  10  11
ENDBRANCH   9  10
ENDBRANCH   8   9
ENDBRANCH   7   8
ENDBRANCH   6   7
ENDBRANCH   4   5
ENDBRANCH   3   4
ENDBRANCH   2   3
ENDBRANCH   1   2
BRANCH   1  15
HETATM   15  C   UNL     1     -21.113  -4.284  -8.413  1.00  0.00     0.000 C 
BRANCH  15  16
HETATM   16  C   UNL     1     -19.955  -4.315  -9.399  1.00  0.00     0.010 C 
BRANCH  16  17
HETATM   17  C   UNL     1     -20.388  -4.734 -10.801  1.00  0.00     0.111 C 
BRANCH  17  18
HETATM   18  C   UNL     1     -21.280  -3.672 -11.397  1.00  0.00     0.258 C 
HETATM   19  O   UNL     1     -20.990  -2.480 -11.449  1.00  0.00    -0.265 OA
BRANCH  18  20
HETATM   20  O   UNL     1     -22.466  -4.205 -11.784  1.00  0.00    -0.319 OA
BRANCH  20  21
HETATM   21  C   UNL     1     -23.534  -3.265 -11.886  1.00  0.00     0.212 C 
BRANCH  21  22
HETATM   22  C   UNL     1     -24.101  -3.141 -13.293  1.00  0.00     0.166 C 
BRANCH  22  23
HETATM   23  C   UNL     1     -23.244  -2.244 -14.191  1.00  0.00     0.198 C 
BRANCH  23  24
HETATM   24  O   UNL     1     -22.498  -3.052 -15.094  1.00  0.00    -0.398 OA
HETATM   25  H   UNL     1     -22.283  -3.876 -14.614  1.00  0.00     0.209 HD
ENDBRANCH  23  24
ENDBRANCH  22  23
BRANCH  22  26
HETATM   26  O   UNL     1     -24.171  -4.446 -13.893  1.00  0.00    -0.391 OA
HETATM   27  H   UNL     1     -24.948  -4.916 -13.539  1.00  0.00     0.210 HD
ENDBRANCH  22  26
ENDBRANCH  21  22
ENDBRANCH  20  21
ENDBRANCH  18  20
ENDBRANCH  17  18
ENDBRANCH  16  17
ENDBRANCH  15  16
ENDBRANCH   1  15
TORSDOF 21
ENDMDL
MODEL 4
REMARK VINA RESULT:      -7.0      1.656      3.749
REMARK  21 active torsions:
REMARK  status: ('A' for Active; 'I' for Inactive)
REMARK    1  A    between atoms: C_2  and  C_3 
REMARK    2  A    between atoms: C_3  and  C_4 
REMARK    3  A    between atoms: C_4  and  C_5 
REMARK    4  A    between atoms: C_5  and  C_6 
REMARK    5  A    between atoms: C_6  and  C_7 
REMARK    6  A    between atoms: C_7  and  C_8 
REMARK    7  A    between atoms: C_8  and  C_9 
REMARK    8  A    between atoms: C_10  and  C_11 
REMARK    9  A    between atoms: C_11  and  C_12 
REMARK   10  A    between atoms: C_12  and  C_13 
REMARK   11  A    between atoms: C_13  and  C_14 
REMARK   12  A    between atoms: C_14  and  C_15 
REMARK   13  A    between atoms: C_15  and  C_16 
REMARK   14  A    between atoms: C_16  and  C_17 
REMARK   15  A    between atoms: C_17  and  C_18 
REMARK   16  A    between atoms: C_18  and  O_20 
REMARK   17  A    between atoms: O_20  and  C_21 
REMARK   18  A    between atoms: C_21  and  C_22 
REMARK   19  A    between atoms: C_22  and  C_23 
REMARK   20  A    between atoms: C_22  and  O_25 
REMARK   21  A    between atoms: C_23  and  O_24 
ROOT
HETATM    1  C   UNL     1     -21.712  -6.246  -5.889  1.00  0.00     0.000 C 
ENDROOT
BRANCH   1   2
HETATM    2  C   UNL     1     -22.170  -6.694  -4.508  1.00  0.00     0.000 C 
BRANCH   2   3
HETATM    3  C   UNL     1     -21.288  -6.091  -3.419  1.00  0.00     0.004 C 
BRANCH   3   4
HETATM    4  C   UNL     1     -22.050  -6.011  -2.101  1.00  0.00     0.027 C 
BRANCH   4   5
HETATM    5  C   UNL     1     -21.892  -7.282  -1.326  1.00  0.00    -0.031 C 
HETATM    6  C   UNL     1     -22.686  -7.619  -0.300  1.00  0.00    -0.031 C 
BRANCH   6   7
HETATM    7  C   UNL     1     -22.531  -8.889   0.474  1.00  0.00     0.027 C 
BRANCH   7   8
HETATM    8  C   UNL     1     -22.034 -10.008  -0.434  1.00  0.00     0.004 C 
BRANCH   8   9
HETATM    9  C   UNL     1     -23.210 -10.741  -1.070  1.00  0.00     0.000 C 
BRANCH   9  10
HETATM   10  C   UNL     1     -22.803 -11.368  -2.398  1.00  0.00     0.000 C 
BRANCH  10  11
HETATM   11  C   UNL     1     -22.174 -10.326  -3.317  1.00  0.00     0.000 C 
BRANCH  11  12
HETATM   12  C   UNL     1     -20.711 -10.661  -3.590  1.00  0.00    -0.000 C 
BRANCH  12  13
HETATM   13  C   UNL     1     -19.867  -9.394  -3.686  1.00  0.00    -0.005 C 
HETATM   14  C   UNL     1     -18.701  -9.442  -2.714  1.00  0.00     0.005 C 
ENDBRANCH  12  13
ENDBRANCH  11  12
ENDBRANCH  10  11
ENDBRANCH   9  10
ENDBRANCH   8   9
ENDBRANCH   7   8
ENDBRANCH   6   7
ENDBRANCH   4   5
ENDBRANCH   3   4
ENDBRANCH   2   3
ENDBRANCH   1   2
BRANCH   1  15
HETATM   15  C   UNL     1     -20.606  -5.196  -5.787  1.00  0.00     0.000 C 
BRANCH  15  16
HETATM   16  C   UNL     1     -20.849  -4.089  -6.801  1.00  0.00     0.010 C 
BRANCH  16  17
HETATM   17  C   UNL     1     -20.255  -4.405  -8.171  1.00  0.00     0.111 C 
BRANCH  17  18
HETATM   18  C   UNL     1     -21.302  -4.200  -9.239  1.00  0.00     0.258 C 
HETATM   19  O   UNL     1     -21.133  -4.459 -10.427  1.00  0.00    -0.265 OA
BRANCH  18  20
HETATM   20  O   UNL     1     -22.409  -3.614  -8.716  1.00  0.00    -0.319 OA
BRANCH  20  21
HETATM   21  C   UNL     1     -23.643  -4.153  -9.186  1.00  0.00     0.212 C 
BRANCH  21  22
HETATM   22  C   UNL     1     -24.480  -3.156  -9.975  1.00  0.00     0.166 C 
BRANCH  22  23
HETATM   23  C   UNL     1     -24.270  -3.282 -11.485  1.00  0.00     0.198 C 
BRANCH  23  24
HETATM   24  O   UNL     1     -22.970  -2.814 -11.824  1.00  0.00    -0.398 OA
HETATM   25  H   UNL     1     -22.593  -2.431 -11.008  1.00  0.00     0.209 HD
ENDBRANCH  23  24
ENDBRANCH  22  23
BRANCH  22  26
HETATM   26  O   UNL     1     -25.873  -3.377  -9.691  1.00  0.00    -0.391 OA
HETATM   27  H   UNL     1     -26.059  -4.332  -9.745  1.00  0.00     0.210 HD
ENDBRANCH  22  26
ENDBRANCH  21  22
ENDBRANCH  20  21
ENDBRANCH  18  20
ENDBRANCH  17  18
ENDBRANCH  16  17
ENDBRANCH  15  16
ENDBRANCH   1  15
TORSDOF 21
ENDMDL
MODEL 5
REMARK VINA RESULT:      -7.0      1.327      2.292
REMARK  21 active torsions:
REMARK  status: ('A' for Active; 'I' for Inactive)
REMARK    1  A    between atoms: C_2  and  C_3 
REMARK    2  A    between atoms: C_3  and  C_4 
REMARK    3  A    between atoms: C_4  and  C_5 
REMARK    4  A    between atoms: C_5  and  C_6 
REMARK    5  A    between atoms: C_6  and  C_7 
REMARK    6  A    between atoms: C_7  and  C_8 
REMARK    7  A    between atoms: C_8  and  C_9 
REMARK    8  A    between atoms: C_10  and  C_11 
REMARK    9  A    between atoms: C_11  and  C_12 
REMARK   10  A    between atoms: C_12  and  C_13 
REMARK   11  A    between atoms: C_13  and  C_14 
REMARK   12  A    between atoms: C_14  and  C_15 
REMARK   13  A    between atoms: C_15  and  C_16 
REMARK   14  A    between atoms: C_16  and  C_17 
REMARK   15  A    between atoms: C_17  and  C_18 
REMARK   16  A    between atoms: C_18  and  O_20 
REMARK   17  A    between atoms: O_20  and  C_21 
REMARK   18  A    between atoms: C_21  and  C_22 
REMARK   19  A    between atoms: C_22  and  C_23 
REMARK   20  A    between atoms: C_22  and  O_25 
REMARK   21  A    between atoms: C_23  and  O_24 
ROOT
HETATM    1  C   UNL     1     -20.409  -4.507  -5.951  1.00  0.00     0.000 C 
ENDROOT
BRANCH   1   2
HETATM    2  C   UNL     1     -20.262  -5.994  -6.242  1.00  0.00     0.000 C 
BRANCH   2   3
HETATM    3  C   UNL     1     -20.957  -6.831  -5.173  1.00  0.00     0.004 C 
BRANCH   3   4
HETATM    4  C   UNL     1     -21.275  -5.976  -3.952  1.00  0.00     0.027 C 
BRANCH   4   5
HETATM    5  C   UNL     1     -21.518  -6.841  -2.755  1.00  0.00    -0.031 C 
HETATM    6  C   UNL     1     -22.250  -6.449  -1.702  1.00  0.00    -0.031 C 
BRANCH   6   7
HETATM    7  C   UNL     1     -22.496  -7.313  -0.506  1.00  0.00     0.027 C 
BRANCH   7   8
HETATM    8  C   UNL     1     -21.349  -8.299  -0.318  1.00  0.00     0.004 C 
BRANCH   8   9
HETATM    9  C   UNL     1     -21.874  -9.638   0.186  1.00  0.00     0.000 C 
BRANCH   9  10
HETATM   10  C   UNL     1     -23.380  -9.745  -0.025  1.00  0.00     0.000 C 
BRANCH  10  11
HETATM   11  C   UNL     1     -23.773 -11.173  -0.391  1.00  0.00     0.000 C 
BRANCH  11  12
HETATM   12  C   UNL     1     -22.752 -12.169   0.150  1.00  0.00    -0.000 C 
BRANCH  12  13
HETATM   13  C   UNL     1     -23.397 -13.128   1.146  1.00  0.00    -0.005 C 
HETATM   14  C   UNL     1     -22.349 -13.771   2.038  1.00  0.00     0.005 C 
ENDBRANCH  12  13
ENDBRANCH  11  12
ENDBRANCH  10  11
ENDBRANCH   9  10
ENDBRANCH   8   9
ENDBRANCH   7   8
ENDBRANCH   6   7
ENDBRANCH   4   5
ENDBRANCH   3   4
ENDBRANCH   2   3
ENDBRANCH   1   2
BRANCH   1  15
HETATM   15  C   UNL     1     -20.826  -3.741  -7.206  1.00  0.00     0.000 C 
BRANCH  15  16
HETATM   16  C   UNL     1     -20.870  -4.685  -8.398  1.00  0.00     0.010 C 
BRANCH  16  17
HETATM   17  C   UNL     1     -21.788  -4.185  -9.510  1.00  0.00     0.111 C 
BRANCH  17  18
HETATM   18  C   UNL     1     -21.125  -4.392 -10.849  1.00  0.00     0.258 C 
HETATM   19  O   UNL     1     -19.928  -4.627 -10.996  1.00  0.00    -0.265 OA
BRANCH  18  20
HETATM   20  O   UNL     1     -22.012  -4.198 -11.858  1.00  0.00    -0.319 OA
BRANCH  20  21
HETATM   21  C   UNL     1     -22.323  -2.831 -12.120  1.00  0.00     0.212 C 
BRANCH  21  22
HETATM   22  C   UNL     1     -23.669  -2.635 -12.804  1.00  0.00     0.166 C 
BRANCH  22  23
HETATM   23  C   UNL     1     -23.691  -3.207 -14.224  1.00  0.00     0.198 C 
BRANCH  23  24
HETATM   24  O   UNL     1     -22.405  -3.057 -14.815  1.00  0.00    -0.398 OA
HETATM   25  H   UNL     1     -21.761  -3.400 -14.165  1.00  0.00     0.209 HD
ENDBRANCH  23  24
ENDBRANCH  22  23
BRANCH  22  26
HETATM   26  O   UNL     1     -24.692  -3.294 -12.036  1.00  0.00    -0.391 OA
HETATM   27  H   UNL     1     -25.154  -3.935 -12.607  1.00  0.00     0.210 HD
ENDBRANCH  22  26
ENDBRANCH  21  22
ENDBRANCH  20  21
ENDBRANCH  18  20
ENDBRANCH  17  18
ENDBRANCH  16  17
ENDBRANCH  15  16
ENDBRANCH   1  15
TORSDOF 21
ENDMDL
MODEL 6
REMARK VINA RESULT:      -7.0     12.199     14.454
REMARK  21 active torsions:
REMARK  status: ('A' for Active; 'I' for Inactive)
REMARK    1  A    between atoms: C_2  and  C_3 
REMARK    2  A    between atoms: C_3  and  C_4 
REMARK    3  A    between atoms: C_4  and  C_5 
REMARK    4  A    between atoms: C_5  and  C_6 
REMARK    5  A    between atoms: C_6  and  C_7 
REMARK    6  A    between atoms: C_7  and  C_8 
REMARK    7  A    between atoms: C_8  and  C_9 
REMARK    8  A    between atoms: C_10  and  C_11 
REMARK    9  A    between atoms: C_11  and  C_12 
REMARK   10  A    between atoms: C_12  and  C_13 
REMARK   11  A    between atoms: C_13  and  C_14 
REMARK   12  A    between atoms: C_14  and  C_15 
REMARK   13  A    between atoms: C_15  and  C_16 
REMARK   14  A    between atoms: C_16  and  C_17 
REMARK   15  A    between atoms: C_17  and  C_18 
REMARK   16  A    between atoms: C_18  and  O_20 
REMARK   17  A    between atoms: O_20  and  C_21 
REMARK   18  A    between atoms: C_21  and  C_22 
REMARK   19  A    between atoms: C_22  and  C_23 
REMARK   20  A    between atoms: C_22  and  O_25 
REMARK   21  A    between atoms: C_23  and  O_24 
ROOT
HETATM    1  C   UNL     1     -35.600  -1.036 -16.723  1.00  0.00     0.000 C 
ENDROOT
BRANCH   1   2
HETATM    2  C   UNL     1     -36.325  -0.216 -15.665  1.00  0.00     0.000 C 
BRANCH   2   3
HETATM    3  C   UNL     1     -35.601   1.101 -15.405  1.00  0.00     0.004 C 
BRANCH   3   4
HETATM    4  C   UNL     1     -34.779   1.013 -14.125  1.00  0.00     0.027 C 
BRANCH   4   5
HETATM    5  C   UNL     1     -35.463   0.138 -13.121  1.00  0.00    -0.031 C 
HETATM    6  C   UNL     1     -34.812  -0.754 -12.361  1.00  0.00    -0.031 C 
BRANCH   6   7
HETATM    7  C   UNL     1     -35.494  -1.627 -11.355  1.00  0.00     0.027 C 
BRANCH   7   8
HETATM    8  C   UNL     1     -34.487  -2.154 -10.340  1.00  0.00     0.004 C 
BRANCH   8   9
HETATM    9  C   UNL     1     -33.185  -2.541 -11.031  1.00  0.00     0.000 C 
BRANCH   9  10
HETATM   10  C   UNL     1     -33.212  -4.004 -11.459  1.00  0.00     0.000 C 
BRANCH  10  11
HETATM   11  C   UNL     1     -34.208  -4.794 -10.617  1.00  0.00     0.000 C 
BRANCH  11  12
HETATM   12  C   UNL     1     -34.123  -6.283 -10.936  1.00  0.00    -0.000 C 
BRANCH  12  13
HETATM   13  C   UNL     1     -34.720  -7.121  -9.810  1.00  0.00    -0.005 C 
HETATM   14  C   UNL     1     -34.148  -8.528  -9.817  1.00  0.00     0.005 C 
ENDBRANCH  12  13
ENDBRANCH  11  12
ENDBRANCH  10  11
ENDBRANCH   9  10
ENDBRANCH   8   9
ENDBRANCH   7   8
ENDBRANCH   6   7
ENDBRANCH   4   5
ENDBRANCH   3   4
ENDBRANCH   2   3
ENDBRANCH   1   2
BRANCH   1  15
HETATM   15  C   UNL     1     -35.076  -2.346 -16.139  1.00  0.00     0.000 C 
BRANCH  15  16
HETATM   16  C   UNL     1     -33.967  -2.900 -17.020  1.00  0.00     0.010 C 
BRANCH  16  17
HETATM   17  C   UNL     1     -33.284  -4.121 -16.408  1.00  0.00     0.111 C 
BRANCH  17  18
HETATM   18  C   UNL     1     -31.921  -4.305 -17.029  1.00  0.00     0.258 C 
HETATM   19  O   UNL     1     -31.190  -3.380 -17.371  1.00  0.00    -0.265 OA
BRANCH  18  20
HETATM   20  O   UNL     1     -31.660  -5.622 -17.229  1.00  0.00    -0.319 OA
BRANCH  20  21
HETATM   21  C   UNL     1     -30.351  -6.034 -16.842  1.00  0.00     0.212 C 
BRANCH  21  22
HETATM   22  C   UNL     1     -29.653  -6.896 -17.884  1.00  0.00     0.166 C 
BRANCH  22  23
HETATM   23  C   UNL     1     -28.341  -6.277 -18.372  1.00  0.00     0.198 C 
BRANCH  23  24
HETATM   24  O   UNL     1     -27.534  -5.932 -17.251  1.00  0.00    -0.398 OA
HETATM   25  H   UNL     1     -27.968  -6.324 -16.468  1.00  0.00     0.209 HD
ENDBRANCH  23  24
ENDBRANCH  22  23
BRANCH  22  26
HETATM   26  O   UNL     1     -29.361  -8.184 -17.315  1.00  0.00    -0.391 OA
HETATM   27  H   UNL     1     -29.066  -8.785 -18.024  1.00  0.00     0.210 HD
ENDBRANCH  22  26
ENDBRANCH  21  22
ENDBRANCH  20  21
ENDBRANCH  18  20
ENDBRANCH  17  18
ENDBRANCH  16  17
ENDBRANCH  15  16
ENDBRANCH   1  15
TORSDOF 21
ENDMDL
MODEL 7
REMARK VINA RESULT:      -6.9      1.279      2.472
REMARK  21 active torsions:
REMARK  status: ('A' for Active; 'I' for Inactive)
REMARK    1  A    between atoms: C_2  and  C_3 
REMARK    2  A    between atoms: C_3  and  C_4 
REMARK    3  A    between atoms: C_4  and  C_5 
REMARK    4  A    between atoms: C_5  and  C_6 
REMARK    5  A    between atoms: C_6  and  C_7 
REMARK    6  A    between atoms: C_7  and  C_8 
REMARK    7  A    between atoms: C_8  and  C_9 
REMARK    8  A    between atoms: C_10  and  C_11 
REMARK    9  A    between atoms: C_11  and  C_12 
REMARK   10  A    between atoms: C_12  and  C_13 
REMARK   11  A    between atoms: C_13  and  C_14 
REMARK   12  A    between atoms: C_14  and  C_15 
REMARK   13  A    between atoms: C_15  and  C_16 
REMARK   14  A    between atoms: C_16  and  C_17 
REMARK   15  A    between atoms: C_17  and  C_18 
REMARK   16  A    between atoms: C_18  and  O_20 
REMARK   17  A    between atoms: O_20  and  C_21 
REMARK   18  A    between atoms: C_21  and  C_22 
REMARK   19  A    between atoms: C_22  and  C_23 
REMARK   20  A    between atoms: C_22  and  O_25 
REMARK   21  A    between atoms: C_23  and  O_24 
ROOT
HETATM    1  C   UNL     1     -20.575  -5.035  -7.894  1.00  0.00     0.000 C 
ENDROOT
BRANCH   1   2
HETATM    2  C   UNL     1     -21.390  -4.819  -6.627  1.00  0.00     0.000 C 
BRANCH   2   3
HETATM    3  C   UNL     1     -21.597  -6.133  -5.881  1.00  0.00     0.004 C 
BRANCH   3   4
HETATM    4  C   UNL     1     -20.279  -6.626  -5.297  1.00  0.00     0.027 C 
BRANCH   4   5
HETATM    5  C   UNL     1     -20.338  -8.099  -5.036  1.00  0.00    -0.031 C 
HETATM    6  C   UNL     1     -20.748  -8.622  -3.872  1.00  0.00    -0.031 C 
BRANCH   6   7
HETATM    7  C   UNL     1     -20.811 -10.094  -3.610  1.00  0.00     0.027 C 
BRANCH   7   8
HETATM    8  C   UNL     1     -22.212 -10.623  -3.889  1.00  0.00     0.004 C 
BRANCH   8   9
HETATM    9  C   UNL     1     -22.993 -10.777  -2.589  1.00  0.00     0.000 C 
BRANCH   9  10
HETATM   10  C   UNL     1     -22.076 -10.612  -1.383  1.00  0.00     0.000 C 
BRANCH  10  11
HETATM   11  C   UNL     1     -22.840 -10.025  -0.200  1.00  0.00     0.000 C 
BRANCH  11  12
HETATM   12  C   UNL     1     -22.053  -8.886   0.439  1.00  0.00    -0.000 C 
BRANCH  12  13
HETATM   13  C   UNL     1     -21.437  -7.981  -0.624  1.00  0.00    -0.005 C 
HETATM   14  C   UNL     1     -22.355  -6.814  -0.944  1.00  0.00     0.005 C 
ENDBRANCH  12  13
ENDBRANCH  11  12
ENDBRANCH  10  11
ENDBRANCH   9  10
ENDBRANCH   8   9
ENDBRANCH   7   8
ENDBRANCH   6   7
ENDBRANCH   4   5
ENDBRANCH   3   4
ENDBRANCH   2   3
ENDBRANCH   1   2
BRANCH   1  15
HETATM   15  C   UNL     1     -21.267  -4.412  -9.105  1.00  0.00     0.000 C 
BRANCH  15  16
HETATM   16  C   UNL     1     -22.774  -4.568  -8.978  1.00  0.00     0.010 C 
BRANCH  16  17
HETATM   17  C   UNL     1     -23.468  -4.703 -10.331  1.00  0.00     0.111 C 
BRANCH  17  18
HETATM   18  C   UNL     1     -24.285  -3.466 -10.609  1.00  0.00     0.258 C 
HETATM   19  O   UNL     1     -25.337  -3.192 -10.036  1.00  0.00    -0.265 OA
BRANCH  18  20
HETATM   20  O   UNL     1     -23.743  -2.753 -11.629  1.00  0.00    -0.319 OA
BRANCH  20  21
HETATM   21  C   UNL     1     -24.469  -2.825 -12.855  1.00  0.00     0.212 C 
BRANCH  21  22
HETATM   22  C   UNL     1     -23.578  -2.825 -14.089  1.00  0.00     0.166 C 
BRANCH  22  23
HETATM   23  C   UNL     1     -23.516  -1.454 -14.765  1.00  0.00     0.198 C 
BRANCH  23  24
HETATM   24  O   UNL     1     -24.768  -0.795 -14.615  1.00  0.00    -0.398 OA
HETATM   25  H   UNL     1     -24.701  -0.257 -13.802  1.00  0.00     0.209 HD
ENDBRANCH  23  24
ENDBRANCH  22  23
BRANCH  22  26
HETATM   26  O   UNL     1     -22.242  -3.202 -13.710  1.00  0.00    -0.391 OA
HETATM   27  H   UNL     1     -21.645  -3.059 -14.467  1.00  0.00     0.210 HD
ENDBRANCH  22  26
ENDBRANCH  21  22
ENDBRANCH  20  21
ENDBRANCH  18  20
ENDBRANCH  17  18
ENDBRANCH  16  17
ENDBRANCH  15  16
ENDBRANCH   1  15
TORSDOF 21
ENDMDL
MODEL 8
REMARK VINA RESULT:      -6.6      1.355      2.421
REMARK  21 active torsions:
REMARK  status: ('A' for Active; 'I' for Inactive)
REMARK    1  A    between atoms: C_2  and  C_3 
REMARK    2  A    between atoms: C_3  and  C_4 
REMARK    3  A    between atoms: C_4  and  C_5 
REMARK    4  A    between atoms: C_5  and  C_6 
REMARK    5  A    between atoms: C_6  and  C_7 
REMARK    6  A    between atoms: C_7  and  C_8 
REMARK    7  A    between atoms: C_8  and  C_9 
REMARK    8  A    between atoms: C_10  and  C_11 
REMARK    9  A    between atoms: C_11  and  C_12 
REMARK   10  A    between atoms: C_12  and  C_13 
REMARK   11  A    between atoms: C_13  and  C_14 
REMARK   12  A    between atoms: C_14  and  C_15 
REMARK   13  A    between atoms: C_15  and  C_16 
REMARK   14  A    between atoms: C_16  and  C_17 
REMARK   15  A    between atoms: C_17  and  C_18 
REMARK   16  A    between atoms: C_18  and  O_20 
REMARK   17  A    between atoms: O_20  and  C_21 
REMARK   18  A    between atoms: C_21  and  C_22 
REMARK   19  A    between atoms: C_22  and  C_23 
REMARK   20  A    between atoms: C_22  and  O_25 
REMARK   21  A    between atoms: C_23  and  O_24 
ROOT
HETATM    1  C   UNL     1     -21.108  -5.641  -5.720  1.00  0.00     0.000 C 
ENDROOT
BRANCH   1   2
HETATM    2  C   UNL     1     -20.427  -7.002  -5.676  1.00  0.00     0.000 C 
BRANCH   2   3
HETATM    3  C   UNL     1     -20.675  -7.693  -4.339  1.00  0.00     0.004 C 
BRANCH   3   4
HETATM    4  C   UNL     1     -21.383  -6.749  -3.375  1.00  0.00     0.027 C 
BRANCH   4   5
HETATM    5  C   UNL     1     -21.386  -7.317  -1.990  1.00  0.00    -0.031 C 
HETATM    6  C   UNL     1     -22.335  -7.040  -1.085  1.00  0.00    -0.031 C 
BRANCH   6   7
HETATM    7  C   UNL     1     -22.341  -7.610   0.298  1.00  0.00     0.027 C 
BRANCH   7   8
HETATM    8  C   UNL     1     -22.294  -9.132   0.246  1.00  0.00     0.004 C 
BRANCH   8   9
HETATM    9  C   UNL     1     -23.703  -9.707   0.158  1.00  0.00     0.000 C 
BRANCH   9  10
HETATM   10  C   UNL     1     -23.696 -11.055  -0.553  1.00  0.00     0.000 C 
BRANCH  10  11
HETATM   11  C   UNL     1     -22.311 -11.690  -0.492  1.00  0.00     0.000 C 
BRANCH  11  12
HETATM   12  C   UNL     1     -22.091 -12.375   0.853  1.00  0.00    -0.000 C 
BRANCH  12  13
HETATM   13  C   UNL     1     -23.320 -13.176   1.269  1.00  0.00    -0.005 C 
HETATM   14  C   UNL     1     -22.948 -14.611   1.599  1.00  0.00     0.005 C 
ENDBRANCH  12  13
ENDBRANCH  11  12
ENDBRANCH  10  11
ENDBRANCH   9  10
ENDBRANCH   8   9
ENDBRANCH   7   8
ENDBRANCH   6   7
ENDBRANCH   4   5
ENDBRANCH   3   4
ENDBRANCH   2   3
ENDBRANCH   1   2
BRANCH   1  15
HETATM   15  C   UNL     1     -20.137  -4.557  -6.187  1.00  0.00     0.000 C 
BRANCH  15  16
HETATM   16  C   UNL     1     -20.623  -3.957  -7.497  1.00  0.00     0.010 C 
BRANCH  16  17
HETATM   17  C   UNL     1     -21.581  -4.880  -8.248  1.00  0.00     0.111 C 
BRANCH  17  18
HETATM   18  C   UNL     1     -22.683  -4.065  -8.878  1.00  0.00     0.258 C 
HETATM   19  O   UNL     1     -23.765  -3.839  -8.343  1.00  0.00    -0.265 OA
BRANCH  18  20
HETATM   20  O   UNL     1     -22.343  -3.696 -10.139  1.00  0.00    -0.319 OA
BRANCH  20  21
HETATM   21  C   UNL     1     -22.802  -4.580 -11.160  1.00  0.00     0.212 C 
BRANCH  21  22
HETATM   22  C   UNL     1     -23.102  -3.880 -12.479  1.00  0.00     0.166 C 
BRANCH  22  23
HETATM   23  C   UNL     1     -24.294  -2.925 -12.375  1.00  0.00     0.198 C 
BRANCH  23  24
HETATM   24  O   UNL     1     -25.012  -3.191 -11.176  1.00  0.00    -0.398 OA
HETATM   25  H   UNL     1     -25.897  -3.505 -11.448  1.00  0.00     0.209 HD
ENDBRANCH  23  24
ENDBRANCH  22  23
BRANCH  22  26
HETATM   26  O   UNL     1     -21.950  -3.123 -12.887  1.00  0.00    -0.391 OA
HETATM   27  H   UNL     1     -21.764  -3.309 -13.826  1.00  0.00     0.210 HD
ENDBRANCH  22  26
ENDBRANCH  21  22
ENDBRANCH  20  21
ENDBRANCH  18  20
ENDBRANCH  17  18
ENDBRANCH  16  17
ENDBRANCH  15  16
ENDBRANCH   1  15
TORSDOF 21
ENDMDL
MODEL 9
REMARK VINA RESULT:      -6.5      1.655      2.839
REMARK  21 active torsions:
REMARK  status: ('A' for Active; 'I' for Inactive)
REMARK    1  A    between atoms: C_2  and  C_3 
REMARK    2  A    between atoms: C_3  and  C_4 
REMARK    3  A    between atoms: C_4  and  C_5 
REMARK    4  A    between atoms: C_5  and  C_6 
REMARK    5  A    between atoms: C_6  and  C_7 
REMARK    6  A    between atoms: C_7  and  C_8 
REMARK    7  A    between atoms: C_8  and  C_9 
REMARK    8  A    between atoms: C_10  and  C_11 
REMARK    9  A    between atoms: C_11  and  C_12 
REMARK   10  A    between atoms: C_12  and  C_13 
REMARK   11  A    between atoms: C_13  and  C_14 
REMARK   12  A    between atoms: C_14  and  C_15 
REMARK   13  A    between atoms: C_15  and  C_16 
REMARK   14  A    between atoms: C_16  and  C_17 
REMARK   15  A    between atoms: C_17  and  C_18 
REMARK   16  A    between atoms: C_18  and  O_20 
REMARK   17  A    between atoms: O_20  and  C_21 
REMARK   18  A    between atoms: C_21  and  C_22 
REMARK   19  A    between atoms: C_22  and  C_23 
REMARK   20  A    between atoms: C_22  and  O_25 
REMARK   21  A    between atoms: C_23  and  O_24 
ROOT
HETATM    1  C   UNL     1     -21.490  -5.876  -6.458  1.00  0.00     0.000 C 
ENDROOT
BRANCH   1   2
HETATM    2  C   UNL     1     -20.720  -5.657  -5.163  1.00  0.00     0.000 C 
BRANCH   2   3
HETATM    3  C   UNL     1     -21.161  -6.649  -4.092  1.00  0.00     0.004 C 
BRANCH   3   4
HETATM    4  C   UNL     1     -21.513  -5.917  -2.802  1.00  0.00     0.027 C 
BRANCH   4   5
HETATM    5  C   UNL     1     -22.334  -6.793  -1.909  1.00  0.00    -0.031 C 
HETATM    6  C   UNL     1     -21.985  -7.090  -0.649  1.00  0.00    -0.031 C 
BRANCH   6   7
HETATM    7  C   UNL     1     -22.806  -7.963   0.246  1.00  0.00     0.027 C 
BRANCH   7   8
HETATM    8  C   UNL     1     -21.951  -8.511   1.383  1.00  0.00     0.004 C 
BRANCH   8   9
HETATM    9  C   UNL     1     -20.940  -9.521   0.851  1.00  0.00     0.000 C 
BRANCH   9  10
HETATM   10  C   UNL     1     -21.617 -10.848   0.528  1.00  0.00     0.000 C 
BRANCH  10  11
HETATM   11  C   UNL     1     -21.508 -11.161  -0.960  1.00  0.00     0.000 C 
BRANCH  11  12
HETATM   12  C   UNL     1     -20.334 -10.414  -1.585  1.00  0.00    -0.000 C 
BRANCH  12  13
HETATM   13  C   UNL     1     -20.640 -10.017  -3.026  1.00  0.00    -0.005 C 
HETATM   14  C   UNL     1     -22.106 -10.246  -3.353  1.00  0.00     0.005 C 
ENDBRANCH  12  13
ENDBRANCH  11  12
ENDBRANCH  10  11
ENDBRANCH   9  10
ENDBRANCH   8   9
ENDBRANCH   7   8
ENDBRANCH   6   7
ENDBRANCH   4   5
ENDBRANCH   3   4
ENDBRANCH   2   3
ENDBRANCH   1   2
BRANCH   1  15
HETATM   15  C   UNL     1     -20.872  -5.079  -7.606  1.00  0.00     0.000 C 
BRANCH  15  16
HETATM   16  C   UNL     1     -21.869  -4.958  -8.747  1.00  0.00     0.010 C 
BRANCH  16  17
HETATM   17  C   UNL     1     -21.574  -3.771  -9.662  1.00  0.00     0.111 C 
BRANCH  17  18
HETATM   18  C   UNL     1     -20.853  -4.250 -10.899  1.00  0.00     0.258 C 
HETATM   19  O   UNL     1     -19.791  -4.867 -10.881  1.00  0.00    -0.265 OA
BRANCH  18  20
HETATM   20  O   UNL     1     -21.495  -3.831 -12.019  1.00  0.00    -0.319 OA
BRANCH  20  21
HETATM   21  C   UNL     1     -22.914  -3.963 -11.973  1.00  0.00     0.212 C 
BRANCH  21  22
HETATM   22  C   UNL     1     -23.654  -2.763 -12.549  1.00  0.00     0.166 C 
BRANCH  22  23
HETATM   23  C   UNL     1     -23.382  -2.570 -14.042  1.00  0.00     0.198 C 
BRANCH  23  24
HETATM   24  O   UNL     1     -23.768  -3.743 -14.749  1.00  0.00    -0.398 OA
HETATM   25  H   UNL     1     -24.296  -4.280 -14.127  1.00  0.00     0.209 HD
ENDBRANCH  23  24
ENDBRANCH  22  23
BRANCH  22  26
HETATM   26  O   UNL     1     -25.069  -2.945 -12.366  1.00  0.00    -0.391 OA
HETATM   27  H   UNL     1     -25.533  -2.644 -13.168  1.00  0.00     0.210 HD
ENDBRANCH  22  26
ENDBRANCH  21  22
ENDBRANCH  20  21
ENDBRANCH  18  20
ENDBRANCH  17  18
ENDBRANCH  16  17
ENDBRANCH  15  16
ENDBRANCH   1  15
TORSDOF 21
ENDMDL
