MODEL 1
REMARK VINA RESULT:      -5.9      0.000      0.000
REMARK  5 active torsions:
REMARK  status: ('A' for Active; 'I' for Inactive)
REMARK    1  A    between atoms: C_2  and  C_3 
REMARK    2  A    between atoms: C_2  and  C_9 
REMARK    3  A    between atoms: C_3  and  C_4 
REMARK    4  A    between atoms: C_4  and  C_5 
REMARK    5  A    between atoms: C_9  and  C_10 
ROOT
HETATM    1  C   UNL     1     -21.427  -4.485 -11.564  1.00  0.00     0.008 C 
ENDROOT
BRANCH   1   2
HETATM    2  C   UNL     1     -22.921  -4.133 -11.741  1.00  0.00    -0.012 C 
HETATM    3  C   UNL     1     -23.054  -2.625 -11.999  1.00  0.00     0.010 C 
BRANCH   2   4
HETATM    4  C   UNL     1     -23.757  -4.544 -10.517  1.00  0.00     0.073 C 
BRANCH   4   5
HETATM    5  C   UNL     1     -24.461  -3.365  -9.899  1.00  0.00     0.231 C 
HETATM    6  O   UNL     1     -25.680  -3.225  -9.911  1.00  0.00    -0.307 OA
ENDBRANCH   4   5
ENDBRANCH   2   4
ENDBRANCH   1   2
BRANCH   1   7
HETATM    7  C   UNL     1     -20.740  -3.698 -10.444  1.00  0.00     0.027 C 
BRANCH   7   8
HETATM    8  C   UNL     1     -20.156  -4.592  -9.386  1.00  0.00    -0.025 C 
HETATM    9  C   UNL     1     -20.515  -4.629  -8.088  1.00  0.00    -0.091 C 
HETATM   10  C   UNL     1     -21.518  -3.706  -7.449  1.00  0.00     0.042 C 
HETATM   11  C   UNL     1     -19.910  -5.635  -7.146  1.00  0.00     0.042 C 
ENDBRANCH   7   8
ENDBRANCH   1   7
TORSDOF 5
ENDMDL
MODEL 2
REMARK VINA RESULT:      -5.9      2.284      2.871
REMARK  5 active torsions:
REMARK  status: ('A' for Active; 'I' for Inactive)
REMARK    1  A    between atoms: C_2  and  C_3 
REMARK    2  A    between atoms: C_2  and  C_9 
REMARK    3  A    between atoms: C_3  and  C_4 
REMARK    4  A    between atoms: C_4  and  C_5 
REMARK    5  A    between atoms: C_9  and  C_10 
ROOT
HETATM    1  C   UNL     1     -21.865  -2.922 -11.686  1.00  0.00     0.008 C 
ENDROOT
BRANCH   1   2
HETATM    2  C   UNL     1     -23.355  -2.723 -12.040  1.00  0.00    -0.012 C 
HETATM    3  C   UNL     1     -24.220  -3.445 -10.997  1.00  0.00     0.010 C 
BRANCH   2   4
HETATM    4  C   UNL     1     -23.683  -3.232 -13.454  1.00  0.00     0.073 C 
BRANCH   4   5
HETATM    5  C   UNL     1     -23.004  -2.408 -14.516  1.00  0.00     0.231 C 
HETATM    6  O   UNL     1     -22.531  -2.888 -15.542  1.00  0.00    -0.307 OA
ENDBRANCH   4   5
ENDBRANCH   2   4
ENDBRANCH   1   2
BRANCH   1   7
HETATM    7  C   UNL     1     -21.537  -4.334 -11.187  1.00  0.00     0.027 C 
BRANCH   7   8
HETATM    8  C   UNL     1     -20.448  -4.340 -10.151  1.00  0.00    -0.025 C 
HETATM    9  C   UNL     1     -20.615  -4.200  -8.821  1.00  0.00    -0.091 C 
HETATM   10  C   UNL     1     -21.931  -3.921  -8.145  1.00  0.00     0.042 C 
HETATM   11  C   UNL     1     -19.446  -4.312  -7.879  1.00  0.00     0.042 C 
ENDBRANCH   7   8
ENDBRANCH   1   7
TORSDOF 5
ENDMDL
MODEL 3
REMARK VINA RESULT:      -5.8      1.310      2.111
REMARK  5 active torsions:
REMARK  status: ('A' for Active; 'I' for Inactive)
REMARK    1  A    between atoms: C_2  and  C_3 
REMARK    2  A    between atoms: C_2  and  C_9 
REMARK    3  A    between atoms: C_3  and  C_4 
REMARK    4  A    between atoms: C_4  and  C_5 
REMARK    5  A    between atoms: C_9  and  C_10 
ROOT
HETATM    1  C   UNL     1     -22.524  -4.628  -9.706  1.00  0.00     0.008 C 
ENDROOT
BRANCH   1   2
HETATM    2  C   UNL     1     -22.085  -4.272 -11.143  1.00  0.00    -0.012 C 
HETATM    3  C   UNL     1     -20.557  -4.129 -11.180  1.00  0.00     0.010 C 
BRANCH   2   4
HETATM    4  C   UNL     1     -22.757  -2.984 -11.647  1.00  0.00     0.073 C 
BRANCH   4   5
HETATM    5  C   UNL     1     -24.191  -3.219 -12.045  1.00  0.00     0.231 C 
HETATM    6  O   UNL     1     -25.132  -3.121 -11.264  1.00  0.00    -0.307 OA
ENDBRANCH   4   5
ENDBRANCH   2   4
ENDBRANCH   1   2
BRANCH   1   7
HETATM    7  C   UNL     1     -22.189  -3.544  -8.676  1.00  0.00     0.027 C 
BRANCH   7   8
HETATM    8  C   UNL     1     -21.834  -4.116  -7.332  1.00  0.00    -0.025 C 
HETATM    9  C   UNL     1     -20.597  -4.443  -6.908  1.00  0.00    -0.091 C 
HETATM   10  C   UNL     1     -19.354  -4.371  -7.753  1.00  0.00     0.042 C 
HETATM   11  C   UNL     1     -20.365  -4.927  -5.502  1.00  0.00     0.042 C 
ENDBRANCH   7   8
ENDBRANCH   1   7
TORSDOF 5
ENDMDL
MODEL 4
REMARK VINA RESULT:      -5.5      2.424      5.045
REMARK  5 active torsions:
REMARK  status: ('A' for Active; 'I' for Inactive)
REMARK    1  A    between atoms: C_2  and  C_3 
REMARK    2  A    between atoms: C_2  and  C_9 
REMARK    3  A    between atoms: C_3  and  C_4 
REMARK    4  A    between atoms: C_4  and  C_5 
REMARK    5  A    between atoms: C_9  and  C_10 
ROOT
HETATM    1  C   UNL     1     -21.602  -3.858  -7.354  1.00  0.00     0.008 C 
ENDROOT
BRANCH   1   2
HETATM    2  C   UNL     1     -20.349  -4.455  -6.678  1.00  0.00    -0.012 C 
HETATM    3  C   UNL     1     -19.169  -4.386  -7.659  1.00  0.00     0.010 C 
BRANCH   2   4
HETATM    4  C   UNL     1     -20.579  -5.904  -6.216  1.00  0.00     0.073 C 
BRANCH   4   5
HETATM    5  C   UNL     1     -21.301  -5.962  -4.896  1.00  0.00     0.231 C 
HETATM    6  O   UNL     1     -22.511  -6.138  -4.797  1.00  0.00    -0.307 OA
ENDBRANCH   4   5
ENDBRANCH   2   4
ENDBRANCH   1   2
BRANCH   1   7
HETATM    7  C   UNL     1     -22.106  -4.680  -8.545  1.00  0.00     0.027 C 
BRANCH   7   8
HETATM    8  C   UNL     1     -22.558  -3.818  -9.690  1.00  0.00    -0.025 C 
HETATM    9  C   UNL     1     -21.865  -3.568 -10.819  1.00  0.00    -0.091 C 
HETATM   10  C   UNL     1     -20.464  -4.048 -11.091  1.00  0.00     0.042 C 
HETATM   11  C   UNL     1     -22.468  -2.754 -11.933  1.00  0.00     0.042 C 
ENDBRANCH   7   8
ENDBRANCH   1   7
TORSDOF 5
ENDMDL
MODEL 5
REMARK VINA RESULT:      -5.2      1.394      2.086
REMARK  5 active torsions:
REMARK  status: ('A' for Active; 'I' for Inactive)
REMARK    1  A    between atoms: C_2  and  C_3 
REMARK    2  A    between atoms: C_2  and  C_9 
REMARK    3  A    between atoms: C_3  and  C_4 
REMARK    4  A    between atoms: C_4  and  C_5 
REMARK    5  A    between atoms: C_9  and  C_10 
ROOT
HETATM    1  C   UNL     1     -20.564  -4.477  -9.427  1.00  0.00     0.008 C 
ENDROOT
BRANCH   1   2
HETATM    2  C   UNL     1     -21.873  -4.293 -10.226  1.00  0.00    -0.012 C 
HETATM    3  C   UNL     1     -21.610  -3.349 -11.408  1.00  0.00     0.010 C 
BRANCH   2   4
HETATM    4  C   UNL     1     -23.012  -3.750  -9.347  1.00  0.00     0.073 C 
BRANCH   4   5
HETATM    5  C   UNL     1     -24.364  -4.029  -9.949  1.00  0.00     0.231 C 
HETATM    6  O   UNL     1     -25.264  -3.196  -9.999  1.00  0.00    -0.307 OA
ENDBRANCH   4   5
ENDBRANCH   2   4
ENDBRANCH   1   2
BRANCH   1   7
HETATM    7  C   UNL     1     -20.747  -4.340  -7.911  1.00  0.00     0.027 C 
BRANCH   7   8
HETATM    8  C   UNL     1     -20.134  -5.482  -7.151  1.00  0.00    -0.025 C 
HETATM    9  C   UNL     1     -20.733  -6.207  -6.186  1.00  0.00    -0.091 C 
HETATM   10  C   UNL     1     -22.108  -5.936  -5.637  1.00  0.00     0.042 C 
HETATM   11  C   UNL     1     -20.037  -7.386  -5.560  1.00  0.00     0.042 C 
ENDBRANCH   7   8
ENDBRANCH   1   7
TORSDOF 5
ENDMDL
MODEL 6
REMARK VINA RESULT:      -5.2      8.932     11.543
REMARK  5 active torsions:
REMARK  status: ('A' for Active; 'I' for Inactive)
REMARK    1  A    between atoms: C_2  and  C_3 
REMARK    2  A    between atoms: C_2  and  C_9 
REMARK    3  A    between atoms: C_3  and  C_4 
REMARK    4  A    between atoms: C_4  and  C_5 
REMARK    5  A    between atoms: C_9  and  C_10 
ROOT
HETATM    1  C   UNL     1     -21.101  -9.056   0.867  1.00  0.00     0.008 C 
ENDROOT
BRANCH   1   2
HETATM    2  C   UNL     1     -21.867  -7.879   0.225  1.00  0.00    -0.012 C 
HETATM    3  C   UNL     1     -23.328  -7.916   0.694  1.00  0.00     0.010 C 
BRANCH   2   4
HETATM    4  C   UNL     1     -21.795  -7.915  -1.311  1.00  0.00     0.073 C 
BRANCH   4   5
HETATM    5  C   UNL     1     -21.699  -6.532  -1.899  1.00  0.00     0.231 C 
HETATM    6  O   UNL     1     -22.560  -6.049  -2.629  1.00  0.00    -0.307 OA
ENDBRANCH   4   5
ENDBRANCH   2   4
ENDBRANCH   1   2
BRANCH   1   7
HETATM    7  C   UNL     1     -21.022 -10.297  -0.029  1.00  0.00     0.027 C 
BRANCH   7   8
HETATM    8  C   UNL     1     -21.577 -11.525   0.637  1.00  0.00    -0.025 C 
HETATM    9  C   UNL     1     -22.827 -12.009   0.498  1.00  0.00    -0.091 C 
HETATM   10  C   UNL     1     -23.922 -11.343  -0.291  1.00  0.00     0.042 C 
HETATM   11  C   UNL     1     -23.234 -13.301   1.154  1.00  0.00     0.042 C 
ENDBRANCH   7   8
ENDBRANCH   1   7
TORSDOF 5
ENDMDL
MODEL 7
REMARK VINA RESULT:      -5.1      7.619     10.251
REMARK  5 active torsions:
REMARK  status: ('A' for Active; 'I' for Inactive)
REMARK    1  A    between atoms: C_2  and  C_3 
REMARK    2  A    between atoms: C_2  and  C_9 
REMARK    3  A    between atoms: C_3  and  C_4 
REMARK    4  A    between atoms: C_4  and  C_5 
REMARK    5  A    between atoms: C_9  and  C_10 
ROOT
HETATM    1  C   UNL     1     -22.309  -7.174  -0.139  1.00  0.00     0.008 C 
ENDROOT
BRANCH   1   2
HETATM    2  C   UNL     1     -21.853  -7.422  -1.593  1.00  0.00    -0.012 C 
HETATM    3  C   UNL     1     -20.456  -8.057  -1.580  1.00  0.00     0.010 C 
BRANCH   2   4
HETATM    4  C   UNL     1     -21.847  -6.127  -2.423  1.00  0.00     0.073 C 
BRANCH   4   5
HETATM    5  C   UNL     1     -21.667  -6.405  -3.892  1.00  0.00     0.231 C 
HETATM    6  O   UNL     1     -22.539  -6.196  -4.730  1.00  0.00    -0.307 OA
ENDBRANCH   4   5
ENDBRANCH   2   4
ENDBRANCH   1   2
BRANCH   1   7
HETATM    7  C   UNL     1     -22.482  -8.460   0.677  1.00  0.00     0.027 C 
BRANCH   7   8
HETATM    8  C   UNL     1     -23.363  -9.464  -0.010  1.00  0.00    -0.025 C 
HETATM    9  C   UNL     1     -23.070 -10.761  -0.231  1.00  0.00    -0.091 C 
HETATM   10  C   UNL     1     -21.753 -11.411   0.101  1.00  0.00     0.042 C 
HETATM   11  C   UNL     1     -24.079 -11.687  -0.855  1.00  0.00     0.042 C 
ENDBRANCH   7   8
ENDBRANCH   1   7
TORSDOF 5
ENDMDL
MODEL 8
REMARK VINA RESULT:      -5.1      6.700      9.095
REMARK  5 active torsions:
REMARK  status: ('A' for Active; 'I' for Inactive)
REMARK    1  A    between atoms: C_2  and  C_3 
REMARK    2  A    between atoms: C_2  and  C_9 
REMARK    3  A    between atoms: C_3  and  C_4 
REMARK    4  A    between atoms: C_4  and  C_5 
REMARK    5  A    between atoms: C_9  and  C_10 
ROOT
HETATM    1  C   UNL     1     -20.688  -7.954  -2.688  1.00  0.00     0.008 C 
ENDROOT
BRANCH   1   2
HETATM    2  C   UNL     1     -21.244  -6.560  -3.051  1.00  0.00    -0.012 C 
HETATM    3  C   UNL     1     -22.192  -6.092  -1.938  1.00  0.00     0.010 C 
BRANCH   2   4
HETATM    4  C   UNL     1     -21.970  -6.566  -4.407  1.00  0.00     0.073 C 
BRANCH   4   5
HETATM    5  C   UNL     1     -21.526  -7.713  -5.275  1.00  0.00     0.231 C 
HETATM    6  O   UNL     1     -21.030  -7.564  -6.388  1.00  0.00    -0.307 OA
ENDBRANCH   4   5
ENDBRANCH   2   4
ENDBRANCH   1   2
BRANCH   1   7
HETATM    7  C   UNL     1     -20.854  -8.313  -1.207  1.00  0.00     0.027 C 
BRANCH   7   8
HETATM    8  C   UNL     1     -21.816  -9.448  -0.994  1.00  0.00    -0.025 C 
HETATM    9  C   UNL     1     -22.905  -9.429  -0.199  1.00  0.00    -0.091 C 
HETATM   10  C   UNL     1     -23.298  -8.279   0.690  1.00  0.00     0.042 C 
HETATM   11  C   UNL     1     -23.840 -10.607  -0.140  1.00  0.00     0.042 C 
ENDBRANCH   7   8
ENDBRANCH   1   7
TORSDOF 5
ENDMDL
MODEL 9
REMARK VINA RESULT:      -5.1      5.149      7.497
REMARK  5 active torsions:
REMARK  status: ('A' for Active; 'I' for Inactive)
REMARK    1  A    between atoms: C_2  and  C_3 
REMARK    2  A    between atoms: C_2  and  C_9 
REMARK    3  A    between atoms: C_3  and  C_4 
REMARK    4  A    between atoms: C_4  and  C_5 
REMARK    5  A    between atoms: C_9  and  C_10 
ROOT
HETATM    1  C   UNL     1     -22.110  -6.461  -4.143  1.00  0.00     0.008 C 
ENDROOT
BRANCH   1   2
HETATM    2  C   UNL     1     -21.124  -6.518  -5.330  1.00  0.00    -0.012 C 
HETATM    3  C   UNL     1     -20.089  -7.623  -5.070  1.00  0.00     0.010 C 
BRANCH   2   4
HETATM    4  C   UNL     1     -20.424  -5.170  -5.562  1.00  0.00     0.073 C 
BRANCH   4   5
HETATM    5  C   UNL     1     -20.938  -4.477  -6.797  1.00  0.00     0.231 C 
HETATM    6  O   UNL     1     -20.223  -3.822  -7.549  1.00  0.00    -0.307 OA
ENDBRANCH   4   5
ENDBRANCH   2   4
ENDBRANCH   1   2
BRANCH   1   7
HETATM    7  C   UNL     1     -21.444  -6.101  -2.810  1.00  0.00     0.027 C 
BRANCH   7   8
HETATM    8  C   UNL     1     -22.255  -6.540  -1.624  1.00  0.00    -0.025 C 
HETATM    9  C   UNL     1     -22.003  -7.607  -0.840  1.00  0.00    -0.091 C 
HETATM   10  C   UNL     1     -20.900  -8.605  -1.075  1.00  0.00     0.042 C 
HETATM   11  C   UNL     1     -22.846  -7.891   0.375  1.00  0.00     0.042 C 
ENDBRANCH   7   8
ENDBRANCH   1   7
TORSDOF 5
ENDMDL
