MODEL 1
REMARK VINA RESULT:      -6.0      0.000      0.000
REMARK  10 active torsions:
REMARK  status: ('A' for Active; 'I' for Inactive)
REMARK    1  A    between atoms: C_2  and  C_3 
REMARK    2  A    between atoms: C_3  and  C_4 
REMARK    3  A    between atoms: C_4  and  C_5 
REMARK    4  A    between atoms: C_5  and  C_6 
REMARK    5  A    between atoms: C_6  and  C_7 
REMARK    6  A    between atoms: C_7  and  C_8 
REMARK    7  A    between atoms: C_8  and  C_9 
REMARK    8  A    between atoms: C_9  and  C_10 
REMARK    9  A    between atoms: C_10  and  C_11 
REMARK   10  A    between atoms: C_11  and  C_12 
ROOT
HETATM    1  C   UNL     1     -36.275  -2.091 -10.549  1.00  0.00     0.000 C 
ENDROOT
BRANCH   1   2
HETATM    2  C   UNL     1     -36.875  -0.707 -10.367  1.00  0.00     0.000 C 
BRANCH   2   3
HETATM    3  C   UNL     1     -36.835  -0.304  -8.901  1.00  0.00     0.000 C 
BRANCH   3   4
HETATM    4  C   UNL     1     -37.111   1.185  -8.756  1.00  0.00     0.000 C 
BRANCH   4   5
HETATM    5  C   UNL     1     -37.324   1.544  -7.291  1.00  0.00    -0.000 C 
BRANCH   5   6
HETATM    6  C   UNL     1     -37.508   0.289  -6.448  1.00  0.00    -0.005 C 
HETATM    7  C   UNL     1     -37.095   0.546  -5.011  1.00  0.00     0.005 C 
ENDBRANCH   5   6
ENDBRANCH   4   5
ENDBRANCH   3   4
ENDBRANCH   2   3
ENDBRANCH   1   2
BRANCH   1   8
HETATM    8  C   UNL     1     -35.050  -2.019 -11.446  1.00  0.00     0.000 C 
BRANCH   8   9
HETATM    9  C   UNL     1     -33.808  -2.430 -10.673  1.00  0.00     0.000 C 
BRANCH   9  10
HETATM   10  C   UNL     1     -32.977  -3.407 -11.491  1.00  0.00     0.000 C 
BRANCH  10  11
HETATM   11  C   UNL     1     -33.731  -4.717 -11.672  1.00  0.00    -0.000 C 
BRANCH  11  12
HETATM   12  C   UNL     1     -34.077  -5.330 -10.321  1.00  0.00    -0.005 C 
HETATM   13  C   UNL     1     -34.587  -6.753 -10.493  1.00  0.00     0.005 C 
ENDBRANCH  11  12
ENDBRANCH  10  11
ENDBRANCH   9  10
ENDBRANCH   8   9
ENDBRANCH   1   8
TORSDOF 10
ENDMDL
MODEL 2
REMARK VINA RESULT:      -5.9      3.540      6.730
REMARK  10 active torsions:
REMARK  status: ('A' for Active; 'I' for Inactive)
REMARK    1  A    between atoms: C_2  and  C_3 
REMARK    2  A    between atoms: C_3  and  C_4 
REMARK    3  A    between atoms: C_4  and  C_5 
REMARK    4  A    between atoms: C_5  and  C_6 
REMARK    5  A    between atoms: C_6  and  C_7 
REMARK    6  A    between atoms: C_7  and  C_8 
REMARK    7  A    between atoms: C_8  and  C_9 
REMARK    8  A    between atoms: C_9  and  C_10 
REMARK    9  A    between atoms: C_10  and  C_11 
REMARK   10  A    between atoms: C_11  and  C_12 
ROOT
HETATM    1  C   UNL     1     -34.919  -1.981 -11.270  1.00  0.00     0.000 C 
ENDROOT
BRANCH   1   2
HETATM    2  C   UNL     1     -33.522  -2.351 -10.798  1.00  0.00     0.000 C 
BRANCH   2   3
HETATM    3  C   UNL     1     -33.215  -3.800 -11.143  1.00  0.00     0.000 C 
BRANCH   3   4
HETATM    4  C   UNL     1     -34.226  -4.725 -10.481  1.00  0.00     0.000 C 
BRANCH   4   5
HETATM    5  C   UNL     1     -33.922  -6.176 -10.830  1.00  0.00    -0.000 C 
BRANCH   5   6
HETATM    6  C   UNL     1     -34.762  -7.124  -9.984  1.00  0.00    -0.005 C 
HETATM    7  C   UNL     1     -34.107  -8.489  -9.901  1.00  0.00     0.005 C 
ENDBRANCH   5   6
ENDBRANCH   4   5
ENDBRANCH   3   4
ENDBRANCH   2   3
ENDBRANCH   1   2
BRANCH   1   8
HETATM    8  C   UNL     1     -34.866  -1.428 -12.685  1.00  0.00     0.000 C 
BRANCH   8   9
HETATM    9  C   UNL     1     -35.611  -0.106 -12.760  1.00  0.00     0.000 C 
BRANCH   9  10
HETATM   10  C   UNL     1     -34.771   0.933 -13.487  1.00  0.00     0.000 C 
BRANCH  10  11
HETATM   11  C   UNL     1     -35.111   0.940 -14.971  1.00  0.00    -0.000 C 
BRANCH  11  12
HETATM   12  C   UNL     1     -36.492   0.342 -15.209  1.00  0.00    -0.005 C 
HETATM   13  C   UNL     1     -36.451  -0.662 -16.351  1.00  0.00     0.005 C 
ENDBRANCH  11  12
ENDBRANCH  10  11
ENDBRANCH   9  10
ENDBRANCH   8   9
ENDBRANCH   1   8
TORSDOF 10
ENDMDL
MODEL 3
REMARK VINA RESULT:      -5.8      0.722      6.660
REMARK  10 active torsions:
REMARK  status: ('A' for Active; 'I' for Inactive)
REMARK    1  A    between atoms: C_2  and  C_3 
REMARK    2  A    between atoms: C_3  and  C_4 
REMARK    3  A    between atoms: C_4  and  C_5 
REMARK    4  A    between atoms: C_5  and  C_6 
REMARK    5  A    between atoms: C_6  and  C_7 
REMARK    6  A    between atoms: C_7  and  C_8 
REMARK    7  A    between atoms: C_8  and  C_9 
REMARK    8  A    between atoms: C_9  and  C_10 
REMARK    9  A    between atoms: C_10  and  C_11 
REMARK   10  A    between atoms: C_11  and  C_12 
ROOT
HETATM    1  C   UNL     1     -36.083  -1.768 -10.575  1.00  0.00     0.000 C 
ENDROOT
BRANCH   1   2
HETATM    2  C   UNL     1     -34.714  -1.559 -11.199  1.00  0.00     0.000 C 
BRANCH   2   3
HETATM    3  C   UNL     1     -34.309  -2.783 -12.007  1.00  0.00     0.000 C 
BRANCH   3   4
HETATM    4  C   UNL     1     -33.070  -3.427 -11.403  1.00  0.00     0.000 C 
BRANCH   4   5
HETATM    5  C   UNL     1     -33.202  -4.944 -11.416  1.00  0.00    -0.000 C 
BRANCH   5   6
HETATM    6  C   UNL     1     -34.515  -5.378 -10.778  1.00  0.00    -0.005 C 
HETATM    7  C   UNL     1     -34.440  -6.827 -10.334  1.00  0.00     0.005 C 
ENDBRANCH   5   6
ENDBRANCH   4   5
ENDBRANCH   3   4
ENDBRANCH   2   3
ENDBRANCH   1   2
BRANCH   1   8
HETATM    8  C   UNL     1     -37.009  -0.620 -10.943  1.00  0.00     0.000 C 
BRANCH   8   9
HETATM    9  C   UNL     1     -36.955   0.460  -9.876  1.00  0.00     0.000 C 
BRANCH   9  10
HETATM   10  C   UNL     1     -37.085  -0.157  -8.492  1.00  0.00     0.000 C 
BRANCH  10  11
HETATM   11  C   UNL     1     -36.781   0.881  -7.422  1.00  0.00    -0.000 C 
BRANCH  11  12
HETATM   12  C   UNL     1     -37.780   0.781  -6.275  1.00  0.00    -0.005 C 
HETATM   13  C   UNL     1     -37.057   0.574  -4.952  1.00  0.00     0.005 C 
ENDBRANCH  11  12
ENDBRANCH  10  11
ENDBRANCH   9  10
ENDBRANCH   8   9
ENDBRANCH   1   8
TORSDOF 10
ENDMDL
MODEL 4
REMARK VINA RESULT:      -5.8      0.831      6.603
REMARK  10 active torsions:
REMARK  status: ('A' for Active; 'I' for Inactive)
REMARK    1  A    between atoms: C_2  and  C_3 
REMARK    2  A    between atoms: C_3  and  C_4 
REMARK    3  A    between atoms: C_4  and  C_5 
REMARK    4  A    between atoms: C_5  and  C_6 
REMARK    5  A    between atoms: C_6  and  C_7 
REMARK    6  A    between atoms: C_7  and  C_8 
REMARK    7  A    between atoms: C_8  and  C_9 
REMARK    8  A    between atoms: C_9  and  C_10 
REMARK    9  A    between atoms: C_10  and  C_11 
REMARK   10  A    between atoms: C_11  and  C_12 
ROOT
HETATM    1  C   UNL     1     -33.438  -2.280 -10.789  1.00  0.00     0.000 C 
ENDROOT
BRANCH   1   2
HETATM    2  C   UNL     1     -33.071  -3.582 -11.480  1.00  0.00     0.000 C 
BRANCH   2   3
HETATM    3  C   UNL     1     -34.254  -4.105 -12.281  1.00  0.00     0.000 C 
BRANCH   3   4
HETATM    4  C   UNL     1     -34.612  -5.514 -11.833  1.00  0.00     0.000 C 
BRANCH   4   5
HETATM    5  C   UNL     1     -34.220  -5.722 -10.376  1.00  0.00    -0.000 C 
BRANCH   5   6
HETATM    6  C   UNL     1     -35.001  -6.878  -9.765  1.00  0.00    -0.005 C 
HETATM    7  C   UNL     1     -34.330  -8.201 -10.080  1.00  0.00     0.005 C 
ENDBRANCH   5   6
ENDBRANCH   4   5
ENDBRANCH   3   4
ENDBRANCH   2   3
ENDBRANCH   1   2
BRANCH   1   8
HETATM    8  C   UNL     1     -34.767  -1.762 -11.313  1.00  0.00     0.000 C 
BRANCH   8   9
HETATM    9  C   UNL     1     -35.794  -1.724 -10.193  1.00  0.00     0.000 C 
BRANCH   9  10
HETATM   10  C   UNL     1     -36.630  -0.457 -10.287  1.00  0.00     0.000 C 
BRANCH  10  11
HETATM   11  C   UNL     1     -37.342  -0.197  -8.967  1.00  0.00    -0.000 C 
BRANCH  11  12
HETATM   12  C   UNL     1     -36.413   0.502  -7.982  1.00  0.00    -0.005 C 
HETATM   13  C   UNL     1     -37.113   0.724  -6.649  1.00  0.00     0.005 C 
ENDBRANCH  11  12
ENDBRANCH  10  11
ENDBRANCH   9  10
ENDBRANCH   8   9
ENDBRANCH   1   8
TORSDOF 10
ENDMDL
MODEL 5
REMARK VINA RESULT:      -5.7      2.753      4.820
REMARK  10 active torsions:
REMARK  status: ('A' for Active; 'I' for Inactive)
REMARK    1  A    between atoms: C_2  and  C_3 
REMARK    2  A    between atoms: C_3  and  C_4 
REMARK    3  A    between atoms: C_4  and  C_5 
REMARK    4  A    between atoms: C_5  and  C_6 
REMARK    5  A    between atoms: C_6  and  C_7 
REMARK    6  A    between atoms: C_7  and  C_8 
REMARK    7  A    between atoms: C_8  and  C_9 
REMARK    8  A    between atoms: C_9  and  C_10 
REMARK    9  A    between atoms: C_10  and  C_11 
REMARK   10  A    between atoms: C_11  and  C_12 
ROOT
HETATM    1  C   UNL     1     -35.184  -2.286 -11.237  1.00  0.00     0.000 C 
ENDROOT
BRANCH   1   2
HETATM    2  C   UNL     1     -35.945  -1.081 -10.710  1.00  0.00     0.000 C 
BRANCH   2   3
HETATM    3  C   UNL     1     -36.111  -0.040 -11.807  1.00  0.00     0.000 C 
BRANCH   3   4
HETATM    4  C   UNL     1     -35.516  -0.550 -13.111  1.00  0.00     0.000 C 
BRANCH   4   5
HETATM    5  C   UNL     1     -34.908   0.602 -13.901  1.00  0.00    -0.000 C 
BRANCH   5   6
HETATM    6  C   UNL     1     -35.718   0.881 -15.161  1.00  0.00    -0.005 C 
HETATM    7  C   UNL     1     -35.659  -0.303 -16.107  1.00  0.00     0.005 C 
ENDBRANCH   5   6
ENDBRANCH   4   5
ENDBRANCH   3   4
ENDBRANCH   2   3
ENDBRANCH   1   2
BRANCH   1   8
HETATM    8  C   UNL     1     -33.807  -2.360 -10.596  1.00  0.00     0.000 C 
BRANCH   8   9
HETATM    9  C   UNL     1     -32.927  -3.339 -11.355  1.00  0.00     0.000 C 
BRANCH   9  10
HETATM   10  C   UNL     1     -33.756  -4.508 -11.865  1.00  0.00     0.000 C 
BRANCH  10  11
HETATM   11  C   UNL     1     -33.495  -5.747 -11.020  1.00  0.00    -0.000 C 
BRANCH  11  12
HETATM   12  C   UNL     1     -34.668  -6.018 -10.085  1.00  0.00    -0.005 C 
HETATM   13  C   UNL     1     -34.836  -7.512  -9.855  1.00  0.00     0.005 C 
ENDBRANCH  11  12
ENDBRANCH  10  11
ENDBRANCH   9  10
ENDBRANCH   8   9
ENDBRANCH   1   8
TORSDOF 10
ENDMDL
MODEL 6
REMARK VINA RESULT:      -5.7      2.587      6.392
REMARK  10 active torsions:
REMARK  status: ('A' for Active; 'I' for Inactive)
REMARK    1  A    between atoms: C_2  and  C_3 
REMARK    2  A    between atoms: C_3  and  C_4 
REMARK    3  A    between atoms: C_4  and  C_5 
REMARK    4  A    between atoms: C_5  and  C_6 
REMARK    5  A    between atoms: C_6  and  C_7 
REMARK    6  A    between atoms: C_7  and  C_8 
REMARK    7  A    between atoms: C_8  and  C_9 
REMARK    8  A    between atoms: C_9  and  C_10 
REMARK    9  A    between atoms: C_10  and  C_11 
REMARK   10  A    between atoms: C_11  and  C_12 
ROOT
HETATM    1  C   UNL     1     -34.514  -1.976 -10.014  1.00  0.00     0.000 C 
ENDROOT
BRANCH   1   2
HETATM    2  C   UNL     1     -33.313  -2.352 -10.866  1.00  0.00     0.000 C 
BRANCH   2   3
HETATM    3  C   UNL     1     -33.733  -3.296 -11.982  1.00  0.00     0.000 C 
BRANCH   3   4
HETATM    4  C   UNL     1     -32.704  -4.404 -12.149  1.00  0.00     0.000 C 
BRANCH   4   5
HETATM    5  C   UNL     1     -32.999  -5.550 -11.190  1.00  0.00    -0.000 C 
BRANCH   5   6
HETATM    6  C   UNL     1     -34.498  -5.799 -11.089  1.00  0.00    -0.005 C 
HETATM    7  C   UNL     1     -34.791  -6.895 -10.082  1.00  0.00     0.005 C 
ENDBRANCH   5   6
ENDBRANCH   4   5
ENDBRANCH   3   4
ENDBRANCH   2   3
ENDBRANCH   1   2
BRANCH   1   8
HETATM    8  C   UNL     1     -35.795  -2.116 -10.819  1.00  0.00     0.000 C 
BRANCH   8   9
HETATM    9  C   UNL     1     -36.680  -0.897 -10.616  1.00  0.00     0.000 C 
BRANCH   9  10
HETATM   10  C   UNL     1     -37.003  -0.251 -11.954  1.00  0.00     0.000 C 
BRANCH  10  11
HETATM   11  C   UNL     1     -35.954  -0.629 -12.989  1.00  0.00    -0.000 C 
BRANCH  11  12
HETATM   12  C   UNL     1     -34.968   0.514 -13.199  1.00  0.00    -0.005 C 
HETATM   13  C   UNL     1     -35.137   1.120 -14.584  1.00  0.00     0.005 C 
ENDBRANCH  11  12
ENDBRANCH  10  11
ENDBRANCH   9  10
ENDBRANCH   8   9
ENDBRANCH   1   8
TORSDOF 10
ENDMDL
MODEL 7
REMARK VINA RESULT:      -5.7     11.945     14.678
REMARK  10 active torsions:
REMARK  status: ('A' for Active; 'I' for Inactive)
REMARK    1  A    between atoms: C_2  and  C_3 
REMARK    2  A    between atoms: C_3  and  C_4 
REMARK    3  A    between atoms: C_4  and  C_5 
REMARK    4  A    between atoms: C_5  and  C_6 
REMARK    5  A    between atoms: C_6  and  C_7 
REMARK    6  A    between atoms: C_7  and  C_8 
REMARK    7  A    between atoms: C_8  and  C_9 
REMARK    8  A    between atoms: C_9  and  C_10 
REMARK    9  A    between atoms: C_10  and  C_11 
REMARK   10  A    between atoms: C_11  and  C_12 
ROOT
HETATM    1  C   UNL     1     -20.087  -4.723 -10.486  1.00  0.00     0.000 C 
ENDROOT
BRANCH   1   2
HETATM    2  C   UNL     1     -20.633  -3.421 -11.046  1.00  0.00     0.000 C 
BRANCH   2   3
HETATM    3  C   UNL     1     -21.721  -3.702 -12.072  1.00  0.00     0.000 C 
BRANCH   3   4
HETATM    4  C   UNL     1     -22.773  -2.604 -12.038  1.00  0.00     0.000 C 
BRANCH   4   5
HETATM    5  C   UNL     1     -24.140  -3.192 -11.710  1.00  0.00    -0.000 C 
BRANCH   5   6
HETATM    6  C   UNL     1     -24.314  -3.348 -10.205  1.00  0.00    -0.005 C 
HETATM    7  C   UNL     1     -24.338  -4.815  -9.819  1.00  0.00     0.005 C 
ENDBRANCH   5   6
ENDBRANCH   4   5
ENDBRANCH   3   4
ENDBRANCH   2   3
ENDBRANCH   1   2
BRANCH   1   8
HETATM    8  C   UNL     1     -20.679  -4.994  -9.112  1.00  0.00     0.000 C 
BRANCH   8   9
HETATM    9  C   UNL     1     -21.009  -3.684  -8.416  1.00  0.00     0.000 C 
BRANCH   9  10
HETATM   10  C   UNL     1     -21.362  -3.935  -6.958  1.00  0.00     0.000 C 
BRANCH  10  11
HETATM   11  C   UNL     1     -20.180  -4.561  -6.231  1.00  0.00    -0.000 C 
BRANCH  11  12
HETATM   12  C   UNL     1     -20.656  -5.611  -5.234  1.00  0.00    -0.005 C 
HETATM   13  C   UNL     1     -22.071  -6.062  -5.565  1.00  0.00     0.005 C 
ENDBRANCH  11  12
ENDBRANCH  10  11
ENDBRANCH   9  10
ENDBRANCH   8   9
ENDBRANCH   1   8
TORSDOF 10
ENDMDL
MODEL 8
REMARK VINA RESULT:      -5.6     14.035     16.510
REMARK  10 active torsions:
REMARK  status: ('A' for Active; 'I' for Inactive)
REMARK    1  A    between atoms: C_2  and  C_3 
REMARK    2  A    between atoms: C_3  and  C_4 
REMARK    3  A    between atoms: C_4  and  C_5 
REMARK    4  A    between atoms: C_5  and  C_6 
REMARK    5  A    between atoms: C_6  and  C_7 
REMARK    6  A    between atoms: C_7  and  C_8 
REMARK    7  A    between atoms: C_8  and  C_9 
REMARK    8  A    between atoms: C_9  and  C_10 
REMARK    9  A    between atoms: C_10  and  C_11 
REMARK   10  A    between atoms: C_11  and  C_12 
ROOT
HETATM    1  C   UNL     1     -21.849  -6.295  -5.246  1.00  0.00     0.000 C 
ENDROOT
BRANCH   1   2
HETATM    2  C   UNL     1     -20.441  -6.187  -5.804  1.00  0.00     0.000 C 
BRANCH   2   3
HETATM    3  C   UNL     1     -20.015  -4.729  -5.883  1.00  0.00     0.000 C 
BRANCH   3   4
HETATM    4  C   UNL     1     -20.869  -3.985  -6.899  1.00  0.00     0.000 C 
BRANCH   4   5
HETATM    5  C   UNL     1     -20.363  -4.249  -8.311  1.00  0.00    -0.000 C 
BRANCH   5   6
HETATM    6  C   UNL     1     -21.526  -4.429  -9.278  1.00  0.00    -0.005 C 
HETATM    7  C   UNL     1     -22.849  -4.206  -8.570  1.00  0.00     0.005 C 
ENDBRANCH   5   6
ENDBRANCH   4   5
ENDBRANCH   3   4
ENDBRANCH   2   3
ENDBRANCH   1   2
BRANCH   1   8
HETATM    8  C   UNL     1     -21.839  -7.071  -3.938  1.00  0.00     0.000 C 
BRANCH   8   9
HETATM    9  C   UNL     1     -21.579  -6.130  -2.773  1.00  0.00     0.000 C 
BRANCH   9  10
HETATM   10  C   UNL     1     -22.123  -6.726  -1.483  1.00  0.00     0.000 C 
BRANCH  10  11
HETATM   11  C   UNL     1     -21.237  -7.873  -1.018  1.00  0.00    -0.000 C 
BRANCH  11  12
HETATM   12  C   UNL     1     -21.763  -8.467   0.283  1.00  0.00    -0.005 C 
HETATM   13  C   UNL     1     -23.210  -8.057   0.512  1.00  0.00     0.005 C 
ENDBRANCH  11  12
ENDBRANCH  10  11
ENDBRANCH   9  10
ENDBRANCH   8   9
ENDBRANCH   1   8
TORSDOF 10
ENDMDL
MODEL 9
REMARK VINA RESULT:      -5.5     15.677     17.175
REMARK  10 active torsions:
REMARK  status: ('A' for Active; 'I' for Inactive)
REMARK    1  A    between atoms: C_2  and  C_3 
REMARK    2  A    between atoms: C_3  and  C_4 
REMARK    3  A    between atoms: C_4  and  C_5 
REMARK    4  A    between atoms: C_5  and  C_6 
REMARK    5  A    between atoms: C_6  and  C_7 
REMARK    6  A    between atoms: C_7  and  C_8 
REMARK    7  A    between atoms: C_8  and  C_9 
REMARK    8  A    between atoms: C_9  and  C_10 
REMARK    9  A    between atoms: C_10  and  C_11 
REMARK   10  A    between atoms: C_11  and  C_12 
ROOT
HETATM    1  C   UNL     1     -21.407  -6.058  -2.901  1.00  0.00     0.000 C 
ENDROOT
BRANCH   1   2
HETATM    2  C   UNL     1     -21.645  -7.140  -3.942  1.00  0.00     0.000 C 
BRANCH   2   3
HETATM    3  C   UNL     1     -21.696  -6.531  -5.334  1.00  0.00     0.000 C 
BRANCH   3   4
HETATM    4  C   UNL     1     -20.288  -6.313  -5.866  1.00  0.00     0.000 C 
BRANCH   4   5
HETATM    5  C   UNL     1     -20.028  -4.827  -6.083  1.00  0.00    -0.000 C 
BRANCH   5   6
HETATM    6  C   UNL     1     -19.307  -4.591  -7.404  1.00  0.00    -0.005 C 
HETATM    7  C   UNL     1     -20.201  -4.957  -8.574  1.00  0.00     0.005 C 
ENDBRANCH   5   6
ENDBRANCH   4   5
ENDBRANCH   3   4
ENDBRANCH   2   3
ENDBRANCH   1   2
BRANCH   1   8
HETATM    8  C   UNL     1     -22.167  -6.381  -1.625  1.00  0.00     0.000 C 
BRANCH   8   9
HETATM    9  C   UNL     1     -21.652  -7.677  -1.021  1.00  0.00     0.000 C 
BRANCH   9  10
HETATM   10  C   UNL     1     -22.179  -7.845   0.396  1.00  0.00     0.000 C 
BRANCH  10  11
HETATM   11  C   UNL     1     -23.379  -8.783   0.403  1.00  0.00    -0.000 C 
BRANCH  11  12
HETATM   12  C   UNL     1     -23.136  -9.974  -0.517  1.00  0.00    -0.005 C 
HETATM   13  C   UNL     1     -24.063 -11.126  -0.157  1.00  0.00     0.005 C 
ENDBRANCH  11  12
ENDBRANCH  10  11
ENDBRANCH   9  10
ENDBRANCH   8   9
ENDBRANCH   1   8
TORSDOF 10
ENDMDL
