MODEL 1
REMARK VINA RESULT:      -5.8      0.000      0.000
REMARK  6 active torsions:
REMARK  status: ('A' for Active; 'I' for Inactive)
REMARK    1  A    between atoms: C_2  and  C_3 
REMARK    2  A    between atoms: C_3  and  C_4 
REMARK    3  A    between atoms: C_4  and  N_5 
REMARK       I    between atoms: N_5  and  C_6 
REMARK    4  A    between atoms: C_6  and  O_8 
REMARK    5  A    between atoms: O_8  and  C_9 
REMARK    6  A    between atoms: C_9  and  C_10 
ROOT
HETATM    1  C   UNL     1     -37.346   0.837  -8.214  1.00  0.00    -0.068 C 
HETATM    2  C   UNL     1     -37.368   0.724  -7.021  1.00  0.00    -0.028 C 
HETATM    3  I   UNL     1     -37.459   0.515  -4.959  1.00  0.00     0.018 I 
ENDROOT
BRANCH   1   4
HETATM    4  C   UNL     1     -37.390   0.962  -9.680  1.00  0.00     0.275 C 
BRANCH   4   5
HETATM    5  O   UNL     1     -36.216   0.421 -10.304  1.00  0.00    -0.292 OA
BRANCH   5   6
HETATM    6  C   UNL     1     -36.278  -0.906 -10.566  1.00  0.00     0.361 C 
HETATM    7  N   UNL     1     -35.037  -1.452 -10.426  1.00  0.00    -0.337 N 
HETATM    8  H   UNL     1     -34.299  -0.814 -10.162  1.00  0.00     0.164 HD
HETATM    9  O   UNL     1     -37.282  -1.518 -10.896  1.00  0.00    -0.238 OA
BRANCH   7  10
HETATM   10  C   UNL     1     -34.708  -2.756 -10.955  1.00  0.00     0.125 C 
BRANCH  10  11
HETATM   11  C   UNL     1     -33.205  -2.901 -11.219  1.00  0.00     0.019 C 
BRANCH  11  12
HETATM   12  C   UNL     1     -32.832  -4.298 -11.725  1.00  0.00    -0.003 C 
HETATM   13  C   UNL     1     -33.690  -5.381 -11.090  1.00  0.00     0.005 C 
ENDBRANCH  11  12
ENDBRANCH  10  11
ENDBRANCH   7  10
ENDBRANCH   5   6
ENDBRANCH   4   5
ENDBRANCH   1   4
TORSDOF 6
ENDMDL
MODEL 2
REMARK VINA RESULT:      -5.3     12.003     13.576
REMARK  6 active torsions:
REMARK  status: ('A' for Active; 'I' for Inactive)
REMARK    1  A    between atoms: C_2  and  C_3 
REMARK    2  A    between atoms: C_3  and  C_4 
REMARK    3  A    between atoms: C_4  and  N_5 
REMARK       I    between atoms: N_5  and  C_6 
REMARK    4  A    between atoms: C_6  and  O_8 
REMARK    5  A    between atoms: O_8  and  C_9 
REMARK    6  A    between atoms: C_9  and  C_10 
ROOT
HETATM    1  C   UNL     1     -22.282  -4.723  -7.231  1.00  0.00    -0.068 C 
HETATM    2  C   UNL     1     -21.894  -5.358  -6.291  1.00  0.00    -0.028 C 
HETATM    3  I   UNL     1     -21.221  -6.501  -4.696  1.00  0.00     0.018 I 
ENDROOT
BRANCH   1   4
HETATM    4  C   UNL     1     -22.763  -4.005  -8.422  1.00  0.00     0.275 C 
BRANCH   4   5
HETATM    5  O   UNL     1     -24.197  -3.951  -8.479  1.00  0.00    -0.292 OA
BRANCH   5   6
HETATM    6  C   UNL     1     -24.698  -3.592  -9.684  1.00  0.00     0.361 C 
HETATM    7  N   UNL     1     -23.822  -3.955 -10.664  1.00  0.00    -0.337 N 
HETATM    8  H   UNL     1     -22.975  -4.412 -10.354  1.00  0.00     0.164 HD
HETATM    9  O   UNL     1     -25.759  -3.016  -9.869  1.00  0.00    -0.238 OA
BRANCH   7  10
HETATM   10  C   UNL     1     -23.903  -3.421 -12.004  1.00  0.00     0.125 C 
BRANCH  10  11
HETATM   11  C   UNL     1     -22.516  -3.186 -12.609  1.00  0.00     0.019 C 
BRANCH  11  12
HETATM   12  C   UNL     1     -21.430  -4.024 -11.927  1.00  0.00    -0.003 C 
HETATM   13  C   UNL     1     -20.427  -3.157 -11.182  1.00  0.00     0.005 C 
ENDBRANCH  11  12
ENDBRANCH  10  11
ENDBRANCH   7  10
ENDBRANCH   5   6
ENDBRANCH   4   5
ENDBRANCH   1   4
TORSDOF 6
ENDMDL
MODEL 3
REMARK VINA RESULT:      -5.2      1.783      2.476
REMARK  6 active torsions:
REMARK  status: ('A' for Active; 'I' for Inactive)
REMARK    1  A    between atoms: C_2  and  C_3 
REMARK    2  A    between atoms: C_3  and  C_4 
REMARK    3  A    between atoms: C_4  and  N_5 
REMARK       I    between atoms: N_5  and  C_6 
REMARK    4  A    between atoms: C_6  and  O_8 
REMARK    5  A    between atoms: O_8  and  C_9 
REMARK    6  A    between atoms: C_9  and  C_10 
ROOT
HETATM    1  C   UNL     1     -36.617  -0.639  -9.655  1.00  0.00    -0.068 C 
HETATM    2  C   UNL     1     -36.864  -0.066  -8.632  1.00  0.00    -0.028 C 
HETATM    3  I   UNL     1     -37.290   0.879  -6.835  1.00  0.00     0.018 I 
ENDROOT
BRANCH   1   4
HETATM    4  C   UNL     1     -36.317  -1.405 -10.875  1.00  0.00     0.275 C 
BRANCH   4   5
HETATM    5  O   UNL     1     -35.098  -0.974 -11.499  1.00  0.00    -0.292 OA
BRANCH   5   6
HETATM    6  C   UNL     1     -34.032  -1.776 -11.265  1.00  0.00     0.361 C 
HETATM    7  N   UNL     1     -34.061  -2.828 -12.132  1.00  0.00    -0.337 N 
HETATM    8  H   UNL     1     -34.835  -2.847 -12.781  1.00  0.00     0.164 HD
HETATM    9  O   UNL     1     -33.187  -1.599 -10.402  1.00  0.00    -0.238 OA
BRANCH   7  10
HETATM   10  C   UNL     1     -33.267  -4.018 -11.921  1.00  0.00     0.125 C 
BRANCH  10  11
HETATM   11  C   UNL     1     -33.677  -4.758 -10.644  1.00  0.00     0.019 C 
BRANCH  11  12
HETATM   12  C   UNL     1     -34.851  -5.715 -10.873  1.00  0.00    -0.003 C 
HETATM   13  C   UNL     1     -34.572  -7.101 -10.313  1.00  0.00     0.005 C 
ENDBRANCH  11  12
ENDBRANCH  10  11
ENDBRANCH   7  10
ENDBRANCH   5   6
ENDBRANCH   4   5
ENDBRANCH   1   4
TORSDOF 6
ENDMDL
MODEL 4
REMARK VINA RESULT:      -5.1      3.498      3.931
REMARK  6 active torsions:
REMARK  status: ('A' for Active; 'I' for Inactive)
REMARK    1  A    between atoms: C_2  and  C_3 
REMARK    2  A    between atoms: C_3  and  C_4 
REMARK    3  A    between atoms: C_4  and  N_5 
REMARK       I    between atoms: N_5  and  C_6 
REMARK    4  A    between atoms: C_6  and  O_8 
REMARK    5  A    between atoms: O_8  and  C_9 
REMARK    6  A    between atoms: C_9  and  C_10 
ROOT
HETATM    1  C   UNL     1     -37.035  -0.010 -12.313  1.00  0.00    -0.068 C 
HETATM    2  C   UNL     1     -36.871   0.005 -13.500  1.00  0.00    -0.028 C 
HETATM    3  I   UNL     1     -36.563   0.079 -15.550  1.00  0.00     0.018 I 
ENDROOT
BRANCH   1   4
HETATM    4  C   UNL     1     -37.210   0.038 -10.852  1.00  0.00     0.275 C 
BRANCH   4   5
HETATM    5  O   UNL     1     -36.107  -0.560 -10.155  1.00  0.00    -0.292 OA
BRANCH   5   6
HETATM    6  C   UNL     1     -35.744  -1.779 -10.618  1.00  0.00     0.361 C 
HETATM    7  N   UNL     1     -34.483  -1.708 -11.134  1.00  0.00    -0.337 N 
HETATM    8  H   UNL     1     -34.038  -0.802 -11.094  1.00  0.00     0.164 HD
HETATM    9  O   UNL     1     -36.438  -2.783 -10.597  1.00  0.00    -0.238 OA
BRANCH   7  10
HETATM   10  C   UNL     1     -33.947  -2.738 -11.996  1.00  0.00     0.125 C 
BRANCH  10  11
HETATM   11  C   UNL     1     -33.005  -3.680 -11.239  1.00  0.00     0.019 C 
BRANCH  11  12
HETATM   12  C   UNL     1     -33.346  -5.156 -11.467  1.00  0.00    -0.003 C 
HETATM   13  C   UNL     1     -34.335  -5.676 -10.436  1.00  0.00     0.005 C 
ENDBRANCH  11  12
ENDBRANCH  10  11
ENDBRANCH   7  10
ENDBRANCH   5   6
ENDBRANCH   4   5
ENDBRANCH   1   4
TORSDOF 6
ENDMDL
MODEL 5
REMARK VINA RESULT:      -4.9     14.508     15.980
REMARK  6 active torsions:
REMARK  status: ('A' for Active; 'I' for Inactive)
REMARK    1  A    between atoms: C_2  and  C_3 
REMARK    2  A    between atoms: C_3  and  C_4 
REMARK    3  A    between atoms: C_4  and  N_5 
REMARK       I    between atoms: N_5  and  C_6 
REMARK    4  A    between atoms: C_6  and  O_8 
REMARK    5  A    between atoms: O_8  and  C_9 
REMARK    6  A    between atoms: C_9  and  C_10 
ROOT
HETATM    1  C   UNL     1     -21.621  -3.905  -8.732  1.00  0.00    -0.068 C 
HETATM    2  C   UNL     1     -22.132  -3.875  -9.816  1.00  0.00    -0.028 C 
HETATM    3  I   UNL     1     -23.060  -3.846 -11.671  1.00  0.00     0.018 I 
ENDROOT
BRANCH   1   4
HETATM    4  C   UNL     1     -21.052  -3.978  -7.377  1.00  0.00     0.275 C 
BRANCH   4   5
HETATM    5  O   UNL     1     -21.929  -4.645  -6.456  1.00  0.00    -0.292 OA
BRANCH   5   6
HETATM    6  C   UNL     1     -21.535  -5.893  -6.110  1.00  0.00     0.361 C 
HETATM    7  N   UNL     1     -22.132  -6.243  -4.934  1.00  0.00    -0.337 N 
HETATM    8  H   UNL     1     -22.743  -5.551  -4.524  1.00  0.00     0.164 HD
HETATM    9  O   UNL     1     -20.755  -6.592  -6.737  1.00  0.00    -0.238 OA
BRANCH   7  10
HETATM   10  C   UNL     1     -21.665  -7.356  -4.138  1.00  0.00     0.125 C 
BRANCH  10  11
HETATM   11  C   UNL     1     -21.108  -6.896  -2.787  1.00  0.00     0.019 C 
BRANCH  11  12
HETATM   12  C   UNL     1     -22.178  -6.245  -1.904  1.00  0.00    -0.003 C 
HETATM   13  C   UNL     1     -22.463  -7.068  -0.657  1.00  0.00     0.005 C 
ENDBRANCH  11  12
ENDBRANCH  10  11
ENDBRANCH   7  10
ENDBRANCH   5   6
ENDBRANCH   4   5
ENDBRANCH   1   4
TORSDOF 6
ENDMDL
MODEL 6
REMARK VINA RESULT:      -4.7     15.032     16.132
REMARK  6 active torsions:
REMARK  status: ('A' for Active; 'I' for Inactive)
REMARK    1  A    between atoms: C_2  and  C_3 
REMARK    2  A    between atoms: C_3  and  C_4 
REMARK    3  A    between atoms: C_4  and  N_5 
REMARK       I    between atoms: N_5  and  C_6 
REMARK    4  A    between atoms: C_6  and  O_8 
REMARK    5  A    between atoms: O_8  and  C_9 
REMARK    6  A    between atoms: C_9  and  C_10 
ROOT
HETATM    1  C   UNL     1     -21.691  -6.555  -2.801  1.00  0.00    -0.068 C 
HETATM    2  C   UNL     1     -21.945  -7.063  -1.745  1.00  0.00    -0.028 C 
HETATM    3  I   UNL     1     -22.332  -7.953   0.089  1.00  0.00     0.018 I 
ENDROOT
BRANCH   1   4
HETATM    4  C   UNL     1     -21.311  -5.952  -4.088  1.00  0.00     0.275 C 
BRANCH   4   5
HETATM    5  O   UNL     1     -21.309  -6.912  -5.155  1.00  0.00    -0.292 OA
BRANCH   5   6
HETATM    6  C   UNL     1     -20.624  -6.526  -6.258  1.00  0.00     0.361 C 
HETATM    7  N   UNL     1     -21.266  -5.474  -6.842  1.00  0.00    -0.337 N 
HETATM    8  H   UNL     1     -22.112  -5.162  -6.385  1.00  0.00     0.164 HD
HETATM    9  O   UNL     1     -19.603  -7.047  -6.678  1.00  0.00    -0.238 OA
BRANCH   7  10
HETATM   10  C   UNL     1     -20.982  -5.058  -8.196  1.00  0.00     0.125 C 
BRANCH  10  11
HETATM   11  C   UNL     1     -22.080  -4.147  -8.754  1.00  0.00     0.019 C 
BRANCH  11  12
HETATM   12  C   UNL     1     -21.965  -3.952 -10.270  1.00  0.00    -0.003 C 
HETATM   13  C   UNL     1     -20.562  -4.246 -10.776  1.00  0.00     0.005 C 
ENDBRANCH  11  12
ENDBRANCH  10  11
ENDBRANCH   7  10
ENDBRANCH   5   6
ENDBRANCH   4   5
ENDBRANCH   1   4
TORSDOF 6
ENDMDL
MODEL 7
REMARK VINA RESULT:      -4.5      3.739      6.134
REMARK  6 active torsions:
REMARK  status: ('A' for Active; 'I' for Inactive)
REMARK    1  A    between atoms: C_2  and  C_3 
REMARK    2  A    between atoms: C_3  and  C_4 
REMARK    3  A    between atoms: C_4  and  N_5 
REMARK       I    between atoms: N_5  and  C_6 
REMARK    4  A    between atoms: C_6  and  O_8 
REMARK    5  A    between atoms: O_8  and  C_9 
REMARK    6  A    between atoms: C_9  and  C_10 
ROOT
HETATM    1  C   UNL     1     -35.567  -0.880 -12.513  1.00  0.00    -0.068 C 
HETATM    2  C   UNL     1     -35.617  -0.328 -13.576  1.00  0.00    -0.028 C 
HETATM    3  I   UNL     1     -35.689   0.581 -15.440  1.00  0.00     0.018 I 
ENDROOT
BRANCH   1   4
HETATM    4  C   UNL     1     -35.483  -1.616 -11.242  1.00  0.00     0.275 C 
BRANCH   4   5
HETATM    5  O   UNL     1     -36.751  -1.686 -10.573  1.00  0.00    -0.292 OA
BRANCH   5   6
HETATM    6  C   UNL     1     -37.132  -0.536  -9.969  1.00  0.00     0.361 C 
HETATM    7  N   UNL     1     -36.311  -0.290  -8.908  1.00  0.00    -0.337 N 
HETATM    8  H   UNL     1     -35.582  -0.971  -8.745  1.00  0.00     0.164 HD
HETATM    9  O   UNL     1     -38.074   0.164 -10.305  1.00  0.00    -0.238 OA
BRANCH   7  10
HETATM   10  C   UNL     1     -36.655   0.661  -7.875  1.00  0.00     0.125 C 
BRANCH  10  11
HETATM   11  C   UNL     1     -38.034   0.374  -7.274  1.00  0.00     0.019 C 
BRANCH  11  12
HETATM   12  C   UNL     1     -37.946  -0.221  -5.864  1.00  0.00    -0.003 C 
HETATM   13  C   UNL     1     -37.190   0.689  -4.909  1.00  0.00     0.005 C 
ENDBRANCH  11  12
ENDBRANCH  10  11
ENDBRANCH   7  10
ENDBRANCH   5   6
ENDBRANCH   4   5
ENDBRANCH   1   4
TORSDOF 6
ENDMDL
MODEL 8
REMARK VINA RESULT:      -4.5     16.484     17.513
REMARK  6 active torsions:
REMARK  status: ('A' for Active; 'I' for Inactive)
REMARK    1  A    between atoms: C_2  and  C_3 
REMARK    2  A    between atoms: C_3  and  C_4 
REMARK    3  A    between atoms: C_4  and  N_5 
REMARK       I    between atoms: N_5  and  C_6 
REMARK    4  A    between atoms: C_6  and  O_8 
REMARK    5  A    between atoms: O_8  and  C_9 
REMARK    6  A    between atoms: C_9  and  C_10 
ROOT
HETATM    1  C   UNL     1     -21.095  -6.689  -5.840  1.00  0.00    -0.068 C 
HETATM    2  C   UNL     1     -20.748  -5.926  -6.697  1.00  0.00    -0.028 C 
HETATM    3  I   UNL     1     -20.197  -4.584  -8.179  1.00  0.00     0.018 I 
ENDROOT
BRANCH   1   4
HETATM    4  C   UNL     1     -21.588  -7.599  -4.793  1.00  0.00     0.275 C 
BRANCH   4   5
HETATM    5  O   UNL     1     -20.904  -7.409  -3.546  1.00  0.00    -0.292 OA
BRANCH   5   6
HETATM    6  C   UNL     1     -21.662  -6.861  -2.567  1.00  0.00     0.361 C 
HETATM    7  N   UNL     1     -21.487  -7.568  -1.413  1.00  0.00    -0.337 N 
HETATM    8  H   UNL     1     -20.851  -8.352  -1.466  1.00  0.00     0.164 HD
HETATM    9  O   UNL     1     -22.401  -5.899  -2.695  1.00  0.00    -0.238 OA
BRANCH   7  10
HETATM   10  C   UNL     1     -22.394  -7.448  -0.294  1.00  0.00     0.125 C 
BRANCH  10  11
HETATM   11  C   UNL     1     -22.479  -8.749   0.511  1.00  0.00     0.019 C 
BRANCH  11  12
HETATM   12  C   UNL     1     -23.400  -9.784  -0.142  1.00  0.00    -0.003 C 
HETATM   13  C   UNL     1     -22.618 -10.934  -0.755  1.00  0.00     0.005 C 
ENDBRANCH  11  12
ENDBRANCH  10  11
ENDBRANCH   7  10
ENDBRANCH   5   6
ENDBRANCH   4   5
ENDBRANCH   1   4
TORSDOF 6
ENDMDL
MODEL 9
REMARK VINA RESULT:      -4.5     15.834     16.601
REMARK  6 active torsions:
REMARK  status: ('A' for Active; 'I' for Inactive)
REMARK    1  A    between atoms: C_2  and  C_3 
REMARK    2  A    between atoms: C_3  and  C_4 
REMARK    3  A    between atoms: C_4  and  N_5 
REMARK       I    between atoms: N_5  and  C_6 
REMARK    4  A    between atoms: C_6  and  O_8 
REMARK    5  A    between atoms: O_8  and  C_9 
REMARK    6  A    between atoms: C_9  and  C_10 
ROOT
HETATM    1  C   UNL     1     -21.851  -7.486  -1.657  1.00  0.00    -0.068 C 
HETATM    2  C   UNL     1     -21.976  -8.550  -1.118  1.00  0.00    -0.028 C 
HETATM    3  I   UNL     1     -22.246 -10.383  -0.185  1.00  0.00     0.018 I 
ENDROOT
BRANCH   1   4
HETATM    4  C   UNL     1     -21.769  -6.172  -2.313  1.00  0.00     0.275 C 
BRANCH   4   5
HETATM    5  O   UNL     1     -22.494  -6.138  -3.551  1.00  0.00    -0.292 OA
BRANCH   5   6
HETATM    6  C   UNL     1     -21.811  -6.621  -4.616  1.00  0.00     0.361 C 
HETATM    7  N   UNL     1     -21.020  -5.635  -5.128  1.00  0.00    -0.337 N 
HETATM    8  H   UNL     1     -21.064  -4.742  -4.658  1.00  0.00     0.164 HD
HETATM    9  O   UNL     1     -21.901  -7.753  -5.064  1.00  0.00    -0.238 OA
BRANCH   7  10
HETATM   10  C   UNL     1     -20.434  -5.728  -6.447  1.00  0.00     0.125 C 
BRANCH  10  11
HETATM   11  C   UNL     1     -20.289  -4.351  -7.103  1.00  0.00     0.019 C 
BRANCH  11  12
HETATM   12  C   UNL     1     -19.755  -4.439  -8.537  1.00  0.00    -0.003 C 
HETATM   13  C   UNL     1     -20.832  -4.127  -9.564  1.00  0.00     0.005 C 
ENDBRANCH  11  12
ENDBRANCH  10  11
ENDBRANCH   7  10
ENDBRANCH   5   6
ENDBRANCH   4   5
ENDBRANCH   1   4
TORSDOF 6
ENDMDL
