MODEL 1
REMARK VINA RESULT:      -8.2      0.000      0.000
REMARK  15 active torsions:
REMARK  status: ('A' for Active; 'I' for Inactive)
REMARK    1  A    between atoms: C_3  and  C_4 
REMARK    2  A    between atoms: C_4  and  C_5 
REMARK    3  A    between atoms: C_5  and  C_6 
REMARK    4  A    between atoms: C_7  and  C_8 
REMARK    5  A    between atoms: C_8  and  C_9 
REMARK    6  A    between atoms: C_9  and  C_10 
REMARK    7  A    between atoms: C_11  and  C_12 
REMARK    8  A    between atoms: C_12  and  C_13 
REMARK    9  A    between atoms: C_13  and  C_14 
REMARK   10  A    between atoms: C_15  and  C_17 
REMARK   11  A    between atoms: C_17  and  C_18 
REMARK   12  A    between atoms: C_18  and  C_19 
REMARK   13  A    between atoms: C_20  and  C_22 
REMARK   14  A    between atoms: C_22  and  C_23 
REMARK   15  A    between atoms: C_23  and  C_24 
ROOT
HETATM    1  C   UNL     1     -22.333  -7.338  -1.584  1.00  0.00     0.031 C 
ENDROOT
BRANCH   1   2
HETATM    2  C   UNL     1     -21.574  -7.817  -0.377  1.00  0.00    -0.024 C 
HETATM    3  C   UNL     1     -21.782  -8.870   0.453  1.00  0.00    -0.087 C 
HETATM    4  C   UNL     1     -20.830  -8.966   1.632  1.00  0.00     0.043 C 
BRANCH   3   5
HETATM    5  C   UNL     1     -22.915  -9.916   0.369  1.00  0.00     0.037 C 
BRANCH   5   6
HETATM    6  C   UNL     1     -22.604 -11.087  -0.621  1.00  0.00     0.031 C 
BRANCH   6   7
HETATM    7  C   UNL     1     -22.695 -10.883  -2.114  1.00  0.00    -0.024 C 
HETATM    8  C   UNL     1     -21.642 -10.629  -2.933  1.00  0.00    -0.087 C 
HETATM    9  C   UNL     1     -21.934 -10.421  -4.402  1.00  0.00     0.043 C 
BRANCH   8  10
HETATM   10  C   UNL     1     -20.170 -10.546  -2.464  1.00  0.00     0.037 C 
BRANCH  10  11
HETATM   11  C   UNL     1     -19.326  -9.421  -3.096  1.00  0.00     0.031 C 
BRANCH  11  12
HETATM   12  C   UNL     1     -17.881  -9.570  -3.519  1.00  0.00    -0.024 C 
HETATM   13  C   UNL     1     -17.184  -9.668  -4.673  1.00  0.00    -0.091 C 
HETATM   14  C   UNL     1     -17.726  -9.687  -6.069  1.00  0.00     0.042 C 
HETATM   15  C   UNL     1     -15.674  -9.770  -4.606  1.00  0.00     0.042 C 
ENDBRANCH  11  12
ENDBRANCH  10  11
ENDBRANCH   8  10
ENDBRANCH   6   7
ENDBRANCH   5   6
ENDBRANCH   3   5
ENDBRANCH   1   2
BRANCH   1  16
HETATM   16  C   UNL     1     -21.903  -5.917  -2.064  1.00  0.00     0.031 C 
BRANCH  16  17
HETATM   17  C   UNL     1     -21.036  -6.018  -3.300  1.00  0.00    -0.024 C 
HETATM   18  C   UNL     1     -21.379  -6.357  -4.566  1.00  0.00    -0.087 C 
HETATM   19  C   UNL     1     -22.791  -6.516  -5.054  1.00  0.00     0.043 C 
BRANCH  18  20
HETATM   20  C   UNL     1     -20.315  -6.633  -5.637  1.00  0.00     0.037 C 
BRANCH  20  21
HETATM   21  C   UNL     1     -19.779  -5.368  -6.332  1.00  0.00     0.031 C 
BRANCH  21  22
HETATM   22  C   UNL     1     -19.970  -5.327  -7.824  1.00  0.00    -0.024 C 
HETATM   23  C   UNL     1     -20.964  -4.693  -8.486  1.00  0.00    -0.087 C 
HETATM   24  C   UNL     1     -22.154  -4.088  -7.783  1.00  0.00     0.043 C 
BRANCH  23  25
HETATM   25  C   UNL     1     -20.992  -4.497 -10.001  1.00  0.00     0.037 C 
BRANCH  25  26
HETATM   26  C   UNL     1     -21.914  -3.379 -10.506  1.00  0.00     0.031 C 
BRANCH  26  27
HETATM   27  C   UNL     1     -21.925  -3.172 -11.999  1.00  0.00    -0.024 C 
HETATM   28  C   UNL     1     -23.057  -3.068 -12.725  1.00  0.00    -0.091 C 
HETATM   29  C   UNL     1     -24.442  -3.164 -12.134  1.00  0.00     0.042 C 
HETATM   30  C   UNL     1     -23.032  -2.844 -14.210  1.00  0.00     0.042 C 
ENDBRANCH  26  27
ENDBRANCH  25  26
ENDBRANCH  23  25
ENDBRANCH  21  22
ENDBRANCH  20  21
ENDBRANCH  18  20
ENDBRANCH  16  17
ENDBRANCH   1  16
TORSDOF 15
ENDMDL
MODEL 2
REMARK VINA RESULT:      -8.0      2.285      5.092
REMARK  15 active torsions:
REMARK  status: ('A' for Active; 'I' for Inactive)
REMARK    1  A    between atoms: C_3  and  C_4 
REMARK    2  A    between atoms: C_4  and  C_5 
REMARK    3  A    between atoms: C_5  and  C_6 
REMARK    4  A    between atoms: C_7  and  C_8 
REMARK    5  A    between atoms: C_8  and  C_9 
REMARK    6  A    between atoms: C_9  and  C_10 
REMARK    7  A    between atoms: C_11  and  C_12 
REMARK    8  A    between atoms: C_12  and  C_13 
REMARK    9  A    between atoms: C_13  and  C_14 
REMARK   10  A    between atoms: C_15  and  C_17 
REMARK   11  A    between atoms: C_17  and  C_18 
REMARK   12  A    between atoms: C_18  and  C_19 
REMARK   13  A    between atoms: C_20  and  C_22 
REMARK   14  A    between atoms: C_22  and  C_23 
REMARK   15  A    between atoms: C_23  and  C_24 
ROOT
HETATM    1  C   UNL     1     -20.581 -11.227   0.105  1.00  0.00     0.031 C 
ENDROOT
BRANCH   1   2
HETATM    2  C   UNL     1     -21.418 -12.330   0.693  1.00  0.00    -0.024 C 
HETATM    3  C   UNL     1     -22.764 -12.481   0.788  1.00  0.00    -0.087 C 
HETATM    4  C   UNL     1     -23.227 -13.713   1.545  1.00  0.00     0.043 C 
BRANCH   3   5
HETATM    5  C   UNL     1     -23.851 -11.507   0.284  1.00  0.00     0.037 C 
BRANCH   5   6
HETATM    6  C   UNL     1     -24.092 -11.594  -1.259  1.00  0.00     0.031 C 
BRANCH   6   7
HETATM    7  C   UNL     1     -23.219 -10.827  -2.224  1.00  0.00    -0.024 C 
HETATM    8  C   UNL     1     -22.520 -11.377  -3.250  1.00  0.00    -0.087 C 
HETATM    9  C   UNL     1     -21.672 -10.450  -4.093  1.00  0.00     0.043 C 
BRANCH   8  10
HETATM   10  C   UNL     1     -22.539 -12.880  -3.615  1.00  0.00     0.037 C 
BRANCH  10  11
HETATM   11  C   UNL     1     -21.489 -13.758  -2.905  1.00  0.00     0.031 C 
BRANCH  11  12
HETATM   12  C   UNL     1     -21.820 -14.886  -1.952  1.00  0.00    -0.024 C 
HETATM   13  C   UNL     1     -22.922 -15.540  -1.525  1.00  0.00    -0.091 C 
HETATM   14  C   UNL     1     -24.346 -15.276  -1.906  1.00  0.00     0.042 C 
HETATM   15  C   UNL     1     -22.757 -16.684  -0.545  1.00  0.00     0.042 C 
ENDBRANCH  11  12
ENDBRANCH  10  11
ENDBRANCH   8  10
ENDBRANCH   6   7
ENDBRANCH   5   6
ENDBRANCH   3   5
ENDBRANCH   1   2
BRANCH   1  16
HETATM   16  C   UNL     1     -20.719  -9.871   0.864  1.00  0.00     0.031 C 
BRANCH  16  17
HETATM   17  C   UNL     1     -21.016  -8.750  -0.107  1.00  0.00    -0.024 C 
HETATM   18  C   UNL     1     -22.093  -7.931  -0.171  1.00  0.00    -0.087 C 
HETATM   19  C   UNL     1     -23.163  -7.843   0.880  1.00  0.00     0.043 C 
BRANCH  18  20
HETATM   20  C   UNL     1     -22.324  -7.005  -1.373  1.00  0.00     0.037 C 
BRANCH  20  21
HETATM   21  C   UNL     1     -21.296  -7.176  -2.506  1.00  0.00     0.031 C 
BRANCH  21  22
HETATM   22  C   UNL     1     -21.534  -6.321  -3.722  1.00  0.00    -0.024 C 
HETATM   23  C   UNL     1     -21.044  -6.541  -4.962  1.00  0.00    -0.087 C 
HETATM   24  C   UNL     1     -20.006  -7.597  -5.252  1.00  0.00     0.043 C 
BRANCH  23  25
HETATM   25  C   UNL     1     -21.490  -5.773  -6.205  1.00  0.00     0.037 C 
BRANCH  25  26
HETATM   26  C   UNL     1     -20.556  -4.640  -6.653  1.00  0.00     0.031 C 
BRANCH  26  27
HETATM   27  C   UNL     1     -20.072  -4.723  -8.078  1.00  0.00    -0.024 C 
HETATM   28  C   UNL     1     -20.824  -4.367  -9.139  1.00  0.00    -0.091 C 
HETATM   29  C   UNL     1     -22.242  -3.862  -9.028  1.00  0.00     0.042 C 
HETATM   30  C   UNL     1     -20.304  -4.445 -10.545  1.00  0.00     0.042 C 
ENDBRANCH  26  27
ENDBRANCH  25  26
ENDBRANCH  23  25
ENDBRANCH  21  22
ENDBRANCH  20  21
ENDBRANCH  18  20
ENDBRANCH  16  17
ENDBRANCH   1  16
TORSDOF 15
ENDMDL
MODEL 3
REMARK VINA RESULT:      -7.9      1.986      4.265
REMARK  15 active torsions:
REMARK  status: ('A' for Active; 'I' for Inactive)
REMARK    1  A    between atoms: C_3  and  C_4 
REMARK    2  A    between atoms: C_4  and  C_5 
REMARK    3  A    between atoms: C_5  and  C_6 
REMARK    4  A    between atoms: C_7  and  C_8 
REMARK    5  A    between atoms: C_8  and  C_9 
REMARK    6  A    between atoms: C_9  and  C_10 
REMARK    7  A    between atoms: C_11  and  C_12 
REMARK    8  A    between atoms: C_12  and  C_13 
REMARK    9  A    between atoms: C_13  and  C_14 
REMARK   10  A    between atoms: C_15  and  C_17 
REMARK   11  A    between atoms: C_17  and  C_18 
REMARK   12  A    between atoms: C_18  and  C_19 
REMARK   13  A    between atoms: C_20  and  C_22 
REMARK   14  A    between atoms: C_22  and  C_23 
REMARK   15  A    between atoms: C_23  and  C_24 
ROOT
HETATM    1  C   UNL     1     -20.556 -10.962   0.389  1.00  0.00     0.031 C 
ENDROOT
BRANCH   1   2
HETATM    2  C   UNL     1     -21.502 -12.057   0.802  1.00  0.00    -0.024 C 
HETATM    3  C   UNL     1     -22.836 -12.210   0.603  1.00  0.00    -0.087 C 
HETATM    4  C   UNL     1     -23.455 -13.428   1.266  1.00  0.00     0.043 C 
BRANCH   3   5
HETATM    5  C   UNL     1     -23.786 -11.250  -0.145  1.00  0.00     0.037 C 
BRANCH   5   6
HETATM    6  C   UNL     1     -23.695 -11.378  -1.701  1.00  0.00     0.031 C 
BRANCH   6   7
HETATM    7  C   UNL     1     -22.558 -10.743  -2.466  1.00  0.00    -0.024 C 
HETATM    8  C   UNL     1     -21.494 -11.411  -2.979  1.00  0.00    -0.087 C 
HETATM    9  C   UNL     1     -20.434 -10.597  -3.688  1.00  0.00     0.043 C 
BRANCH   8  10
HETATM   10  C   UNL     1     -21.298 -12.944  -2.893  1.00  0.00     0.037 C 
BRANCH  10  11
HETATM   11  C   UNL     1     -21.836 -13.758  -4.087  1.00  0.00     0.031 C 
BRANCH  11  12
HETATM   12  C   UNL     1     -21.158 -13.847  -5.436  1.00  0.00    -0.024 C 
HETATM   13  C   UNL     1     -21.059 -13.095  -6.555  1.00  0.00    -0.091 C 
HETATM   14  C   UNL     1     -21.712 -11.776  -6.829  1.00  0.00     0.042 C 
HETATM   15  C   UNL     1     -20.197 -13.595  -7.696  1.00  0.00     0.042 C 
ENDBRANCH  11  12
ENDBRANCH  10  11
ENDBRANCH   8  10
ENDBRANCH   6   7
ENDBRANCH   5   6
ENDBRANCH   3   5
ENDBRANCH   1   2
BRANCH   1  16
HETATM   16  C   UNL     1     -20.825  -9.605   1.108  1.00  0.00     0.031 C 
BRANCH  16  17
HETATM   17  C   UNL     1     -21.036  -8.502   0.094  1.00  0.00    -0.024 C 
HETATM   18  C   UNL     1     -22.150  -7.777  -0.169  1.00  0.00    -0.087 C 
HETATM   19  C   UNL     1     -23.396  -7.793   0.670  1.00  0.00     0.043 C 
BRANCH  18  20
HETATM   20  C   UNL     1     -22.238  -6.861  -1.397  1.00  0.00     0.037 C 
BRANCH  20  21
HETATM   21  C   UNL     1     -21.238  -7.209  -2.513  1.00  0.00     0.031 C 
BRANCH  21  22
HETATM   22  C   UNL     1     -21.033  -6.134  -3.548  1.00  0.00    -0.024 C 
HETATM   23  C   UNL     1     -21.178  -6.273  -4.884  1.00  0.00    -0.087 C 
HETATM   24  C   UNL     1     -21.382  -7.614  -5.546  1.00  0.00     0.043 C 
BRANCH  23  25
HETATM   25  C   UNL     1     -21.175  -5.106  -5.870  1.00  0.00     0.037 C 
BRANCH  25  26
HETATM   26  C   UNL     1     -21.061  -5.491  -7.352  1.00  0.00     0.031 C 
BRANCH  26  27
HETATM   27  C   UNL     1     -21.992  -4.761  -8.285  1.00  0.00    -0.024 C 
HETATM   28  C   UNL     1     -21.627  -4.332  -9.510  1.00  0.00    -0.091 C 
HETATM   29  C   UNL     1     -20.243  -4.514 -10.083  1.00  0.00     0.042 C 
HETATM   30  C   UNL     1     -22.585  -3.622 -10.423  1.00  0.00     0.042 C 
ENDBRANCH  26  27
ENDBRANCH  25  26
ENDBRANCH  23  25
ENDBRANCH  21  22
ENDBRANCH  20  21
ENDBRANCH  18  20
ENDBRANCH  16  17
ENDBRANCH   1  16
TORSDOF 15
ENDMDL
MODEL 4
REMARK VINA RESULT:      -7.8      1.966      4.109
REMARK  15 active torsions:
REMARK  status: ('A' for Active; 'I' for Inactive)
REMARK    1  A    between atoms: C_3  and  C_4 
REMARK    2  A    between atoms: C_4  and  C_5 
REMARK    3  A    between atoms: C_5  and  C_6 
REMARK    4  A    between atoms: C_7  and  C_8 
REMARK    5  A    between atoms: C_8  and  C_9 
REMARK    6  A    between atoms: C_9  and  C_10 
REMARK    7  A    between atoms: C_11  and  C_12 
REMARK    8  A    between atoms: C_12  and  C_13 
REMARK    9  A    between atoms: C_13  and  C_14 
REMARK   10  A    between atoms: C_15  and  C_17 
REMARK   11  A    between atoms: C_17  and  C_18 
REMARK   12  A    between atoms: C_18  and  C_19 
REMARK   13  A    between atoms: C_20  and  C_22 
REMARK   14  A    between atoms: C_22  and  C_23 
REMARK   15  A    between atoms: C_23  and  C_24 
ROOT
HETATM    1  C   UNL     1     -20.476 -10.813   0.512  1.00  0.00     0.031 C 
ENDROOT
BRANCH   1   2
HETATM    2  C   UNL     1     -21.384 -11.941   0.918  1.00  0.00    -0.024 C 
HETATM    3  C   UNL     1     -22.694 -12.177   0.653  1.00  0.00    -0.087 C 
HETATM    4  C   UNL     1     -23.284 -13.401   1.331  1.00  0.00     0.043 C 
BRANCH   3   5
HETATM    5  C   UNL     1     -23.650 -11.301  -0.187  1.00  0.00     0.037 C 
BRANCH   5   6
HETATM    6  C   UNL     1     -23.447 -11.468  -1.729  1.00  0.00     0.031 C 
BRANCH   6   7
HETATM    7  C   UNL     1     -22.348 -10.724  -2.450  1.00  0.00    -0.024 C 
HETATM    8  C   UNL     1     -21.219 -11.291  -2.948  1.00  0.00    -0.087 C 
HETATM    9  C   UNL     1     -20.213 -10.377  -3.612  1.00  0.00     0.043 C 
BRANCH   8  10
HETATM   10  C   UNL     1     -20.899 -12.804  -2.887  1.00  0.00     0.037 C 
BRANCH  10  11
HETATM   11  C   UNL     1     -19.644 -13.193  -2.080  1.00  0.00     0.031 C 
BRANCH  11  12
HETATM   12  C   UNL     1     -18.341 -12.424  -2.101  1.00  0.00    -0.024 C 
HETATM   13  C   UNL     1     -17.368 -12.087  -1.226  1.00  0.00    -0.091 C 
HETATM   14  C   UNL     1     -17.305 -12.402   0.236  1.00  0.00     0.042 C 
HETATM   15  C   UNL     1     -16.175 -11.300  -1.730  1.00  0.00     0.042 C 
ENDBRANCH  11  12
ENDBRANCH  10  11
ENDBRANCH   8  10
ENDBRANCH   6   7
ENDBRANCH   5   6
ENDBRANCH   3   5
ENDBRANCH   1   2
BRANCH   1  16
HETATM   16  C   UNL     1     -20.793  -9.469   1.239  1.00  0.00     0.031 C 
BRANCH  16  17
HETATM   17  C   UNL     1     -21.050  -8.371   0.231  1.00  0.00    -0.024 C 
HETATM   18  C   UNL     1     -22.202  -7.715  -0.051  1.00  0.00    -0.087 C 
HETATM   19  C   UNL     1     -23.463  -7.819   0.758  1.00  0.00     0.043 C 
BRANCH  18  20
HETATM   20  C   UNL     1     -22.320  -6.793  -1.272  1.00  0.00     0.037 C 
BRANCH  20  21
HETATM   21  C   UNL     1     -21.414  -7.191  -2.450  1.00  0.00     0.031 C 
BRANCH  21  22
HETATM   22  C   UNL     1     -21.033  -6.065  -3.374  1.00  0.00    -0.024 C 
HETATM   23  C   UNL     1     -20.952  -6.129  -4.722  1.00  0.00    -0.087 C 
HETATM   24  C   UNL     1     -21.048  -7.429  -5.482  1.00  0.00     0.043 C 
BRANCH  23  25
HETATM   25  C   UNL     1     -20.777  -4.910  -5.626  1.00  0.00     0.037 C 
BRANCH  25  26
HETATM   26  C   UNL     1     -21.116  -5.131  -7.107  1.00  0.00     0.031 C 
BRANCH  26  27
HETATM   27  C   UNL     1     -22.417  -4.529  -7.572  1.00  0.00    -0.024 C 
HETATM   28  C   UNL     1     -22.649  -4.157  -8.847  1.00  0.00    -0.091 C 
HETATM   29  C   UNL     1     -21.631  -4.283  -9.954  1.00  0.00     0.042 C 
HETATM   30  C   UNL     1     -23.965  -3.577  -9.280  1.00  0.00     0.042 C 
ENDBRANCH  26  27
ENDBRANCH  25  26
ENDBRANCH  23  25
ENDBRANCH  21  22
ENDBRANCH  20  21
ENDBRANCH  18  20
ENDBRANCH  16  17
ENDBRANCH   1  16
TORSDOF 15
ENDMDL
MODEL 5
REMARK VINA RESULT:      -7.8      1.682      4.318
REMARK  15 active torsions:
REMARK  status: ('A' for Active; 'I' for Inactive)
REMARK    1  A    between atoms: C_3  and  C_4 
REMARK    2  A    between atoms: C_4  and  C_5 
REMARK    3  A    between atoms: C_5  and  C_6 
REMARK    4  A    between atoms: C_7  and  C_8 
REMARK    5  A    between atoms: C_8  and  C_9 
REMARK    6  A    between atoms: C_9  and  C_10 
REMARK    7  A    between atoms: C_11  and  C_12 
REMARK    8  A    between atoms: C_12  and  C_13 
REMARK    9  A    between atoms: C_13  and  C_14 
REMARK   10  A    between atoms: C_15  and  C_17 
REMARK   11  A    between atoms: C_17  and  C_18 
REMARK   12  A    between atoms: C_18  and  C_19 
REMARK   13  A    between atoms: C_20  and  C_22 
REMARK   14  A    between atoms: C_22  and  C_23 
REMARK   15  A    between atoms: C_23  and  C_24 
ROOT
HETATM    1  C   UNL     1     -22.500 -12.362  -2.928  1.00  0.00     0.031 C 
ENDROOT
BRANCH   1   2
HETATM    2  C   UNL     1     -23.167 -11.470  -1.917  1.00  0.00    -0.024 C 
HETATM    3  C   UNL     1     -23.658 -11.730  -0.679  1.00  0.00    -0.087 C 
HETATM    4  C   UNL     1     -24.349 -10.563   0.004  1.00  0.00     0.043 C 
BRANCH   3   5
HETATM    5  C   UNL     1     -23.659 -13.086   0.060  1.00  0.00     0.037 C 
BRANCH   5   6
HETATM    6  C   UNL     1     -22.457 -13.252   1.048  1.00  0.00     0.031 C 
BRANCH   6   7
HETATM    7  C   UNL     1     -21.057 -13.484   0.532  1.00  0.00    -0.024 C 
HETATM    8  C   UNL     1     -20.145 -12.509   0.285  1.00  0.00    -0.087 C 
HETATM    9  C   UNL     1     -18.800 -12.933  -0.262  1.00  0.00     0.043 C 
BRANCH   8  10
HETATM   10  C   UNL     1     -20.388 -11.001   0.532  1.00  0.00     0.037 C 
BRANCH  10  11
HETATM   11  C   UNL     1     -20.135 -10.074  -0.673  1.00  0.00     0.031 C 
BRANCH  11  12
HETATM   12  C   UNL     1     -20.947  -8.835  -0.985  1.00  0.00    -0.024 C 
HETATM   13  C   UNL     1     -21.717  -7.951  -0.313  1.00  0.00    -0.091 C 
HETATM   14  C   UNL     1     -22.059  -7.962   1.145  1.00  0.00     0.042 C 
HETATM   15  C   UNL     1     -22.329  -6.792  -1.072  1.00  0.00     0.042 C 
ENDBRANCH  11  12
ENDBRANCH  10  11
ENDBRANCH   8  10
ENDBRANCH   6   7
ENDBRANCH   5   6
ENDBRANCH   3   5
ENDBRANCH   1   2
BRANCH   1  16
HETATM   16  C   UNL     1     -22.401 -11.724  -4.349  1.00  0.00     0.031 C 
BRANCH  16  17
HETATM   17  C   UNL     1     -21.762 -10.355  -4.269  1.00  0.00    -0.024 C 
HETATM   18  C   UNL     1     -20.478  -9.991  -4.498  1.00  0.00    -0.087 C 
HETATM   19  C   UNL     1     -19.430 -10.887  -5.096  1.00  0.00     0.043 C 
BRANCH  18  20
HETATM   20  C   UNL     1     -19.966  -8.589  -4.138  1.00  0.00     0.037 C 
BRANCH  20  21
HETATM   21  C   UNL     1     -20.905  -7.448  -4.567  1.00  0.00     0.031 C 
BRANCH  21  22
HETATM   22  C   UNL     1     -20.804  -7.046  -6.014  1.00  0.00    -0.024 C 
HETATM   23  C   UNL     1     -20.390  -5.848  -6.484  1.00  0.00    -0.087 C 
HETATM   24  C   UNL     1     -20.153  -4.659  -5.586  1.00  0.00     0.043 C 
BRANCH  23  25
HETATM   25  C   UNL     1     -20.096  -5.562  -7.956  1.00  0.00     0.037 C 
BRANCH  25  26
HETATM   26  C   UNL     1     -20.281  -4.104  -8.397  1.00  0.00     0.031 C 
BRANCH  26  27
HETATM   27  C   UNL     1     -20.513  -3.895  -9.871  1.00  0.00    -0.024 C 
HETATM   28  C   UNL     1     -21.739  -3.838 -10.428  1.00  0.00    -0.091 C 
HETATM   29  C   UNL     1     -23.021  -3.991  -9.647  1.00  0.00     0.042 C 
HETATM   30  C   UNL     1     -21.935  -3.611 -11.900  1.00  0.00     0.042 C 
ENDBRANCH  26  27
ENDBRANCH  25  26
ENDBRANCH  23  25
ENDBRANCH  21  22
ENDBRANCH  20  21
ENDBRANCH  18  20
ENDBRANCH  16  17
ENDBRANCH   1  16
TORSDOF 15
ENDMDL
MODEL 6
REMARK VINA RESULT:      -7.8      1.719      9.031
REMARK  15 active torsions:
REMARK  status: ('A' for Active; 'I' for Inactive)
REMARK    1  A    between atoms: C_3  and  C_4 
REMARK    2  A    between atoms: C_4  and  C_5 
REMARK    3  A    between atoms: C_5  and  C_6 
REMARK    4  A    between atoms: C_7  and  C_8 
REMARK    5  A    between atoms: C_8  and  C_9 
REMARK    6  A    between atoms: C_9  and  C_10 
REMARK    7  A    between atoms: C_11  and  C_12 
REMARK    8  A    between atoms: C_12  and  C_13 
REMARK    9  A    between atoms: C_13  and  C_14 
REMARK   10  A    between atoms: C_15  and  C_17 
REMARK   11  A    between atoms: C_17  and  C_18 
REMARK   12  A    between atoms: C_18  and  C_19 
REMARK   13  A    between atoms: C_20  and  C_22 
REMARK   14  A    between atoms: C_22  and  C_23 
REMARK   15  A    between atoms: C_23  and  C_24 
ROOT
HETATM    1  C   UNL     1     -22.305  -6.741  -1.208  1.00  0.00     0.031 C 
ENDROOT
BRANCH   1   2
HETATM    2  C   UNL     1     -21.373  -7.491  -2.120  1.00  0.00    -0.024 C 
HETATM    3  C   UNL     1     -21.224  -7.463  -3.469  1.00  0.00    -0.087 C 
HETATM    4  C   UNL     1     -20.219  -8.452  -4.031  1.00  0.00     0.043 C 
BRANCH   3   5
HETATM    5  C   UNL     1     -22.014  -6.601  -4.478  1.00  0.00     0.037 C 
BRANCH   5   6
HETATM    6  C   UNL     1     -21.380  -6.588  -5.908  1.00  0.00     0.031 C 
BRANCH   6   7
HETATM    7  C   UNL     1     -20.153  -5.760  -6.204  1.00  0.00    -0.024 C 
HETATM    8  C   UNL     1     -19.972  -5.003  -7.317  1.00  0.00    -0.087 C 
HETATM    9  C   UNL     1     -18.658  -4.266  -7.454  1.00  0.00     0.043 C 
BRANCH   8  10
HETATM   10  C   UNL     1     -21.019  -4.841  -8.445  1.00  0.00     0.037 C 
BRANCH  10  11
HETATM   11  C   UNL     1     -20.461  -4.453  -9.829  1.00  0.00     0.031 C 
BRANCH  11  12
HETATM   12  C   UNL     1     -21.241  -3.701 -10.885  1.00  0.00    -0.024 C 
HETATM   13  C   UNL     1     -22.460  -3.772 -11.465  1.00  0.00    -0.091 C 
HETATM   14  C   UNL     1     -23.536  -4.782 -11.208  1.00  0.00     0.042 C 
HETATM   15  C   UNL     1     -22.837  -2.733 -12.500  1.00  0.00     0.042 C 
ENDBRANCH  11  12
ENDBRANCH  10  11
ENDBRANCH   8  10
ENDBRANCH   6   7
ENDBRANCH   5   6
ENDBRANCH   3   5
ENDBRANCH   1   2
BRANCH   1  16
HETATM   16  C   UNL     1     -22.682  -7.533   0.082  1.00  0.00     0.031 C 
BRANCH  16  17
HETATM   17  C   UNL     1     -21.589  -8.519   0.434  1.00  0.00    -0.024 C 
HETATM   18  C   UNL     1     -21.600  -9.872   0.372  1.00  0.00    -0.087 C 
HETATM   19  C   UNL     1     -22.682 -10.689  -0.276  1.00  0.00     0.043 C 
BRANCH  18  20
HETATM   20  C   UNL     1     -20.476 -10.711   0.995  1.00  0.00     0.037 C 
BRANCH  20  21
HETATM   21  C   UNL     1     -20.049 -11.921   0.144  1.00  0.00     0.031 C 
BRANCH  21  22
HETATM   22  C   UNL     1     -18.983 -11.639  -0.880  1.00  0.00    -0.024 C 
HETATM   23  C   UNL     1     -17.655 -11.842  -0.730  1.00  0.00    -0.087 C 
HETATM   24  C   UNL     1     -17.033 -12.208   0.595  1.00  0.00     0.043 C 
BRANCH  23  25
HETATM   25  C   UNL     1     -16.641 -11.748  -1.869  1.00  0.00     0.037 C 
BRANCH  25  26
HETATM   26  C   UNL     1     -16.228 -10.326  -2.272  1.00  0.00     0.031 C 
BRANCH  26  27
HETATM   27  C   UNL     1     -16.881  -9.789  -3.520  1.00  0.00    -0.024 C 
HETATM   28  C   UNL     1     -16.465 -10.096  -4.765  1.00  0.00    -0.091 C 
HETATM   29  C   UNL     1     -15.288 -10.995  -5.057  1.00  0.00     0.042 C 
HETATM   30  C   UNL     1     -17.150  -9.557  -5.988  1.00  0.00     0.042 C 
ENDBRANCH  26  27
ENDBRANCH  25  26
ENDBRANCH  23  25
ENDBRANCH  21  22
ENDBRANCH  20  21
ENDBRANCH  18  20
ENDBRANCH  16  17
ENDBRANCH   1  16
TORSDOF 15
ENDMDL
MODEL 7
REMARK VINA RESULT:      -7.7      1.727      4.527
REMARK  15 active torsions:
REMARK  status: ('A' for Active; 'I' for Inactive)
REMARK    1  A    between atoms: C_3  and  C_4 
REMARK    2  A    between atoms: C_4  and  C_5 
REMARK    3  A    between atoms: C_5  and  C_6 
REMARK    4  A    between atoms: C_7  and  C_8 
REMARK    5  A    between atoms: C_8  and  C_9 
REMARK    6  A    between atoms: C_9  and  C_10 
REMARK    7  A    between atoms: C_11  and  C_12 
REMARK    8  A    between atoms: C_12  and  C_13 
REMARK    9  A    between atoms: C_13  and  C_14 
REMARK   10  A    between atoms: C_15  and  C_17 
REMARK   11  A    between atoms: C_17  and  C_18 
REMARK   12  A    between atoms: C_18  and  C_19 
REMARK   13  A    between atoms: C_20  and  C_22 
REMARK   14  A    between atoms: C_22  and  C_23 
REMARK   15  A    between atoms: C_23  and  C_24 
ROOT
HETATM    1  C   UNL     1     -22.280 -10.907  -3.755  1.00  0.00     0.031 C 
ENDROOT
BRANCH   1   2
HETATM    2  C   UNL     1     -22.164 -12.386  -3.506  1.00  0.00    -0.024 C 
HETATM    3  C   UNL     1     -21.274 -13.105  -2.777  1.00  0.00    -0.087 C 
HETATM    4  C   UNL     1     -21.443 -14.612  -2.849  1.00  0.00     0.043 C 
BRANCH   3   5
HETATM    5  C   UNL     1     -20.080 -12.563  -1.961  1.00  0.00     0.037 C 
BRANCH   5   6
HETATM    6  C   UNL     1     -20.504 -11.906  -0.606  1.00  0.00     0.031 C 
BRANCH   6   7
HETATM    7  C   UNL     1     -21.200 -12.715   0.462  1.00  0.00    -0.024 C 
HETATM    8  C   UNL     1     -22.544 -12.762   0.654  1.00  0.00    -0.087 C 
HETATM    9  C   UNL     1     -23.056 -13.606   1.801  1.00  0.00     0.043 C 
BRANCH   8  10
HETATM   10  C   UNL     1     -23.579 -12.017  -0.222  1.00  0.00     0.037 C 
BRANCH  10  11
HETATM   11  C   UNL     1     -24.036 -10.641   0.301  1.00  0.00     0.031 C 
BRANCH  11  12
HETATM   12  C   UNL     1     -23.454  -9.318  -0.149  1.00  0.00    -0.024 C 
HETATM   13  C   UNL     1     -22.385  -8.547   0.145  1.00  0.00    -0.091 C 
HETATM   14  C   UNL     1     -21.327  -8.806   1.174  1.00  0.00     0.042 C 
HETATM   15  C   UNL     1     -22.180  -7.260  -0.626  1.00  0.00     0.042 C 
ENDBRANCH  11  12
ENDBRANCH  10  11
ENDBRANCH   8  10
ENDBRANCH   6   7
ENDBRANCH   5   6
ENDBRANCH   3   5
ENDBRANCH   1   2
BRANCH   1  16
HETATM   16  C   UNL     1     -21.390 -10.404  -4.934  1.00  0.00     0.031 C 
BRANCH  16  17
HETATM   17  C   UNL     1     -21.238  -8.900  -4.877  1.00  0.00    -0.024 C 
HETATM   18  C   UNL     1     -20.614  -8.133  -3.951  1.00  0.00    -0.087 C 
HETATM   19  C   UNL     1     -19.741  -8.666  -2.850  1.00  0.00     0.043 C 
BRANCH  18  20
HETATM   20  C   UNL     1     -20.767  -6.607  -3.940  1.00  0.00     0.037 C 
BRANCH  20  21
HETATM   21  C   UNL     1     -21.542  -6.044  -5.145  1.00  0.00     0.031 C 
BRANCH  21  22
HETATM   22  C   UNL     1     -20.692  -5.613  -6.310  1.00  0.00    -0.024 C 
HETATM   23  C   UNL     1     -21.052  -4.753  -7.288  1.00  0.00    -0.087 C 
HETATM   24  C   UNL     1     -22.465  -4.248  -7.448  1.00  0.00     0.043 C 
BRANCH  23  25
HETATM   25  C   UNL     1     -20.084  -4.180  -8.322  1.00  0.00     0.037 C 
BRANCH  25  26
HETATM   26  C   UNL     1     -20.247  -4.718  -9.750  1.00  0.00     0.031 C 
BRANCH  26  27
HETATM   27  C   UNL     1     -20.705  -3.711 -10.774  1.00  0.00    -0.024 C 
HETATM   28  C   UNL     1     -21.941  -3.711 -11.312  1.00  0.00    -0.091 C 
HETATM   29  C   UNL     1     -23.004  -4.726 -10.969  1.00  0.00     0.042 C 
HETATM   30  C   UNL     1     -22.372  -2.682 -12.318  1.00  0.00     0.042 C 
ENDBRANCH  26  27
ENDBRANCH  25  26
ENDBRANCH  23  25
ENDBRANCH  21  22
ENDBRANCH  20  21
ENDBRANCH  18  20
ENDBRANCH  16  17
ENDBRANCH   1  16
TORSDOF 15
ENDMDL
MODEL 8
REMARK VINA RESULT:      -7.7      1.761      3.155
REMARK  15 active torsions:
REMARK  status: ('A' for Active; 'I' for Inactive)
REMARK    1  A    between atoms: C_3  and  C_4 
REMARK    2  A    between atoms: C_4  and  C_5 
REMARK    3  A    between atoms: C_5  and  C_6 
REMARK    4  A    between atoms: C_7  and  C_8 
REMARK    5  A    between atoms: C_8  and  C_9 
REMARK    6  A    between atoms: C_9  and  C_10 
REMARK    7  A    between atoms: C_11  and  C_12 
REMARK    8  A    between atoms: C_12  and  C_13 
REMARK    9  A    between atoms: C_13  and  C_14 
REMARK   10  A    between atoms: C_15  and  C_17 
REMARK   11  A    between atoms: C_17  and  C_18 
REMARK   12  A    between atoms: C_18  and  C_19 
REMARK   13  A    between atoms: C_20  and  C_22 
REMARK   14  A    between atoms: C_22  and  C_23 
REMARK   15  A    between atoms: C_23  and  C_24 
ROOT
HETATM    1  C   UNL     1     -22.098  -7.872   0.356  1.00  0.00     0.031 C 
ENDROOT
BRANCH   1   2
HETATM    2  C   UNL     1     -23.067  -9.012   0.196  1.00  0.00    -0.024 C 
HETATM    3  C   UNL     1     -22.895 -10.275  -0.269  1.00  0.00    -0.087 C 
HETATM    4  C   UNL     1     -24.159 -11.111  -0.361  1.00  0.00     0.043 C 
BRANCH   3   5
HETATM    5  C   UNL     1     -21.584 -10.913  -0.779  1.00  0.00     0.037 C 
BRANCH   5   6
HETATM    6  C   UNL     1     -20.515 -11.114   0.345  1.00  0.00     0.031 C 
BRANCH   6   7
HETATM    7  C   UNL     1     -19.640 -12.344   0.371  1.00  0.00    -0.024 C 
HETATM    8  C   UNL     1     -18.562 -12.552  -0.429  1.00  0.00    -0.087 C 
HETATM    9  C   UNL     1     -17.825 -13.865  -0.280  1.00  0.00     0.043 C 
BRANCH   8  10
HETATM   10  C   UNL     1     -18.038 -11.536  -1.471  1.00  0.00     0.037 C 
BRANCH  10  11
HETATM   11  C   UNL     1     -18.247 -11.922  -2.950  1.00  0.00     0.031 C 
BRANCH  11  12
HETATM   12  C   UNL     1     -18.323 -10.930  -4.090  1.00  0.00    -0.024 C 
HETATM   13  C   UNL     1     -17.486 -10.097  -4.745  1.00  0.00    -0.091 C 
HETATM   14  C   UNL     1     -16.033  -9.860  -4.471  1.00  0.00     0.042 C 
HETATM   15  C   UNL     1     -18.026  -9.283  -5.904  1.00  0.00     0.042 C 
ENDBRANCH  11  12
ENDBRANCH  10  11
ENDBRANCH   8  10
ENDBRANCH   6   7
ENDBRANCH   5   6
ENDBRANCH   3   5
ENDBRANCH   1   2
BRANCH   1  16
HETATM   16  C   UNL     1     -22.222  -6.790  -0.761  1.00  0.00     0.031 C 
BRANCH  16  17
HETATM   17  C   UNL     1     -22.153  -7.433  -2.129  1.00  0.00    -0.024 C 
HETATM   18  C   UNL     1     -21.085  -7.948  -2.784  1.00  0.00    -0.087 C 
HETATM   19  C   UNL     1     -19.731  -8.168  -2.170  1.00  0.00     0.043 C 
BRANCH  18  20
HETATM   20  C   UNL     1     -21.169  -8.345  -4.264  1.00  0.00     0.037 C 
BRANCH  20  21
HETATM   21  C   UNL     1     -21.915  -7.329  -5.147  1.00  0.00     0.031 C 
BRANCH  21  22
HETATM   22  C   UNL     1     -21.110  -6.754  -6.281  1.00  0.00    -0.024 C 
HETATM   23  C   UNL     1     -20.313  -5.663  -6.223  1.00  0.00    -0.087 C 
HETATM   24  C   UNL     1     -20.280  -4.742  -5.028  1.00  0.00     0.043 C 
BRANCH  23  25
HETATM   25  C   UNL     1     -19.351  -5.248  -7.334  1.00  0.00     0.037 C 
BRANCH  25  26
HETATM   26  C   UNL     1     -19.746  -3.987  -8.115  1.00  0.00     0.031 C 
BRANCH  26  27
HETATM   27  C   UNL     1     -20.367  -4.228  -9.467  1.00  0.00    -0.024 C 
HETATM   28  C   UNL     1     -21.698  -4.233  -9.681  1.00  0.00    -0.091 C 
HETATM   29  C   UNL     1     -22.722  -4.014  -8.594  1.00  0.00     0.042 C 
HETATM   30  C   UNL     1     -22.284  -4.460 -11.046  1.00  0.00     0.042 C 
ENDBRANCH  26  27
ENDBRANCH  25  26
ENDBRANCH  23  25
ENDBRANCH  21  22
ENDBRANCH  20  21
ENDBRANCH  18  20
ENDBRANCH  16  17
ENDBRANCH   1  16
TORSDOF 15
ENDMDL
MODEL 9
REMARK VINA RESULT:      -7.5      2.450      4.934
REMARK  15 active torsions:
REMARK  status: ('A' for Active; 'I' for Inactive)
REMARK    1  A    between atoms: C_3  and  C_4 
REMARK    2  A    between atoms: C_4  and  C_5 
REMARK    3  A    between atoms: C_5  and  C_6 
REMARK    4  A    between atoms: C_7  and  C_8 
REMARK    5  A    between atoms: C_8  and  C_9 
REMARK    6  A    between atoms: C_9  and  C_10 
REMARK    7  A    between atoms: C_11  and  C_12 
REMARK    8  A    between atoms: C_12  and  C_13 
REMARK    9  A    between atoms: C_13  and  C_14 
REMARK   10  A    between atoms: C_15  and  C_17 
REMARK   11  A    between atoms: C_17  and  C_18 
REMARK   12  A    between atoms: C_18  and  C_19 
REMARK   13  A    between atoms: C_20  and  C_22 
REMARK   14  A    between atoms: C_22  and  C_23 
REMARK   15  A    between atoms: C_23  and  C_24 
ROOT
HETATM    1  C   UNL     1     -21.538  -6.287  -2.521  1.00  0.00     0.031 C 
ENDROOT
BRANCH   1   2
HETATM    2  C   UNL     1     -22.354  -6.702  -1.327  1.00  0.00    -0.024 C 
HETATM    3  C   UNL     1     -22.143  -7.656  -0.385  1.00  0.00    -0.087 C 
HETATM    4  C   UNL     1     -23.264  -7.831   0.623  1.00  0.00     0.043 C 
BRANCH   3   5
HETATM    5  C   UNL     1     -20.939  -8.618  -0.283  1.00  0.00     0.037 C 
BRANCH   5   6
HETATM    6  C   UNL     1     -21.321 -10.030   0.269  1.00  0.00     0.031 C 
BRANCH   6   7
HETATM    7  C   UNL     1     -20.305 -11.146   0.311  1.00  0.00    -0.024 C 
HETATM    8  C   UNL     1     -20.583 -12.462   0.118  1.00  0.00    -0.087 C 
HETATM    9  C   UNL     1     -19.435 -13.441   0.231  1.00  0.00     0.043 C 
BRANCH   8  10
HETATM   10  C   UNL     1     -21.987 -13.020  -0.214  1.00  0.00     0.037 C 
BRANCH  10  11
HETATM   11  C   UNL     1     -23.116 -12.621   0.758  1.00  0.00     0.031 C 
BRANCH  11  12
HETATM   12  C   UNL     1     -23.717 -13.543   1.796  1.00  0.00    -0.024 C 
HETATM   13  C   UNL     1     -23.281 -14.459   2.689  1.00  0.00    -0.091 C 
HETATM   14  C   UNL     1     -21.872 -14.911   2.920  1.00  0.00     0.042 C 
HETATM   15  C   UNL     1     -24.293 -15.139   3.589  1.00  0.00     0.042 C 
ENDBRANCH  11  12
ENDBRANCH  10  11
ENDBRANCH   8  10
ENDBRANCH   6   7
ENDBRANCH   5   6
ENDBRANCH   3   5
ENDBRANCH   1   2
BRANCH   1  16
HETATM   16  C   UNL     1     -21.772  -7.186  -3.775  1.00  0.00     0.031 C 
BRANCH  16  17
HETATM   17  C   UNL     1     -22.089  -6.333  -4.984  1.00  0.00    -0.024 C 
HETATM   18  C   UNL     1     -21.321  -6.054  -6.065  1.00  0.00    -0.087 C 
HETATM   19  C   UNL     1     -20.016  -6.729  -6.382  1.00  0.00     0.043 C 
BRANCH  18  20
HETATM   20  C   UNL     1     -21.727  -4.977  -7.080  1.00  0.00     0.037 C 
BRANCH  20  21
HETATM   21  C   UNL     1     -20.604  -3.984  -7.427  1.00  0.00     0.031 C 
BRANCH  21  22
HETATM   22  C   UNL     1     -20.697  -3.366  -8.796  1.00  0.00    -0.024 C 
HETATM   23  C   UNL     1     -20.394  -3.968  -9.968  1.00  0.00    -0.087 C 
HETATM   24  C   UNL     1     -19.720  -5.316 -10.040  1.00  0.00     0.043 C 
BRANCH  23  25
HETATM   25  C   UNL     1     -20.711  -3.376 -11.340  1.00  0.00     0.037 C 
BRANCH  25  26
HETATM   26  C   UNL     1     -22.083  -3.747 -11.920  1.00  0.00     0.031 C 
BRANCH  26  27
HETATM   27  C   UNL     1     -23.270  -3.126 -11.229  1.00  0.00    -0.024 C 
HETATM   28  C   UNL     1     -24.088  -3.809 -10.403  1.00  0.00    -0.091 C 
HETATM   29  C   UNL     1     -23.924  -5.275 -10.086  1.00  0.00     0.042 C 
HETATM   30  C   UNL     1     -25.252  -3.155  -9.716  1.00  0.00     0.042 C 
ENDBRANCH  26  27
ENDBRANCH  25  26
ENDBRANCH  23  25
ENDBRANCH  21  22
ENDBRANCH  20  21
ENDBRANCH  18  20
ENDBRANCH  16  17
ENDBRANCH   1  16
TORSDOF 15
ENDMDL
