MODEL 1
REMARK VINA RESULT:      -6.3      0.000      0.000
REMARK  7 active torsions:
REMARK  status: ('A' for Active; 'I' for Inactive)
REMARK    1  A    between atoms: C_1  and  C_2 
REMARK    2  A    between atoms: C_1  and  O_12 
REMARK    3  A    between atoms: C_3  and  O_11 
REMARK    4  A    between atoms: C_4  and  O_10 
REMARK    5  A    between atoms: C_5  and  C_7 
REMARK    6  A    between atoms: C_5  and  O_9 
REMARK    7  A    between atoms: C_7  and  O_8 
ROOT
HETATM    1  C   UNL     1     -24.293  -3.690 -10.888  1.00  0.00     0.180 C 
HETATM    2  C   UNL     1     -22.799  -3.390 -10.906  1.00  0.00     0.183 C 
HETATM    3  C   UNL     1     -22.510  -2.919 -12.331  1.00  0.00     0.213 C 
HETATM    4  C   UNL     1     -23.884  -2.943 -13.030  1.00  0.00     0.213 C 
HETATM    5  O   UNL     1     -24.878  -2.971 -11.996  1.00  0.00    -0.341 OA
ENDROOT
BRANCH   4   6
HETATM    6  C   UNL     1     -24.114  -1.720 -13.935  1.00  0.00     0.235 C 
BRANCH   6   7
HETATM    7  O   UNL     1     -23.666  -1.949 -15.269  1.00  0.00    -0.395 OA
HETATM    8  H   UNL     1     -22.888  -2.533 -15.201  1.00  0.00     0.209 HD
ENDBRANCH   6   7
ENDBRANCH   4   6
BRANCH   4   9
HETATM    9  O   UNL     1     -24.011  -4.113 -13.837  1.00  0.00    -0.362 OA
HETATM   10  H   UNL     1     -23.154  -4.570 -13.795  1.00  0.00     0.213 HD
ENDBRANCH   4   9
BRANCH   3  11
HETATM   11  O   UNL     1     -21.545  -3.787 -12.949  1.00  0.00    -0.387 OA
HETATM   12  H   UNL     1     -20.818  -3.897 -12.301  1.00  0.00     0.210 HD
ENDBRANCH   3  11
BRANCH   2  13
HETATM   13  O   UNL     1     -22.051  -4.559 -10.574  1.00  0.00    -0.390 OA
HETATM   14  H   UNL     1     -22.680  -5.146 -10.098  1.00  0.00     0.210 HD
ENDBRANCH   2  13
BRANCH   1  15
HETATM   15  C   UNL     1     -24.975  -3.289  -9.589  1.00  0.00     0.198 C 
BRANCH  15  16
HETATM   16  O   UNL     1     -24.174  -3.696  -8.479  1.00  0.00    -0.398 OA
HETATM   17  H   UNL     1     -24.741  -4.257  -7.919  1.00  0.00     0.209 HD
ENDBRANCH  15  16
ENDBRANCH   1  15
TORSDOF 7
ENDMDL
MODEL 2
REMARK VINA RESULT:      -5.5      1.853      3.025
REMARK  7 active torsions:
REMARK  status: ('A' for Active; 'I' for Inactive)
REMARK    1  A    between atoms: C_1  and  C_2 
REMARK    2  A    between atoms: C_1  and  O_12 
REMARK    3  A    between atoms: C_3  and  O_11 
REMARK    4  A    between atoms: C_4  and  O_10 
REMARK    5  A    between atoms: C_5  and  C_7 
REMARK    6  A    between atoms: C_5  and  O_9 
REMARK    7  A    between atoms: C_7  and  O_8 
ROOT
HETATM    1  C   UNL     1     -21.625  -4.424  -9.950  1.00  0.00     0.180 C 
HETATM    2  C   UNL     1     -21.040  -3.424 -10.939  1.00  0.00     0.183 C 
HETATM    3  C   UNL     1     -22.175  -3.134 -11.922  1.00  0.00     0.213 C 
HETATM    4  C   UNL     1     -23.360  -3.969 -11.398  1.00  0.00     0.213 C 
HETATM    5  O   UNL     1     -23.063  -4.307 -10.036  1.00  0.00    -0.341 OA
ENDROOT
BRANCH   4   6
HETATM    6  C   UNL     1     -24.697  -3.210 -11.461  1.00  0.00     0.235 C 
BRANCH   6   7
HETATM    7  O   UNL     1     -25.367  -3.201 -10.202  1.00  0.00    -0.395 OA
HETATM    8  H   UNL     1     -25.720  -2.299 -10.086  1.00  0.00     0.209 HD
ENDBRANCH   6   7
ENDBRANCH   4   6
BRANCH   4   9
HETATM    9  O   UNL     1     -23.501  -5.167 -12.160  1.00  0.00    -0.362 OA
HETATM   10  H   UNL     1     -22.981  -5.848 -11.700  1.00  0.00     0.213 HD
ENDBRANCH   4   9
BRANCH   3  11
HETATM   11  O   UNL     1     -21.773  -3.495 -13.255  1.00  0.00    -0.387 OA
HETATM   12  H   UNL     1     -22.360  -3.000 -13.864  1.00  0.00     0.210 HD
ENDBRANCH   3  11
BRANCH   2  13
HETATM   13  O   UNL     1     -19.901  -3.979 -11.596  1.00  0.00    -0.390 OA
HETATM   14  H   UNL     1     -20.262  -4.587 -12.279  1.00  0.00     0.210 HD
ENDBRANCH   2  13
BRANCH   1  15
HETATM   15  C   UNL     1     -21.169  -4.195  -8.517  1.00  0.00     0.198 C 
BRANCH  15  16
HETATM   16  O   UNL     1     -19.789  -3.825  -8.504  1.00  0.00    -0.398 OA
HETATM   17  H   UNL     1     -19.641  -3.339  -7.673  1.00  0.00     0.209 HD
ENDBRANCH  15  16
ENDBRANCH   1  15
TORSDOF 7
ENDMDL
MODEL 3
REMARK VINA RESULT:      -5.4      1.585      4.795
REMARK  7 active torsions:
REMARK  status: ('A' for Active; 'I' for Inactive)
REMARK    1  A    between atoms: C_1  and  C_2 
REMARK    2  A    between atoms: C_1  and  O_12 
REMARK    3  A    between atoms: C_3  and  O_11 
REMARK    4  A    between atoms: C_4  and  O_10 
REMARK    5  A    between atoms: C_5  and  C_7 
REMARK    6  A    between atoms: C_5  and  O_9 
REMARK    7  A    between atoms: C_7  and  O_8 
ROOT
HETATM    1  C   UNL     1     -23.012  -4.160 -11.512  1.00  0.00     0.180 C 
HETATM    2  C   UNL     1     -23.933  -2.973 -11.258  1.00  0.00     0.183 C 
HETATM    3  C   UNL     1     -24.355  -3.110  -9.795  1.00  0.00     0.213 C 
HETATM    4  C   UNL     1     -23.605  -4.360  -9.294  1.00  0.00     0.213 C 
HETATM    5  O   UNL     1     -22.540  -4.608 -10.222  1.00  0.00    -0.341 OA
ENDROOT
BRANCH   4   6
HETATM    6  C   UNL     1     -23.025  -4.180  -7.880  1.00  0.00     0.235 C 
BRANCH   6   7
HETATM    7  O   UNL     1     -24.010  -4.379  -6.868  1.00  0.00    -0.395 OA
HETATM    8  H   UNL     1     -24.842  -4.589  -7.333  1.00  0.00     0.209 HD
ENDBRANCH   6   7
ENDBRANCH   4   6
BRANCH   4   9
HETATM    9  O   UNL     1     -24.479  -5.487  -9.267  1.00  0.00    -0.362 OA
HETATM   10  H   UNL     1     -24.457  -5.873 -10.160  1.00  0.00     0.213 HD
ENDBRANCH   4   9
BRANCH   3  11
HETATM   11  O   UNL     1     -25.785  -3.233  -9.706  1.00  0.00    -0.387 OA
HETATM   12  H   UNL     1     -26.158  -2.574 -10.327  1.00  0.00     0.210 HD
ENDBRANCH   3  11
BRANCH   2  13
HETATM   13  O   UNL     1     -25.056  -3.014 -12.138  1.00  0.00    -0.390 OA
HETATM   14  H   UNL     1     -25.305  -2.076 -12.289  1.00  0.00     0.210 HD
ENDBRANCH   2  13
BRANCH   1  15
HETATM   15  C   UNL     1     -21.831  -3.827 -12.412  1.00  0.00     0.198 C 
BRANCH  15  16
HETATM   16  O   UNL     1     -22.305  -3.342 -13.669  1.00  0.00    -0.398 OA
HETATM   17  H   UNL     1     -23.107  -3.854 -13.879  1.00  0.00     0.209 HD
ENDBRANCH  15  16
ENDBRANCH   1  15
TORSDOF 7
ENDMDL
MODEL 4
REMARK VINA RESULT:      -5.4      1.613      3.802
REMARK  7 active torsions:
REMARK  status: ('A' for Active; 'I' for Inactive)
REMARK    1  A    between atoms: C_1  and  C_2 
REMARK    2  A    between atoms: C_1  and  O_12 
REMARK    3  A    between atoms: C_3  and  O_11 
REMARK    4  A    between atoms: C_4  and  O_10 
REMARK    5  A    between atoms: C_5  and  C_7 
REMARK    6  A    between atoms: C_5  and  O_9 
REMARK    7  A    between atoms: C_7  and  O_8 
ROOT
HETATM    1  C   UNL     1     -21.688  -4.115 -11.490  1.00  0.00     0.180 C 
HETATM    2  C   UNL     1     -22.354  -3.037 -12.335  1.00  0.00     0.183 C 
HETATM    3  C   UNL     1     -23.783  -2.944 -11.799  1.00  0.00     0.213 C 
HETATM    4  C   UNL     1     -23.826  -3.961 -10.641  1.00  0.00     0.213 C 
HETATM    5  O   UNL     1     -22.466  -4.239 -10.279  1.00  0.00    -0.341 OA
ENDROOT
BRANCH   4   6
HETATM    6  C   UNL     1     -24.590  -3.435  -9.414  1.00  0.00     0.235 C 
BRANCH   6   7
HETATM    7  O   UNL     1     -25.958  -3.162  -9.712  1.00  0.00    -0.395 OA
HETATM    8  H   UNL     1     -26.425  -3.138  -8.856  1.00  0.00     0.209 HD
ENDBRANCH   6   7
ENDBRANCH   4   6
BRANCH   4   9
HETATM    9  O   UNL     1     -24.456  -5.170 -11.064  1.00  0.00    -0.362 OA
HETATM   10  H   UNL     1     -23.976  -5.468 -11.855  1.00  0.00     0.213 HD
ENDBRANCH   4   9
BRANCH   3  11
HETATM   11  O   UNL     1     -24.721  -3.239 -12.848  1.00  0.00    -0.387 OA
HETATM   12  H   UNL     1     -24.646  -4.200 -13.023  1.00  0.00     0.210 HD
ENDBRANCH   3  11
BRANCH   2  13
HETATM   13  O   UNL     1     -22.331  -3.398 -13.716  1.00  0.00    -0.390 OA
HETATM   14  H   UNL     1     -23.264  -3.341 -14.018  1.00  0.00     0.210 HD
ENDBRANCH   2  13
BRANCH   1  15
HETATM   15  C   UNL     1     -20.238  -3.807 -11.149  1.00  0.00     0.198 C 
BRANCH  15  16
HETATM   16  O   UNL     1     -19.975  -2.421 -11.373  1.00  0.00    -0.398 OA
HETATM   17  H   UNL     1     -19.195  -2.197 -10.833  1.00  0.00     0.209 HD
ENDBRANCH  15  16
ENDBRANCH   1  15
TORSDOF 7
ENDMDL
MODEL 5
REMARK VINA RESULT:      -5.4      1.452      2.930
REMARK  7 active torsions:
REMARK  status: ('A' for Active; 'I' for Inactive)
REMARK    1  A    between atoms: C_1  and  C_2 
REMARK    2  A    between atoms: C_1  and  O_12 
REMARK    3  A    between atoms: C_3  and  O_11 
REMARK    4  A    between atoms: C_4  and  O_10 
REMARK    5  A    between atoms: C_5  and  C_7 
REMARK    6  A    between atoms: C_5  and  O_9 
REMARK    7  A    between atoms: C_7  and  O_8 
ROOT
HETATM    1  C   UNL     1     -21.755  -3.575 -10.759  1.00  0.00     0.180 C 
HETATM    2  C   UNL     1     -22.930  -4.116  -9.954  1.00  0.00     0.183 C 
HETATM    3  C   UNL     1     -24.131  -4.013 -10.894  1.00  0.00     0.213 C 
HETATM    4  C   UNL     1     -23.547  -3.450 -12.205  1.00  0.00     0.213 C 
HETATM    5  O   UNL     1     -22.128  -3.659 -12.153  1.00  0.00    -0.341 OA
ENDROOT
BRANCH   4   6
HETATM    6  C   UNL     1     -24.123  -4.134 -13.457  1.00  0.00     0.235 C 
BRANCH   6   7
HETATM    7  O   UNL     1     -23.619  -3.558 -14.661  1.00  0.00    -0.395 OA
HETATM    8  H   UNL     1     -22.791  -4.032 -14.865  1.00  0.00     0.209 HD
ENDBRANCH   6   7
ENDBRANCH   4   6
BRANCH   4   9
HETATM    9  O   UNL     1     -23.813  -2.052 -12.308  1.00  0.00    -0.362 OA
HETATM   10  H   UNL     1     -24.331  -1.812 -11.521  1.00  0.00     0.213 HD
ENDBRANCH   4   9
BRANCH   3  11
HETATM   11  O   UNL     1     -25.138  -3.166 -10.313  1.00  0.00    -0.387 OA
HETATM   12  H   UNL     1     -25.880  -3.753 -10.060  1.00  0.00     0.210 HD
ENDBRANCH   3  11
BRANCH   2  13
HETATM   13  O   UNL     1     -23.120  -3.345  -8.768  1.00  0.00    -0.390 OA
HETATM   14  H   UNL     1     -22.281  -2.850  -8.640  1.00  0.00     0.210 HD
ENDBRANCH   2  13
BRANCH   1  15
HETATM   15  C   UNL     1     -20.458  -4.334 -10.521  1.00  0.00     0.198 C 
BRANCH  15  16
HETATM   16  O   UNL     1     -20.368  -4.713  -9.147  1.00  0.00    -0.398 OA
HETATM   17  H   UNL     1     -21.280  -4.737  -8.805  1.00  0.00     0.209 HD
ENDBRANCH  15  16
ENDBRANCH   1  15
TORSDOF 7
ENDMDL
MODEL 6
REMARK VINA RESULT:      -5.4      1.661      3.498
REMARK  7 active torsions:
REMARK  status: ('A' for Active; 'I' for Inactive)
REMARK    1  A    between atoms: C_1  and  C_2 
REMARK    2  A    between atoms: C_1  and  O_12 
REMARK    3  A    between atoms: C_3  and  O_11 
REMARK    4  A    between atoms: C_4  and  O_10 
REMARK    5  A    between atoms: C_5  and  C_7 
REMARK    6  A    between atoms: C_5  and  O_9 
REMARK    7  A    between atoms: C_7  and  O_8 
ROOT
HETATM    1  C   UNL     1     -23.631  -3.177 -10.459  1.00  0.00     0.180 C 
HETATM    2  C   UNL     1     -23.826  -3.848 -11.813  1.00  0.00     0.183 C 
HETATM    3  C   UNL     1     -22.412  -4.104 -12.332  1.00  0.00     0.213 C 
HETATM    4  C   UNL     1     -21.490  -3.591 -11.208  1.00  0.00     0.213 C 
HETATM    5  O   UNL     1     -22.292  -3.498 -10.021  1.00  0.00    -0.341 OA
ENDROOT
BRANCH   4   6
HETATM    6  C   UNL     1     -20.292  -4.520 -10.949  1.00  0.00     0.235 C 
BRANCH   6   7
HETATM    7  O   UNL     1     -20.061  -4.720  -9.555  1.00  0.00    -0.395 OA
HETATM    8  H   UNL     1     -19.231  -5.228  -9.485  1.00  0.00     0.209 HD
ENDBRANCH   6   7
ENDBRANCH   4   6
BRANCH   4   9
HETATM    9  O   UNL     1     -20.979  -2.299 -11.533  1.00  0.00    -0.362 OA
HETATM   10  H   UNL     1     -21.360  -1.682 -10.884  1.00  0.00     0.213 HD
ENDBRANCH   4   9
BRANCH   3  11
HETATM   11  O   UNL     1     -22.216  -3.418 -13.581  1.00  0.00    -0.387 OA
HETATM   12  H   UNL     1     -21.876  -4.086 -14.213  1.00  0.00     0.210 HD
ENDBRANCH   3  11
BRANCH   2  13
HETATM   13  O   UNL     1     -24.565  -2.999 -12.690  1.00  0.00    -0.390 OA
HETATM   14  H   UNL     1     -23.929  -2.312 -12.988  1.00  0.00     0.210 HD
ENDBRANCH   2  13
BRANCH   1  15
HETATM   15  C   UNL     1     -24.642  -3.621  -9.413  1.00  0.00     0.198 C 
BRANCH  15  16
HETATM   16  O   UNL     1     -25.956  -3.236  -9.818  1.00  0.00    -0.398 OA
HETATM   17  H   UNL     1     -25.847  -2.640 -10.582  1.00  0.00     0.209 HD
ENDBRANCH  15  16
ENDBRANCH   1  15
TORSDOF 7
ENDMDL
MODEL 7
REMARK VINA RESULT:      -5.4      2.047      3.273
REMARK  7 active torsions:
REMARK  status: ('A' for Active; 'I' for Inactive)
REMARK    1  A    between atoms: C_1  and  C_2 
REMARK    2  A    between atoms: C_1  and  O_12 
REMARK    3  A    between atoms: C_3  and  O_11 
REMARK    4  A    between atoms: C_4  and  O_10 
REMARK    5  A    between atoms: C_5  and  C_7 
REMARK    6  A    between atoms: C_5  and  O_9 
REMARK    7  A    between atoms: C_7  and  O_8 
ROOT
HETATM    1  C   UNL     1     -23.130  -3.644  -8.956  1.00  0.00     0.180 C 
HETATM    2  C   UNL     1     -24.231  -4.330  -9.754  1.00  0.00     0.183 C 
HETATM    3  C   UNL     1     -23.778  -4.236 -11.210  1.00  0.00     0.213 C 
HETATM    4  C   UNL     1     -22.411  -3.527 -11.143  1.00  0.00     0.213 C 
HETATM    5  O   UNL     1     -21.949  -3.639  -9.789  1.00  0.00    -0.341 OA
ENDROOT
BRANCH   4   6
HETATM    6  C   UNL     1     -21.372  -4.146 -12.095  1.00  0.00     0.235 C 
BRANCH   6   7
HETATM    7  O   UNL     1     -20.042  -3.752 -11.763  1.00  0.00    -0.395 OA
HETATM    8  H   UNL     1     -19.656  -4.490 -11.256  1.00  0.00     0.209 HD
ENDBRANCH   6   7
ENDBRANCH   4   6
BRANCH   4   9
HETATM    9  O   UNL     1     -22.548  -2.148 -11.482  1.00  0.00    -0.362 OA
HETATM   10  H   UNL     1     -21.928  -1.663 -10.911  1.00  0.00     0.213 HD
ENDBRANCH   4   9
BRANCH   3  11
HETATM   11  O   UNL     1     -24.754  -3.513 -11.982  1.00  0.00    -0.387 OA
HETATM   12  H   UNL     1     -24.497  -2.569 -11.936  1.00  0.00     0.210 HD
ENDBRANCH   3  11
BRANCH   2  13
HETATM   13  O   UNL     1     -25.482  -3.675  -9.546  1.00  0.00    -0.390 OA
HETATM   14  H   UNL     1     -26.167  -4.357  -9.718  1.00  0.00     0.210 HD
ENDBRANCH   2  13
BRANCH   1  15
HETATM   15  C   UNL     1     -22.828  -4.325  -7.630  1.00  0.00     0.198 C 
BRANCH  15  16
HETATM   16  O   UNL     1     -24.011  -4.369  -6.831  1.00  0.00    -0.398 OA
HETATM   17  H   UNL     1     -24.112  -3.484  -6.436  1.00  0.00     0.209 HD
ENDBRANCH  15  16
ENDBRANCH   1  15
TORSDOF 7
ENDMDL
MODEL 8
REMARK VINA RESULT:      -5.0      6.316      7.759
REMARK  7 active torsions:
REMARK  status: ('A' for Active; 'I' for Inactive)
REMARK    1  A    between atoms: C_1  and  C_2 
REMARK    2  A    between atoms: C_1  and  O_12 
REMARK    3  A    between atoms: C_3  and  O_11 
REMARK    4  A    between atoms: C_4  and  O_10 
REMARK    5  A    between atoms: C_5  and  C_7 
REMARK    6  A    between atoms: C_5  and  O_9 
REMARK    7  A    between atoms: C_7  and  O_8 
ROOT
HETATM    1  C   UNL     1     -26.627  -6.954 -16.182  1.00  0.00     0.180 C 
HETATM    2  C   UNL     1     -26.550  -6.256 -17.535  1.00  0.00     0.183 C 
HETATM    3  C   UNL     1     -27.987  -6.248 -18.055  1.00  0.00     0.213 C 
HETATM    4  C   UNL     1     -28.806  -6.915 -16.932  1.00  0.00     0.213 C 
HETATM    5  O   UNL     1     -28.001  -6.870 -15.745  1.00  0.00    -0.341 OA
ENDROOT
BRANCH   4   6
HETATM    6  C   UNL     1     -30.148  -6.207 -16.672  1.00  0.00     0.235 C 
BRANCH   6   7
HETATM    7  O   UNL     1     -30.128  -5.449 -15.464  1.00  0.00    -0.395 OA
HETATM    8  H   UNL     1     -30.938  -5.689 -14.977  1.00  0.00     0.209 HD
ENDBRANCH   6   7
ENDBRANCH   4   6
BRANCH   4   9
HETATM    9  O   UNL     1     -29.086  -8.275 -17.260  1.00  0.00    -0.362 OA
HETATM   10  H   UNL     1     -28.775  -8.808 -16.508  1.00  0.00     0.213 HD
ENDBRANCH   4   9
BRANCH   3  11
HETATM   11  O   UNL     1     -28.061  -6.954 -19.305  1.00  0.00    -0.387 OA
HETATM   12  H   UNL     1     -27.319  -7.595 -19.305  1.00  0.00     0.210 HD
ENDBRANCH   3  11
BRANCH   2  13
HETATM   13  O   UNL     1     -25.675  -6.963 -18.412  1.00  0.00    -0.390 OA
HETATM   14  H   UNL     1     -25.374  -6.301 -19.073  1.00  0.00     0.210 HD
ENDBRANCH   2  13
BRANCH   1  15
HETATM   15  C   UNL     1     -25.709  -6.344 -15.134  1.00  0.00     0.198 C 
BRANCH  15  16
HETATM   16  O   UNL     1     -24.627  -5.668 -15.776  1.00  0.00    -0.398 OA
HETATM   17  H   UNL     1     -24.255  -5.052 -15.118  1.00  0.00     0.209 HD
ENDBRANCH  15  16
ENDBRANCH   1  15
TORSDOF 7
ENDMDL
MODEL 9
REMARK VINA RESULT:      -5.0      7.071      8.752
REMARK  7 active torsions:
REMARK  status: ('A' for Active; 'I' for Inactive)
REMARK    1  A    between atoms: C_1  and  C_2 
REMARK    2  A    between atoms: C_1  and  O_12 
REMARK    3  A    between atoms: C_3  and  O_11 
REMARK    4  A    between atoms: C_4  and  O_10 
REMARK    5  A    between atoms: C_5  and  C_7 
REMARK    6  A    between atoms: C_5  and  O_9 
REMARK    7  A    between atoms: C_7  and  O_8 
ROOT
HETATM    1  C   UNL     1     -26.575  -6.247 -18.718  1.00  0.00     0.180 C 
HETATM    2  C   UNL     1     -26.618  -6.573 -17.230  1.00  0.00     0.183 C 
HETATM    3  C   UNL     1     -28.097  -6.803 -16.921  1.00  0.00     0.213 C 
HETATM    4  C   UNL     1     -28.805  -6.630 -18.279  1.00  0.00     0.213 C 
HETATM    5  O   UNL     1     -27.799  -6.755 -19.294  1.00  0.00    -0.341 OA
ENDROOT
BRANCH   4   6
HETATM    6  C   UNL     1     -29.908  -7.677 -18.514  1.00  0.00     0.235 C 
BRANCH   6   7
HETATM    7  O   UNL     1     -29.403  -8.852 -19.147  1.00  0.00    -0.395 OA
HETATM    8  H   UNL     1     -29.237  -8.613 -20.077  1.00  0.00     0.209 HD
ENDBRANCH   6   7
ENDBRANCH   4   6
BRANCH   4   9
HETATM    9  O   UNL     1     -29.404  -5.338 -18.367  1.00  0.00    -0.362 OA
HETATM   10  H   UNL     1     -30.052  -5.286 -17.644  1.00  0.00     0.213 HD
ENDBRANCH   4   9
BRANCH   3  11
HETATM   11  O   UNL     1     -28.542  -5.865 -15.926  1.00  0.00    -0.387 OA
HETATM   12  H   UNL     1     -28.639  -6.371 -15.093  1.00  0.00     0.210 HD
ENDBRANCH   3  11
BRANCH   2  13
HETATM   13  O   UNL     1     -26.080  -5.494 -16.466  1.00  0.00    -0.390 OA
HETATM   14  H   UNL     1     -26.787  -4.811 -16.443  1.00  0.00     0.210 HD
ENDBRANCH   2  13
BRANCH   1  15
HETATM   15  C   UNL     1     -25.374  -6.846 -19.434  1.00  0.00     0.198 C 
BRANCH  15  16
HETATM   16  O   UNL     1     -24.200  -6.666 -18.640  1.00  0.00    -0.398 OA
HETATM   17  H   UNL     1     -24.166  -7.418 -18.022  1.00  0.00     0.209 HD
ENDBRANCH  15  16
ENDBRANCH   1  15
TORSDOF 7
ENDMDL
