MODEL 1
REMARK VINA RESULT:      -7.0      0.000      0.000
REMARK  19 active torsions:
REMARK  status: ('A' for Active; 'I' for Inactive)
REMARK    1  A    between atoms: C_2  and  C_4 
REMARK    2  A    between atoms: C_4  and  C_5 
REMARK    3  A    between atoms: C_5  and  C_6 
REMARK    4  A    between atoms: C_6  and  C_7 
REMARK    5  A    between atoms: C_7  and  C_8 
REMARK    6  A    between atoms: C_8  and  C_9 
REMARK    7  A    between atoms: C_9  and  C_10 
REMARK    8  A    between atoms: C_10  and  C_11 
REMARK    9  A    between atoms: C_11  and  C_12 
REMARK   10  A    between atoms: C_12  and  C_13 
REMARK   11  A    between atoms: C_13  and  C_14 
REMARK   12  A    between atoms: C_14  and  C_15 
REMARK   13  A    between atoms: C_15  and  C_16 
REMARK   14  A    between atoms: C_16  and  C_17 
REMARK   15  A    between atoms: C_17  and  C_18 
REMARK   16  A    between atoms: C_18  and  O_20 
REMARK   17  A    between atoms: O_20  and  C_21 
REMARK   18  A    between atoms: C_21  and  C_22 
REMARK   19  A    between atoms: C_22  and  O_24 
ROOT
HETATM    1  C   UNL     1     -20.368  -5.877  -6.307  1.00  0.00     0.000 C 
ENDROOT
BRANCH   1   2
HETATM    2  C   UNL     1     -21.242  -5.568  -5.100  1.00  0.00     0.000 C 
BRANCH   2   3
HETATM    3  C   UNL     1     -22.216  -6.708  -4.848  1.00  0.00     0.000 C 
BRANCH   3   4
HETATM    4  C   UNL     1     -21.660  -7.654  -3.795  1.00  0.00     0.000 C 
BRANCH   4   5
HETATM    5  C   UNL     1     -21.074  -6.866  -2.636  1.00  0.00     0.000 C 
BRANCH   5   6
HETATM    6  C   UNL     1     -22.190  -6.274  -1.790  1.00  0.00     0.000 C 
BRANCH   6   7
HETATM    7  C   UNL     1     -22.587  -7.245  -0.692  1.00  0.00     0.000 C 
BRANCH   7   8
HETATM    8  C   UNL     1     -21.376  -8.035  -0.215  1.00  0.00     0.000 C 
BRANCH   8   9
HETATM    9  C   UNL     1     -21.821  -9.409   0.261  1.00  0.00     0.000 C 
BRANCH   9  10
HETATM   10  C   UNL     1     -23.332  -9.575   0.139  1.00  0.00     0.004 C 
BRANCH  10  11
HETATM   11  C   UNL     1     -23.724 -10.891  -0.550  1.00  0.00    -0.023 C 
HETATM   12  C   UNL     1     -23.130 -10.927  -1.958  1.00  0.00     0.009 C 
HETATM   13  C   UNL     1     -23.267 -12.121   0.239  1.00  0.00     0.009 C 
ENDBRANCH  10  11
ENDBRANCH   9  10
ENDBRANCH   8   9
ENDBRANCH   7   8
ENDBRANCH   6   7
ENDBRANCH   5   6
ENDBRANCH   4   5
ENDBRANCH   3   4
ENDBRANCH   2   3
ENDBRANCH   1   2
BRANCH   1  14
HETATM   14  C   UNL     1     -20.180  -4.629  -7.156  1.00  0.00     0.000 C 
BRANCH  14  15
HETATM   15  C   UNL     1     -20.733  -4.834  -8.563  1.00  0.00     0.000 C 
BRANCH  15  16
HETATM   16  C   UNL     1     -21.993  -3.999  -8.749  1.00  0.00     0.010 C 
BRANCH  16  17
HETATM   17  C   UNL     1     -23.053  -4.731  -9.562  1.00  0.00     0.111 C 
BRANCH  17  18
HETATM   18  C   UNL     1     -24.017  -3.742 -10.170  1.00  0.00     0.258 C 
HETATM   19  O   UNL     1     -24.697  -2.955  -9.543  1.00  0.00    -0.265 OA
BRANCH  18  20
HETATM   20  O   UNL     1     -24.067  -3.940 -11.521  1.00  0.00    -0.319 OA
BRANCH  20  21
HETATM   21  C   UNL     1     -22.943  -3.381 -12.210  1.00  0.00     0.210 C 
BRANCH  21  22
HETATM   22  C   UNL     1     -23.353  -2.377 -13.288  1.00  0.00     0.138 C 
HETATM   23  C   UNL     1     -22.848  -2.778 -14.664  1.00  0.00     0.041 C 
BRANCH  22  24
HETATM   24  O   UNL     1     -24.773  -2.254 -13.317  1.00  0.00    -0.394 OA
HETATM   25  H   UNL     1     -24.993  -1.309 -13.394  1.00  0.00     0.210 HD
ENDBRANCH  22  24
ENDBRANCH  21  22
ENDBRANCH  20  21
ENDBRANCH  18  20
ENDBRANCH  17  18
ENDBRANCH  16  17
ENDBRANCH  15  16
ENDBRANCH  14  15
ENDBRANCH   1  14
TORSDOF 19
ENDMDL
MODEL 2
REMARK VINA RESULT:      -6.8      1.440      2.301
REMARK  19 active torsions:
REMARK  status: ('A' for Active; 'I' for Inactive)
REMARK    1  A    between atoms: C_2  and  C_4 
REMARK    2  A    between atoms: C_4  and  C_5 
REMARK    3  A    between atoms: C_5  and  C_6 
REMARK    4  A    between atoms: C_6  and  C_7 
REMARK    5  A    between atoms: C_7  and  C_8 
REMARK    6  A    between atoms: C_8  and  C_9 
REMARK    7  A    between atoms: C_9  and  C_10 
REMARK    8  A    between atoms: C_10  and  C_11 
REMARK    9  A    between atoms: C_11  and  C_12 
REMARK   10  A    between atoms: C_12  and  C_13 
REMARK   11  A    between atoms: C_13  and  C_14 
REMARK   12  A    between atoms: C_14  and  C_15 
REMARK   13  A    between atoms: C_15  and  C_16 
REMARK   14  A    between atoms: C_16  and  C_17 
REMARK   15  A    between atoms: C_17  and  C_18 
REMARK   16  A    between atoms: C_18  and  O_20 
REMARK   17  A    between atoms: O_20  and  C_21 
REMARK   18  A    between atoms: C_21  and  C_22 
REMARK   19  A    between atoms: C_22  and  O_24 
ROOT
HETATM    1  C   UNL     1     -20.796  -4.873  -6.388  1.00  0.00     0.000 C 
ENDROOT
BRANCH   1   2
HETATM    2  C   UNL     1     -20.467  -6.354  -6.262  1.00  0.00     0.000 C 
BRANCH   2   3
HETATM    3  C   UNL     1     -21.412  -7.024  -5.278  1.00  0.00     0.000 C 
BRANCH   3   4
HETATM    4  C   UNL     1     -21.046  -8.490  -5.109  1.00  0.00     0.000 C 
BRANCH   4   5
HETATM    5  C   UNL     1     -19.764  -8.624  -4.304  1.00  0.00     0.000 C 
BRANCH   5   6
HETATM    6  C   UNL     1     -20.065  -8.513  -2.819  1.00  0.00     0.000 C 
BRANCH   6   7
HETATM    7  C   UNL     1     -19.698  -9.806  -2.112  1.00  0.00     0.000 C 
BRANCH   7   8
HETATM    8  C   UNL     1     -20.949 -10.601  -1.770  1.00  0.00     0.000 C 
BRANCH   8   9
HETATM    9  C   UNL     1     -22.150  -9.669  -1.731  1.00  0.00     0.000 C 
BRANCH   9  10
HETATM   10  C   UNL     1     -22.806  -9.669  -0.354  1.00  0.00     0.004 C 
BRANCH  10  11
HETATM   11  C   UNL     1     -22.595  -8.345   0.397  1.00  0.00    -0.023 C 
HETATM   12  C   UNL     1     -21.340  -8.445   1.264  1.00  0.00     0.009 C 
HETATM   13  C   UNL     1     -22.478  -7.150  -0.552  1.00  0.00     0.009 C 
ENDBRANCH  10  11
ENDBRANCH   9  10
ENDBRANCH   8   9
ENDBRANCH   7   8
ENDBRANCH   6   7
ENDBRANCH   5   6
ENDBRANCH   4   5
ENDBRANCH   3   4
ENDBRANCH   2   3
ENDBRANCH   1   2
BRANCH   1  14
HETATM   14  C   UNL     1     -20.114  -4.282  -7.612  1.00  0.00     0.000 C 
BRANCH  14  15
HETATM   15  C   UNL     1     -21.027  -4.342  -8.831  1.00  0.00     0.000 C 
BRANCH  15  16
HETATM   16  C   UNL     1     -22.311  -3.572  -8.554  1.00  0.00     0.010 C 
BRANCH  16  17
HETATM   17  C   UNL     1     -23.546  -4.315  -9.049  1.00  0.00     0.111 C 
BRANCH  17  18
HETATM   18  C   UNL     1     -24.246  -3.507 -10.114  1.00  0.00     0.258 C 
HETATM   19  O   UNL     1     -25.413  -3.171 -10.082  1.00  0.00    -0.265 OA
BRANCH  18  20
HETATM   20  O   UNL     1     -23.385  -3.296 -11.153  1.00  0.00    -0.319 OA
BRANCH  20  21
HETATM   21  C   UNL     1     -24.031  -2.775 -12.320  1.00  0.00     0.210 C 
BRANCH  21  22
HETATM   22  C   UNL     1     -23.314  -3.163 -13.613  1.00  0.00     0.138 C 
HETATM   23  C   UNL     1     -23.354  -2.048 -14.645  1.00  0.00     0.041 C 
BRANCH  22  24
HETATM   24  O   UNL     1     -21.959  -3.505 -13.330  1.00  0.00    -0.394 OA
HETATM   25  H   UNL     1     -21.875  -4.473 -13.383  1.00  0.00     0.210 HD
ENDBRANCH  22  24
ENDBRANCH  21  22
ENDBRANCH  20  21
ENDBRANCH  18  20
ENDBRANCH  17  18
ENDBRANCH  16  17
ENDBRANCH  15  16
ENDBRANCH  14  15
ENDBRANCH   1  14
TORSDOF 19
ENDMDL
MODEL 3
REMARK VINA RESULT:      -6.6      1.388      2.729
REMARK  19 active torsions:
REMARK  status: ('A' for Active; 'I' for Inactive)
REMARK    1  A    between atoms: C_2  and  C_4 
REMARK    2  A    between atoms: C_4  and  C_5 
REMARK    3  A    between atoms: C_5  and  C_6 
REMARK    4  A    between atoms: C_6  and  C_7 
REMARK    5  A    between atoms: C_7  and  C_8 
REMARK    6  A    between atoms: C_8  and  C_9 
REMARK    7  A    between atoms: C_9  and  C_10 
REMARK    8  A    between atoms: C_10  and  C_11 
REMARK    9  A    between atoms: C_11  and  C_12 
REMARK   10  A    between atoms: C_12  and  C_13 
REMARK   11  A    between atoms: C_13  and  C_14 
REMARK   12  A    between atoms: C_14  and  C_15 
REMARK   13  A    between atoms: C_15  and  C_16 
REMARK   14  A    between atoms: C_16  and  C_17 
REMARK   15  A    between atoms: C_17  and  C_18 
REMARK   16  A    between atoms: C_18  and  O_20 
REMARK   17  A    between atoms: O_20  and  C_21 
REMARK   18  A    between atoms: C_21  and  C_22 
REMARK   19  A    between atoms: C_22  and  O_24 
ROOT
HETATM    1  C   UNL     1     -21.602  -7.499  -5.034  1.00  0.00     0.000 C 
ENDROOT
BRANCH   1   2
HETATM    2  C   UNL     1     -21.283  -7.536  -3.546  1.00  0.00     0.000 C 
BRANCH   2   3
HETATM    3  C   UNL     1     -21.724  -6.242  -2.880  1.00  0.00     0.000 C 
BRANCH   3   4
HETATM    4  C   UNL     1     -22.203  -6.515  -1.462  1.00  0.00     0.000 C 
BRANCH   4   5
HETATM    5  C   UNL     1     -21.413  -7.660  -0.851  1.00  0.00     0.000 C 
BRANCH   5   6
HETATM    6  C   UNL     1     -22.034  -8.075   0.473  1.00  0.00     0.000 C 
BRANCH   6   7
HETATM    7  C   UNL     1     -23.302  -8.873   0.229  1.00  0.00     0.000 C 
BRANCH   7   8
HETATM    8  C   UNL     1     -22.975 -10.210  -0.419  1.00  0.00     0.000 C 
BRANCH   8   9
HETATM    9  C   UNL     1     -24.120 -11.183  -0.187  1.00  0.00     0.000 C 
BRANCH   9  10
HETATM   10  C   UNL     1     -23.621 -12.623  -0.131  1.00  0.00     0.004 C 
BRANCH  10  11
HETATM   11  C   UNL     1     -22.706 -12.880   1.076  1.00  0.00    -0.023 C 
HETATM   12  C   UNL     1     -23.397 -13.840   2.045  1.00  0.00     0.009 C 
HETATM   13  C   UNL     1     -21.345 -13.447   0.665  1.00  0.00     0.009 C 
ENDBRANCH  10  11
ENDBRANCH   9  10
ENDBRANCH   8   9
ENDBRANCH   7   8
ENDBRANCH   6   7
ENDBRANCH   5   6
ENDBRANCH   4   5
ENDBRANCH   3   4
ENDBRANCH   2   3
ENDBRANCH   1   2
BRANCH   1  14
HETATM   14  C   UNL     1     -21.287  -6.126  -5.608  1.00  0.00     0.000 C 
BRANCH  14  15
HETATM   15  C   UNL     1     -20.375  -6.237  -6.826  1.00  0.00     0.000 C 
BRANCH  15  16
HETATM   16  C   UNL     1     -20.272  -4.884  -7.518  1.00  0.00     0.010 C 
BRANCH  16  17
HETATM   17  C   UNL     1     -21.464  -3.988  -7.208  1.00  0.00     0.111 C 
BRANCH  17  18
HETATM   18  C   UNL     1     -22.546  -4.185  -8.241  1.00  0.00     0.258 C 
HETATM   19  O   UNL     1     -23.739  -4.170  -8.015  1.00  0.00    -0.265 OA
BRANCH  18  20
HETATM   20  O   UNL     1     -21.966  -4.471  -9.445  1.00  0.00    -0.319 OA
BRANCH  20  21
HETATM   21  C   UNL     1     -22.075  -3.399 -10.388  1.00  0.00     0.210 C 
BRANCH  21  22
HETATM   22  C   UNL     1     -23.273  -3.559 -11.325  1.00  0.00     0.138 C 
HETATM   23  C   UNL     1     -23.531  -5.014 -11.680  1.00  0.00     0.041 C 
BRANCH  22  24
HETATM   24  O   UNL     1     -24.437  -3.001 -10.721  1.00  0.00    -0.394 OA
HETATM   25  H   UNL     1     -24.164  -2.544  -9.905  1.00  0.00     0.210 HD
ENDBRANCH  22  24
ENDBRANCH  21  22
ENDBRANCH  20  21
ENDBRANCH  18  20
ENDBRANCH  17  18
ENDBRANCH  16  17
ENDBRANCH  15  16
ENDBRANCH  14  15
ENDBRANCH   1  14
TORSDOF 19
ENDMDL
MODEL 4
REMARK VINA RESULT:      -6.5      1.889      3.144
REMARK  19 active torsions:
REMARK  status: ('A' for Active; 'I' for Inactive)
REMARK    1  A    between atoms: C_2  and  C_4 
REMARK    2  A    between atoms: C_4  and  C_5 
REMARK    3  A    between atoms: C_5  and  C_6 
REMARK    4  A    between atoms: C_6  and  C_7 
REMARK    5  A    between atoms: C_7  and  C_8 
REMARK    6  A    between atoms: C_8  and  C_9 
REMARK    7  A    between atoms: C_9  and  C_10 
REMARK    8  A    between atoms: C_10  and  C_11 
REMARK    9  A    between atoms: C_11  and  C_12 
REMARK   10  A    between atoms: C_12  and  C_13 
REMARK   11  A    between atoms: C_13  and  C_14 
REMARK   12  A    between atoms: C_14  and  C_15 
REMARK   13  A    between atoms: C_15  and  C_16 
REMARK   14  A    between atoms: C_16  and  C_17 
REMARK   15  A    between atoms: C_17  and  C_18 
REMARK   16  A    between atoms: C_18  and  O_20 
REMARK   17  A    between atoms: O_20  and  C_21 
REMARK   18  A    between atoms: C_21  and  C_22 
REMARK   19  A    between atoms: C_22  and  O_24 
ROOT
HETATM    1  C   UNL     1     -21.807  -6.579  -5.048  1.00  0.00     0.000 C 
ENDROOT
BRANCH   1   2
HETATM    2  C   UNL     1     -21.830  -7.467  -3.812  1.00  0.00     0.000 C 
BRANCH   2   3
HETATM    3  C   UNL     1     -21.298  -6.709  -2.607  1.00  0.00     0.000 C 
BRANCH   3   4
HETATM    4  C   UNL     1     -22.372  -6.601  -1.535  1.00  0.00     0.000 C 
BRANCH   4   5
HETATM    5  C   UNL     1     -21.944  -7.348  -0.283  1.00  0.00     0.000 C 
BRANCH   5   6
HETATM    6  C   UNL     1     -23.006  -8.362   0.109  1.00  0.00     0.000 C 
BRANCH   6   7
HETATM    7  C   UNL     1     -22.507  -9.772  -0.154  1.00  0.00     0.000 C 
BRANCH   7   8
HETATM    8  C   UNL     1     -21.097  -9.949   0.392  1.00  0.00     0.000 C 
BRANCH   8   9
HETATM    9  C   UNL     1     -20.301 -10.850  -0.539  1.00  0.00     0.000 C 
BRANCH   9  10
HETATM   10  C   UNL     1     -20.281 -10.298  -1.960  1.00  0.00     0.004 C 
BRANCH  10  11
HETATM   11  C   UNL     1     -18.889  -9.800  -2.377  1.00  0.00    -0.023 C 
HETATM   12  C   UNL     1     -17.855 -10.895  -2.116  1.00  0.00     0.009 C 
HETATM   13  C   UNL     1     -18.838  -9.376  -3.847  1.00  0.00     0.009 C 
ENDBRANCH  10  11
ENDBRANCH   9  10
ENDBRANCH   8   9
ENDBRANCH   7   8
ENDBRANCH   6   7
ENDBRANCH   5   6
ENDBRANCH   4   5
ENDBRANCH   3   4
ENDBRANCH   2   3
ENDBRANCH   1   2
BRANCH   1  14
HETATM   14  C   UNL     1     -20.787  -5.464  -4.879  1.00  0.00     0.000 C 
BRANCH  14  15
HETATM   15  C   UNL     1     -20.033  -5.208  -6.180  1.00  0.00     0.000 C 
BRANCH  15  16
HETATM   16  C   UNL     1     -20.835  -5.749  -7.356  1.00  0.00     0.010 C 
BRANCH  16  17
HETATM   17  C   UNL     1     -21.106  -4.680  -8.407  1.00  0.00     0.111 C 
BRANCH  17  18
HETATM   18  C   UNL     1     -22.519  -4.167  -8.274  1.00  0.00     0.258 C 
HETATM   19  O   UNL     1     -23.240  -4.347  -7.314  1.00  0.00    -0.265 OA
BRANCH  18  20
HETATM   20  O   UNL     1     -22.882  -3.550  -9.438  1.00  0.00    -0.319 OA
BRANCH  20  21
HETATM   21  C   UNL     1     -23.609  -4.409 -10.324  1.00  0.00     0.210 C 
BRANCH  21  22
HETATM   22  C   UNL     1     -23.792  -3.802 -11.715  1.00  0.00     0.138 C 
HETATM   23  C   UNL     1     -22.784  -2.700 -11.994  1.00  0.00     0.041 C 
BRANCH  22  24
HETATM   24  O   UNL     1     -23.675  -4.821 -12.705  1.00  0.00    -0.394 OA
HETATM   25  H   UNL     1     -23.412  -4.399 -13.542  1.00  0.00     0.210 HD
ENDBRANCH  22  24
ENDBRANCH  21  22
ENDBRANCH  20  21
ENDBRANCH  18  20
ENDBRANCH  17  18
ENDBRANCH  16  17
ENDBRANCH  15  16
ENDBRANCH  14  15
ENDBRANCH   1  14
TORSDOF 19
ENDMDL
MODEL 5
REMARK VINA RESULT:      -6.4      1.383      2.420
REMARK  19 active torsions:
REMARK  status: ('A' for Active; 'I' for Inactive)
REMARK    1  A    between atoms: C_2  and  C_4 
REMARK    2  A    between atoms: C_4  and  C_5 
REMARK    3  A    between atoms: C_5  and  C_6 
REMARK    4  A    between atoms: C_6  and  C_7 
REMARK    5  A    between atoms: C_7  and  C_8 
REMARK    6  A    between atoms: C_8  and  C_9 
REMARK    7  A    between atoms: C_9  and  C_10 
REMARK    8  A    between atoms: C_10  and  C_11 
REMARK    9  A    between atoms: C_11  and  C_12 
REMARK   10  A    between atoms: C_12  and  C_13 
REMARK   11  A    between atoms: C_13  and  C_14 
REMARK   12  A    between atoms: C_14  and  C_15 
REMARK   13  A    between atoms: C_15  and  C_16 
REMARK   14  A    between atoms: C_16  and  C_17 
REMARK   15  A    between atoms: C_17  and  C_18 
REMARK   16  A    between atoms: C_18  and  O_20 
REMARK   17  A    between atoms: O_20  and  C_21 
REMARK   18  A    between atoms: C_21  and  C_22 
REMARK   19  A    between atoms: C_22  and  O_24 
ROOT
HETATM    1  C   UNL     1     -20.501  -7.327  -5.265  1.00  0.00     0.000 C 
ENDROOT
BRANCH   1   2
HETATM    2  C   UNL     1     -21.689  -7.649  -4.369  1.00  0.00     0.000 C 
BRANCH   2   3
HETATM    3  C   UNL     1     -21.213  -8.236  -3.050  1.00  0.00     0.000 C 
BRANCH   3   4
HETATM    4  C   UNL     1     -20.983  -7.129  -2.033  1.00  0.00     0.000 C 
BRANCH   4   5
HETATM    5  C   UNL     1     -22.303  -6.702  -1.413  1.00  0.00     0.000 C 
BRANCH   5   6
HETATM    6  C   UNL     1     -22.669  -7.633  -0.269  1.00  0.00     0.000 C 
BRANCH   6   7
HETATM    7  C   UNL     1     -21.449  -7.915   0.589  1.00  0.00     0.000 C 
BRANCH   7   8
HETATM    8  C   UNL     1     -21.333  -9.405   0.878  1.00  0.00     0.000 C 
BRANCH   8   9
HETATM    9  C   UNL     1     -22.367 -10.164   0.063  1.00  0.00     0.000 C 
BRANCH   9  10
HETATM   10  C   UNL     1     -21.710 -11.220  -0.819  1.00  0.00     0.004 C 
BRANCH  10  11
HETATM   11  C   UNL     1     -22.720 -11.933  -1.733  1.00  0.00    -0.023 C 
HETATM   12  C   UNL     1     -24.081 -11.992  -1.041  1.00  0.00     0.009 C 
HETATM   13  C   UNL     1     -22.858 -11.247  -3.095  1.00  0.00     0.009 C 
ENDBRANCH  10  11
ENDBRANCH   9  10
ENDBRANCH   8   9
ENDBRANCH   7   8
ENDBRANCH   6   7
ENDBRANCH   5   6
ENDBRANCH   4   5
ENDBRANCH   3   4
ENDBRANCH   2   3
ENDBRANCH   1   2
BRANCH   1  14
HETATM   14  C   UNL     1     -20.667  -5.949  -5.887  1.00  0.00     0.000 C 
BRANCH  14  15
HETATM   15  C   UNL     1     -20.046  -5.898  -7.279  1.00  0.00     0.000 C 
BRANCH  15  16
HETATM   16  C   UNL     1     -19.729  -4.455  -7.650  1.00  0.00     0.010 C 
BRANCH  16  17
HETATM   17  C   UNL     1     -20.935  -3.734  -8.238  1.00  0.00     0.111 C 
BRANCH  17  18
HETATM   18  C   UNL     1     -21.324  -4.360  -9.555  1.00  0.00     0.258 C 
HETATM   19  O   UNL     1     -20.566  -4.565 -10.482  1.00  0.00    -0.265 OA
BRANCH  18  20
HETATM   20  O   UNL     1     -22.673  -4.573  -9.567  1.00  0.00    -0.319 OA
BRANCH  20  21
HETATM   21  C   UNL     1     -23.240  -4.498 -10.881  1.00  0.00     0.210 C 
BRANCH  21  22
HETATM   22  C   UNL     1     -24.071  -3.233 -11.092  1.00  0.00     0.138 C 
HETATM   23  C   UNL     1     -24.504  -3.069 -12.540  1.00  0.00     0.041 C 
BRANCH  22  24
HETATM   24  O   UNL     1     -25.221  -3.264 -10.250  1.00  0.00    -0.394 OA
HETATM   25  H   UNL     1     -24.928  -3.111  -9.334  1.00  0.00     0.210 HD
ENDBRANCH  22  24
ENDBRANCH  21  22
ENDBRANCH  20  21
ENDBRANCH  18  20
ENDBRANCH  17  18
ENDBRANCH  16  17
ENDBRANCH  15  16
ENDBRANCH  14  15
ENDBRANCH   1  14
TORSDOF 19
ENDMDL
MODEL 6
REMARK VINA RESULT:      -6.3      2.242      4.574
REMARK  19 active torsions:
REMARK  status: ('A' for Active; 'I' for Inactive)
REMARK    1  A    between atoms: C_2  and  C_4 
REMARK    2  A    between atoms: C_4  and  C_5 
REMARK    3  A    between atoms: C_5  and  C_6 
REMARK    4  A    between atoms: C_6  and  C_7 
REMARK    5  A    between atoms: C_7  and  C_8 
REMARK    6  A    between atoms: C_8  and  C_9 
REMARK    7  A    between atoms: C_9  and  C_10 
REMARK    8  A    between atoms: C_10  and  C_11 
REMARK    9  A    between atoms: C_11  and  C_12 
REMARK   10  A    between atoms: C_12  and  C_13 
REMARK   11  A    between atoms: C_13  and  C_14 
REMARK   12  A    between atoms: C_14  and  C_15 
REMARK   13  A    between atoms: C_15  and  C_16 
REMARK   14  A    between atoms: C_16  and  C_17 
REMARK   15  A    between atoms: C_17  and  C_18 
REMARK   16  A    between atoms: C_18  and  O_20 
REMARK   17  A    between atoms: O_20  and  C_21 
REMARK   18  A    between atoms: C_21  and  C_22 
REMARK   19  A    between atoms: C_22  and  O_24 
ROOT
HETATM    1  C   UNL     1     -21.281  -6.365  -2.958  1.00  0.00     0.000 C 
ENDROOT
BRANCH   1   2
HETATM    2  C   UNL     1     -21.397  -7.305  -1.767  1.00  0.00     0.000 C 
BRANCH   2   3
HETATM    3  C   UNL     1     -22.470  -6.814  -0.809  1.00  0.00     0.000 C 
BRANCH   3   4
HETATM    4  C   UNL     1     -22.860  -7.921   0.159  1.00  0.00     0.000 C 
BRANCH   4   5
HETATM    5  C   UNL     1     -21.864  -9.065   0.079  1.00  0.00     0.000 C 
BRANCH   5   6
HETATM    6  C   UNL     1     -22.593 -10.378  -0.156  1.00  0.00     0.000 C 
BRANCH   6   7
HETATM    7  C   UNL     1     -21.973 -11.120  -1.326  1.00  0.00     0.000 C 
BRANCH   7   8
HETATM    8  C   UNL     1     -22.968 -11.236  -2.472  1.00  0.00     0.000 C 
BRANCH   8   9
HETATM    9  C   UNL     1     -22.444 -10.475  -3.680  1.00  0.00     0.000 C 
BRANCH   9  10
HETATM   10  C   UNL     1     -20.940 -10.241  -3.577  1.00  0.00     0.004 C 
BRANCH  10  11
HETATM   11  C   UNL     1     -20.295  -9.958  -4.943  1.00  0.00    -0.023 C 
HETATM   12  C   UNL     1     -18.994  -9.183  -4.742  1.00  0.00     0.009 C 
HETATM   13  C   UNL     1     -20.020 -11.239  -5.734  1.00  0.00     0.009 C 
ENDBRANCH  10  11
ENDBRANCH   9  10
ENDBRANCH   8   9
ENDBRANCH   7   8
ENDBRANCH   6   7
ENDBRANCH   5   6
ENDBRANCH   4   5
ENDBRANCH   3   4
ENDBRANCH   2   3
ENDBRANCH   1   2
BRANCH   1  14
HETATM   14  C   UNL     1     -22.313  -6.723  -4.016  1.00  0.00     0.000 C 
BRANCH  14  15
HETATM   15  C   UNL     1     -21.723  -6.613  -5.418  1.00  0.00     0.000 C 
BRANCH  15  16
HETATM   16  C   UNL     1     -20.475  -5.740  -5.386  1.00  0.00     0.010 C 
BRANCH  16  17
HETATM   17  C   UNL     1     -20.604  -4.521  -6.290  1.00  0.00     0.111 C 
BRANCH  17  18
HETATM   18  C   UNL     1     -20.418  -4.921  -7.733  1.00  0.00     0.258 C 
HETATM   19  O   UNL     1     -19.801  -5.895  -8.113  1.00  0.00    -0.265 OA
BRANCH  18  20
HETATM   20  O   UNL     1     -20.974  -3.966  -8.536  1.00  0.00    -0.319 OA
BRANCH  20  21
HETATM   21  C   UNL     1     -22.091  -4.450  -9.291  1.00  0.00     0.210 C 
BRANCH  21  22
HETATM   22  C   UNL     1     -23.390  -3.718  -8.954  1.00  0.00     0.138 C 
HETATM   23  C   UNL     1     -24.455  -3.925 -10.018  1.00  0.00     0.041 C 
BRANCH  22  24
HETATM   24  O   UNL     1     -23.882  -4.163  -7.692  1.00  0.00    -0.394 OA
HETATM   25  H   UNL     1     -24.144  -5.096  -7.783  1.00  0.00     0.210 HD
ENDBRANCH  22  24
ENDBRANCH  21  22
ENDBRANCH  20  21
ENDBRANCH  18  20
ENDBRANCH  17  18
ENDBRANCH  16  17
ENDBRANCH  15  16
ENDBRANCH  14  15
ENDBRANCH   1  14
TORSDOF 19
ENDMDL
MODEL 7
REMARK VINA RESULT:      -6.3      4.724     11.351
REMARK  19 active torsions:
REMARK  status: ('A' for Active; 'I' for Inactive)
REMARK    1  A    between atoms: C_2  and  C_4 
REMARK    2  A    between atoms: C_4  and  C_5 
REMARK    3  A    between atoms: C_5  and  C_6 
REMARK    4  A    between atoms: C_6  and  C_7 
REMARK    5  A    between atoms: C_7  and  C_8 
REMARK    6  A    between atoms: C_8  and  C_9 
REMARK    7  A    between atoms: C_9  and  C_10 
REMARK    8  A    between atoms: C_10  and  C_11 
REMARK    9  A    between atoms: C_11  and  C_12 
REMARK   10  A    between atoms: C_12  and  C_13 
REMARK   11  A    between atoms: C_13  and  C_14 
REMARK   12  A    between atoms: C_14  and  C_15 
REMARK   13  A    between atoms: C_15  and  C_16 
REMARK   14  A    between atoms: C_16  and  C_17 
REMARK   15  A    between atoms: C_17  and  C_18 
REMARK   16  A    between atoms: C_18  and  O_20 
REMARK   17  A    between atoms: O_20  and  C_21 
REMARK   18  A    between atoms: C_21  and  C_22 
REMARK   19  A    between atoms: C_22  and  O_24 
ROOT
HETATM    1  C   UNL     1     -21.545  -6.255  -2.856  1.00  0.00     0.000 C 
ENDROOT
BRANCH   1   2
HETATM    2  C   UNL     1     -21.400  -7.517  -3.694  1.00  0.00     0.000 C 
BRANCH   2   3
HETATM    3  C   UNL     1     -21.195  -7.158  -5.158  1.00  0.00     0.000 C 
BRANCH   3   4
HETATM    4  C   UNL     1     -21.095  -5.649  -5.322  1.00  0.00     0.000 C 
BRANCH   4   5
HETATM    5  C   UNL     1     -22.060  -5.171  -6.395  1.00  0.00     0.000 C 
BRANCH   5   6
HETATM    6  C   UNL     1     -21.366  -4.183  -7.318  1.00  0.00     0.000 C 
BRANCH   6   7
HETATM    7  C   UNL     1     -20.643  -4.922  -8.430  1.00  0.00     0.000 C 
BRANCH   7   8
HETATM    8  C   UNL     1     -20.169  -3.947  -9.498  1.00  0.00     0.000 C 
BRANCH   8   9
HETATM    9  C   UNL     1     -20.741  -4.353 -10.847  1.00  0.00     0.000 C 
BRANCH   9  10
HETATM   10  C   UNL     1     -21.556  -3.222 -11.466  1.00  0.00     0.004 C 
BRANCH  10  11
HETATM   11  C   UNL     1     -23.061  -3.363 -11.190  1.00  0.00    -0.023 C 
HETATM   12  C   UNL     1     -23.851  -2.809 -12.375  1.00  0.00     0.009 C 
HETATM   13  C   UNL     1     -23.471  -4.814 -10.924  1.00  0.00     0.009 C 
ENDBRANCH  10  11
ENDBRANCH   9  10
ENDBRANCH   8   9
ENDBRANCH   7   8
ENDBRANCH   6   7
ENDBRANCH   5   6
ENDBRANCH   4   5
ENDBRANCH   3   4
ENDBRANCH   2   3
ENDBRANCH   1   2
BRANCH   1  14
HETATM   14  C   UNL     1     -22.201  -6.579  -1.522  1.00  0.00     0.000 C 
BRANCH  14  15
HETATM   15  C   UNL     1     -21.462  -7.707  -0.808  1.00  0.00     0.000 C 
BRANCH  15  16
HETATM   16  C   UNL     1     -22.167  -8.037   0.501  1.00  0.00     0.010 C 
BRANCH  16  17
HETATM   17  C   UNL     1     -23.417  -8.881   0.284  1.00  0.00     0.111 C 
BRANCH  17  18
HETATM   18  C   UNL     1     -23.051 -10.194  -0.364  1.00  0.00     0.258 C 
HETATM   19  O   UNL     1     -23.461 -10.580  -1.440  1.00  0.00    -0.265 OA
BRANCH  18  20
HETATM   20  O   UNL     1     -22.264 -10.910   0.493  1.00  0.00    -0.319 OA
BRANCH  20  21
HETATM   21  C   UNL     1     -21.478 -11.908  -0.170  1.00  0.00     0.210 C 
BRANCH  21  22
HETATM   22  C   UNL     1     -21.801 -13.324   0.307  1.00  0.00     0.138 C 
HETATM   23  C   UNL     1     -22.797 -13.328   1.454  1.00  0.00     0.041 C 
BRANCH  22  24
HETATM   24  O   UNL     1     -22.317 -14.093  -0.777  1.00  0.00    -0.394 OA
HETATM   25  H   UNL     1     -22.850 -13.503  -1.338  1.00  0.00     0.210 HD
ENDBRANCH  22  24
ENDBRANCH  21  22
ENDBRANCH  20  21
ENDBRANCH  18  20
ENDBRANCH  17  18
ENDBRANCH  16  17
ENDBRANCH  15  16
ENDBRANCH  14  15
ENDBRANCH   1  14
TORSDOF 19
ENDMDL
MODEL 8
REMARK VINA RESULT:      -6.2      1.784      3.593
REMARK  19 active torsions:
REMARK  status: ('A' for Active; 'I' for Inactive)
REMARK    1  A    between atoms: C_2  and  C_4 
REMARK    2  A    between atoms: C_4  and  C_5 
REMARK    3  A    between atoms: C_5  and  C_6 
REMARK    4  A    between atoms: C_6  and  C_7 
REMARK    5  A    between atoms: C_7  and  C_8 
REMARK    6  A    between atoms: C_8  and  C_9 
REMARK    7  A    between atoms: C_9  and  C_10 
REMARK    8  A    between atoms: C_10  and  C_11 
REMARK    9  A    between atoms: C_11  and  C_12 
REMARK   10  A    between atoms: C_12  and  C_13 
REMARK   11  A    between atoms: C_13  and  C_14 
REMARK   12  A    between atoms: C_14  and  C_15 
REMARK   13  A    between atoms: C_15  and  C_16 
REMARK   14  A    between atoms: C_16  and  C_17 
REMARK   15  A    between atoms: C_17  and  C_18 
REMARK   16  A    between atoms: C_18  and  O_20 
REMARK   17  A    between atoms: O_20  and  C_21 
REMARK   18  A    between atoms: C_21  and  C_22 
REMARK   19  A    between atoms: C_22  and  O_24 
ROOT
HETATM    1  C   UNL     1     -20.721  -7.767  -3.513  1.00  0.00     0.000 C 
ENDROOT
BRANCH   1   2
HETATM    2  C   UNL     1     -20.869  -7.684  -2.001  1.00  0.00     0.000 C 
BRANCH   2   3
HETATM    3  C   UNL     1     -22.179  -7.004  -1.635  1.00  0.00     0.000 C 
BRANCH   3   4
HETATM    4  C   UNL     1     -22.422  -7.100  -0.136  1.00  0.00     0.000 C 
BRANCH   4   5
HETATM    5  C   UNL     1     -22.182  -8.521   0.346  1.00  0.00     0.000 C 
BRANCH   5   6
HETATM    6  C   UNL     1     -21.117  -8.531   1.430  1.00  0.00     0.000 C 
BRANCH   6   7
HETATM    7  C   UNL     1     -20.514  -9.918   1.559  1.00  0.00     0.000 C 
BRANCH   7   8
HETATM    8  C   UNL     1     -20.697 -10.701   0.267  1.00  0.00     0.000 C 
BRANCH   8   9
HETATM    9  C   UNL     1     -21.654 -11.859   0.504  1.00  0.00     0.000 C 
BRANCH   9  10
HETATM   10  C   UNL     1     -22.015 -12.555  -0.804  1.00  0.00     0.004 C 
BRANCH  10  11
HETATM   11  C   UNL     1     -23.267 -11.956  -1.462  1.00  0.00    -0.023 C 
HETATM   12  C   UNL     1     -24.136 -11.290  -0.395  1.00  0.00     0.009 C 
HETATM   13  C   UNL     1     -22.922 -10.943  -2.557  1.00  0.00     0.009 C 
ENDBRANCH  10  11
ENDBRANCH   9  10
ENDBRANCH   8   9
ENDBRANCH   7   8
ENDBRANCH   6   7
ENDBRANCH   5   6
ENDBRANCH   4   5
ENDBRANCH   3   4
ENDBRANCH   2   3
ENDBRANCH   1   2
BRANCH   1  14
HETATM   14  C   UNL     1     -21.463  -6.619  -4.181  1.00  0.00     0.000 C 
BRANCH  14  15
HETATM   15  C   UNL     1     -21.551  -6.826  -5.689  1.00  0.00     0.000 C 
BRANCH  15  16
HETATM   16  C   UNL     1     -20.227  -6.448  -6.340  1.00  0.00     0.010 C 
BRANCH  16  17
HETATM   17  C   UNL     1     -19.949  -4.952  -6.250  1.00  0.00     0.111 C 
BRANCH  17  18
HETATM   18  C   UNL     1     -20.806  -4.204  -7.242  1.00  0.00     0.258 C 
HETATM   19  O   UNL     1     -21.455  -3.208  -6.993  1.00  0.00    -0.265 OA
BRANCH  18  20
HETATM   20  O   UNL     1     -20.804  -4.877  -8.430  1.00  0.00    -0.319 OA
BRANCH  20  21
HETATM   21  C   UNL     1     -21.997  -4.666  -9.195  1.00  0.00     0.210 C 
BRANCH  21  22
HETATM   22  C   UNL     1     -21.804  -3.645 -10.316  1.00  0.00     0.138 C 
HETATM   23  C   UNL     1     -20.611  -3.981 -11.197  1.00  0.00     0.041 C 
BRANCH  22  24
HETATM   24  O   UNL     1     -22.983  -3.576 -11.115  1.00  0.00    -0.394 OA
HETATM   25  H   UNL     1     -22.782  -3.045 -11.905  1.00  0.00     0.210 HD
ENDBRANCH  22  24
ENDBRANCH  21  22
ENDBRANCH  20  21
ENDBRANCH  18  20
ENDBRANCH  17  18
ENDBRANCH  16  17
ENDBRANCH  15  16
ENDBRANCH  14  15
ENDBRANCH   1  14
TORSDOF 19
ENDMDL
MODEL 9
REMARK VINA RESULT:      -6.1      2.253      3.769
REMARK  19 active torsions:
REMARK  status: ('A' for Active; 'I' for Inactive)
REMARK    1  A    between atoms: C_2  and  C_4 
REMARK    2  A    between atoms: C_4  and  C_5 
REMARK    3  A    between atoms: C_5  and  C_6 
REMARK    4  A    between atoms: C_6  and  C_7 
REMARK    5  A    between atoms: C_7  and  C_8 
REMARK    6  A    between atoms: C_8  and  C_9 
REMARK    7  A    between atoms: C_9  and  C_10 
REMARK    8  A    between atoms: C_10  and  C_11 
REMARK    9  A    between atoms: C_11  and  C_12 
REMARK   10  A    between atoms: C_12  and  C_13 
REMARK   11  A    between atoms: C_13  and  C_14 
REMARK   12  A    between atoms: C_14  and  C_15 
REMARK   13  A    between atoms: C_15  and  C_16 
REMARK   14  A    between atoms: C_16  and  C_17 
REMARK   15  A    between atoms: C_17  and  C_18 
REMARK   16  A    between atoms: C_18  and  O_20 
REMARK   17  A    between atoms: O_20  and  C_21 
REMARK   18  A    between atoms: C_21  and  C_22 
REMARK   19  A    between atoms: C_22  and  O_24 
ROOT
HETATM    1  C   UNL     1     -21.041  -8.675  -4.391  1.00  0.00     0.000 C 
ENDROOT
BRANCH   1   2
HETATM    2  C   UNL     1     -19.680  -8.910  -5.029  1.00  0.00     0.000 C 
BRANCH   2   3
HETATM    3  C   UNL     1     -18.629  -9.153  -3.958  1.00  0.00     0.000 C 
BRANCH   3   4
HETATM    4  C   UNL     1     -19.286  -9.270  -2.591  1.00  0.00     0.000 C 
BRANCH   4   5
HETATM    5  C   UNL     1     -19.219 -10.705  -2.095  1.00  0.00     0.000 C 
BRANCH   5   6
HETATM    6  C   UNL     1     -20.262 -10.932  -1.012  1.00  0.00     0.000 C 
BRANCH   6   7
HETATM    7  C   UNL     1     -21.288 -11.949  -1.478  1.00  0.00     0.000 C 
BRANCH   7   8
HETATM    8  C   UNL     1     -22.699 -11.429  -1.243  1.00  0.00     0.000 C 
BRANCH   8   9
HETATM    9  C   UNL     1     -22.695  -9.909  -1.288  1.00  0.00     0.000 C 
BRANCH   9  10
HETATM   10  C   UNL     1     -23.310  -9.316  -0.024  1.00  0.00     0.004 C 
BRANCH  10  11
HETATM   11  C   UNL     1     -22.691  -7.960   0.350  1.00  0.00    -0.023 C 
HETATM   12  C   UNL     1     -21.450  -8.186   1.212  1.00  0.00     0.009 C 
HETATM   13  C   UNL     1     -22.325  -7.129  -0.882  1.00  0.00     0.009 C 
ENDBRANCH  10  11
ENDBRANCH   9  10
ENDBRANCH   8   9
ENDBRANCH   7   8
ENDBRANCH   6   7
ENDBRANCH   5   6
ENDBRANCH   4   5
ENDBRANCH   3   4
ENDBRANCH   2   3
ENDBRANCH   1   2
BRANCH   1  14
HETATM   14  C   UNL     1     -21.496  -7.243  -4.630  1.00  0.00     0.000 C 
BRANCH  14  15
HETATM   15  C   UNL     1     -20.948  -6.706  -5.948  1.00  0.00     0.000 C 
BRANCH  15  16
HETATM   16  C   UNL     1     -20.777  -5.195  -5.858  1.00  0.00     0.010 C 
BRANCH  16  17
HETATM   17  C   UNL     1     -21.543  -4.464  -6.953  1.00  0.00     0.111 C 
BRANCH  17  18
HETATM   18  C   UNL     1     -20.754  -4.481  -8.240  1.00  0.00     0.258 C 
HETATM   19  O   UNL     1     -19.567  -4.244  -8.334  1.00  0.00    -0.265 OA
BRANCH  18  20
HETATM   20  O   UNL     1     -21.605  -4.715  -9.282  1.00  0.00    -0.319 OA
BRANCH  20  21
HETATM   21  C   UNL     1     -21.077  -4.287 -10.543  1.00  0.00     0.210 C 
BRANCH  21  22
HETATM   22  C   UNL     1     -22.150  -4.191 -11.628  1.00  0.00     0.138 C 
HETATM   23  C   UNL     1     -23.313  -3.309 -11.206  1.00  0.00     0.041 C 
BRANCH  22  24
HETATM   24  O   UNL     1     -21.576  -3.684 -12.831  1.00  0.00    -0.394 OA
HETATM   25  H   UNL     1     -21.840  -4.269 -13.562  1.00  0.00     0.210 HD
ENDBRANCH  22  24
ENDBRANCH  21  22
ENDBRANCH  20  21
ENDBRANCH  18  20
ENDBRANCH  17  18
ENDBRANCH  16  17
ENDBRANCH  15  16
ENDBRANCH  14  15
ENDBRANCH   1  14
TORSDOF 19
ENDMDL
