MODEL 1
REMARK VINA RESULT:      -7.7      0.000      0.000
REMARK  10 active torsions:
REMARK  status: ('A' for Active; 'I' for Inactive)
REMARK    1  A    between atoms: C_2  and  C_3 
REMARK    2  A    between atoms: C_3  and  C_4 
REMARK    3  A    between atoms: C_4  and  C_5 
REMARK    4  A    between atoms: C_5  and  C_6 
REMARK    5  A    between atoms: C_5  and  C_8 
REMARK    6  A    between atoms: C_8  and  O_9 
REMARK    7  A    between atoms: O_9  and  C_10 
REMARK    8  A    between atoms: C_10  and  C_12 
REMARK    9  A    between atoms: C_13  and  C_14 
REMARK   10  A    between atoms: C_17  and  O_20 
ROOT
HETATM    1  C   UNL     1     -20.535  -6.353  -5.898  1.00  0.00     0.282 C 
HETATM    2  O   UNL     1     -19.837  -7.338  -6.068  1.00  0.00    -0.260 OA
ENDROOT
BRANCH   1   3
HETATM    3  O   UNL     1     -20.824  -5.761  -4.712  1.00  0.00    -0.318 OA
BRANCH   3   4
HETATM    4  C   UNL     1     -21.827  -6.418  -3.921  1.00  0.00     0.183 C 
BRANCH   4   5
HETATM    5  C   UNL     1     -21.297  -6.996  -2.597  1.00  0.00     0.010 C 
BRANCH   5   6
HETATM    6  C   UNL     1     -22.238  -6.662  -1.414  1.00  0.00     0.007 C 
BRANCH   6   7
HETATM    7  C   UNL     1     -21.982  -7.548  -0.189  1.00  0.00     0.000 C 
BRANCH   7   8
HETATM    8  C   UNL     1     -23.264  -8.171   0.361  1.00  0.00    -0.005 C 
HETATM    9  C   UNL     1     -23.310  -9.663   0.061  1.00  0.00     0.005 C 
ENDBRANCH   7   8
ENDBRANCH   6   7
ENDBRANCH   5   6
BRANCH   5  10
HETATM   10  C   UNL     1     -20.998  -8.504  -2.761  1.00  0.00     0.002 C 
HETATM   11  C   UNL     1     -19.524  -8.884  -2.708  1.00  0.00     0.005 C 
ENDBRANCH   5  10
ENDBRANCH   4   5
ENDBRANCH   3   4
ENDBRANCH   1   3
BRANCH   1  12
HETATM   12  C   UNL     1     -21.302  -5.668  -6.952  1.00  0.00     0.083 C 
HETATM   13  C   UNL     1     -20.658  -5.023  -7.939  1.00  0.00     0.017 C 
BRANCH  13  14
HETATM   14  C   UNL     1     -21.324  -4.386  -9.085  1.00  0.00    -0.036 A 
HETATM   15  C   UNL     1     -22.684  -4.062  -9.086  1.00  0.00     0.014 A 
HETATM   16  C   UNL     1     -23.278  -3.449 -10.197  1.00  0.00     0.037 A 
HETATM   17  C   UNL     1     -22.514  -3.137 -11.321  1.00  0.00     0.068 A 
HETATM   18  C   UNL     1     -21.153  -3.440 -11.321  1.00  0.00     0.037 A 
HETATM   19  C   UNL     1     -20.558  -4.053 -10.212  1.00  0.00     0.014 A 
BRANCH  17  20
HETATM   20  O   UNL     1     -22.978  -2.546 -12.464  1.00  0.00    -0.356 OA
HETATM   21  C   UNL     1     -23.754  -3.362 -13.334  1.00  0.00     0.210 C 
ENDBRANCH  17  20
ENDBRANCH  13  14
ENDBRANCH   1  12
TORSDOF 10
ENDMDL
MODEL 2
REMARK VINA RESULT:      -7.6      1.875      9.389
REMARK  10 active torsions:
REMARK  status: ('A' for Active; 'I' for Inactive)
REMARK    1  A    between atoms: C_2  and  C_3 
REMARK    2  A    between atoms: C_3  and  C_4 
REMARK    3  A    between atoms: C_4  and  C_5 
REMARK    4  A    between atoms: C_5  and  C_6 
REMARK    5  A    between atoms: C_5  and  C_8 
REMARK    6  A    between atoms: C_8  and  O_9 
REMARK    7  A    between atoms: O_9  and  C_10 
REMARK    8  A    between atoms: C_10  and  C_12 
REMARK    9  A    between atoms: C_13  and  C_14 
REMARK   10  A    between atoms: C_17  and  O_20 
ROOT
HETATM    1  C   UNL     1     -20.562  -6.030  -6.604  1.00  0.00     0.282 C 
HETATM    2  O   UNL     1     -19.757  -6.263  -7.489  1.00  0.00    -0.260 OA
ENDROOT
BRANCH   1   3
HETATM    3  O   UNL     1     -21.491  -5.041  -6.595  1.00  0.00    -0.318 OA
BRANCH   3   4
HETATM    4  C   UNL     1     -21.155  -3.871  -7.357  1.00  0.00     0.183 C 
BRANCH   4   5
HETATM    5  C   UNL     1     -21.981  -3.707  -8.645  1.00  0.00     0.010 C 
BRANCH   5   6
HETATM    6  C   UNL     1     -21.284  -4.373  -9.855  1.00  0.00     0.007 C 
BRANCH   6   7
HETATM    7  C   UNL     1     -21.058  -3.396 -11.017  1.00  0.00     0.000 C 
BRANCH   7   8
HETATM    8  C   UNL     1     -21.974  -3.679 -12.206  1.00  0.00    -0.005 C 
HETATM    9  C   UNL     1     -22.950  -2.530 -12.420  1.00  0.00     0.005 C 
ENDBRANCH   7   8
ENDBRANCH   6   7
ENDBRANCH   5   6
BRANCH   5  10
HETATM   10  C   UNL     1     -23.431  -4.185  -8.407  1.00  0.00     0.002 C 
HETATM   11  C   UNL     1     -24.464  -3.646  -9.389  1.00  0.00     0.005 C 
ENDBRANCH   5  10
ENDBRANCH   4   5
ENDBRANCH   3   4
ENDBRANCH   1   3
BRANCH   1  12
HETATM   12  C   UNL     1     -20.614  -6.720  -5.305  1.00  0.00     0.083 C 
HETATM   13  C   UNL     1     -21.288  -6.173  -4.279  1.00  0.00     0.017 C 
BRANCH  13  14
HETATM   14  C   UNL     1     -21.478  -6.818  -2.973  1.00  0.00    -0.036 A 
HETATM   15  C   UNL     1     -22.211  -6.231  -1.937  1.00  0.00     0.014 A 
HETATM   16  C   UNL     1     -22.374  -6.884  -0.708  1.00  0.00     0.037 A 
HETATM   17  C   UNL     1     -21.815  -8.144  -0.501  1.00  0.00     0.068 A 
HETATM   18  C   UNL     1     -21.098  -8.745  -1.535  1.00  0.00     0.037 A 
HETATM   19  C   UNL     1     -20.935  -8.094  -2.764  1.00  0.00     0.014 A 
BRANCH  17  20
HETATM   20  O   UNL     1     -21.898  -8.876   0.651  1.00  0.00    -0.356 OA
HETATM   21  C   UNL     1     -20.967  -9.941   0.800  1.00  0.00     0.210 C 
ENDBRANCH  17  20
ENDBRANCH  13  14
ENDBRANCH   1  12
TORSDOF 10
ENDMDL
MODEL 3
REMARK VINA RESULT:      -7.2      1.340      2.196
REMARK  10 active torsions:
REMARK  status: ('A' for Active; 'I' for Inactive)
REMARK    1  A    between atoms: C_2  and  C_3 
REMARK    2  A    between atoms: C_3  and  C_4 
REMARK    3  A    between atoms: C_4  and  C_5 
REMARK    4  A    between atoms: C_5  and  C_6 
REMARK    5  A    between atoms: C_5  and  C_8 
REMARK    6  A    between atoms: C_8  and  O_9 
REMARK    7  A    between atoms: O_9  and  C_10 
REMARK    8  A    between atoms: C_10  and  C_12 
REMARK    9  A    between atoms: C_13  and  C_14 
REMARK   10  A    between atoms: C_17  and  O_20 
ROOT
HETATM    1  C   UNL     1     -20.462  -5.690  -6.589  1.00  0.00     0.282 C 
HETATM    2  O   UNL     1     -19.682  -4.918  -6.059  1.00  0.00    -0.260 OA
ENDROOT
BRANCH   1   3
HETATM    3  O   UNL     1     -20.751  -6.953  -6.185  1.00  0.00    -0.318 OA
BRANCH   3   4
HETATM    4  C   UNL     1     -21.883  -7.077  -5.310  1.00  0.00     0.183 C 
BRANCH   4   5
HETATM    5  C   UNL     1     -21.529  -7.586  -3.901  1.00  0.00     0.010 C 
BRANCH   5   6
HETATM    6  C   UNL     1     -20.378  -8.619  -3.943  1.00  0.00     0.007 C 
BRANCH   6   7
HETATM    7  C   UNL     1     -19.609  -8.700  -2.618  1.00  0.00     0.000 C 
BRANCH   7   8
HETATM    8  C   UNL     1     -19.964  -9.947  -1.811  1.00  0.00    -0.005 C 
HETATM    9  C   UNL     1     -21.051  -9.638  -0.791  1.00  0.00     0.005 C 
ENDBRANCH   7   8
ENDBRANCH   6   7
ENDBRANCH   5   6
BRANCH   5  10
HETATM   10  C   UNL     1     -21.272  -6.390  -2.956  1.00  0.00     0.002 C 
HETATM   11  C   UNL     1     -22.256  -6.248  -1.802  1.00  0.00     0.005 C 
ENDBRANCH   5  10
ENDBRANCH   4   5
ENDBRANCH   3   4
ENDBRANCH   1   3
BRANCH   1  12
HETATM   12  C   UNL     1     -21.173  -5.439  -7.854  1.00  0.00     0.083 C 
HETATM   13  C   UNL     1     -21.852  -4.293  -8.026  1.00  0.00     0.017 C 
BRANCH  13  14
HETATM   14  C   UNL     1     -22.519  -3.904  -9.277  1.00  0.00    -0.036 A 
HETATM   15  C   UNL     1     -23.895  -3.673  -9.362  1.00  0.00     0.014 A 
HETATM   16  C   UNL     1     -24.490  -3.297 -10.574  1.00  0.00     0.037 A 
HETATM   17  C   UNL     1     -23.712  -3.132 -11.719  1.00  0.00     0.068 A 
HETATM   18  C   UNL     1     -22.336  -3.343 -11.639  1.00  0.00     0.037 A 
HETATM   19  C   UNL     1     -21.740  -3.719 -10.429  1.00  0.00     0.014 A 
BRANCH  17  20
HETATM   20  O   UNL     1     -24.174  -2.777 -12.956  1.00  0.00    -0.356 OA
HETATM   21  C   UNL     1     -23.215  -2.719 -14.004  1.00  0.00     0.210 C 
ENDBRANCH  17  20
ENDBRANCH  13  14
ENDBRANCH   1  12
TORSDOF 10
ENDMDL
MODEL 4
REMARK VINA RESULT:      -7.1      1.071      2.829
REMARK  10 active torsions:
REMARK  status: ('A' for Active; 'I' for Inactive)
REMARK    1  A    between atoms: C_2  and  C_3 
REMARK    2  A    between atoms: C_3  and  C_4 
REMARK    3  A    between atoms: C_4  and  C_5 
REMARK    4  A    between atoms: C_5  and  C_6 
REMARK    5  A    between atoms: C_5  and  C_8 
REMARK    6  A    between atoms: C_8  and  O_9 
REMARK    7  A    between atoms: O_9  and  C_10 
REMARK    8  A    between atoms: C_10  and  C_12 
REMARK    9  A    between atoms: C_13  and  C_14 
REMARK   10  A    between atoms: C_17  and  O_20 
ROOT
HETATM    1  C   UNL     1     -21.325  -6.201  -5.064  1.00  0.00     0.282 C 
HETATM    2  O   UNL     1     -20.295  -6.838  -5.203  1.00  0.00    -0.260 OA
ENDROOT
BRANCH   1   3
HETATM    3  O   UNL     1     -21.992  -5.982  -3.903  1.00  0.00    -0.318 OA
BRANCH   3   4
HETATM    4  C   UNL     1     -21.306  -6.394  -2.710  1.00  0.00     0.183 C 
BRANCH   4   5
HETATM    5  C   UNL     1     -22.021  -7.516  -1.936  1.00  0.00     0.010 C 
BRANCH   5   6
HETATM    6  C   UNL     1     -21.198  -8.826  -1.944  1.00  0.00     0.007 C 
BRANCH   6   7
HETATM    7  C   UNL     1     -19.699  -8.579  -2.165  1.00  0.00     0.000 C 
BRANCH   7   8
HETATM    8  C   UNL     1     -19.035  -9.695  -2.970  1.00  0.00    -0.005 C 
HETATM    9  C   UNL     1     -17.527  -9.498  -3.020  1.00  0.00     0.005 C 
ENDBRANCH   7   8
ENDBRANCH   6   7
ENDBRANCH   5   6
BRANCH   5  10
HETATM   10  C   UNL     1     -22.407  -7.020  -0.523  1.00  0.00     0.002 C 
HETATM   11  C   UNL     1     -23.031  -8.070   0.387  1.00  0.00     0.005 C 
ENDBRANCH   5  10
ENDBRANCH   4   5
ENDBRANCH   3   4
ENDBRANCH   1   3
BRANCH   1  12
HETATM   12  C   UNL     1     -22.118  -5.627  -6.164  1.00  0.00     0.083 C 
HETATM   13  C   UNL     1     -21.504  -4.979  -7.169  1.00  0.00     0.017 C 
BRANCH  13  14
HETATM   14  C   UNL     1     -22.190  -4.449  -8.355  1.00  0.00    -0.036 A 
HETATM   15  C   UNL     1     -21.564  -4.327  -9.600  1.00  0.00     0.014 A 
HETATM   16  C   UNL     1     -22.257  -3.823 -10.709  1.00  0.00     0.037 A 
HETATM   17  C   UNL     1     -23.594  -3.446 -10.591  1.00  0.00     0.068 A 
HETATM   18  C   UNL     1     -24.230  -3.581  -9.359  1.00  0.00     0.037 A 
HETATM   19  C   UNL     1     -23.540  -4.085  -8.249  1.00  0.00     0.014 A 
BRANCH  17  20
HETATM   20  O   UNL     1     -24.372  -2.936 -11.594  1.00  0.00    -0.356 OA
HETATM   21  C   UNL     1     -23.748  -2.764 -12.862  1.00  0.00     0.210 C 
ENDBRANCH  17  20
ENDBRANCH  13  14
ENDBRANCH   1  12
TORSDOF 10
ENDMDL
MODEL 5
REMARK VINA RESULT:      -6.7      1.561      2.677
REMARK  10 active torsions:
REMARK  status: ('A' for Active; 'I' for Inactive)
REMARK    1  A    between atoms: C_2  and  C_3 
REMARK    2  A    between atoms: C_3  and  C_4 
REMARK    3  A    between atoms: C_4  and  C_5 
REMARK    4  A    between atoms: C_5  and  C_6 
REMARK    5  A    between atoms: C_5  and  C_8 
REMARK    6  A    between atoms: C_8  and  O_9 
REMARK    7  A    between atoms: O_9  and  C_10 
REMARK    8  A    between atoms: C_10  and  C_12 
REMARK    9  A    between atoms: C_13  and  C_14 
REMARK   10  A    between atoms: C_17  and  O_20 
ROOT
HETATM    1  C   UNL     1     -20.993  -7.181  -3.949  1.00  0.00     0.282 C 
HETATM    2  O   UNL     1     -20.106  -8.010  -4.055  1.00  0.00    -0.260 OA
ENDROOT
BRANCH   1   3
HETATM    3  O   UNL     1     -21.811  -7.003  -2.880  1.00  0.00    -0.318 OA
BRANCH   3   4
HETATM    4  C   UNL     1     -21.327  -7.533  -1.637  1.00  0.00     0.183 C 
BRANCH   4   5
HETATM    5  C   UNL     1     -22.392  -8.292  -0.826  1.00  0.00     0.010 C 
BRANCH   5   6
HETATM    6  C   UNL     1     -22.359  -9.810  -1.123  1.00  0.00     0.007 C 
BRANCH   6   7
HETATM    7  C   UNL     1     -23.616 -10.536  -0.628  1.00  0.00     0.000 C 
BRANCH   7   8
HETATM    8  C   UNL     1     -23.290 -11.823   0.128  1.00  0.00    -0.005 C 
HETATM    9  C   UNL     1     -23.820 -13.037  -0.622  1.00  0.00     0.005 C 
ENDBRANCH   7   8
ENDBRANCH   6   7
ENDBRANCH   5   6
BRANCH   5  10
HETATM   10  C   UNL     1     -22.267  -7.938   0.674  1.00  0.00     0.002 C 
HETATM   11  C   UNL     1     -21.108  -8.603   1.405  1.00  0.00     0.005 C 
ENDBRANCH   5  10
ENDBRANCH   4   5
ENDBRANCH   3   4
ENDBRANCH   1   3
BRANCH   1  12
HETATM   12  C   UNL     1     -21.429  -6.267  -5.018  1.00  0.00     0.083 C 
HETATM   13  C   UNL     1     -20.731  -6.191  -6.163  1.00  0.00     0.017 C 
BRANCH  13  14
HETATM   14  C   UNL     1     -21.129  -5.383  -7.324  1.00  0.00    -0.036 A 
HETATM   15  C   UNL     1     -22.322  -4.656  -7.368  1.00  0.00     0.014 A 
HETATM   16  C   UNL     1     -22.661  -3.891  -8.492  1.00  0.00     0.037 A 
HETATM   17  C   UNL     1     -21.800  -3.831  -9.587  1.00  0.00     0.068 A 
HETATM   18  C   UNL     1     -20.600  -4.538  -9.545  1.00  0.00     0.037 A 
HETATM   19  C   UNL     1     -20.260  -5.303  -8.422  1.00  0.00     0.014 A 
BRANCH  17  20
HETATM   20  O   UNL     1     -22.021  -3.128 -10.740  1.00  0.00    -0.356 OA
HETATM   21  C   UNL     1     -23.352  -3.126 -11.241  1.00  0.00     0.210 C 
ENDBRANCH  17  20
ENDBRANCH  13  14
ENDBRANCH   1  12
TORSDOF 10
ENDMDL
MODEL 6
REMARK VINA RESULT:      -6.7      1.258      2.047
REMARK  10 active torsions:
REMARK  status: ('A' for Active; 'I' for Inactive)
REMARK    1  A    between atoms: C_2  and  C_3 
REMARK    2  A    between atoms: C_3  and  C_4 
REMARK    3  A    between atoms: C_4  and  C_5 
REMARK    4  A    between atoms: C_5  and  C_6 
REMARK    5  A    between atoms: C_5  and  C_8 
REMARK    6  A    between atoms: C_8  and  O_9 
REMARK    7  A    between atoms: O_9  and  C_10 
REMARK    8  A    between atoms: C_10  and  C_12 
REMARK    9  A    between atoms: C_13  and  C_14 
REMARK   10  A    between atoms: C_17  and  O_20 
ROOT
HETATM    1  C   UNL     1     -21.496  -6.277  -4.743  1.00  0.00     0.282 C 
HETATM    2  O   UNL     1     -21.896  -5.959  -3.637  1.00  0.00    -0.260 OA
ENDROOT
BRANCH   1   3
HETATM    3  O   UNL     1     -20.554  -7.211  -5.027  1.00  0.00    -0.318 OA
BRANCH   3   4
HETATM    4  C   UNL     1     -20.808  -8.524  -4.502  1.00  0.00     0.183 C 
BRANCH   4   5
HETATM    5  C   UNL     1     -19.879  -8.922  -3.341  1.00  0.00     0.010 C 
BRANCH   5   6
HETATM    6  C   UNL     1     -20.528  -9.998  -2.438  1.00  0.00     0.007 C 
BRANCH   6   7
HETATM    7  C   UNL     1     -20.699  -9.526  -0.988  1.00  0.00     0.000 C 
BRANCH   7   8
HETATM    8  C   UNL     1     -20.906  -8.016  -0.885  1.00  0.00    -0.005 C 
HETATM    9  C   UNL     1     -22.366  -7.691  -0.597  1.00  0.00     0.005 C 
ENDBRANCH   7   8
ENDBRANCH   6   7
ENDBRANCH   5   6
BRANCH   5  10
HETATM   10  C   UNL     1     -18.486  -9.310  -3.887  1.00  0.00     0.002 C 
HETATM   11  C   UNL     1     -17.388  -9.434  -2.839  1.00  0.00     0.005 C 
ENDBRANCH   5  10
ENDBRANCH   4   5
ENDBRANCH   3   4
ENDBRANCH   1   3
BRANCH   1  12
HETATM   12  C   UNL     1     -21.887  -5.623  -6.003  1.00  0.00     0.083 C 
HETATM   13  C   UNL     1     -20.958  -5.349  -6.935  1.00  0.00     0.017 C 
BRANCH  13  14
HETATM   14  C   UNL     1     -21.254  -4.783  -8.259  1.00  0.00    -0.036 A 
HETATM   15  C   UNL     1     -22.502  -4.249  -8.593  1.00  0.00     0.014 A 
HETATM   16  C   UNL     1     -22.740  -3.712  -9.865  1.00  0.00     0.037 A 
HETATM   17  C   UNL     1     -21.725  -3.689 -10.820  1.00  0.00     0.068 A 
HETATM   18  C   UNL     1     -20.472  -4.203 -10.490  1.00  0.00     0.037 A 
HETATM   19  C   UNL     1     -20.232  -4.740  -9.219  1.00  0.00     0.014 A 
BRANCH  17  20
HETATM   20  O   UNL     1     -21.836  -3.200 -12.093  1.00  0.00    -0.356 OA
HETATM   21  C   UNL     1     -23.031  -2.494 -12.404  1.00  0.00     0.210 C 
ENDBRANCH  17  20
ENDBRANCH  13  14
ENDBRANCH   1  12
TORSDOF 10
ENDMDL
MODEL 7
REMARK VINA RESULT:      -6.3      2.407      4.383
REMARK  10 active torsions:
REMARK  status: ('A' for Active; 'I' for Inactive)
REMARK    1  A    between atoms: C_2  and  C_3 
REMARK    2  A    between atoms: C_3  and  C_4 
REMARK    3  A    between atoms: C_4  and  C_5 
REMARK    4  A    between atoms: C_5  and  C_6 
REMARK    5  A    between atoms: C_5  and  C_8 
REMARK    6  A    between atoms: C_8  and  O_9 
REMARK    7  A    between atoms: O_9  and  C_10 
REMARK    8  A    between atoms: C_10  and  C_12 
REMARK    9  A    between atoms: C_13  and  C_14 
REMARK   10  A    between atoms: C_17  and  O_20 
ROOT
HETATM    1  C   UNL     1     -21.214  -9.840  -3.337  1.00  0.00     0.282 C 
HETATM    2  O   UNL     1     -21.242 -11.050  -3.484  1.00  0.00    -0.260 OA
ENDROOT
BRANCH   1   3
HETATM    3  O   UNL     1     -21.011  -9.171  -2.174  1.00  0.00    -0.318 OA
BRANCH   3   4
HETATM    4  C   UNL     1     -21.501  -9.823  -0.992  1.00  0.00     0.183 C 
BRANCH   4   5
HETATM    5  C   UNL     1     -22.789  -9.200  -0.425  1.00  0.00     0.010 C 
BRANCH   5   6
HETATM    6  C   UNL     1     -23.824 -10.285  -0.041  1.00  0.00     0.007 C 
BRANCH   6   7
HETATM    7  C   UNL     1     -23.872 -11.438  -1.051  1.00  0.00     0.000 C 
BRANCH   7   8
HETATM    8  C   UNL     1     -23.849 -12.808  -0.377  1.00  0.00    -0.005 C 
HETATM    9  C   UNL     1     -23.001 -12.773   0.886  1.00  0.00     0.005 C 
ENDBRANCH   7   8
ENDBRANCH   6   7
ENDBRANCH   5   6
BRANCH   5  10
HETATM   10  C   UNL     1     -22.443  -8.222   0.722  1.00  0.00     0.002 C 
HETATM   11  C   UNL     1     -21.137  -8.510   1.451  1.00  0.00     0.005 C 
ENDBRANCH   5  10
ENDBRANCH   4   5
ENDBRANCH   3   4
ENDBRANCH   1   3
BRANCH   1  12
HETATM   12  C   UNL     1     -21.506  -8.853  -4.389  1.00  0.00     0.083 C 
HETATM   13  C   UNL     1     -20.785  -7.722  -4.470  1.00  0.00     0.017 C 
BRANCH  13  14
HETATM   14  C   UNL     1     -20.934  -6.717  -5.532  1.00  0.00    -0.036 A 
HETATM   15  C   UNL     1     -19.971  -6.517  -6.525  1.00  0.00     0.014 A 
HETATM   16  C   UNL     1     -20.156  -5.552  -7.525  1.00  0.00     0.037 A 
HETATM   17  C   UNL     1     -21.317  -4.782  -7.553  1.00  0.00     0.068 A 
HETATM   18  C   UNL     1     -22.291  -4.988  -6.577  1.00  0.00     0.037 A 
HETATM   19  C   UNL     1     -22.108  -5.951  -5.577  1.00  0.00     0.014 A 
BRANCH  17  20
HETATM   20  O   UNL     1     -21.608  -3.808  -8.469  1.00  0.00    -0.356 OA
HETATM   21  C   UNL     1     -21.036  -3.957  -9.763  1.00  0.00     0.210 C 
ENDBRANCH  17  20
ENDBRANCH  13  14
ENDBRANCH   1  12
TORSDOF 10
ENDMDL
MODEL 8
REMARK VINA RESULT:      -6.2      2.381      9.256
REMARK  10 active torsions:
REMARK  status: ('A' for Active; 'I' for Inactive)
REMARK    1  A    between atoms: C_2  and  C_3 
REMARK    2  A    between atoms: C_3  and  C_4 
REMARK    3  A    between atoms: C_4  and  C_5 
REMARK    4  A    between atoms: C_5  and  C_6 
REMARK    5  A    between atoms: C_5  and  C_8 
REMARK    6  A    between atoms: C_8  and  O_9 
REMARK    7  A    between atoms: O_9  and  C_10 
REMARK    8  A    between atoms: C_10  and  C_12 
REMARK    9  A    between atoms: C_13  and  C_14 
REMARK   10  A    between atoms: C_17  and  O_20 
ROOT
HETATM    1  C   UNL     1     -22.629  -5.086  -6.418  1.00  0.00     0.282 C 
HETATM    2  O   UNL     1     -23.807  -5.154  -6.111  1.00  0.00    -0.260 OA
ENDROOT
BRANCH   1   3
HETATM    3  O   UNL     1     -22.080  -4.258  -7.342  1.00  0.00    -0.318 OA
BRANCH   3   4
HETATM    4  C   UNL     1     -22.927  -3.924  -8.453  1.00  0.00     0.183 C 
BRANCH   4   5
HETATM    5  C   UNL     1     -22.337  -4.305  -9.823  1.00  0.00     0.010 C 
BRANCH   5   6
HETATM    6  C   UNL     1     -22.753  -3.297 -10.920  1.00  0.00     0.007 C 
BRANCH   6   7
HETATM    7  C   UNL     1     -24.262  -3.318 -11.200  1.00  0.00     0.000 C 
BRANCH   7   8
HETATM    8  C   UNL     1     -24.593  -2.976 -12.651  1.00  0.00    -0.005 C 
HETATM    9  C   UNL     1     -23.327  -2.649 -13.430  1.00  0.00     0.005 C 
ENDBRANCH   7   8
ENDBRANCH   6   7
ENDBRANCH   5   6
BRANCH   5  10
HETATM   10  C   UNL     1     -20.811  -4.515  -9.702  1.00  0.00     0.002 C 
HETATM   11  C   UNL     1     -20.006  -4.176 -10.950  1.00  0.00     0.005 C 
ENDBRANCH   5  10
ENDBRANCH   4   5
ENDBRANCH   3   4
ENDBRANCH   1   3
BRANCH   1  12
HETATM   12  C   UNL     1     -21.572  -5.979  -5.915  1.00  0.00     0.083 C 
HETATM   13  C   UNL     1     -21.678  -6.523  -4.691  1.00  0.00     0.017 C 
BRANCH  13  14
HETATM   14  C   UNL     1     -20.728  -7.494  -4.131  1.00  0.00    -0.036 A 
HETATM   15  C   UNL     1     -20.722  -7.856  -2.780  1.00  0.00     0.014 A 
HETATM   16  C   UNL     1     -19.803  -8.792  -2.288  1.00  0.00     0.037 A 
HETATM   17  C   UNL     1     -18.883  -9.392  -3.145  1.00  0.00     0.068 A 
HETATM   18  C   UNL     1     -18.893  -9.052  -4.496  1.00  0.00     0.037 A 
HETATM   19  C   UNL     1     -19.810  -8.116  -4.990  1.00  0.00     0.014 A 
BRANCH  17  20
HETATM   20  O   UNL     1     -17.935 -10.311  -2.784  1.00  0.00    -0.356 OA
HETATM   21  C   UNL     1     -16.593  -9.847  -2.707  1.00  0.00     0.210 C 
ENDBRANCH  17  20
ENDBRANCH  13  14
ENDBRANCH   1  12
TORSDOF 10
ENDMDL
MODEL 9
REMARK VINA RESULT:      -6.2      2.560      4.956
REMARK  10 active torsions:
REMARK  status: ('A' for Active; 'I' for Inactive)
REMARK    1  A    between atoms: C_2  and  C_3 
REMARK    2  A    between atoms: C_3  and  C_4 
REMARK    3  A    between atoms: C_4  and  C_5 
REMARK    4  A    between atoms: C_5  and  C_6 
REMARK    5  A    between atoms: C_5  and  C_8 
REMARK    6  A    between atoms: C_8  and  O_9 
REMARK    7  A    between atoms: O_9  and  C_10 
REMARK    8  A    between atoms: C_10  and  C_12 
REMARK    9  A    between atoms: C_13  and  C_14 
REMARK   10  A    between atoms: C_17  and  O_20 
ROOT
HETATM    1  C   UNL     1     -22.262  -7.193  -0.857  1.00  0.00     0.282 C 
HETATM    2  O   UNL     1     -23.228  -7.193  -0.114  1.00  0.00    -0.260 OA
ENDROOT
BRANCH   1   3
HETATM    3  O   UNL     1     -21.113  -7.895  -0.692  1.00  0.00    -0.318 OA
BRANCH   3   4
HETATM    4  C   UNL     1     -21.154  -8.918   0.316  1.00  0.00     0.183 C 
BRANCH   4   5
HETATM    5  C   UNL     1     -21.348 -10.338  -0.245  1.00  0.00     0.010 C 
BRANCH   5   6
HETATM    6  C   UNL     1     -21.108 -10.383  -1.773  1.00  0.00     0.007 C 
BRANCH   6   7
HETATM    7  C   UNL     1     -22.406 -10.576  -2.568  1.00  0.00     0.000 C 
BRANCH   7   8
HETATM    8  C   UNL     1     -22.151 -11.034  -4.003  1.00  0.00    -0.005 C 
HETATM    9  C   UNL     1     -21.251 -10.046  -4.731  1.00  0.00     0.005 C 
ENDBRANCH   7   8
ENDBRANCH   6   7
ENDBRANCH   5   6
BRANCH   5  10
HETATM   10  C   UNL     1     -20.495 -11.345   0.559  1.00  0.00     0.002 C 
HETATM   11  C   UNL     1     -19.296 -11.922  -0.183  1.00  0.00     0.005 C 
ENDBRANCH   5  10
ENDBRANCH   4   5
ENDBRANCH   3   4
ENDBRANCH   1   3
BRANCH   1  12
HETATM   12  C   UNL     1     -22.107  -6.333  -2.042  1.00  0.00     0.083 C 
HETATM   13  C   UNL     1     -21.520  -6.815  -3.151  1.00  0.00     0.017 C 
BRANCH  13  14
HETATM   14  C   UNL     1     -21.397  -6.073  -4.413  1.00  0.00    -0.036 A 
HETATM   15  C   UNL     1     -22.369  -6.120  -5.417  1.00  0.00     0.014 A 
HETATM   16  C   UNL     1     -22.217  -5.391  -6.604  1.00  0.00     0.037 A 
HETATM   17  C   UNL     1     -21.092  -4.591  -6.798  1.00  0.00     0.068 A 
HETATM   18  C   UNL     1     -20.126  -4.524  -5.795  1.00  0.00     0.037 A 
HETATM   19  C   UNL     1     -20.277  -5.252  -4.609  1.00  0.00     0.014 A 
BRANCH  17  20
HETATM   20  O   UNL     1     -20.827  -3.842  -7.912  1.00  0.00    -0.356 OA
HETATM   21  C   UNL     1     -20.908  -4.510  -9.165  1.00  0.00     0.210 C 
ENDBRANCH  17  20
ENDBRANCH  13  14
ENDBRANCH   1  12
TORSDOF 10
ENDMDL
