MODEL 1
REMARK VINA RESULT:      -6.3      0.000      0.000
REMARK  22 active torsions:
REMARK  status: ('A' for Active; 'I' for Inactive)
REMARK    1  A    between atoms: C_2  and  C_3 
REMARK    2  A    between atoms: C_3  and  C_4 
REMARK    3  A    between atoms: C_4  and  C_5 
REMARK    4  A    between atoms: C_5  and  C_6 
REMARK    5  A    between atoms: C_6  and  C_7 
REMARK    6  A    between atoms: C_7  and  O_9 
REMARK    7  A    between atoms: O_9  and  C_10 
REMARK    8  A    between atoms: C_10  and  C_12 
REMARK    9  A    between atoms: C_12  and  C_13 
REMARK   10  A    between atoms: C_13  and  C_14 
REMARK   11  A    between atoms: C_14  and  C_15 
REMARK   12  A    between atoms: C_15  and  C_16 
REMARK   13  A    between atoms: C_16  and  C_17 
REMARK   14  A    between atoms: C_17  and  C_18 
REMARK   15  A    between atoms: C_18  and  C_19 
REMARK   16  A    between atoms: C_19  and  C_20 
REMARK   17  A    between atoms: C_20  and  C_21 
REMARK   18  A    between atoms: C_21  and  C_22 
REMARK   19  A    between atoms: C_22  and  C_23 
REMARK   20  A    between atoms: C_23  and  C_24 
REMARK   21  A    between atoms: C_24  and  C_25 
REMARK   22  A    between atoms: C_25  and  C_26 
ROOT
HETATM    1  C   UNL     1     -20.954  -7.690  -2.913  1.00  0.00     0.000 C 
ENDROOT
BRANCH   1   2
HETATM    2  C   UNL     1     -21.534  -8.090  -4.260  1.00  0.00     0.010 C 
BRANCH   2   3
HETATM    3  C   UNL     1     -21.825  -6.887  -5.154  1.00  0.00     0.111 C 
BRANCH   3   4
HETATM    4  C   UNL     1     -20.587  -6.528  -5.931  1.00  0.00     0.259 C 
HETATM    5  O   UNL     1     -19.773  -7.344  -6.359  1.00  0.00    -0.265 OA
BRANCH   4   6
HETATM    6  O   UNL     1     -20.493  -5.179  -6.103  1.00  0.00    -0.316 OA
BRANCH   6   7
HETATM    7  C   UNL     1     -20.622  -4.739  -7.472  1.00  0.00     0.127 C 
HETATM    8  C   UNL     1     -19.268  -4.195  -7.933  1.00  0.00     0.040 C 
BRANCH   7   9
HETATM    9  C   UNL     1     -21.728  -3.673  -7.546  1.00  0.00     0.032 C 
BRANCH   9  10
HETATM   10  C   UNL     1     -22.909  -4.124  -8.403  1.00  0.00     0.002 C 
BRANCH  10  11
HETATM   11  C   UNL     1     -22.477  -4.772  -9.716  1.00  0.00     0.000 C 
BRANCH  11  12
HETATM   12  C   UNL     1     -23.201  -4.104 -10.886  1.00  0.00    -0.000 C 
BRANCH  12  13
HETATM   13  C   UNL     1     -22.335  -3.048 -11.564  1.00  0.00    -0.005 C 
HETATM   14  C   UNL     1     -20.863  -3.252 -11.237  1.00  0.00     0.005 C 
ENDBRANCH  12  13
ENDBRANCH  11  12
ENDBRANCH  10  11
ENDBRANCH   9  10
ENDBRANCH   7   9
ENDBRANCH   6   7
ENDBRANCH   4   6
ENDBRANCH   3   4
ENDBRANCH   2   3
ENDBRANCH   1   2
BRANCH   1  15
HETATM   15  C   UNL     1     -21.618  -6.405  -2.426  1.00  0.00     0.000 C 
BRANCH  15  16
HETATM   16  C   UNL     1     -22.348  -6.635  -1.113  1.00  0.00     0.000 C 
BRANCH  16  17
HETATM   17  C   UNL     1     -22.023  -8.013  -0.556  1.00  0.00     0.000 C 
BRANCH  17  18
HETATM   18  C   UNL     1     -23.171  -8.519   0.304  1.00  0.00     0.000 C 
BRANCH  18  19
HETATM   19  C   UNL     1     -23.530  -9.946  -0.078  1.00  0.00     0.000 C 
BRANCH  19  20
HETATM   20  C   UNL     1     -23.073 -10.243  -1.497  1.00  0.00     0.000 C 
BRANCH  20  21
HETATM   21  C   UNL     1     -22.986 -11.745  -1.718  1.00  0.00     0.000 C 
BRANCH  21  22
HETATM   22  C   UNL     1     -21.676 -12.099  -2.405  1.00  0.00     0.000 C 
BRANCH  22  23
HETATM   23  C   UNL     1     -20.541 -11.235  -1.875  1.00  0.00     0.000 C 
BRANCH  23  24
HETATM   24  C   UNL     1     -19.334 -11.352  -2.794  1.00  0.00     0.000 C 
BRANCH  24  25
HETATM   25  C   UNL     1     -18.094 -10.728  -2.163  1.00  0.00     0.004 C 
BRANCH  25  26
HETATM   26  C   UNL     1     -17.560  -9.531  -2.967  1.00  0.00    -0.023 C 
HETATM   27  C   UNL     1     -16.037  -9.406  -2.884  1.00  0.00     0.009 C 
HETATM   28  C   UNL     1     -17.992  -9.663  -4.428  1.00  0.00     0.009 C 
ENDBRANCH  25  26
ENDBRANCH  24  25
ENDBRANCH  23  24
ENDBRANCH  22  23
ENDBRANCH  21  22
ENDBRANCH  20  21
ENDBRANCH  19  20
ENDBRANCH  18  19
ENDBRANCH  17  18
ENDBRANCH  16  17
ENDBRANCH  15  16
ENDBRANCH   1  15
TORSDOF 22
ENDMDL
MODEL 2
REMARK VINA RESULT:      -6.2      2.254      8.350
REMARK  22 active torsions:
REMARK  status: ('A' for Active; 'I' for Inactive)
REMARK    1  A    between atoms: C_2  and  C_3 
REMARK    2  A    between atoms: C_3  and  C_4 
REMARK    3  A    between atoms: C_4  and  C_5 
REMARK    4  A    between atoms: C_5  and  C_6 
REMARK    5  A    between atoms: C_6  and  C_7 
REMARK    6  A    between atoms: C_7  and  O_9 
REMARK    7  A    between atoms: O_9  and  C_10 
REMARK    8  A    between atoms: C_10  and  C_12 
REMARK    9  A    between atoms: C_12  and  C_13 
REMARK   10  A    between atoms: C_13  and  C_14 
REMARK   11  A    between atoms: C_14  and  C_15 
REMARK   12  A    between atoms: C_15  and  C_16 
REMARK   13  A    between atoms: C_16  and  C_17 
REMARK   14  A    between atoms: C_17  and  C_18 
REMARK   15  A    between atoms: C_18  and  C_19 
REMARK   16  A    between atoms: C_19  and  C_20 
REMARK   17  A    between atoms: C_20  and  C_21 
REMARK   18  A    between atoms: C_21  and  C_22 
REMARK   19  A    between atoms: C_22  and  C_23 
REMARK   20  A    between atoms: C_23  and  C_24 
REMARK   21  A    between atoms: C_24  and  C_25 
REMARK   22  A    between atoms: C_25  and  C_26 
ROOT
HETATM    1  C   UNL     1     -21.789  -8.104  -0.609  1.00  0.00     0.000 C 
ENDROOT
BRANCH   1   2
HETATM    2  C   UNL     1     -22.753  -8.884   0.272  1.00  0.00     0.010 C 
BRANCH   2   3
HETATM    3  C   UNL     1     -23.248 -10.167  -0.392  1.00  0.00     0.111 C 
BRANCH   3   4
HETATM    4  C   UNL     1     -22.199 -11.237  -0.260  1.00  0.00     0.259 C 
HETATM    5  O   UNL     1     -21.569 -11.472   0.770  1.00  0.00    -0.265 OA
BRANCH   4   6
HETATM    6  O   UNL     1     -22.045 -11.917  -1.432  1.00  0.00    -0.316 OA
BRANCH   6   7
HETATM    7  C   UNL     1     -21.542 -11.119  -2.525  1.00  0.00     0.127 C 
HETATM    8  C   UNL     1     -21.895 -11.822  -3.838  1.00  0.00     0.040 C 
BRANCH   7   9
HETATM    9  C   UNL     1     -20.024 -10.947  -2.353  1.00  0.00     0.032 C 
BRANCH   9  10
HETATM   10  C   UNL     1     -19.296 -10.863  -3.693  1.00  0.00     0.002 C 
BRANCH  10  11
HETATM   11  C   UNL     1     -18.411  -9.626  -3.812  1.00  0.00     0.000 C 
BRANCH  11  12
HETATM   12  C   UNL     1     -17.330  -9.862  -4.868  1.00  0.00    -0.000 C 
BRANCH  12  13
HETATM   13  C   UNL     1     -15.961 -10.099  -4.239  1.00  0.00    -0.005 C 
HETATM   14  C   UNL     1     -15.898  -9.529  -2.830  1.00  0.00     0.005 C 
ENDBRANCH  12  13
ENDBRANCH  11  12
ENDBRANCH  10  11
ENDBRANCH   9  10
ENDBRANCH   7   9
ENDBRANCH   6   7
ENDBRANCH   4   6
ENDBRANCH   3   4
ENDBRANCH   2   3
ENDBRANCH   1   2
BRANCH   1  15
HETATM   15  C   UNL     1     -22.375  -6.730  -0.922  1.00  0.00     0.000 C 
BRANCH  15  16
HETATM   16  C   UNL     1     -21.999  -6.287  -2.327  1.00  0.00     0.000 C 
BRANCH  16  17
HETATM   17  C   UNL     1     -21.129  -7.337  -3.002  1.00  0.00     0.000 C 
BRANCH  17  18
HETATM   18  C   UNL     1     -21.832  -7.891  -4.232  1.00  0.00     0.000 C 
BRANCH  18  19
HETATM   19  C   UNL     1     -20.969  -7.694  -5.469  1.00  0.00     0.000 C 
BRANCH  19  20
HETATM   20  C   UNL     1     -21.222  -6.323  -6.075  1.00  0.00     0.000 C 
BRANCH  20  21
HETATM   21  C   UNL     1     -19.969  -5.816  -6.771  1.00  0.00     0.000 C 
BRANCH  21  22
HETATM   22  C   UNL     1     -20.184  -4.396  -7.269  1.00  0.00     0.000 C 
BRANCH  22  23
HETATM   23  C   UNL     1     -21.668  -4.061  -7.312  1.00  0.00     0.000 C 
BRANCH  23  24
HETATM   24  C   UNL     1     -22.031  -3.514  -8.685  1.00  0.00     0.000 C 
BRANCH  24  25
HETATM   25  C   UNL     1     -22.510  -4.625  -9.615  1.00  0.00     0.004 C 
BRANCH  25  26
HETATM   26  C   UNL     1     -21.959  -4.480 -11.042  1.00  0.00    -0.023 C 
HETATM   27  C   UNL     1     -22.809  -3.542 -11.902  1.00  0.00     0.009 C 
HETATM   28  C   UNL     1     -20.519  -3.970 -10.986  1.00  0.00     0.009 C 
ENDBRANCH  25  26
ENDBRANCH  24  25
ENDBRANCH  23  24
ENDBRANCH  22  23
ENDBRANCH  21  22
ENDBRANCH  20  21
ENDBRANCH  19  20
ENDBRANCH  18  19
ENDBRANCH  17  18
ENDBRANCH  16  17
ENDBRANCH  15  16
ENDBRANCH   1  15
TORSDOF 22
ENDMDL
MODEL 3
REMARK VINA RESULT:      -6.2      1.667      2.590
REMARK  22 active torsions:
REMARK  status: ('A' for Active; 'I' for Inactive)
REMARK    1  A    between atoms: C_2  and  C_3 
REMARK    2  A    between atoms: C_3  and  C_4 
REMARK    3  A    between atoms: C_4  and  C_5 
REMARK    4  A    between atoms: C_5  and  C_6 
REMARK    5  A    between atoms: C_6  and  C_7 
REMARK    6  A    between atoms: C_7  and  O_9 
REMARK    7  A    between atoms: O_9  and  C_10 
REMARK    8  A    between atoms: C_10  and  C_12 
REMARK    9  A    between atoms: C_12  and  C_13 
REMARK   10  A    between atoms: C_13  and  C_14 
REMARK   11  A    between atoms: C_14  and  C_15 
REMARK   12  A    between atoms: C_15  and  C_16 
REMARK   13  A    between atoms: C_16  and  C_17 
REMARK   14  A    between atoms: C_17  and  C_18 
REMARK   15  A    between atoms: C_18  and  C_19 
REMARK   16  A    between atoms: C_19  and  C_20 
REMARK   17  A    between atoms: C_20  and  C_21 
REMARK   18  A    between atoms: C_21  and  C_22 
REMARK   19  A    between atoms: C_22  and  C_23 
REMARK   20  A    between atoms: C_23  and  C_24 
REMARK   21  A    between atoms: C_24  and  C_25 
REMARK   22  A    between atoms: C_25  and  C_26 
ROOT
HETATM    1  C   UNL     1     -22.142  -6.318  -3.397  1.00  0.00     0.000 C 
ENDROOT
BRANCH   1   2
HETATM    2  C   UNL     1     -20.823  -6.958  -3.799  1.00  0.00     0.010 C 
BRANCH   2   3
HETATM    3  C   UNL     1     -20.660  -7.065  -5.313  1.00  0.00     0.111 C 
BRANCH   3   4
HETATM    4  C   UNL     1     -20.523  -5.688  -5.902  1.00  0.00     0.259 C 
HETATM    5  O   UNL     1     -20.003  -4.733  -5.327  1.00  0.00    -0.265 OA
BRANCH   4   6
HETATM    6  O   UNL     1     -21.046  -5.642  -7.161  1.00  0.00    -0.316 OA
BRANCH   6   7
HETATM    7  C   UNL     1     -21.177  -4.312  -7.706  1.00  0.00     0.127 C 
HETATM    8  C   UNL     1     -22.631  -4.109  -8.140  1.00  0.00     0.040 C 
BRANCH   7   9
HETATM    9  C   UNL     1     -20.198  -4.163  -8.882  1.00  0.00     0.032 C 
BRANCH   9  10
HETATM   10  C   UNL     1     -20.860  -4.455 -10.227  1.00  0.00     0.002 C 
BRANCH  10  11
HETATM   11  C   UNL     1     -20.582  -3.379 -11.273  1.00  0.00     0.000 C 
BRANCH  11  12
HETATM   12  C   UNL     1     -21.904  -2.826 -11.811  1.00  0.00    -0.000 C 
BRANCH  12  13
HETATM   13  C   UNL     1     -22.991  -3.895 -11.858  1.00  0.00    -0.005 C 
HETATM   14  C   UNL     1     -24.325  -3.342 -11.380  1.00  0.00     0.005 C 
ENDBRANCH  12  13
ENDBRANCH  11  12
ENDBRANCH  10  11
ENDBRANCH   9  10
ENDBRANCH   7   9
ENDBRANCH   6   7
ENDBRANCH   4   6
ENDBRANCH   3   4
ENDBRANCH   2   3
ENDBRANCH   1   2
BRANCH   1  15
HETATM   15  C   UNL     1     -22.258  -6.289  -1.876  1.00  0.00     0.000 C 
BRANCH  15  16
HETATM   16  C   UNL     1     -21.597  -7.510  -1.257  1.00  0.00     0.000 C 
BRANCH  16  17
HETATM   17  C   UNL     1     -22.247  -7.850   0.076  1.00  0.00     0.000 C 
BRANCH  17  18
HETATM   18  C   UNL     1     -21.311  -8.706   0.916  1.00  0.00     0.000 C 
BRANCH  18  19
HETATM   19  C   UNL     1     -21.492 -10.177   0.577  1.00  0.00     0.000 C 
BRANCH  19  20
HETATM   20  C   UNL     1     -22.937 -10.456   0.193  1.00  0.00     0.000 C 
BRANCH  20  21
HETATM   21  C   UNL     1     -23.186 -11.955   0.134  1.00  0.00     0.000 C 
BRANCH  21  22
HETATM   22  C   UNL     1     -23.799 -12.332  -1.205  1.00  0.00     0.000 C 
BRANCH  22  23
HETATM   23  C   UNL     1     -22.866 -13.249  -1.984  1.00  0.00     0.000 C 
BRANCH  23  24
HETATM   24  C   UNL     1     -22.626 -12.676  -3.373  1.00  0.00     0.000 C 
BRANCH  24  25
HETATM   25  C   UNL     1     -22.855 -11.168  -3.398  1.00  0.00     0.004 C 
BRANCH  25  26
HETATM   26  C   UNL     1     -21.608 -10.389  -3.845  1.00  0.00    -0.023 C 
HETATM   27  C   UNL     1     -20.424 -10.590  -2.897  1.00  0.00     0.009 C 
HETATM   28  C   UNL     1     -21.218 -10.815  -5.260  1.00  0.00     0.009 C 
ENDBRANCH  25  26
ENDBRANCH  24  25
ENDBRANCH  23  24
ENDBRANCH  22  23
ENDBRANCH  21  22
ENDBRANCH  20  21
ENDBRANCH  19  20
ENDBRANCH  18  19
ENDBRANCH  17  18
ENDBRANCH  16  17
ENDBRANCH  15  16
ENDBRANCH   1  15
TORSDOF 22
ENDMDL
MODEL 4
REMARK VINA RESULT:      -6.1      1.744      2.819
REMARK  22 active torsions:
REMARK  status: ('A' for Active; 'I' for Inactive)
REMARK    1  A    between atoms: C_2  and  C_3 
REMARK    2  A    between atoms: C_3  and  C_4 
REMARK    3  A    between atoms: C_4  and  C_5 
REMARK    4  A    between atoms: C_5  and  C_6 
REMARK    5  A    between atoms: C_6  and  C_7 
REMARK    6  A    between atoms: C_7  and  O_9 
REMARK    7  A    between atoms: O_9  and  C_10 
REMARK    8  A    between atoms: C_10  and  C_12 
REMARK    9  A    between atoms: C_12  and  C_13 
REMARK   10  A    between atoms: C_13  and  C_14 
REMARK   11  A    between atoms: C_14  and  C_15 
REMARK   12  A    between atoms: C_15  and  C_16 
REMARK   13  A    between atoms: C_16  and  C_17 
REMARK   14  A    between atoms: C_17  and  C_18 
REMARK   15  A    between atoms: C_18  and  C_19 
REMARK   16  A    between atoms: C_19  and  C_20 
REMARK   17  A    between atoms: C_20  and  C_21 
REMARK   18  A    between atoms: C_21  and  C_22 
REMARK   19  A    between atoms: C_22  and  C_23 
REMARK   20  A    between atoms: C_23  and  C_24 
REMARK   21  A    between atoms: C_24  and  C_25 
REMARK   22  A    between atoms: C_25  and  C_26 
ROOT
HETATM    1  C   UNL     1     -21.556  -8.502  -3.803  1.00  0.00     0.000 C 
ENDROOT
BRANCH   1   2
HETATM    2  C   UNL     1     -21.248  -8.101  -5.237  1.00  0.00     0.010 C 
BRANCH   2   3
HETATM    3  C   UNL     1     -20.602  -6.722  -5.336  1.00  0.00     0.111 C 
BRANCH   3   4
HETATM    4  C   UNL     1     -21.644  -5.707  -5.723  1.00  0.00     0.259 C 
HETATM    5  O   UNL     1     -22.838  -5.794  -5.445  1.00  0.00    -0.265 OA
BRANCH   4   6
HETATM    6  O   UNL     1     -21.084  -4.675  -6.417  1.00  0.00    -0.316 OA
BRANCH   6   7
HETATM    7  C   UNL     1     -20.396  -5.068  -7.623  1.00  0.00     0.127 C 
HETATM    8  C   UNL     1     -19.064  -4.316  -7.684  1.00  0.00     0.040 C 
BRANCH   7   9
HETATM    9  C   UNL     1     -21.293  -4.750  -8.830  1.00  0.00     0.032 C 
BRANCH   9  10
HETATM   10  C   UNL     1     -20.484  -4.381 -10.072  1.00  0.00     0.002 C 
BRANCH  10  11
HETATM   11  C   UNL     1     -21.359  -3.949 -11.244  1.00  0.00     0.000 C 
BRANCH  11  12
HETATM   12  C   UNL     1     -22.816  -4.327 -10.970  1.00  0.00    -0.000 C 
BRANCH  12  13
HETATM   13  C   UNL     1     -23.779  -3.217 -11.378  1.00  0.00    -0.005 C 
HETATM   14  C   UNL     1     -23.348  -2.568 -12.684  1.00  0.00     0.005 C 
ENDBRANCH  12  13
ENDBRANCH  11  12
ENDBRANCH  10  11
ENDBRANCH   9  10
ENDBRANCH   7   9
ENDBRANCH   6   7
ENDBRANCH   4   6
ENDBRANCH   3   4
ENDBRANCH   2   3
ENDBRANCH   1   2
BRANCH   1  15
HETATM   15  C   UNL     1     -20.262  -8.564  -2.997  1.00  0.00     0.000 C 
BRANCH  15  16
HETATM   16  C   UNL     1     -20.435  -7.903  -1.639  1.00  0.00     0.000 C 
BRANCH  16  17
HETATM   17  C   UNL     1     -21.806  -7.251  -1.534  1.00  0.00     0.000 C 
BRANCH  17  18
HETATM   18  C   UNL     1     -22.556  -7.792  -0.326  1.00  0.00     0.000 C 
BRANCH  18  19
HETATM   19  C   UNL     1     -21.664  -8.726   0.477  1.00  0.00     0.000 C 
BRANCH  19  20
HETATM   20  C   UNL     1     -22.047 -10.174   0.217  1.00  0.00     0.000 C 
BRANCH  20  21
HETATM   21  C   UNL     1     -23.490 -10.259  -0.258  1.00  0.00     0.000 C 
BRANCH  21  22
HETATM   22  C   UNL     1     -23.574 -11.076  -1.537  1.00  0.00     0.000 C 
BRANCH  22  23
HETATM   23  C   UNL     1     -22.200 -11.599  -1.932  1.00  0.00     0.000 C 
BRANCH  23  24
HETATM   24  C   UNL     1     -22.316 -12.448  -3.189  1.00  0.00     0.000 C 
BRANCH  24  25
HETATM   25  C   UNL     1     -21.226 -12.098  -4.197  1.00  0.00     0.004 C 
BRANCH  25  26
HETATM   26  C   UNL     1     -21.772 -11.933  -5.625  1.00  0.00    -0.023 C 
HETATM   27  C   UNL     1     -20.723 -12.259  -6.690  1.00  0.00     0.009 C 
HETATM   28  C   UNL     1     -22.997 -12.828  -5.811  1.00  0.00     0.009 C 
ENDBRANCH  25  26
ENDBRANCH  24  25
ENDBRANCH  23  24
ENDBRANCH  22  23
ENDBRANCH  21  22
ENDBRANCH  20  21
ENDBRANCH  19  20
ENDBRANCH  18  19
ENDBRANCH  17  18
ENDBRANCH  16  17
ENDBRANCH  15  16
ENDBRANCH   1  15
TORSDOF 22
ENDMDL
MODEL 5
REMARK VINA RESULT:      -6.1      2.838      8.333
REMARK  22 active torsions:
REMARK  status: ('A' for Active; 'I' for Inactive)
REMARK    1  A    between atoms: C_2  and  C_3 
REMARK    2  A    between atoms: C_3  and  C_4 
REMARK    3  A    between atoms: C_4  and  C_5 
REMARK    4  A    between atoms: C_5  and  C_6 
REMARK    5  A    between atoms: C_6  and  C_7 
REMARK    6  A    between atoms: C_7  and  O_9 
REMARK    7  A    between atoms: O_9  and  C_10 
REMARK    8  A    between atoms: C_10  and  C_12 
REMARK    9  A    between atoms: C_12  and  C_13 
REMARK   10  A    between atoms: C_13  and  C_14 
REMARK   11  A    between atoms: C_14  and  C_15 
REMARK   12  A    between atoms: C_15  and  C_16 
REMARK   13  A    between atoms: C_16  and  C_17 
REMARK   14  A    between atoms: C_17  and  C_18 
REMARK   15  A    between atoms: C_18  and  C_19 
REMARK   16  A    between atoms: C_19  and  C_20 
REMARK   17  A    between atoms: C_20  and  C_21 
REMARK   18  A    between atoms: C_21  and  C_22 
REMARK   19  A    between atoms: C_22  and  C_23 
REMARK   20  A    between atoms: C_23  and  C_24 
REMARK   21  A    between atoms: C_24  and  C_25 
REMARK   22  A    between atoms: C_25  and  C_26 
ROOT
HETATM    1  C   UNL     1     -21.424  -9.571   0.146  1.00  0.00     0.000 C 
ENDROOT
BRANCH   1   2
HETATM    2  C   UNL     1     -20.558 -10.428   1.056  1.00  0.00     0.010 C 
BRANCH   2   3
HETATM    3  C   UNL     1     -20.229 -11.788   0.445  1.00  0.00     0.111 C 
BRANCH   3   4
HETATM    4  C   UNL     1     -21.478 -12.625   0.383  1.00  0.00     0.259 C 
HETATM    5  O   UNL     1     -22.153 -12.941   1.361  1.00  0.00    -0.265 OA
BRANCH   4   6
HETATM    6  O   UNL     1     -21.763 -12.980  -0.902  1.00  0.00    -0.316 OA
BRANCH   6   7
HETATM    7  C   UNL     1     -23.035 -12.501  -1.387  1.00  0.00     0.127 C 
HETATM    8  C   UNL     1     -24.073 -13.610  -1.197  1.00  0.00     0.040 C 
BRANCH   7   9
HETATM    9  C   UNL     1     -22.882 -12.102  -2.864  1.00  0.00     0.032 C 
BRANCH   9  10
HETATM   10  C   UNL     1     -22.465 -10.641  -3.028  1.00  0.00     0.002 C 
BRANCH  10  11
HETATM   11  C   UNL     1     -21.200 -10.475  -3.865  1.00  0.00     0.000 C 
BRANCH  11  12
HETATM   12  C   UNL     1     -19.979 -10.391  -2.947  1.00  0.00    -0.000 C 
BRANCH  12  13
HETATM   13  C   UNL     1     -19.124  -9.165  -3.249  1.00  0.00    -0.005 C 
HETATM   14  C   UNL     1     -19.021  -8.922  -4.747  1.00  0.00     0.005 C 
ENDBRANCH  12  13
ENDBRANCH  11  12
ENDBRANCH  10  11
ENDBRANCH   9  10
ENDBRANCH   7   9
ENDBRANCH   6   7
ENDBRANCH   4   6
ENDBRANCH   3   4
ENDBRANCH   2   3
ENDBRANCH   1   2
BRANCH   1  15
HETATM   15  C   UNL     1     -22.025  -8.417   0.943  1.00  0.00     0.000 C 
BRANCH  15  16
HETATM   16  C   UNL     1     -22.489  -7.302   0.019  1.00  0.00     0.000 C 
BRANCH  16  17
HETATM   17  C   UNL     1     -21.740  -7.360  -1.304  1.00  0.00     0.000 C 
BRANCH  17  18
HETATM   18  C   UNL     1     -22.187  -6.225  -2.213  1.00  0.00     0.000 C 
BRANCH  18  19
HETATM   19  C   UNL     1     -21.313  -6.167  -3.456  1.00  0.00     0.000 C 
BRANCH  19  20
HETATM   20  C   UNL     1     -22.113  -6.577  -4.682  1.00  0.00     0.000 C 
BRANCH  20  21
HETATM   21  C   UNL     1     -21.334  -6.259  -5.949  1.00  0.00     0.000 C 
BRANCH  21  22
HETATM   22  C   UNL     1     -20.537  -4.977  -5.768  1.00  0.00     0.000 C 
BRANCH  22  23
HETATM   23  C   UNL     1     -20.483  -4.190  -7.070  1.00  0.00     0.000 C 
BRANCH  23  24
HETATM   24  C   UNL     1     -20.766  -5.118  -8.242  1.00  0.00     0.000 C 
BRANCH  24  25
HETATM   25  C   UNL     1     -20.477  -4.433  -9.574  1.00  0.00     0.004 C 
BRANCH  25  26
HETATM   26  C   UNL     1     -21.725  -3.776 -10.184  1.00  0.00    -0.023 C 
HETATM   27  C   UNL     1     -21.569  -3.508 -11.682  1.00  0.00     0.009 C 
HETATM   28  C   UNL     1     -22.944  -4.665  -9.939  1.00  0.00     0.009 C 
ENDBRANCH  25  26
ENDBRANCH  24  25
ENDBRANCH  23  24
ENDBRANCH  22  23
ENDBRANCH  21  22
ENDBRANCH  20  21
ENDBRANCH  19  20
ENDBRANCH  18  19
ENDBRANCH  17  18
ENDBRANCH  16  17
ENDBRANCH  15  16
ENDBRANCH   1  15
TORSDOF 22
ENDMDL
MODEL 6
REMARK VINA RESULT:      -6.0      1.598      2.461
REMARK  22 active torsions:
REMARK  status: ('A' for Active; 'I' for Inactive)
REMARK    1  A    between atoms: C_2  and  C_3 
REMARK    2  A    between atoms: C_3  and  C_4 
REMARK    3  A    between atoms: C_4  and  C_5 
REMARK    4  A    between atoms: C_5  and  C_6 
REMARK    5  A    between atoms: C_6  and  C_7 
REMARK    6  A    between atoms: C_7  and  O_9 
REMARK    7  A    between atoms: O_9  and  C_10 
REMARK    8  A    between atoms: C_10  and  C_12 
REMARK    9  A    between atoms: C_12  and  C_13 
REMARK   10  A    between atoms: C_13  and  C_14 
REMARK   11  A    between atoms: C_14  and  C_15 
REMARK   12  A    between atoms: C_15  and  C_16 
REMARK   13  A    between atoms: C_16  and  C_17 
REMARK   14  A    between atoms: C_17  and  C_18 
REMARK   15  A    between atoms: C_18  and  C_19 
REMARK   16  A    between atoms: C_19  and  C_20 
REMARK   17  A    between atoms: C_20  and  C_21 
REMARK   18  A    between atoms: C_21  and  C_22 
REMARK   19  A    between atoms: C_22  and  C_23 
REMARK   20  A    between atoms: C_23  and  C_24 
REMARK   21  A    between atoms: C_24  and  C_25 
REMARK   22  A    between atoms: C_25  and  C_26 
ROOT
HETATM    1  C   UNL     1     -22.032  -6.507  -3.134  1.00  0.00     0.000 C 
ENDROOT
BRANCH   1   2
HETATM    2  C   UNL     1     -20.720  -6.375  -3.893  1.00  0.00     0.010 C 
BRANCH   2   3
HETATM    3  C   UNL     1     -20.883  -5.643  -5.223  1.00  0.00     0.111 C 
BRANCH   3   4
HETATM    4  C   UNL     1     -21.007  -6.648  -6.336  1.00  0.00     0.259 C 
HETATM    5  O   UNL     1     -21.354  -7.818  -6.183  1.00  0.00    -0.265 OA
BRANCH   4   6
HETATM    6  O   UNL     1     -20.689  -6.086  -7.538  1.00  0.00    -0.316 OA
BRANCH   6   7
HETATM    7  C   UNL     1     -21.045  -4.693  -7.660  1.00  0.00     0.127 C 
HETATM    8  C   UNL     1     -22.502  -4.606  -8.121  1.00  0.00     0.040 C 
BRANCH   7   9
HETATM    9  C   UNL     1     -20.084  -4.023  -8.655  1.00  0.00     0.032 C 
BRANCH   9  10
HETATM   10  C   UNL     1     -20.213  -4.603 -10.063  1.00  0.00     0.002 C 
BRANCH  10  11
HETATM   11  C   UNL     1     -20.469  -3.536 -11.124  1.00  0.00     0.000 C 
BRANCH  11  12
HETATM   12  C   UNL     1     -21.762  -3.855 -11.877  1.00  0.00    -0.000 C 
BRANCH  12  13
HETATM   13  C   UNL     1     -22.820  -2.776 -11.675  1.00  0.00    -0.005 C 
HETATM   14  C   UNL     1     -24.217  -3.376 -11.636  1.00  0.00     0.005 C 
ENDBRANCH  12  13
ENDBRANCH  11  12
ENDBRANCH  10  11
ENDBRANCH   9  10
ENDBRANCH   7   9
ENDBRANCH   6   7
ENDBRANCH   4   6
ENDBRANCH   3   4
ENDBRANCH   2   3
ENDBRANCH   1   2
BRANCH   1  15
HETATM   15  C   UNL     1     -21.786  -6.305  -1.642  1.00  0.00     0.000 C 
BRANCH  15  16
HETATM   16  C   UNL     1     -22.705  -7.190  -0.815  1.00  0.00     0.000 C 
BRANCH  16  17
HETATM   17  C   UNL     1     -21.982  -7.697   0.424  1.00  0.00     0.000 C 
BRANCH  17  18
HETATM   18  C   UNL     1     -21.910  -9.216   0.408  1.00  0.00     0.000 C 
BRANCH  18  19
HETATM   19  C   UNL     1     -22.803  -9.777  -0.688  1.00  0.00     0.000 C 
BRANCH  19  20
HETATM   20  C   UNL     1     -23.875 -10.672  -0.088  1.00  0.00     0.000 C 
BRANCH  20  21
HETATM   21  C   UNL     1     -23.539 -12.134  -0.334  1.00  0.00     0.000 C 
BRANCH  21  22
HETATM   22  C   UNL     1     -23.355 -12.861   0.989  1.00  0.00     0.000 C 
BRANCH  22  23
HETATM   23  C   UNL     1     -21.880 -13.125   1.256  1.00  0.00     0.000 C 
BRANCH  23  24
HETATM   24  C   UNL     1     -21.105 -13.074  -0.053  1.00  0.00     0.000 C 
BRANCH  24  25
HETATM   25  C   UNL     1     -19.873 -12.183   0.068  1.00  0.00     0.004 C 
BRANCH  25  26
HETATM   26  C   UNL     1     -19.152 -11.986  -1.276  1.00  0.00    -0.023 C 
HETATM   27  C   UNL     1     -19.310 -10.564  -1.818  1.00  0.00     0.009 C 
HETATM   28  C   UNL     1     -17.670 -12.320  -1.116  1.00  0.00     0.009 C 
ENDBRANCH  25  26
ENDBRANCH  24  25
ENDBRANCH  23  24
ENDBRANCH  22  23
ENDBRANCH  21  22
ENDBRANCH  20  21
ENDBRANCH  19  20
ENDBRANCH  18  19
ENDBRANCH  17  18
ENDBRANCH  16  17
ENDBRANCH  15  16
ENDBRANCH   1  15
TORSDOF 22
ENDMDL
MODEL 7
REMARK VINA RESULT:      -6.0      1.236      2.171
REMARK  22 active torsions:
REMARK  status: ('A' for Active; 'I' for Inactive)
REMARK    1  A    between atoms: C_2  and  C_3 
REMARK    2  A    between atoms: C_3  and  C_4 
REMARK    3  A    between atoms: C_4  and  C_5 
REMARK    4  A    between atoms: C_5  and  C_6 
REMARK    5  A    between atoms: C_6  and  C_7 
REMARK    6  A    between atoms: C_7  and  O_9 
REMARK    7  A    between atoms: O_9  and  C_10 
REMARK    8  A    between atoms: C_10  and  C_12 
REMARK    9  A    between atoms: C_12  and  C_13 
REMARK   10  A    between atoms: C_13  and  C_14 
REMARK   11  A    between atoms: C_14  and  C_15 
REMARK   12  A    between atoms: C_15  and  C_16 
REMARK   13  A    between atoms: C_16  and  C_17 
REMARK   14  A    between atoms: C_17  and  C_18 
REMARK   15  A    between atoms: C_18  and  C_19 
REMARK   16  A    between atoms: C_19  and  C_20 
REMARK   17  A    between atoms: C_20  and  C_21 
REMARK   18  A    between atoms: C_21  and  C_22 
REMARK   19  A    between atoms: C_22  and  C_23 
REMARK   20  A    between atoms: C_23  and  C_24 
REMARK   21  A    between atoms: C_24  and  C_25 
REMARK   22  A    between atoms: C_25  and  C_26 
ROOT
HETATM    1  C   UNL     1     -21.493  -8.812  -3.977  1.00  0.00     0.000 C 
ENDROOT
BRANCH   1   2
HETATM    2  C   UNL     1     -21.484  -8.356  -5.428  1.00  0.00     0.010 C 
BRANCH   2   3
HETATM    3  C   UNL     1     -20.685  -7.072  -5.634  1.00  0.00     0.111 C 
BRANCH   3   4
HETATM    4  C   UNL     1     -21.627  -5.901  -5.716  1.00  0.00     0.259 C 
HETATM    5  O   UNL     1     -22.800  -5.925  -5.349  1.00  0.00    -0.265 OA
BRANCH   4   6
HETATM    6  O   UNL     1     -21.004  -4.810  -6.245  1.00  0.00    -0.316 OA
BRANCH   6   7
HETATM    7  C   UNL     1     -20.425  -5.024  -7.549  1.00  0.00     0.127 C 
HETATM    8  C   UNL     1     -19.019  -4.419  -7.559  1.00  0.00     0.040 C 
BRANCH   7   9
HETATM    9  C   UNL     1     -21.337  -4.379  -8.606  1.00  0.00     0.032 C 
BRANCH   9  10
HETATM   10  C   UNL     1     -20.720  -4.415 -10.003  1.00  0.00     0.002 C 
BRANCH  10  11
HETATM   11  C   UNL     1     -21.389  -3.446 -10.973  1.00  0.00     0.000 C 
BRANCH  11  12
HETATM   12  C   UNL     1     -22.910  -3.528 -10.821  1.00  0.00    -0.000 C 
BRANCH  12  13
HETATM   13  C   UNL     1     -23.635  -2.852 -11.980  1.00  0.00    -0.005 C 
HETATM   14  C   UNL     1     -22.837  -2.966 -13.269  1.00  0.00     0.005 C 
ENDBRANCH  12  13
ENDBRANCH  11  12
ENDBRANCH  10  11
ENDBRANCH   9  10
ENDBRANCH   7   9
ENDBRANCH   6   7
ENDBRANCH   4   6
ENDBRANCH   3   4
ENDBRANCH   2   3
ENDBRANCH   1   2
BRANCH   1  15
HETATM   15  C   UNL     1     -20.158  -8.470  -3.322  1.00  0.00     0.000 C 
BRANCH  15  16
HETATM   16  C   UNL     1     -20.370  -7.770  -1.989  1.00  0.00     0.000 C 
BRANCH  16  17
HETATM   17  C   UNL     1     -21.689  -7.012  -1.990  1.00  0.00     0.000 C 
BRANCH  17  18
HETATM   18  C   UNL     1     -22.426  -7.235  -0.677  1.00  0.00     0.000 C 
BRANCH  18  19
HETATM   19  C   UNL     1     -21.525  -7.943   0.322  1.00  0.00     0.000 C 
BRANCH  19  20
HETATM   20  C   UNL     1     -22.172  -9.236   0.792  1.00  0.00     0.000 C 
BRANCH  20  21
HETATM   21  C   UNL     1     -23.328  -9.609  -0.123  1.00  0.00     0.000 C 
BRANCH  21  22
HETATM   22  C   UNL     1     -22.974 -10.841  -0.941  1.00  0.00     0.000 C 
BRANCH  22  23
HETATM   23  C   UNL     1     -21.806 -11.587  -0.310  1.00  0.00     0.000 C 
BRANCH  23  24
HETATM   24  C   UNL     1     -20.805 -11.978  -1.387  1.00  0.00     0.000 C 
BRANCH  24  25
HETATM   25  C   UNL     1     -19.453 -11.312  -1.155  1.00  0.00     0.004 C 
BRANCH  25  26
HETATM   26  C   UNL     1     -18.397 -11.744  -2.185  1.00  0.00    -0.023 C 
HETATM   27  C   UNL     1     -19.000 -11.992  -3.570  1.00  0.00     0.009 C 
HETATM   28  C   UNL     1     -17.305 -10.679  -2.277  1.00  0.00     0.009 C 
ENDBRANCH  25  26
ENDBRANCH  24  25
ENDBRANCH  23  24
ENDBRANCH  22  23
ENDBRANCH  21  22
ENDBRANCH  20  21
ENDBRANCH  19  20
ENDBRANCH  18  19
ENDBRANCH  17  18
ENDBRANCH  16  17
ENDBRANCH  15  16
ENDBRANCH   1  15
TORSDOF 22
ENDMDL
MODEL 8
REMARK VINA RESULT:      -5.9      1.322      2.176
REMARK  22 active torsions:
REMARK  status: ('A' for Active; 'I' for Inactive)
REMARK    1  A    between atoms: C_2  and  C_3 
REMARK    2  A    between atoms: C_3  and  C_4 
REMARK    3  A    between atoms: C_4  and  C_5 
REMARK    4  A    between atoms: C_5  and  C_6 
REMARK    5  A    between atoms: C_6  and  C_7 
REMARK    6  A    between atoms: C_7  and  O_9 
REMARK    7  A    between atoms: O_9  and  C_10 
REMARK    8  A    between atoms: C_10  and  C_12 
REMARK    9  A    between atoms: C_12  and  C_13 
REMARK   10  A    between atoms: C_13  and  C_14 
REMARK   11  A    between atoms: C_14  and  C_15 
REMARK   12  A    between atoms: C_15  and  C_16 
REMARK   13  A    between atoms: C_16  and  C_17 
REMARK   14  A    between atoms: C_17  and  C_18 
REMARK   15  A    between atoms: C_18  and  C_19 
REMARK   16  A    between atoms: C_19  and  C_20 
REMARK   17  A    between atoms: C_20  and  C_21 
REMARK   18  A    between atoms: C_21  and  C_22 
REMARK   19  A    between atoms: C_22  and  C_23 
REMARK   20  A    between atoms: C_23  and  C_24 
REMARK   21  A    between atoms: C_24  and  C_25 
REMARK   22  A    between atoms: C_25  and  C_26 
ROOT
HETATM    1  C   UNL     1     -21.271  -7.263  -1.940  1.00  0.00     0.000 C 
ENDROOT
BRANCH   1   2
HETATM    2  C   UNL     1     -21.384  -6.293  -3.106  1.00  0.00     0.010 C 
BRANCH   2   3
HETATM    3  C   UNL     1     -22.288  -6.816  -4.219  1.00  0.00     0.111 C 
BRANCH   3   4
HETATM    4  C   UNL     1     -21.561  -6.739  -5.534  1.00  0.00     0.259 C 
HETATM    5  O   UNL     1     -21.049  -7.701  -6.104  1.00  0.00    -0.265 OA
BRANCH   4   6
HETATM    6  O   UNL     1     -21.551  -5.461  -6.012  1.00  0.00    -0.316 OA
BRANCH   6   7
HETATM    7  C   UNL     1     -20.772  -5.277  -7.212  1.00  0.00     0.127 C 
HETATM    8  C   UNL     1     -19.411  -4.698  -6.821  1.00  0.00     0.040 C 
BRANCH   7   9
HETATM    9  C   UNL     1     -21.543  -4.347  -8.163  1.00  0.00     0.032 C 
BRANCH   9  10
HETATM   10  C   UNL     1     -20.870  -4.228  -9.529  1.00  0.00     0.002 C 
BRANCH  10  11
HETATM   11  C   UNL     1     -21.866  -4.233 -10.685  1.00  0.00     0.000 C 
BRANCH  11  12
HETATM   12  C   UNL     1     -21.616  -3.024 -11.589  1.00  0.00    -0.000 C 
BRANCH  12  13
HETATM   13  C   UNL     1     -22.709  -2.864 -12.641  1.00  0.00    -0.005 C 
HETATM   14  C   UNL     1     -23.829  -3.871 -12.426  1.00  0.00     0.005 C 
ENDBRANCH  12  13
ENDBRANCH  11  12
ENDBRANCH  10  11
ENDBRANCH   9  10
ENDBRANCH   7   9
ENDBRANCH   6   7
ENDBRANCH   4   6
ENDBRANCH   3   4
ENDBRANCH   2   3
ENDBRANCH   1   2
BRANCH   1  15
HETATM   15  C   UNL     1     -22.295  -6.902  -0.868  1.00  0.00     0.000 C 
BRANCH  15  16
HETATM   16  C   UNL     1     -22.272  -7.912   0.268  1.00  0.00     0.000 C 
BRANCH  16  17
HETATM   17  C   UNL     1     -23.343  -8.972   0.061  1.00  0.00     0.000 C 
BRANCH  17  18
HETATM   18  C   UNL     1     -22.717 -10.358   0.037  1.00  0.00     0.000 C 
BRANCH  18  19
HETATM   19  C   UNL     1     -21.274 -10.294   0.513  1.00  0.00     0.000 C 
BRANCH  19  20
HETATM   20  C   UNL     1     -20.427 -11.313  -0.233  1.00  0.00     0.000 C 
BRANCH  20  21
HETATM   21  C   UNL     1     -19.675 -10.639  -1.370  1.00  0.00     0.000 C 
BRANCH  21  22
HETATM   22  C   UNL     1     -18.725 -11.627  -2.029  1.00  0.00     0.000 C 
BRANCH  22  23
HETATM   23  C   UNL     1     -17.326 -11.036  -2.137  1.00  0.00     0.000 C 
BRANCH  23  24
HETATM   24  C   UNL     1     -17.351  -9.822  -3.054  1.00  0.00     0.000 C 
BRANCH  24  25
HETATM   25  C   UNL     1     -16.000  -9.607  -3.727  1.00  0.00     0.004 C 
BRANCH  25  26
HETATM   26  C   UNL     1     -16.036  -9.907  -5.235  1.00  0.00    -0.023 C 
HETATM   27  C   UNL     1     -15.511 -11.306  -5.563  1.00  0.00     0.009 C 
HETATM   28  C   UNL     1     -17.466  -9.754  -5.753  1.00  0.00     0.009 C 
ENDBRANCH  25  26
ENDBRANCH  24  25
ENDBRANCH  23  24
ENDBRANCH  22  23
ENDBRANCH  21  22
ENDBRANCH  20  21
ENDBRANCH  19  20
ENDBRANCH  18  19
ENDBRANCH  17  18
ENDBRANCH  16  17
ENDBRANCH  15  16
ENDBRANCH   1  15
TORSDOF 22
ENDMDL
MODEL 9
REMARK VINA RESULT:      -5.8      1.576      2.373
REMARK  22 active torsions:
REMARK  status: ('A' for Active; 'I' for Inactive)
REMARK    1  A    between atoms: C_2  and  C_3 
REMARK    2  A    between atoms: C_3  and  C_4 
REMARK    3  A    between atoms: C_4  and  C_5 
REMARK    4  A    between atoms: C_5  and  C_6 
REMARK    5  A    between atoms: C_6  and  C_7 
REMARK    6  A    between atoms: C_7  and  O_9 
REMARK    7  A    between atoms: O_9  and  C_10 
REMARK    8  A    between atoms: C_10  and  C_12 
REMARK    9  A    between atoms: C_12  and  C_13 
REMARK   10  A    between atoms: C_13  and  C_14 
REMARK   11  A    between atoms: C_14  and  C_15 
REMARK   12  A    between atoms: C_15  and  C_16 
REMARK   13  A    between atoms: C_16  and  C_17 
REMARK   14  A    between atoms: C_17  and  C_18 
REMARK   15  A    between atoms: C_18  and  C_19 
REMARK   16  A    between atoms: C_19  and  C_20 
REMARK   17  A    between atoms: C_20  and  C_21 
REMARK   18  A    between atoms: C_21  and  C_22 
REMARK   19  A    between atoms: C_22  and  C_23 
REMARK   20  A    between atoms: C_23  and  C_24 
REMARK   21  A    between atoms: C_24  and  C_25 
REMARK   22  A    between atoms: C_25  and  C_26 
ROOT
HETATM    1  C   UNL     1     -21.292  -7.714  -1.285  1.00  0.00     0.000 C 
ENDROOT
BRANCH   1   2
HETATM    2  C   UNL     1     -21.214  -7.226  -2.723  1.00  0.00     0.010 C 
BRANCH   2   3
HETATM    3  C   UNL     1     -21.689  -8.275  -3.725  1.00  0.00     0.111 C 
BRANCH   3   4
HETATM    4  C   UNL     1     -21.505  -7.752  -5.124  1.00  0.00     0.259 C 
HETATM    5  O   UNL     1     -21.162  -8.440  -6.084  1.00  0.00    -0.265 OA
BRANCH   4   6
HETATM    6  O   UNL     1     -21.775  -6.417  -5.185  1.00  0.00    -0.316 OA
BRANCH   6   7
HETATM    7  C   UNL     1     -21.023  -5.699  -6.186  1.00  0.00     0.127 C 
HETATM    8  C   UNL     1     -20.068  -4.737  -5.475  1.00  0.00     0.040 C 
BRANCH   7   9
HETATM    9  C   UNL     1     -22.008  -4.959  -7.107  1.00  0.00     0.032 C 
BRANCH   9  10
HETATM   10  C   UNL     1     -21.344  -3.803  -7.853  1.00  0.00     0.002 C 
BRANCH  10  11
HETATM   11  C   UNL     1     -21.280  -4.029  -9.361  1.00  0.00     0.000 C 
BRANCH  11  12
HETATM   12  C   UNL     1     -22.692  -4.006  -9.949  1.00  0.00    -0.000 C 
BRANCH  12  13
HETATM   13  C   UNL     1     -22.711  -4.465 -11.403  1.00  0.00    -0.005 C 
HETATM   14  C   UNL     1     -22.408  -3.312 -12.348  1.00  0.00     0.005 C 
ENDBRANCH  12  13
ENDBRANCH  11  12
ENDBRANCH  10  11
ENDBRANCH   9  10
ENDBRANCH   7   9
ENDBRANCH   6   7
ENDBRANCH   4   6
ENDBRANCH   3   4
ENDBRANCH   2   3
ENDBRANCH   1   2
BRANCH   1  15
HETATM   15  C   UNL     1     -22.503  -7.094  -0.595  1.00  0.00     0.000 C 
BRANCH  15  16
HETATM   16  C   UNL     1     -23.240  -8.126   0.243  1.00  0.00     0.000 C 
BRANCH  16  17
HETATM   17  C   UNL     1     -22.875  -9.534  -0.204  1.00  0.00     0.000 C 
BRANCH  17  18
HETATM   18  C   UNL     1     -24.055 -10.473  -0.006  1.00  0.00     0.000 C 
BRANCH  18  19
HETATM   19  C   UNL     1     -23.699 -11.876  -0.471  1.00  0.00     0.000 C 
BRANCH  19  20
HETATM   20  C   UNL     1     -23.193 -11.844  -1.904  1.00  0.00     0.000 C 
BRANCH  20  21
HETATM   21  C   UNL     1     -22.865 -13.252  -2.377  1.00  0.00     0.000 C 
BRANCH  21  22
HETATM   22  C   UNL     1     -21.511 -13.270  -3.069  1.00  0.00     0.000 C 
BRANCH  22  23
HETATM   23  C   UNL     1     -21.020 -11.852  -3.326  1.00  0.00     0.000 C 
BRANCH  23  24
HETATM   24  C   UNL     1     -19.603 -11.696  -2.792  1.00  0.00     0.000 C 
BRANCH  24  25
HETATM   25  C   UNL     1     -19.588 -10.920  -1.479  1.00  0.00     0.004 C 
BRANCH  25  26
HETATM   26  C   UNL     1     -19.845 -11.819  -0.259  1.00  0.00    -0.023 C 
HETATM   27  C   UNL     1     -18.679 -12.770   0.021  1.00  0.00     0.009 C 
HETATM   28  C   UNL     1     -20.113 -10.950   0.970  1.00  0.00     0.009 C 
ENDBRANCH  25  26
ENDBRANCH  24  25
ENDBRANCH  23  24
ENDBRANCH  22  23
ENDBRANCH  21  22
ENDBRANCH  20  21
ENDBRANCH  19  20
ENDBRANCH  18  19
ENDBRANCH  17  18
ENDBRANCH  16  17
ENDBRANCH  15  16
ENDBRANCH   1  15
TORSDOF 22
ENDMDL
