MODEL 1
REMARK VINA RESULT:      -5.6      0.000      0.000
REMARK  8 active torsions:
REMARK  status: ('A' for Active; 'I' for Inactive)
REMARK    1  A    between atoms: C_2  and  O_4 
REMARK    2  A    between atoms: O_4  and  C_5 
REMARK    3  A    between atoms: C_5  and  C_6 
REMARK    4  A    between atoms: C_6  and  C_7 
REMARK    5  A    between atoms: C_6  and  O_12 
REMARK    6  A    between atoms: C_7  and  O_8 
REMARK    7  A    between atoms: O_8  and  C_9 
REMARK    8  A    between atoms: O_12  and  C_13 
ROOT
HETATM    1  C   UNL     1     -27.312  -6.045 -19.048  1.00  0.00     0.180 C 
ENDROOT
BRANCH   1   2
HETATM    2  C   UNL     1     -26.193  -6.378 -18.054  1.00  0.00     0.213 C 
BRANCH   2   3
HETATM    3  O   UNL     1     -26.508  -5.871 -16.744  1.00  0.00    -0.319 OA
BRANCH   3   4
HETATM    4  C   UNL     1     -26.487  -6.795 -15.743  1.00  0.00     0.254 C 
HETATM    5  C   UNL     1     -27.889  -7.185 -15.381  1.00  0.00     0.126 C 
HETATM    6  O   UNL     1     -25.478  -7.246 -15.220  1.00  0.00    -0.266 OA
ENDBRANCH   3   4
ENDBRANCH   2   3
ENDBRANCH   1   2
BRANCH   1   7
HETATM    7  C   UNL     1     -26.835  -6.218 -20.491  1.00  0.00     0.213 C 
BRANCH   7   8
HETATM    8  O   UNL     1     -25.491  -6.712 -20.548  1.00  0.00    -0.319 OA
BRANCH   8   9
HETATM    9  C   UNL     1     -25.343  -7.901 -21.193  1.00  0.00     0.254 C 
HETATM   10  O   UNL     1     -26.258  -8.642 -21.527  1.00  0.00    -0.266 OA
HETATM   11  C   UNL     1     -23.896  -8.180 -21.471  1.00  0.00     0.126 C 
ENDBRANCH   8   9
ENDBRANCH   7   8
ENDBRANCH   1   7
BRANCH   1  12
HETATM   12  O   UNL     1     -28.409  -6.970 -18.834  1.00  0.00    -0.312 OA
BRANCH  12  13
HETATM   13  C   UNL     1     -29.580  -6.433 -18.396  1.00  0.00     0.255 C 
HETATM   14  O   UNL     1     -29.813  -5.242 -18.253  1.00  0.00    -0.266 OA
HETATM   15  C   UNL     1     -30.587  -7.509 -18.134  1.00  0.00     0.126 C 
ENDBRANCH  12  13
ENDBRANCH   1  12
TORSDOF 8
ENDMDL
MODEL 2
REMARK VINA RESULT:      -5.6      7.884     11.029
REMARK  8 active torsions:
REMARK  status: ('A' for Active; 'I' for Inactive)
REMARK    1  A    between atoms: C_2  and  O_4 
REMARK    2  A    between atoms: O_4  and  C_5 
REMARK    3  A    between atoms: C_5  and  C_6 
REMARK    4  A    between atoms: C_6  and  C_7 
REMARK    5  A    between atoms: C_6  and  O_12 
REMARK    6  A    between atoms: C_7  and  O_8 
REMARK    7  A    between atoms: O_8  and  C_9 
REMARK    8  A    between atoms: O_12  and  C_13 
ROOT
HETATM    1  C   UNL     1     -21.869  -3.880 -10.366  1.00  0.00     0.180 C 
ENDROOT
BRANCH   1   2
HETATM    2  C   UNL     1     -21.694  -2.958 -11.578  1.00  0.00     0.213 C 
BRANCH   2   3
HETATM    3  O   UNL     1     -22.220  -3.577 -12.768  1.00  0.00    -0.319 OA
BRANCH   3   4
HETATM    4  C   UNL     1     -23.242  -2.907 -13.368  1.00  0.00     0.254 C 
HETATM    5  C   UNL     1     -22.891  -2.612 -14.795  1.00  0.00     0.126 C 
HETATM    6  O   UNL     1     -24.294  -2.594 -12.828  1.00  0.00    -0.266 OA
ENDBRANCH   3   4
ENDBRANCH   2   3
ENDBRANCH   1   2
BRANCH   1   7
HETATM    7  C   UNL     1     -20.549  -4.054  -9.612  1.00  0.00     0.213 C 
BRANCH   7   8
HETATM    8  O   UNL     1     -20.736  -3.969  -8.194  1.00  0.00    -0.319 OA
BRANCH   8   9
HETATM    9  C   UNL     1     -20.785  -5.167  -7.548  1.00  0.00     0.254 C 
HETATM   10  O   UNL     1     -20.022  -6.103  -7.740  1.00  0.00    -0.266 OA
HETATM   11  C   UNL     1     -21.893  -5.182  -6.537  1.00  0.00     0.126 C 
ENDBRANCH   8   9
ENDBRANCH   7   8
ENDBRANCH   1   7
BRANCH   1  12
HETATM   12  O   UNL     1     -22.818  -3.269  -9.455  1.00  0.00    -0.312 OA
BRANCH  12  13
HETATM   13  C   UNL     1     -24.127  -3.599  -9.628  1.00  0.00     0.255 C 
HETATM   14  O   UNL     1     -25.078  -2.843  -9.502  1.00  0.00    -0.266 OA
HETATM   15  C   UNL     1     -24.259  -5.034 -10.034  1.00  0.00     0.126 C 
ENDBRANCH  12  13
ENDBRANCH   1  12
TORSDOF 8
ENDMDL
MODEL 3
REMARK VINA RESULT:      -5.5      1.031      4.449
REMARK  8 active torsions:
REMARK  status: ('A' for Active; 'I' for Inactive)
REMARK    1  A    between atoms: C_2  and  O_4 
REMARK    2  A    between atoms: O_4  and  C_5 
REMARK    3  A    between atoms: C_5  and  C_6 
REMARK    4  A    between atoms: C_6  and  C_7 
REMARK    5  A    between atoms: C_6  and  O_12 
REMARK    6  A    between atoms: C_7  and  O_8 
REMARK    7  A    between atoms: O_8  and  C_9 
REMARK    8  A    between atoms: O_12  and  C_13 
ROOT
HETATM    1  C   UNL     1     -27.619  -6.696 -18.821  1.00  0.00     0.180 C 
ENDROOT
BRANCH   1   2
HETATM    2  C   UNL     1     -27.160  -6.391 -20.251  1.00  0.00     0.213 C 
BRANCH   2   3
HETATM    3  O   UNL     1     -25.760  -6.686 -20.411  1.00  0.00    -0.319 OA
BRANCH   3   4
HETATM    4  C   UNL     1     -25.481  -7.869 -21.026  1.00  0.00     0.254 C 
HETATM    5  C   UNL     1     -24.000  -8.098 -21.045  1.00  0.00     0.126 C 
HETATM    6  O   UNL     1     -26.313  -8.636 -21.490  1.00  0.00    -0.266 OA
ENDBRANCH   3   4
ENDBRANCH   2   3
ENDBRANCH   1   2
BRANCH   1   7
HETATM    7  C   UNL     1     -26.753  -5.959 -17.797  1.00  0.00     0.213 C 
BRANCH   7   8
HETATM    8  O   UNL     1     -27.340  -5.989 -16.490  1.00  0.00    -0.319 OA
BRANCH   8   9
HETATM    9  C   UNL     1     -26.873  -6.973 -15.673  1.00  0.00     0.254 C 
HETATM   10  O   UNL     1     -27.569  -7.713 -14.991  1.00  0.00    -0.266 OA
HETATM   11  C   UNL     1     -25.377  -7.052 -15.736  1.00  0.00     0.126 C 
ENDBRANCH   8   9
ENDBRANCH   7   8
ENDBRANCH   1   7
BRANCH   1  12
HETATM   12  O   UNL     1     -28.982  -6.226 -18.663  1.00  0.00    -0.312 OA
BRANCH  12  13
HETATM   13  C   UNL     1     -29.910  -7.157 -18.313  1.00  0.00     0.255 C 
HETATM   14  O   UNL     1     -29.987  -8.293 -18.758  1.00  0.00    -0.266 OA
HETATM   15  C   UNL     1     -30.830  -6.616 -17.264  1.00  0.00     0.126 C 
ENDBRANCH  12  13
ENDBRANCH   1  12
TORSDOF 8
ENDMDL
MODEL 4
REMARK VINA RESULT:      -5.3      7.871     10.365
REMARK  8 active torsions:
REMARK  status: ('A' for Active; 'I' for Inactive)
REMARK    1  A    between atoms: C_2  and  O_4 
REMARK    2  A    between atoms: O_4  and  C_5 
REMARK    3  A    between atoms: C_5  and  C_6 
REMARK    4  A    between atoms: C_6  and  C_7 
REMARK    5  A    between atoms: C_6  and  O_12 
REMARK    6  A    between atoms: C_7  and  O_8 
REMARK    7  A    between atoms: O_8  and  C_9 
REMARK    8  A    between atoms: O_12  and  C_13 
ROOT
HETATM    1  C   UNL     1     -21.997  -3.488 -10.454  1.00  0.00     0.180 C 
ENDROOT
BRANCH   1   2
HETATM    2  C   UNL     1     -20.742  -4.170  -9.897  1.00  0.00     0.213 C 
BRANCH   2   3
HETATM    3  O   UNL     1     -20.495  -3.751  -8.541  1.00  0.00    -0.319 OA
BRANCH   3   4
HETATM    4  C   UNL     1     -19.745  -4.610  -7.796  1.00  0.00     0.254 C 
HETATM    5  C   UNL     1     -20.593  -5.754  -7.330  1.00  0.00     0.126 C 
HETATM    6  O   UNL     1     -18.555  -4.474  -7.546  1.00  0.00    -0.266 OA
ENDBRANCH   3   4
ENDBRANCH   2   3
ENDBRANCH   1   2
BRANCH   1   7
HETATM    7  C   UNL     1     -21.857  -3.218 -11.953  1.00  0.00     0.213 C 
BRANCH   7   8
HETATM    8  O   UNL     1     -22.779  -2.215 -12.398  1.00  0.00    -0.319 OA
BRANCH   8   9
HETATM    9  C   UNL     1     -23.631  -2.613 -13.382  1.00  0.00     0.254 C 
HETATM   10  O   UNL     1     -24.820  -2.861 -13.228  1.00  0.00    -0.266 OA
HETATM   11  C   UNL     1     -22.924  -2.685 -14.702  1.00  0.00     0.126 C 
ENDBRANCH   8   9
ENDBRANCH   7   8
ENDBRANCH   1   7
BRANCH   1  12
HETATM   12  O   UNL     1     -23.126  -4.381 -10.272  1.00  0.00    -0.312 OA
BRANCH  12  13
HETATM   13  C   UNL     1     -24.167  -3.903  -9.538  1.00  0.00     0.255 C 
HETATM   14  O   UNL     1     -25.162  -3.349  -9.982  1.00  0.00    -0.266 OA
HETATM   15  C   UNL     1     -23.954  -4.176  -8.081  1.00  0.00     0.126 C 
ENDBRANCH  12  13
ENDBRANCH   1  12
TORSDOF 8
ENDMDL
MODEL 5
REMARK VINA RESULT:      -5.2      7.605      9.791
REMARK  8 active torsions:
REMARK  status: ('A' for Active; 'I' for Inactive)
REMARK    1  A    between atoms: C_2  and  O_4 
REMARK    2  A    between atoms: O_4  and  C_5 
REMARK    3  A    between atoms: C_5  and  C_6 
REMARK    4  A    between atoms: C_6  and  C_7 
REMARK    5  A    between atoms: C_6  and  O_12 
REMARK    6  A    between atoms: C_7  and  O_8 
REMARK    7  A    between atoms: O_8  and  C_9 
REMARK    8  A    between atoms: O_12  and  C_13 
ROOT
HETATM    1  C   UNL     1     -22.723  -3.356 -12.660  1.00  0.00     0.180 C 
ENDROOT
BRANCH   1   2
HETATM    2  C   UNL     1     -21.816  -2.885 -11.518  1.00  0.00     0.213 C 
BRANCH   2   3
HETATM    3  O   UNL     1     -20.531  -3.531 -11.589  1.00  0.00    -0.319 OA
BRANCH   3   4
HETATM    4  C   UNL     1     -20.210  -4.307 -10.516  1.00  0.00     0.254 C 
HETATM    5  C   UNL     1     -20.621  -3.619  -9.249  1.00  0.00     0.126 C 
HETATM    6  O   UNL     1     -19.672  -5.404 -10.574  1.00  0.00    -0.266 OA
ENDBRANCH   3   4
ENDBRANCH   2   3
ENDBRANCH   1   2
BRANCH   1   7
HETATM    7  C   UNL     1     -23.858  -4.238 -12.134  1.00  0.00     0.213 C 
BRANCH   7   8
HETATM    8  O   UNL     1     -23.669  -4.571 -10.753  1.00  0.00    -0.319 OA
BRANCH   8   9
HETATM    9  C   UNL     1     -24.468  -3.892  -9.883  1.00  0.00     0.254 C 
HETATM   10  O   UNL     1     -25.466  -3.256 -10.193  1.00  0.00    -0.266 OA
HETATM   11  C   UNL     1     -23.978  -4.050  -8.475  1.00  0.00     0.126 C 
ENDBRANCH   8   9
ENDBRANCH   7   8
ENDBRANCH   1   7
BRANCH   1  12
HETATM   12  O   UNL     1     -23.324  -2.192 -13.282  1.00  0.00    -0.312 OA
BRANCH  12  13
HETATM   13  C   UNL     1     -23.190  -2.087 -14.633  1.00  0.00     0.255 C 
HETATM   14  O   UNL     1     -22.582  -2.864 -15.354  1.00  0.00    -0.266 OA
HETATM   15  C   UNL     1     -23.926  -0.887 -15.143  1.00  0.00     0.126 C 
ENDBRANCH  12  13
ENDBRANCH   1  12
TORSDOF 8
ENDMDL
MODEL 6
REMARK VINA RESULT:      -5.2      5.077      7.241
REMARK  8 active torsions:
REMARK  status: ('A' for Active; 'I' for Inactive)
REMARK    1  A    between atoms: C_2  and  O_4 
REMARK    2  A    between atoms: O_4  and  C_5 
REMARK    3  A    between atoms: C_5  and  C_6 
REMARK    4  A    between atoms: C_6  and  C_7 
REMARK    5  A    between atoms: C_6  and  O_12 
REMARK    6  A    between atoms: C_7  and  O_8 
REMARK    7  A    between atoms: O_8  and  C_9 
REMARK    8  A    between atoms: O_12  and  C_13 
ROOT
HETATM    1  C   UNL     1     -23.645  -3.856 -13.567  1.00  0.00     0.180 C 
ENDROOT
BRANCH   1   2
HETATM    2  C   UNL     1     -23.351  -3.839 -12.063  1.00  0.00     0.213 C 
BRANCH   2   3
HETATM    3  O   UNL     1     -24.231  -2.924 -11.383  1.00  0.00    -0.319 OA
BRANCH   3   4
HETATM    4  C   UNL     1     -24.723  -3.368 -10.193  1.00  0.00     0.254 C 
HETATM    5  C   UNL     1     -23.731  -4.283  -9.540  1.00  0.00     0.126 C 
HETATM    6  O   UNL     1     -25.810  -3.064  -9.721  1.00  0.00    -0.266 OA
ENDBRANCH   3   4
ENDBRANCH   2   3
ENDBRANCH   1   2
BRANCH   1   7
HETATM    7  C   UNL     1     -24.727  -4.885 -13.904  1.00  0.00     0.213 C 
BRANCH   7   8
HETATM    8  O   UNL     1     -24.756  -5.180 -15.306  1.00  0.00    -0.319 OA
BRANCH   8   9
HETATM    9  C   UNL     1     -25.307  -6.383 -15.628  1.00  0.00     0.254 C 
HETATM   10  O   UNL     1     -25.022  -7.452 -15.106  1.00  0.00    -0.266 OA
HETATM   11  C   UNL     1     -26.343  -6.224 -16.701  1.00  0.00     0.126 C 
ENDBRANCH   8   9
ENDBRANCH   7   8
ENDBRANCH   1   7
BRANCH   1  12
HETATM   12  O   UNL     1     -24.143  -2.551 -13.955  1.00  0.00    -0.312 OA
BRANCH  12  13
HETATM   13  C   UNL     1     -23.438  -1.890 -14.913  1.00  0.00     0.255 C 
HETATM   14  O   UNL     1     -22.446  -2.312 -15.490  1.00  0.00    -0.266 OA
HETATM   15  C   UNL     1     -24.062  -0.561 -15.205  1.00  0.00     0.126 C 
ENDBRANCH  12  13
ENDBRANCH   1  12
TORSDOF 8
ENDMDL
MODEL 7
REMARK VINA RESULT:      -4.8     13.799     16.166
REMARK  8 active torsions:
REMARK  status: ('A' for Active; 'I' for Inactive)
REMARK    1  A    between atoms: C_2  and  O_4 
REMARK    2  A    between atoms: O_4  and  C_5 
REMARK    3  A    between atoms: C_5  and  C_6 
REMARK    4  A    between atoms: C_6  and  C_7 
REMARK    5  A    between atoms: C_6  and  O_12 
REMARK    6  A    between atoms: C_7  and  O_8 
REMARK    7  A    between atoms: O_8  and  C_9 
REMARK    8  A    between atoms: O_12  and  C_13 
ROOT
HETATM    1  C   UNL     1     -21.926  -7.108  -3.613  1.00  0.00     0.180 C 
ENDROOT
BRANCH   1   2
HETATM    2  C   UNL     1     -21.708  -6.197  -2.400  1.00  0.00     0.213 C 
BRANCH   2   3
HETATM    3  O   UNL     1     -22.572  -6.580  -1.314  1.00  0.00    -0.319 OA
BRANCH   3   4
HETATM    4  C   UNL     1     -22.083  -7.554  -0.498  1.00  0.00     0.254 C 
HETATM    5  C   UNL     1     -23.162  -8.037   0.424  1.00  0.00     0.126 C 
HETATM    6  O   UNL     1     -20.936  -7.979  -0.514  1.00  0.00    -0.266 OA
ENDBRANCH   3   4
ENDBRANCH   2   3
ENDBRANCH   1   2
BRANCH   1   7
HETATM    7  C   UNL     1     -22.169  -6.286  -4.881  1.00  0.00     0.213 C 
BRANCH   7   8
HETATM    8  O   UNL     1     -21.033  -5.477  -5.211  1.00  0.00    -0.319 OA
BRANCH   8   9
HETATM    9  C   UNL     1     -20.534  -5.672  -6.463  1.00  0.00     0.254 C 
HETATM   10  O   UNL     1     -20.901  -6.540  -7.242  1.00  0.00    -0.266 OA
HETATM   11  C   UNL     1     -19.479  -4.654  -6.779  1.00  0.00     0.126 C 
ENDBRANCH   8   9
ENDBRANCH   7   8
ENDBRANCH   1   7
BRANCH   1  12
HETATM   12  O   UNL     1     -20.725  -7.893  -3.822  1.00  0.00    -0.312 OA
BRANCH  12  13
HETATM   13  C   UNL     1     -20.871  -9.058  -4.510  1.00  0.00     0.255 C 
HETATM   14  O   UNL     1     -20.273  -9.367  -5.530  1.00  0.00    -0.266 OA
HETATM   15  C   UNL     1     -21.858  -9.953  -3.827  1.00  0.00     0.126 C 
ENDBRANCH  12  13
ENDBRANCH   1  12
TORSDOF 8
ENDMDL
MODEL 8
REMARK VINA RESULT:      -4.7     14.496     17.350
REMARK  8 active torsions:
REMARK  status: ('A' for Active; 'I' for Inactive)
REMARK    1  A    between atoms: C_2  and  O_4 
REMARK    2  A    between atoms: O_4  and  C_5 
REMARK    3  A    between atoms: C_5  and  C_6 
REMARK    4  A    between atoms: C_6  and  C_7 
REMARK    5  A    between atoms: C_6  and  O_12 
REMARK    6  A    between atoms: C_7  and  O_8 
REMARK    7  A    between atoms: O_8  and  C_9 
REMARK    8  A    between atoms: O_12  and  C_13 
ROOT
HETATM    1  C   UNL     1     -21.670  -7.318  -2.325  1.00  0.00     0.180 C 
ENDROOT
BRANCH   1   2
HETATM    2  C   UNL     1     -22.111  -6.595  -1.046  1.00  0.00     0.213 C 
BRANCH   2   3
HETATM    3  O   UNL     1     -23.193  -7.301  -0.410  1.00  0.00    -0.319 OA
BRANCH   3   4
HETATM    4  C   UNL     1     -22.844  -8.464   0.208  1.00  0.00     0.254 C 
HETATM    5  C   UNL     1     -21.691  -8.222   1.135  1.00  0.00     0.126 C 
HETATM    6  O   UNL     1     -23.391  -9.544   0.040  1.00  0.00    -0.266 OA
ENDBRANCH   3   4
ENDBRANCH   2   3
ENDBRANCH   1   2
BRANCH   1   7
HETATM    7  C   UNL     1     -21.633  -6.356  -3.514  1.00  0.00     0.213 C 
BRANCH   7   8
HETATM    8  O   UNL     1     -22.164  -6.963  -4.699  1.00  0.00    -0.319 OA
BRANCH   8   9
HETATM    9  C   UNL     1     -21.235  -7.506  -5.533  1.00  0.00     0.254 C 
HETATM   10  O   UNL     1     -21.150  -8.693  -5.818  1.00  0.00    -0.266 OA
HETATM   11  C   UNL     1     -20.331  -6.446  -6.087  1.00  0.00     0.126 C 
ENDBRANCH   8   9
ENDBRANCH   7   8
ENDBRANCH   1   7
BRANCH   1  12
HETATM   12  O   UNL     1     -20.325  -7.824  -2.127  1.00  0.00    -0.312 OA
BRANCH  12  13
HETATM   13  C   UNL     1     -20.118  -9.135  -2.430  1.00  0.00     0.255 C 
HETATM   14  O   UNL     1     -20.925 -10.040  -2.277  1.00  0.00    -0.266 OA
HETATM   15  C   UNL     1     -18.756  -9.331  -3.019  1.00  0.00     0.126 C 
ENDBRANCH  12  13
ENDBRANCH   1  12
TORSDOF 8
ENDMDL
MODEL 9
REMARK VINA RESULT:      -4.7     19.259     20.671
REMARK  8 active torsions:
REMARK  status: ('A' for Active; 'I' for Inactive)
REMARK    1  A    between atoms: C_2  and  O_4 
REMARK    2  A    between atoms: O_4  and  C_5 
REMARK    3  A    between atoms: C_5  and  C_6 
REMARK    4  A    between atoms: C_6  and  C_7 
REMARK    5  A    between atoms: C_6  and  O_12 
REMARK    6  A    between atoms: C_7  and  O_8 
REMARK    7  A    between atoms: O_8  and  C_9 
REMARK    8  A    between atoms: O_12  and  C_13 
ROOT
HETATM    1  C   UNL     1     -12.400   6.617 -21.612  1.00  0.00     0.180 C 
ENDROOT
BRANCH   1   2
HETATM    2  C   UNL     1     -11.671   7.956 -21.454  1.00  0.00     0.213 C 
BRANCH   2   3
HETATM    3  O   UNL     1     -11.769   8.432 -20.098  1.00  0.00    -0.319 OA
BRANCH   3   4
HETATM    4  C   UNL     1     -10.596   8.839 -19.539  1.00  0.00     0.254 C 
HETATM    5  C   UNL     1      -9.608   9.176 -20.615  1.00  0.00     0.126 C 
HETATM    6  O   UNL     1     -10.378   8.924 -18.338  1.00  0.00    -0.266 OA
ENDBRANCH   3   4
ENDBRANCH   2   3
ENDBRANCH   1   2
BRANCH   1   7
HETATM    7  C   UNL     1     -11.409   5.451 -21.634  1.00  0.00     0.213 C 
BRANCH   7   8
HETATM    8  O   UNL     1     -10.254   5.725 -20.831  1.00  0.00    -0.319 OA
BRANCH   8   9
HETATM    9  C   UNL     1     -10.228   5.089 -19.627  1.00  0.00     0.254 C 
HETATM   10  O   UNL     1      -9.879   5.596 -18.569  1.00  0.00    -0.266 OA
HETATM   11  C   UNL     1     -10.712   3.677 -19.759  1.00  0.00     0.126 C 
ENDBRANCH   8   9
ENDBRANCH   7   8
ENDBRANCH   1   7
BRANCH   1  12
HETATM   12  O   UNL     1     -13.274   6.430 -20.471  1.00  0.00    -0.312 OA
BRANCH  12  13
HETATM   13  C   UNL     1     -14.046   5.309 -20.473  1.00  0.00     0.255 C 
HETATM   14  O   UNL     1     -14.111   4.483 -19.574  1.00  0.00    -0.266 OA
HETATM   15  C   UNL     1     -14.854   5.228 -21.731  1.00  0.00     0.126 C 
ENDBRANCH  12  13
ENDBRANCH   1  12
TORSDOF 8
ENDMDL
