MODEL 1
REMARK VINA RESULT:      -9.1      0.000      0.000
REMARK  6 active torsions:
REMARK  status: ('A' for Active; 'I' for Inactive)
REMARK    1  A    between atoms: C_4  and  N_25 
REMARK    2  A    between atoms: C_5  and  N_8 
REMARK    3  A    between atoms: N_10  and  C_12 
REMARK    4  A    between atoms: C_12  and  C_13 
REMARK    5  A    between atoms: C_12  and  C_16 
REMARK       I    between atoms: C_16  and  N_18 
REMARK    6  A    between atoms: N_18  and  C_19 
ROOT
HETATM    1  N   UNL     1     -20.833  -5.585  -4.153  1.00  0.00    -0.301 N 
ATOM      2  HN  UNL     1     -20.072  -4.921  -4.015  1.00  0.00     0.186 HD
HETATM    3  N   UNL     1     -21.531  -5.621  -5.184  1.00  0.00    -0.315 N 
ATOM      4  HN  UNL     1     -22.353  -6.217  -5.280  1.00  0.00     0.181 HD
ENDROOT
BRANCH   3   5
HETATM    5  C   UNL     1     -21.058  -4.722  -6.252  1.00  0.00     0.260 C 
BRANCH   5   6
HETATM    6  C   UNL     1     -19.826  -5.345  -6.880  1.00  0.00     0.156 C 
HETATM    7  O   UNL     1     -19.769  -6.539  -7.185  1.00  0.00    -0.296 OA
HETATM    8  C   UNL     1     -18.656  -4.448  -7.207  1.00  0.00     0.093 C 
ENDBRANCH   5   6
BRANCH   5   9
HETATM    9  C   UNL     1     -22.194  -4.497  -7.242  1.00  0.00     0.253 C 
HETATM   10  O   UNL     1     -23.358  -4.544  -6.839  1.00  0.00    -0.270 OA
HETATM   11  N   UNL     1     -21.810  -4.276  -8.559  1.00  0.00    -0.325 N 
HETATM   12  H   UNL     1     -20.845  -4.473  -8.804  1.00  0.00     0.169 HD
BRANCH  11  13
HETATM   13  C   UNL     1     -22.661  -3.895  -9.625  1.00  0.00     0.034 A 
HETATM   14  C   UNL     1     -24.044  -3.744  -9.487  1.00  0.00     0.029 A 
HETATM   15  C   UNL     1     -24.839  -3.378 -10.579  1.00  0.00     0.002 A 
HETATM   16  C   UNL     1     -24.257  -3.151 -11.821  1.00  0.00     0.000 A 
HETATM   17  C   UNL     1     -22.877  -3.273 -11.967  1.00  0.00     0.002 A 
HETATM   18  C   UNL     1     -22.082  -3.636 -10.873  1.00  0.00     0.029 A 
ENDBRANCH  11  13
ENDBRANCH   5   9
ENDBRANCH   3   5
BRANCH   1  19
HETATM   19  C   UNL     1     -21.200  -6.558  -3.192  1.00  0.00     0.080 A 
HETATM   20  C   UNL     1     -21.027  -7.949  -3.273  1.00  0.00     0.131 A 
HETATM   21  C   UNL     1     -21.532  -8.828  -2.296  1.00  0.00     0.045 A 
HETATM   22  C   UNL     1     -22.221  -8.329  -1.190  1.00  0.00    -0.059 A 
HETATM   23  C   UNL     1     -22.792  -9.255  -0.159  1.00  0.00     0.048 C 
HETATM   24  C   UNL     1     -22.383  -6.945  -1.073  1.00  0.00     0.009 A 
HETATM   25  C   UNL     1     -21.884  -6.080  -2.060  1.00  0.00     0.034 A 
BRANCH  20  26
HETATM   26  N   UNL     1     -20.346  -8.563  -4.391  1.00  0.00    -0.113 N 
HETATM   27  O   UNL     1     -21.000  -8.701  -5.435  1.00  0.00    -0.532 OA
HETATM   28  O   UNL     1     -19.195  -8.983  -4.213  1.00  0.00    -0.532 OA
ENDBRANCH  20  26
ENDBRANCH   1  19
TORSDOF 6
ENDMDL
MODEL 2
REMARK VINA RESULT:      -8.5      1.761      2.279
REMARK  6 active torsions:
REMARK  status: ('A' for Active; 'I' for Inactive)
REMARK    1  A    between atoms: C_4  and  N_25 
REMARK    2  A    between atoms: C_5  and  N_8 
REMARK    3  A    between atoms: N_10  and  C_12 
REMARK    4  A    between atoms: C_12  and  C_13 
REMARK    5  A    between atoms: C_12  and  C_16 
REMARK       I    between atoms: C_16  and  N_18 
REMARK    6  A    between atoms: N_18  and  C_19 
ROOT
HETATM    1  N   UNL     1     -20.760  -6.759  -4.844  1.00  0.00    -0.301 N 
ATOM      2  HN  UNL     1     -19.831  -6.367  -4.694  1.00  0.00     0.186 HD
HETATM    3  N   UNL     1     -21.620  -6.224  -5.569  1.00  0.00    -0.315 N 
ATOM      4  HN  UNL     1     -22.579  -6.562  -5.638  1.00  0.00     0.181 HD
ENDROOT
BRANCH   3   5
HETATM    5  C   UNL     1     -21.121  -5.055  -6.316  1.00  0.00     0.260 C 
BRANCH   5   6
HETATM    6  C   UNL     1     -19.802  -5.439  -6.961  1.00  0.00     0.156 C 
HETATM    7  O   UNL     1     -19.612  -6.543  -7.477  1.00  0.00    -0.296 OA
HETATM    8  C   UNL     1     -18.711  -4.397  -7.034  1.00  0.00     0.093 C 
ENDBRANCH   5   6
BRANCH   5   9
HETATM    9  C   UNL     1     -22.184  -4.626  -7.321  1.00  0.00     0.253 C 
HETATM   10  O   UNL     1     -23.337  -4.439  -6.929  1.00  0.00    -0.270 OA
HETATM   11  N   UNL     1     -21.754  -4.503  -8.636  1.00  0.00    -0.325 N 
HETATM   12  H   UNL     1     -20.844  -4.889  -8.870  1.00  0.00     0.169 HD
BRANCH  11  13
HETATM   13  C   UNL     1     -22.506  -3.978  -9.716  1.00  0.00     0.034 A 
HETATM   14  C   UNL     1     -23.902  -3.906  -9.716  1.00  0.00     0.029 A 
HETATM   15  C   UNL     1     -24.594  -3.389 -10.816  1.00  0.00     0.002 A 
HETATM   16  C   UNL     1     -23.895  -2.929 -11.927  1.00  0.00     0.000 A 
HETATM   17  C   UNL     1     -22.503  -2.971 -11.930  1.00  0.00     0.002 A 
HETATM   18  C   UNL     1     -21.811  -3.485 -10.827  1.00  0.00     0.029 A 
ENDBRANCH  11  13
ENDBRANCH   5   9
ENDBRANCH   3   5
BRANCH   1  19
HETATM   19  C   UNL     1     -21.200  -7.966  -4.248  1.00  0.00     0.080 A 
HETATM   20  C   UNL     1     -21.677  -8.151  -2.941  1.00  0.00     0.131 A 
HETATM   21  C   UNL     1     -21.985  -9.425  -2.426  1.00  0.00     0.045 A 
HETATM   22  C   UNL     1     -21.836 -10.561  -3.223  1.00  0.00    -0.059 A 
HETATM   23  C   UNL     1     -22.131 -11.925  -2.678  1.00  0.00     0.048 C 
HETATM   24  C   UNL     1     -21.390 -10.399  -4.538  1.00  0.00     0.009 A 
HETATM   25  C   UNL     1     -21.075  -9.124  -5.036  1.00  0.00     0.034 A 
BRANCH  20  26
HETATM   26  N   UNL     1     -21.843  -7.040  -2.031  1.00  0.00    -0.113 N 
HETATM   27  O   UNL     1     -21.659  -7.271  -0.828  1.00  0.00    -0.532 OA
HETATM   28  O   UNL     1     -22.234  -5.960  -2.497  1.00  0.00    -0.532 OA
ENDBRANCH  20  26
ENDBRANCH   1  19
TORSDOF 6
ENDMDL
MODEL 3
REMARK VINA RESULT:      -8.3      2.063      7.707
REMARK  6 active torsions:
REMARK  status: ('A' for Active; 'I' for Inactive)
REMARK    1  A    between atoms: C_4  and  N_25 
REMARK    2  A    between atoms: C_5  and  N_8 
REMARK    3  A    between atoms: N_10  and  C_12 
REMARK    4  A    between atoms: C_12  and  C_13 
REMARK    5  A    between atoms: C_12  and  C_16 
REMARK       I    between atoms: C_16  and  N_18 
REMARK    6  A    between atoms: N_18  and  C_19 
ROOT
HETATM    1  N   UNL     1     -20.124  -7.338  -5.598  1.00  0.00    -0.301 N 
ATOM      2  HN  UNL     1     -19.404  -7.169  -4.896  1.00  0.00     0.186 HD
HETATM    3  N   UNL     1     -20.578  -8.469  -5.852  1.00  0.00    -0.315 N 
ATOM      4  HN  UNL     1     -21.224  -8.651  -6.621  1.00  0.00     0.181 HD
ENDROOT
BRANCH   3   5
HETATM    5  C   UNL     1     -20.097  -9.521  -4.939  1.00  0.00     0.260 C 
BRANCH   5   6
HETATM    6  C   UNL     1     -18.636  -9.782  -5.252  1.00  0.00     0.156 C 
HETATM    7  O   UNL     1     -18.055  -9.249  -6.200  1.00  0.00    -0.296 OA
HETATM    8  C   UNL     1     -17.852 -10.675  -4.318  1.00  0.00     0.093 C 
ENDBRANCH   5   6
BRANCH   5   9
HETATM    9  C   UNL     1     -20.337  -9.069  -3.503  1.00  0.00     0.253 C 
HETATM   10  O   UNL     1     -19.457  -8.434  -2.920  1.00  0.00    -0.270 OA
HETATM   11  N   UNL     1     -21.554  -9.447  -2.949  1.00  0.00    -0.325 N 
HETATM   12  H   UNL     1     -22.099 -10.144  -3.446  1.00  0.00     0.169 HD
BRANCH  11  13
HETATM   13  C   UNL     1     -22.070  -9.025  -1.699  1.00  0.00     0.034 A 
HETATM   14  C   UNL     1     -21.855  -7.748  -1.171  1.00  0.00     0.029 A 
HETATM   15  C   UNL     1     -22.378  -7.390   0.076  1.00  0.00     0.002 A 
HETATM   16  C   UNL     1     -23.132  -8.303   0.806  1.00  0.00     0.000 A 
HETATM   17  C   UNL     1     -23.375  -9.569   0.281  1.00  0.00     0.002 A 
HETATM   18  C   UNL     1     -22.854  -9.927  -0.970  1.00  0.00     0.029 A 
ENDBRANCH  11  13
ENDBRANCH   5   9
ENDBRANCH   3   5
BRANCH   1  19
HETATM   19  C   UNL     1     -20.706  -6.310  -6.379  1.00  0.00     0.080 A 
HETATM   20  C   UNL     1     -21.962  -5.709  -6.205  1.00  0.00     0.131 A 
HETATM   21  C   UNL     1     -22.479  -4.768  -7.115  1.00  0.00     0.045 A 
HETATM   22  C   UNL     1     -21.733  -4.387  -8.232  1.00  0.00    -0.059 A 
HETATM   23  C   UNL     1     -22.284  -3.409  -9.225  1.00  0.00     0.048 C 
HETATM   24  C   UNL     1     -20.467  -4.950  -8.413  1.00  0.00     0.009 A 
HETATM   25  C   UNL     1     -19.968  -5.897  -7.503  1.00  0.00     0.034 A 
BRANCH  20  26
HETATM   26  N   UNL     1     -22.818  -6.055  -5.092  1.00  0.00    -0.113 N 
HETATM   27  O   UNL     1     -24.039  -5.930  -5.267  1.00  0.00    -0.532 OA
HETATM   28  O   UNL     1     -22.282  -6.371  -4.021  1.00  0.00    -0.532 OA
ENDBRANCH  20  26
ENDBRANCH   1  19
TORSDOF 6
ENDMDL
MODEL 4
REMARK VINA RESULT:      -8.1      2.785      4.037
REMARK  6 active torsions:
REMARK  status: ('A' for Active; 'I' for Inactive)
REMARK    1  A    between atoms: C_4  and  N_25 
REMARK    2  A    between atoms: C_5  and  N_8 
REMARK    3  A    between atoms: N_10  and  C_12 
REMARK    4  A    between atoms: C_12  and  C_13 
REMARK    5  A    between atoms: C_12  and  C_16 
REMARK       I    between atoms: C_16  and  N_18 
REMARK    6  A    between atoms: N_18  and  C_19 
ROOT
HETATM    1  N   UNL     1     -19.980  -8.804  -5.653  1.00  0.00    -0.301 N 
ATOM      2  HN  UNL     1     -20.540  -9.328  -6.325  1.00  0.00     0.186 HD
HETATM    3  N   UNL     1     -20.147  -7.592  -5.421  1.00  0.00    -0.315 N 
ATOM      4  HN  UNL     1     -19.524  -7.048  -4.825  1.00  0.00     0.181 HD
ENDROOT
BRANCH   3   5
HETATM    5  C   UNL     1     -21.329  -7.018  -6.089  1.00  0.00     0.260 C 
BRANCH   5   6
HETATM    6  C   UNL     1     -22.136  -6.265  -5.049  1.00  0.00     0.156 C 
HETATM    7  O   UNL     1     -23.272  -5.839  -5.271  1.00  0.00    -0.296 OA
HETATM    8  C   UNL     1     -21.546  -6.096  -3.669  1.00  0.00     0.093 C 
ENDBRANCH   5   6
BRANCH   5   9
HETATM    9  C   UNL     1     -20.862  -6.142  -7.244  1.00  0.00     0.253 C 
HETATM   10  O   UNL     1     -19.664  -6.118  -7.532  1.00  0.00    -0.270 OA
HETATM   11  N   UNL     1     -21.853  -5.401  -7.878  1.00  0.00    -0.325 N 
HETATM   12  H   UNL     1     -22.756  -5.339  -7.418  1.00  0.00     0.169 HD
BRANCH  11  13
HETATM   13  C   UNL     1     -21.699  -4.637  -9.060  1.00  0.00     0.034 A 
HETATM   14  C   UNL     1     -20.460  -4.391  -9.659  1.00  0.00     0.029 A 
HETATM   15  C   UNL     1     -20.365  -3.617 -10.821  1.00  0.00     0.002 A 
HETATM   16  C   UNL     1     -21.512  -3.088 -11.403  1.00  0.00     0.000 A 
HETATM   17  C   UNL     1     -22.755  -3.347 -10.831  1.00  0.00     0.002 A 
HETATM   18  C   UNL     1     -22.850  -4.124  -9.670  1.00  0.00     0.029 A 
ENDBRANCH  11  13
ENDBRANCH   5   9
ENDBRANCH   3   5
BRANCH   1  19
HETATM   19  C   UNL     1     -18.936  -9.384  -4.891  1.00  0.00     0.080 A 
HETATM   20  C   UNL     1     -18.918  -9.625  -3.509  1.00  0.00     0.131 A 
HETATM   21  C   UNL     1     -17.776 -10.110  -2.844  1.00  0.00     0.045 A 
HETATM   22  C   UNL     1     -16.609 -10.383  -3.560  1.00  0.00    -0.059 A 
HETATM   23  C   UNL     1     -15.376 -10.870  -2.861  1.00  0.00     0.048 C 
HETATM   24  C   UNL     1     -16.611 -10.176  -4.943  1.00  0.00     0.009 A 
HETATM   25  C   UNL     1     -17.754  -9.682  -5.591  1.00  0.00     0.034 A 
BRANCH  20  26
HETATM   26  N   UNL     1     -20.070  -9.353  -2.678  1.00  0.00    -0.113 N 
HETATM   27  O   UNL     1     -21.181  -9.611  -3.161  1.00  0.00    -0.532 OA
HETATM   28  O   UNL     1     -19.881  -8.807  -1.582  1.00  0.00    -0.532 OA
ENDBRANCH  20  26
ENDBRANCH   1  19
TORSDOF 6
ENDMDL
MODEL 5
REMARK VINA RESULT:      -8.1      2.826      7.924
REMARK  6 active torsions:
REMARK  status: ('A' for Active; 'I' for Inactive)
REMARK    1  A    between atoms: C_4  and  N_25 
REMARK    2  A    between atoms: C_5  and  N_8 
REMARK    3  A    between atoms: N_10  and  C_12 
REMARK    4  A    between atoms: C_12  and  C_13 
REMARK    5  A    between atoms: C_12  and  C_16 
REMARK       I    between atoms: C_16  and  N_18 
REMARK    6  A    between atoms: N_18  and  C_19 
ROOT
HETATM    1  N   UNL     1     -21.521  -4.947  -6.802  1.00  0.00    -0.301 N 
ATOM      2  HN  UNL     1     -21.357  -4.286  -6.044  1.00  0.00     0.186 HD
HETATM    3  N   UNL     1     -21.246  -6.159  -6.724  1.00  0.00    -0.315 N 
ATOM      4  HN  UNL     1     -21.316  -6.799  -7.515  1.00  0.00     0.181 HD
ENDROOT
BRANCH   3   5
HETATM    5  C   UNL     1     -20.808  -6.582  -5.381  1.00  0.00     0.260 C 
BRANCH   5   6
HETATM    6  C   UNL     1     -21.939  -6.304  -4.409  1.00  0.00     0.156 C 
HETATM    7  O   UNL     1     -23.108  -6.165  -4.774  1.00  0.00    -0.296 OA
HETATM    8  C   UNL     1     -21.622  -6.270  -2.933  1.00  0.00     0.093 C 
ENDBRANCH   5   6
BRANCH   5   9
HETATM    9  C   UNL     1     -20.406  -8.051  -5.437  1.00  0.00     0.253 C 
HETATM   10  O   UNL     1     -21.187  -8.868  -5.927  1.00  0.00    -0.270 OA
HETATM   11  N   UNL     1     -19.165  -8.357  -4.892  1.00  0.00    -0.325 N 
HETATM   12  H   UNL     1     -18.711  -7.642  -4.330  1.00  0.00     0.169 HD
BRANCH  11  13
HETATM   13  C   UNL     1     -18.507  -9.609  -4.959  1.00  0.00     0.034 A 
HETATM   14  C   UNL     1     -18.778 -10.667  -4.085  1.00  0.00     0.029 A 
HETATM   15  C   UNL     1     -18.088 -11.879  -4.189  1.00  0.00     0.002 A 
HETATM   16  C   UNL     1     -17.123 -12.050  -5.177  1.00  0.00     0.000 A 
HETATM   17  C   UNL     1     -16.861 -11.015  -6.070  1.00  0.00     0.002 A 
HETATM   18  C   UNL     1     -17.555  -9.802  -5.967  1.00  0.00     0.029 A 
ENDBRANCH  11  13
ENDBRANCH   5   9
ENDBRANCH   3   5
BRANCH   1  19
HETATM   19  C   UNL     1     -22.084  -4.579  -8.048  1.00  0.00     0.080 A 
HETATM   20  C   UNL     1     -21.417  -4.398  -9.269  1.00  0.00     0.131 A 
HETATM   21  C   UNL     1     -22.071  -3.923 -10.422  1.00  0.00     0.045 A 
HETATM   22  C   UNL     1     -23.435  -3.627 -10.384  1.00  0.00    -0.059 A 
HETATM   23  C   UNL     1     -24.138  -3.092 -11.595  1.00  0.00     0.048 C 
HETATM   24  C   UNL     1     -24.128  -3.825  -9.187  1.00  0.00     0.009 A 
HETATM   25  C   UNL     1     -23.460  -4.288  -8.041  1.00  0.00     0.034 A 
BRANCH  20  26
HETATM   26  N   UNL     1     -20.000  -4.655  -9.402  1.00  0.00    -0.113 N 
HETATM   27  O   UNL     1     -19.293  -4.413  -8.414  1.00  0.00    -0.532 OA
HETATM   28  O   UNL     1     -19.576  -5.017 -10.508  1.00  0.00    -0.532 OA
ENDBRANCH  20  26
ENDBRANCH   1  19
TORSDOF 6
ENDMDL
MODEL 6
REMARK VINA RESULT:      -8.0      3.319      5.091
REMARK  6 active torsions:
REMARK  status: ('A' for Active; 'I' for Inactive)
REMARK    1  A    between atoms: C_4  and  N_25 
REMARK    2  A    between atoms: C_5  and  N_8 
REMARK    3  A    between atoms: N_10  and  C_12 
REMARK    4  A    between atoms: C_12  and  C_13 
REMARK    5  A    between atoms: C_12  and  C_16 
REMARK       I    between atoms: C_16  and  N_18 
REMARK    6  A    between atoms: N_18  and  C_19 
ROOT
HETATM    1  N   UNL     1     -19.214  -8.759  -4.273  1.00  0.00    -0.301 N 
ATOM      2  HN  UNL     1     -19.200  -7.979  -4.930  1.00  0.00     0.186 HD
HETATM    3  N   UNL     1     -20.195  -9.032  -3.557  1.00  0.00    -0.315 N 
ATOM      4  HN  UNL     1     -20.172  -9.748  -2.830  1.00  0.00     0.181 HD
ENDROOT
BRANCH   3   5
HETATM    5  C   UNL     1     -21.391  -8.224  -3.856  1.00  0.00     0.260 C 
BRANCH   5   6
HETATM    6  C   UNL     1     -21.578  -7.227  -2.729  1.00  0.00     0.156 C 
HETATM    7  O   UNL     1     -22.313  -6.242  -2.830  1.00  0.00    -0.296 OA
HETATM    8  C   UNL     1     -20.891  -7.497  -1.411  1.00  0.00     0.093 C 
ENDBRANCH   5   6
BRANCH   5   9
HETATM    9  C   UNL     1     -21.210  -7.569  -5.220  1.00  0.00     0.253 C 
HETATM   10  O   UNL     1     -21.328  -8.257  -6.235  1.00  0.00    -0.270 OA
HETATM   11  N   UNL     1     -20.894  -6.216  -5.201  1.00  0.00    -0.325 N 
HETATM   12  H   UNL     1     -20.614  -5.813  -4.312  1.00  0.00     0.169 HD
BRANCH  11  13
HETATM   13  C   UNL     1     -20.826  -5.357  -6.325  1.00  0.00     0.034 A 
HETATM   14  C   UNL     1     -21.951  -4.766  -6.909  1.00  0.00     0.029 A 
HETATM   15  C   UNL     1     -21.827  -3.936  -8.028  1.00  0.00     0.002 A 
HETATM   16  C   UNL     1     -20.573  -3.680  -8.571  1.00  0.00     0.000 A 
HETATM   17  C   UNL     1     -19.441  -4.241  -7.985  1.00  0.00     0.002 A 
HETATM   18  C   UNL     1     -19.566  -5.070  -6.863  1.00  0.00     0.029 A 
ENDBRANCH  11  13
ENDBRANCH   5   9
ENDBRANCH   3   5
BRANCH   1  19
HETATM   19  C   UNL     1     -18.119  -9.638  -4.086  1.00  0.00     0.080 A 
HETATM   20  C   UNL     1     -17.793 -10.772  -4.847  1.00  0.00     0.131 A 
HETATM   21  C   UNL     1     -16.736 -11.634  -4.497  1.00  0.00     0.045 A 
HETATM   22  C   UNL     1     -15.958 -11.370  -3.368  1.00  0.00    -0.059 A 
HETATM   23  C   UNL     1     -14.850 -12.296  -2.967  1.00  0.00     0.048 C 
HETATM   24  C   UNL     1     -16.246 -10.232  -2.610  1.00  0.00     0.009 A 
HETATM   25  C   UNL     1     -17.311  -9.387  -2.964  1.00  0.00     0.034 A 
BRANCH  20  26
HETATM   26  N   UNL     1     -18.553 -11.141  -6.020  1.00  0.00    -0.113 N 
HETATM   27  O   UNL     1     -17.909 -11.548  -6.997  1.00  0.00    -0.532 OA
HETATM   28  O   UNL     1     -19.777 -10.950  -6.004  1.00  0.00    -0.532 OA
ENDBRANCH  20  26
ENDBRANCH   1  19
TORSDOF 6
ENDMDL
MODEL 7
REMARK VINA RESULT:      -7.8      3.386      8.446
REMARK  6 active torsions:
REMARK  status: ('A' for Active; 'I' for Inactive)
REMARK    1  A    between atoms: C_4  and  N_25 
REMARK    2  A    between atoms: C_5  and  N_8 
REMARK    3  A    between atoms: N_10  and  C_12 
REMARK    4  A    between atoms: C_12  and  C_13 
REMARK    5  A    between atoms: C_12  and  C_16 
REMARK       I    between atoms: C_16  and  N_18 
REMARK    6  A    between atoms: N_18  and  C_19 
ROOT
HETATM    1  N   UNL     1     -19.983  -8.897  -4.640  1.00  0.00    -0.301 N 
ATOM      2  HN  UNL     1     -20.608  -9.673  -4.859  1.00  0.00     0.186 HD
HETATM    3  N   UNL     1     -18.964  -9.017  -3.935  1.00  0.00    -0.315 N 
ATOM      4  HN  UNL     1     -18.397  -8.224  -3.635  1.00  0.00     0.181 HD
ENDROOT
BRANCH   3   5
HETATM    5  C   UNL     1     -18.654 -10.413  -3.575  1.00  0.00     0.260 C 
BRANCH   5   6
HETATM    6  C   UNL     1     -17.499 -10.398  -2.592  1.00  0.00     0.156 C 
HETATM    7  O   UNL     1     -17.479 -11.105  -1.582  1.00  0.00    -0.296 OA
HETATM    8  C   UNL     1     -16.301  -9.535  -2.907  1.00  0.00     0.093 C 
ENDBRANCH   5   6
BRANCH   5   9
HETATM    9  C   UNL     1     -19.913 -11.067  -3.020  1.00  0.00     0.253 C 
HETATM   10  O   UNL     1     -20.441 -11.984  -3.651  1.00  0.00    -0.270 OA
HETATM   11  N   UNL     1     -20.389 -10.540  -1.825  1.00  0.00    -0.325 N 
HETATM   12  H   UNL     1     -19.999  -9.655  -1.515  1.00  0.00     0.169 HD
BRANCH  11  13
HETATM   13  C   UNL     1     -21.442 -11.068  -1.039  1.00  0.00     0.034 A 
HETATM   14  C   UNL     1     -21.241 -11.979   0.002  1.00  0.00     0.029 A 
HETATM   15  C   UNL     1     -22.321 -12.479   0.738  1.00  0.00     0.002 A 
HETATM   16  C   UNL     1     -23.616 -12.064   0.446  1.00  0.00     0.000 A 
HETATM   17  C   UNL     1     -23.829 -11.138  -0.572  1.00  0.00     0.002 A 
HETATM   18  C   UNL     1     -22.746 -10.635  -1.306  1.00  0.00     0.029 A 
ENDBRANCH  11  13
ENDBRANCH   5   9
ENDBRANCH   3   5
BRANCH   1  19
HETATM   19  C   UNL     1     -20.190  -7.577  -5.109  1.00  0.00     0.080 A 
HETATM   20  C   UNL     1     -20.915  -6.551  -4.484  1.00  0.00     0.131 A 
HETATM   21  C   UNL     1     -21.142  -5.306  -5.101  1.00  0.00     0.045 A 
HETATM   22  C   UNL     1     -20.628  -5.047  -6.373  1.00  0.00    -0.059 A 
HETATM   23  C   UNL     1     -20.888  -3.738  -7.054  1.00  0.00     0.048 C 
HETATM   24  C   UNL     1     -19.878  -6.044  -7.004  1.00  0.00     0.009 A 
HETATM   25  C   UNL     1     -19.670  -7.285  -6.382  1.00  0.00     0.034 A 
BRANCH  20  26
HETATM   26  N   UNL     1     -21.507  -6.730  -3.177  1.00  0.00    -0.113 N 
HETATM   27  O   UNL     1     -22.477  -6.010  -2.899  1.00  0.00    -0.532 OA
HETATM   28  O   UNL     1     -20.963  -7.522  -2.395  1.00  0.00    -0.532 OA
ENDBRANCH  20  26
ENDBRANCH   1  19
TORSDOF 6
ENDMDL
MODEL 8
REMARK VINA RESULT:      -7.7      3.412      5.911
REMARK  6 active torsions:
REMARK  status: ('A' for Active; 'I' for Inactive)
REMARK    1  A    between atoms: C_4  and  N_25 
REMARK    2  A    between atoms: C_5  and  N_8 
REMARK    3  A    between atoms: N_10  and  C_12 
REMARK    4  A    between atoms: C_12  and  C_13 
REMARK    5  A    between atoms: C_12  and  C_16 
REMARK       I    between atoms: C_16  and  N_18 
REMARK    6  A    between atoms: N_18  and  C_19 
ROOT
HETATM    1  N   UNL     1     -19.060  -8.953  -2.927  1.00  0.00    -0.301 N 
ATOM      2  HN  UNL     1     -19.069  -7.961  -2.694  1.00  0.00     0.186 HD
HETATM    3  N   UNL     1     -20.069  -9.680  -2.860  1.00  0.00    -0.315 N 
ATOM      4  HN  UNL     1     -20.038 -10.690  -2.996  1.00  0.00     0.181 HD
ENDROOT
BRANCH   3   5
HETATM    5  C   UNL     1     -21.312  -8.943  -2.566  1.00  0.00     0.260 C 
BRANCH   5   6
HETATM    6  C   UNL     1     -21.426  -8.797  -1.061  1.00  0.00     0.156 C 
HETATM    7  O   UNL     1     -20.474  -8.465  -0.352  1.00  0.00    -0.296 OA
HETATM    8  C   UNL     1     -22.781  -8.997  -0.423  1.00  0.00     0.093 C 
ENDBRANCH   5   6
BRANCH   5   9
HETATM    9  C   UNL     1     -21.276  -7.610  -3.303  1.00  0.00     0.253 C 
HETATM   10  O   UNL     1     -21.192  -6.567  -2.652  1.00  0.00    -0.270 OA
HETATM   11  N   UNL     1     -21.370  -7.684  -4.688  1.00  0.00    -0.325 N 
HETATM   12  H   UNL     1     -21.650  -8.573  -5.091  1.00  0.00     0.169 HD
BRANCH  11  13
HETATM   13  C   UNL     1     -21.209  -6.610  -5.596  1.00  0.00     0.034 A 
HETATM   14  C   UNL     1     -19.994  -6.302  -6.214  1.00  0.00     0.029 A 
HETATM   15  C   UNL     1     -19.889  -5.219  -7.093  1.00  0.00     0.002 A 
HETATM   16  C   UNL     1     -21.004  -4.436  -7.372  1.00  0.00     0.000 A 
HETATM   17  C   UNL     1     -22.227  -4.746  -6.783  1.00  0.00     0.002 A 
HETATM   18  C   UNL     1     -22.332  -5.833  -5.905  1.00  0.00     0.029 A 
ENDBRANCH  11  13
ENDBRANCH   5   9
ENDBRANCH   3   5
BRANCH   1  19
HETATM   19  C   UNL     1     -17.899  -9.641  -3.358  1.00  0.00     0.080 A 
HETATM   20  C   UNL     1     -17.544  -9.979  -4.673  1.00  0.00     0.131 A 
HETATM   21  C   UNL     1     -16.412 -10.763  -4.969  1.00  0.00     0.045 A 
HETATM   22  C   UNL     1     -15.587 -11.222  -3.941  1.00  0.00    -0.059 A 
HETATM   23  C   UNL     1     -14.396 -12.082  -4.239  1.00  0.00     0.048 C 
HETATM   24  C   UNL     1     -15.904 -10.874  -2.625  1.00  0.00     0.009 A 
HETATM   25  C   UNL     1     -17.043 -10.102  -2.343  1.00  0.00     0.034 A 
BRANCH  20  26
HETATM   26  N   UNL     1     -18.348  -9.571  -5.803  1.00  0.00    -0.113 N 
HETATM   27  O   UNL     1     -19.550  -9.870  -5.770  1.00  0.00    -0.532 OA
HETATM   28  O   UNL     1     -17.777  -9.028  -6.758  1.00  0.00    -0.532 OA
ENDBRANCH  20  26
ENDBRANCH   1  19
TORSDOF 6
ENDMDL
MODEL 9
REMARK VINA RESULT:      -7.7      3.072      5.186
REMARK  6 active torsions:
REMARK  status: ('A' for Active; 'I' for Inactive)
REMARK    1  A    between atoms: C_4  and  N_25 
REMARK    2  A    between atoms: C_5  and  N_8 
REMARK    3  A    between atoms: N_10  and  C_12 
REMARK    4  A    between atoms: C_12  and  C_13 
REMARK    5  A    between atoms: C_12  and  C_16 
REMARK       I    between atoms: C_16  and  N_18 
REMARK    6  A    between atoms: N_18  and  C_19 
ROOT
HETATM    1  N   UNL     1     -20.056  -9.863  -2.937  1.00  0.00    -0.301 N 
ATOM      2  HN  UNL     1     -20.642 -10.379  -3.591  1.00  0.00     0.186 HD
HETATM    3  N   UNL     1     -20.227  -8.660  -2.667  1.00  0.00    -0.315 N 
ATOM      4  HN  UNL     1     -19.581  -8.120  -2.091  1.00  0.00     0.181 HD
ENDROOT
BRANCH   3   5
HETATM    5  C   UNL     1     -21.451  -8.088  -3.258  1.00  0.00     0.260 C 
BRANCH   5   6
HETATM    6  C   UNL     1     -21.963  -7.008  -2.324  1.00  0.00     0.156 C 
HETATM    7  O   UNL     1     -22.501  -5.977  -2.734  1.00  0.00    -0.296 OA
HETATM    8  C   UNL     1     -21.872  -7.247  -0.835  1.00  0.00     0.093 C 
ENDBRANCH   5   6
BRANCH   5   9
HETATM    9  C   UNL     1     -21.126  -7.576  -4.656  1.00  0.00     0.253 C 
HETATM   10  O   UNL     1     -21.064  -8.378  -5.589  1.00  0.00    -0.270 OA
HETATM   11  N   UNL     1     -20.896  -6.209  -4.757  1.00  0.00    -0.325 N 
HETATM   12  H   UNL     1     -20.764  -5.691  -3.894  1.00  0.00     0.169 HD
BRANCH  11  13
HETATM   13  C   UNL     1     -20.728  -5.476  -5.958  1.00  0.00     0.034 A 
HETATM   14  C   UNL     1     -19.477  -5.167  -6.500  1.00  0.00     0.029 A 
HETATM   15  C   UNL     1     -19.370  -4.428  -7.683  1.00  0.00     0.002 A 
HETATM   16  C   UNL     1     -20.516  -3.997  -8.343  1.00  0.00     0.000 A 
HETATM   17  C   UNL     1     -21.768  -4.319  -7.828  1.00  0.00     0.002 A 
HETATM   18  C   UNL     1     -21.875  -5.063  -6.645  1.00  0.00     0.029 A 
ENDBRANCH  11  13
ENDBRANCH   5   9
ENDBRANCH   3   5
BRANCH   1  19
HETATM   19  C   UNL     1     -18.965 -10.444  -2.245  1.00  0.00     0.080 A 
HETATM   20  C   UNL     1     -17.612 -10.436  -2.618  1.00  0.00     0.131 A 
HETATM   21  C   UNL     1     -16.629 -11.144  -1.901  1.00  0.00     0.045 A 
HETATM   22  C   UNL     1     -16.978 -11.876  -0.765  1.00  0.00    -0.059 A 
HETATM   23  C   UNL     1     -15.948 -12.660  -0.010  1.00  0.00     0.048 C 
HETATM   24  C   UNL     1     -18.315 -11.877  -0.357  1.00  0.00     0.009 A 
HETATM   25  C   UNL     1     -19.288 -11.176  -1.088  1.00  0.00     0.034 A 
BRANCH  20  26
HETATM   26  N   UNL     1     -17.156  -9.726  -3.792  1.00  0.00    -0.113 N 
HETATM   27  O   UNL     1     -15.976  -9.346  -3.791  1.00  0.00    -0.532 OA
HETATM   28  O   UNL     1     -17.983  -9.473  -4.678  1.00  0.00    -0.532 OA
ENDBRANCH  20  26
ENDBRANCH   1  19
TORSDOF 6
ENDMDL
