MODEL 1
REMARK VINA RESULT:      -1.3      0.000      0.000
REMARK  20 active torsions:
REMARK  status: ('A' for Active; 'I' for Inactive)
REMARK    1  A    between atoms: C_1  and  C_2 
REMARK    2  A    between atoms: C_1  and  O_13 
REMARK    3  A    between atoms: C_2  and  C_3 
REMARK    4  A    between atoms: C_2  and  O_12 
REMARK    5  A    between atoms: C_3  and  C_4 
REMARK    6  A    between atoms: C_3  and  O_11 
REMARK    7  A    between atoms: C_4  and  C_5 
REMARK    8  A    between atoms: C_4  and  O_10 
REMARK    9  A    between atoms: C_5  and  C_6 
REMARK   10  A    between atoms: C_5  and  O_9 
REMARK   11  A    between atoms: C_19  and  C_20 
REMARK   12  A    between atoms: C_19  and  O_31 
REMARK   13  A    between atoms: C_20  and  C_21 
REMARK   14  A    between atoms: C_20  and  O_30 
REMARK   15  A    between atoms: C_21  and  C_22 
REMARK   16  A    between atoms: C_21  and  O_29 
REMARK   17  A    between atoms: C_22  and  C_23 
REMARK   18  A    between atoms: C_22  and  O_28 
REMARK   19  A    between atoms: C_23  and  C_24 
REMARK   20  A    between atoms: C_23  and  O_27 
ROOT
HETATM    1 CA   UNL     3     -32.324  -8.576   4.529  1.00  0.00     0.000 Ca
ENDROOT
TORSDOF 20
ENDMDL
MODEL 2
REMARK VINA RESULT:      -1.3     23.494     23.494
REMARK  20 active torsions:
REMARK  status: ('A' for Active; 'I' for Inactive)
REMARK    1  A    between atoms: C_1  and  C_2 
REMARK    2  A    between atoms: C_1  and  O_13 
REMARK    3  A    between atoms: C_2  and  C_3 
REMARK    4  A    between atoms: C_2  and  O_12 
REMARK    5  A    between atoms: C_3  and  C_4 
REMARK    6  A    between atoms: C_3  and  O_11 
REMARK    7  A    between atoms: C_4  and  C_5 
REMARK    8  A    between atoms: C_4  and  O_10 
REMARK    9  A    between atoms: C_5  and  C_6 
REMARK   10  A    between atoms: C_5  and  O_9 
REMARK   11  A    between atoms: C_19  and  C_20 
REMARK   12  A    between atoms: C_19  and  O_31 
REMARK   13  A    between atoms: C_20  and  C_21 
REMARK   14  A    between atoms: C_20  and  O_30 
REMARK   15  A    between atoms: C_21  and  C_22 
REMARK   16  A    between atoms: C_21  and  O_29 
REMARK   17  A    between atoms: C_22  and  C_23 
REMARK   18  A    between atoms: C_22  and  O_28 
REMARK   19  A    between atoms: C_23  and  C_24 
REMARK   20  A    between atoms: C_23  and  O_27 
ROOT
HETATM    1 CA   UNL     3     -11.257   1.620   2.468  1.00  0.00     0.000 Ca
ENDROOT
TORSDOF 20
ENDMDL
MODEL 3
REMARK VINA RESULT:      -1.2     19.033     19.033
REMARK  20 active torsions:
REMARK  status: ('A' for Active; 'I' for Inactive)
REMARK    1  A    between atoms: C_1  and  C_2 
REMARK    2  A    between atoms: C_1  and  O_13 
REMARK    3  A    between atoms: C_2  and  C_3 
REMARK    4  A    between atoms: C_2  and  O_12 
REMARK    5  A    between atoms: C_3  and  C_4 
REMARK    6  A    between atoms: C_3  and  O_11 
REMARK    7  A    between atoms: C_4  and  C_5 
REMARK    8  A    between atoms: C_4  and  O_10 
REMARK    9  A    between atoms: C_5  and  C_6 
REMARK   10  A    between atoms: C_5  and  O_9 
REMARK   11  A    between atoms: C_19  and  C_20 
REMARK   12  A    between atoms: C_19  and  O_31 
REMARK   13  A    between atoms: C_20  and  C_21 
REMARK   14  A    between atoms: C_20  and  O_30 
REMARK   15  A    between atoms: C_21  and  C_22 
REMARK   16  A    between atoms: C_21  and  O_29 
REMARK   17  A    between atoms: C_22  and  C_23 
REMARK   18  A    between atoms: C_22  and  O_28 
REMARK   19  A    between atoms: C_23  and  C_24 
REMARK   20  A    between atoms: C_23  and  O_27 
ROOT
HETATM    1 CA   UNL     3     -27.015 -13.665 -13.026  1.00  0.00     0.000 Ca
ENDROOT
TORSDOF 20
ENDMDL
MODEL 4
REMARK VINA RESULT:      -1.2     22.209     22.209
REMARK  20 active torsions:
REMARK  status: ('A' for Active; 'I' for Inactive)
REMARK    1  A    between atoms: C_1  and  C_2 
REMARK    2  A    between atoms: C_1  and  O_13 
REMARK    3  A    between atoms: C_2  and  C_3 
REMARK    4  A    between atoms: C_2  and  O_12 
REMARK    5  A    between atoms: C_3  and  C_4 
REMARK    6  A    between atoms: C_3  and  O_11 
REMARK    7  A    between atoms: C_4  and  C_5 
REMARK    8  A    between atoms: C_4  and  O_10 
REMARK    9  A    between atoms: C_5  and  C_6 
REMARK   10  A    between atoms: C_5  and  O_9 
REMARK   11  A    between atoms: C_19  and  C_20 
REMARK   12  A    between atoms: C_19  and  O_31 
REMARK   13  A    between atoms: C_20  and  C_21 
REMARK   14  A    between atoms: C_20  and  O_30 
REMARK   15  A    between atoms: C_21  and  C_22 
REMARK   16  A    between atoms: C_21  and  O_29 
REMARK   17  A    between atoms: C_22  and  C_23 
REMARK   18  A    between atoms: C_22  and  O_28 
REMARK   19  A    between atoms: C_23  and  C_24 
REMARK   20  A    between atoms: C_23  and  O_27 
ROOT
HETATM    1 CA   UNL     3     -25.113   0.407 -14.459  1.00  0.00     0.000 Ca
ENDROOT
TORSDOF 20
ENDMDL
MODEL 5
REMARK VINA RESULT:      -1.2     14.862     14.862
REMARK  20 active torsions:
REMARK  status: ('A' for Active; 'I' for Inactive)
REMARK    1  A    between atoms: C_1  and  C_2 
REMARK    2  A    between atoms: C_1  and  O_13 
REMARK    3  A    between atoms: C_2  and  C_3 
REMARK    4  A    between atoms: C_2  and  O_12 
REMARK    5  A    between atoms: C_3  and  C_4 
REMARK    6  A    between atoms: C_3  and  O_11 
REMARK    7  A    between atoms: C_4  and  C_5 
REMARK    8  A    between atoms: C_4  and  O_10 
REMARK    9  A    between atoms: C_5  and  C_6 
REMARK   10  A    between atoms: C_5  and  O_9 
REMARK   11  A    between atoms: C_19  and  C_20 
REMARK   12  A    between atoms: C_19  and  O_31 
REMARK   13  A    between atoms: C_20  and  C_21 
REMARK   14  A    between atoms: C_20  and  O_30 
REMARK   15  A    between atoms: C_21  and  C_22 
REMARK   16  A    between atoms: C_21  and  O_29 
REMARK   17  A    between atoms: C_22  and  C_23 
REMARK   18  A    between atoms: C_22  and  O_28 
REMARK   19  A    between atoms: C_23  and  C_24 
REMARK   20  A    between atoms: C_23  and  O_27 
ROOT
HETATM    1 CA   UNL     3     -27.319  -5.633  -9.152  1.00  0.00     0.000 Ca
ENDROOT
TORSDOF 20
ENDMDL
MODEL 6
REMARK VINA RESULT:      -1.1     12.328     12.328
REMARK  20 active torsions:
REMARK  status: ('A' for Active; 'I' for Inactive)
REMARK    1  A    between atoms: C_1  and  C_2 
REMARK    2  A    between atoms: C_1  and  O_13 
REMARK    3  A    between atoms: C_2  and  C_3 
REMARK    4  A    between atoms: C_2  and  O_12 
REMARK    5  A    between atoms: C_3  and  C_4 
REMARK    6  A    between atoms: C_3  and  O_11 
REMARK    7  A    between atoms: C_4  and  C_5 
REMARK    8  A    between atoms: C_4  and  O_10 
REMARK    9  A    between atoms: C_5  and  C_6 
REMARK   10  A    between atoms: C_5  and  O_9 
REMARK   11  A    between atoms: C_19  and  C_20 
REMARK   12  A    between atoms: C_19  and  O_31 
REMARK   13  A    between atoms: C_20  and  C_21 
REMARK   14  A    between atoms: C_20  and  O_30 
REMARK   15  A    between atoms: C_21  and  C_22 
REMARK   16  A    between atoms: C_21  and  O_29 
REMARK   17  A    between atoms: C_22  and  C_23 
REMARK   18  A    between atoms: C_22  and  O_28 
REMARK   19  A    between atoms: C_23  and  C_24 
REMARK   20  A    between atoms: C_23  and  O_27 
ROOT
HETATM    1 CA   UNL     3     -25.223  -5.220  -4.974  1.00  0.00     0.000 Ca
ENDROOT
TORSDOF 20
ENDMDL
MODEL 7
REMARK VINA RESULT:      -1.1     23.159     23.159
REMARK  20 active torsions:
REMARK  status: ('A' for Active; 'I' for Inactive)
REMARK    1  A    between atoms: C_1  and  C_2 
REMARK    2  A    between atoms: C_1  and  O_13 
REMARK    3  A    between atoms: C_2  and  C_3 
REMARK    4  A    between atoms: C_2  and  O_12 
REMARK    5  A    between atoms: C_3  and  C_4 
REMARK    6  A    between atoms: C_3  and  O_11 
REMARK    7  A    between atoms: C_4  and  C_5 
REMARK    8  A    between atoms: C_4  and  O_10 
REMARK    9  A    between atoms: C_5  and  C_6 
REMARK   10  A    between atoms: C_5  and  O_9 
REMARK   11  A    between atoms: C_19  and  C_20 
REMARK   12  A    between atoms: C_19  and  O_31 
REMARK   13  A    between atoms: C_20  and  C_21 
REMARK   14  A    between atoms: C_20  and  O_30 
REMARK   15  A    between atoms: C_21  and  C_22 
REMARK   16  A    between atoms: C_21  and  O_29 
REMARK   17  A    between atoms: C_22  and  C_23 
REMARK   18  A    between atoms: C_22  and  O_28 
REMARK   19  A    between atoms: C_23  and  C_24 
REMARK   20  A    between atoms: C_23  and  O_27 
ROOT
HETATM    1 CA   UNL     3     -11.576   1.111   1.057  1.00  0.00     0.000 Ca
ENDROOT
TORSDOF 20
ENDMDL
MODEL 8
REMARK VINA RESULT:      -1.0      9.904      9.904
REMARK  20 active torsions:
REMARK  status: ('A' for Active; 'I' for Inactive)
REMARK    1  A    between atoms: C_1  and  C_2 
REMARK    2  A    between atoms: C_1  and  O_13 
REMARK    3  A    between atoms: C_2  and  C_3 
REMARK    4  A    between atoms: C_2  and  O_12 
REMARK    5  A    between atoms: C_3  and  C_4 
REMARK    6  A    between atoms: C_3  and  O_11 
REMARK    7  A    between atoms: C_4  and  C_5 
REMARK    8  A    between atoms: C_4  and  O_10 
REMARK    9  A    between atoms: C_5  and  C_6 
REMARK   10  A    between atoms: C_5  and  O_9 
REMARK   11  A    between atoms: C_19  and  C_20 
REMARK   12  A    between atoms: C_19  and  O_31 
REMARK   13  A    between atoms: C_20  and  C_21 
REMARK   14  A    between atoms: C_20  and  O_30 
REMARK   15  A    between atoms: C_21  and  C_22 
REMARK   16  A    between atoms: C_21  and  O_29 
REMARK   17  A    between atoms: C_22  and  C_23 
REMARK   18  A    between atoms: C_22  and  O_28 
REMARK   19  A    between atoms: C_23  and  C_24 
REMARK   20  A    between atoms: C_23  and  O_27 
ROOT
HETATM    1 CA   UNL     3     -32.732  -6.044  -5.037  1.00  0.00     0.000 Ca
ENDROOT
TORSDOF 20
ENDMDL
MODEL 9
REMARK VINA RESULT:      -1.0     15.718     15.718
REMARK  20 active torsions:
REMARK  status: ('A' for Active; 'I' for Inactive)
REMARK    1  A    between atoms: C_1  and  C_2 
REMARK    2  A    between atoms: C_1  and  O_13 
REMARK    3  A    between atoms: C_2  and  C_3 
REMARK    4  A    between atoms: C_2  and  O_12 
REMARK    5  A    between atoms: C_3  and  C_4 
REMARK    6  A    between atoms: C_3  and  O_11 
REMARK    7  A    between atoms: C_4  and  C_5 
REMARK    8  A    between atoms: C_4  and  O_10 
REMARK    9  A    between atoms: C_5  and  C_6 
REMARK   10  A    between atoms: C_5  and  O_9 
REMARK   11  A    between atoms: C_19  and  C_20 
REMARK   12  A    between atoms: C_19  and  O_31 
REMARK   13  A    between atoms: C_20  and  C_21 
REMARK   14  A    between atoms: C_20  and  O_30 
REMARK   15  A    between atoms: C_21  and  C_22 
REMARK   16  A    between atoms: C_21  and  O_29 
REMARK   17  A    between atoms: C_22  and  C_23 
REMARK   18  A    between atoms: C_22  and  O_28 
REMARK   19  A    between atoms: C_23  and  C_24 
REMARK   20  A    between atoms: C_23  and  O_27 
ROOT
HETATM    1 CA   UNL     3     -26.953  -3.576  -9.372  1.00  0.00     0.000 Ca
ENDROOT
TORSDOF 20
ENDMDL
