MODEL 1
REMARK VINA RESULT:      -7.4      0.000      0.000
REMARK  12 active torsions:
REMARK  status: ('A' for Active; 'I' for Inactive)
REMARK    1  A    between atoms: C_2  and  C_3 
REMARK    2  A    between atoms: C_3  and  C_4 
REMARK    3  A    between atoms: C_4  and  C_5 
REMARK    4  A    between atoms: C_5  and  C_6 
REMARK    5  A    between atoms: C_5  and  C_8 
REMARK    6  A    between atoms: C_8  and  O_9 
REMARK    7  A    between atoms: O_9  and  C_10 
REMARK    8  A    between atoms: C_10  and  C_12 
REMARK    9  A    between atoms: C_12  and  C_26 
REMARK   10  A    between atoms: C_13  and  C_14 
REMARK   11  A    between atoms: C_13  and  C_20 
REMARK   12  A    between atoms: C_26  and  N_27 
ROOT
HETATM    1  C   UNL     1     -22.028 -12.099  -1.743  1.00  0.00     0.113 C 
HETATM    2  C   UNL     1     -22.109 -11.879  -0.398  1.00  0.00     0.010 C 
ENDROOT
BRANCH   1   3
HETATM    3  C   UNL     1     -22.013 -10.984  -2.742  1.00  0.00     0.303 C 
HETATM    4  O   UNL     1     -22.882 -10.779  -3.580  1.00  0.00    -0.258 OA
BRANCH   3   5
HETATM    5  O   UNL     1     -20.858 -10.253  -2.687  1.00  0.00    -0.317 OA
BRANCH   5   6
HETATM    6  C   UNL     1     -20.491  -9.533  -3.890  1.00  0.00     0.183 C 
BRANCH   6   7
HETATM    7  C   UNL     1     -20.767  -8.008  -3.881  1.00  0.00     0.010 C 
BRANCH   7   8
HETATM    8  C   UNL     1     -21.923  -7.621  -4.830  1.00  0.00     0.007 C 
BRANCH   8   9
HETATM    9  C   UNL     1     -21.542  -6.695  -6.000  1.00  0.00     0.000 C 
BRANCH   9  10
HETATM   10  C   UNL     1     -20.100  -6.183  -5.939  1.00  0.00    -0.005 C 
HETATM   11  C   UNL     1     -20.049  -4.670  -5.777  1.00  0.00     0.005 C 
ENDBRANCH   9  10
ENDBRANCH   8   9
ENDBRANCH   7   8
BRANCH   7  12
HETATM   12  C   UNL     1     -20.976  -7.493  -2.433  1.00  0.00     0.002 C 
HETATM   13  C   UNL     1     -21.910  -6.297  -2.274  1.00  0.00     0.005 C 
ENDBRANCH   7  12
ENDBRANCH   6   7
ENDBRANCH   5   6
ENDBRANCH   3   5
ENDBRANCH   1   3
BRANCH   1  14
HETATM   14  C   UNL     1     -22.062 -13.536  -2.236  1.00  0.00    -0.030 C 
BRANCH  14  15
HETATM   15  N   UNL     1     -22.091 -14.729  -2.645  1.00  0.00    -0.365 N 
ATOM     16  HN2 UNL     1     -22.065 -13.744  -2.380  1.00  0.00     0.165 HD
ATOM     17  HN1 UNL     1     -22.115 -15.694  -2.974  1.00  0.00     0.165 HD
ENDBRANCH  14  15
ENDBRANCH   1  14
BRANCH   2  18
HETATM   18  C   UNL     1     -22.232 -13.020   0.564  1.00  0.00    -0.023 A 
HETATM   19  C   UNL     1     -21.128 -13.830   0.867  1.00  0.00     0.012 A 
HETATM   20  C   UNL     1     -21.213 -14.769   1.903  1.00  0.00     0.001 A 
HETATM   21  C   UNL     1     -22.390 -14.902   2.639  1.00  0.00     0.000 A 
HETATM   22  C   UNL     1     -23.494 -14.112   2.332  1.00  0.00     0.001 A 
HETATM   23  C   UNL     1     -23.418 -13.178   1.297  1.00  0.00     0.012 A 
ENDBRANCH   2  18
BRANCH   2  24
HETATM   24  C   UNL     1     -22.169 -10.522   0.208  1.00  0.00    -0.023 A 
HETATM   25  C   UNL     1     -21.038  -9.987   0.842  1.00  0.00     0.012 A 
HETATM   26  C   UNL     1     -21.032  -8.657   1.262  1.00  0.00     0.001 A 
HETATM   27  C   UNL     1     -22.152  -7.854   1.055  1.00  0.00     0.000 A 
HETATM   28  C   UNL     1     -23.283  -8.380   0.433  1.00  0.00     0.001 A 
HETATM   29  C   UNL     1     -23.293  -9.710   0.005  1.00  0.00     0.012 A 
ENDBRANCH   2  24
TORSDOF 12
ENDMDL
MODEL 2
REMARK VINA RESULT:      -7.3      0.945      1.829
REMARK  12 active torsions:
REMARK  status: ('A' for Active; 'I' for Inactive)
REMARK    1  A    between atoms: C_2  and  C_3 
REMARK    2  A    between atoms: C_3  and  C_4 
REMARK    3  A    between atoms: C_4  and  C_5 
REMARK    4  A    between atoms: C_5  and  C_6 
REMARK    5  A    between atoms: C_5  and  C_8 
REMARK    6  A    between atoms: C_8  and  O_9 
REMARK    7  A    between atoms: O_9  and  C_10 
REMARK    8  A    between atoms: C_10  and  C_12 
REMARK    9  A    between atoms: C_12  and  C_26 
REMARK   10  A    between atoms: C_13  and  C_14 
REMARK   11  A    between atoms: C_13  and  C_20 
REMARK   12  A    between atoms: C_26  and  N_27 
ROOT
HETATM    1  C   UNL     1     -22.214 -12.472  -1.813  1.00  0.00     0.113 C 
HETATM    2  C   UNL     1     -22.223 -12.090  -0.503  1.00  0.00     0.010 C 
ENDROOT
BRANCH   1   3
HETATM    3  C   UNL     1     -22.156 -11.487  -2.939  1.00  0.00     0.303 C 
HETATM    4  O   UNL     1     -23.128 -11.064  -3.553  1.00  0.00    -0.258 OA
BRANCH   3   5
HETATM    5  O   UNL     1     -20.872 -11.169  -3.286  1.00  0.00    -0.317 OA
BRANCH   5   6
HETATM    6  C   UNL     1     -20.696  -9.971  -4.083  1.00  0.00     0.183 C 
BRANCH   6   7
HETATM    7  C   UNL     1     -20.228  -8.708  -3.317  1.00  0.00     0.010 C 
BRANCH   7   8
HETATM    8  C   UNL     1     -21.405  -7.968  -2.642  1.00  0.00     0.007 C 
BRANCH   8   9
HETATM    9  C   UNL     1     -21.396  -6.435  -2.784  1.00  0.00     0.000 C 
BRANCH   9  10
HETATM   10  C   UNL     1     -21.178  -5.948  -4.219  1.00  0.00    -0.005 C 
HETATM   11  C   UNL     1     -22.311  -6.386  -5.138  1.00  0.00     0.005 C 
ENDBRANCH   9  10
ENDBRANCH   8   9
ENDBRANCH   7   8
BRANCH   7  12
HETATM   12  C   UNL     1     -19.085  -9.054  -2.326  1.00  0.00     0.002 C 
HETATM   13  C   UNL     1     -17.757  -9.469  -2.952  1.00  0.00     0.005 C 
ENDBRANCH   7  12
ENDBRANCH   6   7
ENDBRANCH   5   6
ENDBRANCH   3   5
ENDBRANCH   1   3
BRANCH   1  14
HETATM   14  C   UNL     1     -22.376 -13.950  -2.128  1.00  0.00    -0.030 C 
BRANCH  14  15
HETATM   15  N   UNL     1     -22.511 -15.176  -2.391  1.00  0.00    -0.365 N 
ATOM     16  HN2 UNL     1     -22.400 -14.172  -2.246  1.00  0.00     0.165 HD
ATOM     17  HN1 UNL     1     -22.621 -16.168  -2.603  1.00  0.00     0.165 HD
ENDBRANCH  14  15
ENDBRANCH   1  14
BRANCH   2  18
HETATM   18  C   UNL     1     -22.391 -13.096   0.594  1.00  0.00    -0.023 A 
HETATM   19  C   UNL     1     -21.304 -13.860   1.045  1.00  0.00     0.012 A 
HETATM   20  C   UNL     1     -21.437 -14.656   2.189  1.00  0.00     0.001 A 
HETATM   21  C   UNL     1     -22.643 -14.692   2.887  1.00  0.00     0.000 A 
HETATM   22  C   UNL     1     -23.730 -13.948   2.436  1.00  0.00     0.001 A 
HETATM   23  C   UNL     1     -23.606 -13.157   1.292  1.00  0.00     0.012 A 
ENDBRANCH   2  18
BRANCH   2  24
HETATM   24  C   UNL     1     -22.156 -10.670  -0.063  1.00  0.00    -0.023 A 
HETATM   25  C   UNL     1     -23.297  -9.858  -0.139  1.00  0.00     0.012 A 
HETATM   26  C   UNL     1     -23.290  -8.582   0.424  1.00  0.00     0.001 A 
HETATM   27  C   UNL     1     -22.146  -8.107   1.064  1.00  0.00     0.000 A 
HETATM   28  C   UNL     1     -21.005  -8.905   1.137  1.00  0.00     0.001 A 
HETATM   29  C   UNL     1     -21.009 -10.185   0.579  1.00  0.00     0.012 A 
ENDBRANCH   2  24
TORSDOF 12
ENDMDL
MODEL 3
REMARK VINA RESULT:      -7.2      1.255      2.518
REMARK  12 active torsions:
REMARK  status: ('A' for Active; 'I' for Inactive)
REMARK    1  A    between atoms: C_2  and  C_3 
REMARK    2  A    between atoms: C_3  and  C_4 
REMARK    3  A    between atoms: C_4  and  C_5 
REMARK    4  A    between atoms: C_5  and  C_6 
REMARK    5  A    between atoms: C_5  and  C_8 
REMARK    6  A    between atoms: C_8  and  O_9 
REMARK    7  A    between atoms: O_9  and  C_10 
REMARK    8  A    between atoms: C_10  and  C_12 
REMARK    9  A    between atoms: C_12  and  C_26 
REMARK   10  A    between atoms: C_13  and  C_14 
REMARK   11  A    between atoms: C_13  and  C_20 
REMARK   12  A    between atoms: C_26  and  N_27 
ROOT
HETATM    1  C   UNL     1     -22.487 -12.403  -1.850  1.00  0.00     0.113 C 
HETATM    2  C   UNL     1     -22.344 -12.059  -0.537  1.00  0.00     0.010 C 
ENDROOT
BRANCH   1   3
HETATM    3  C   UNL     1     -22.535 -11.386  -2.948  1.00  0.00     0.303 C 
HETATM    4  O   UNL     1     -23.559 -10.976  -3.482  1.00  0.00    -0.258 OA
BRANCH   3   5
HETATM    5  O   UNL     1     -21.288 -11.019  -3.371  1.00  0.00    -0.317 OA
BRANCH   5   6
HETATM    6  C   UNL     1     -21.138  -9.652  -3.831  1.00  0.00     0.183 C 
BRANCH   6   7
HETATM    7  C   UNL     1     -20.859  -8.593  -2.734  1.00  0.00     0.010 C 
BRANCH   7   8
HETATM    8  C   UNL     1     -19.406  -8.664  -2.214  1.00  0.00     0.007 C 
BRANCH   8   9
HETATM    9  C   UNL     1     -18.392  -9.334  -3.159  1.00  0.00     0.000 C 
BRANCH   9  10
HETATM   10  C   UNL     1     -17.499 -10.372  -2.472  1.00  0.00    -0.005 C 
HETATM   11  C   UNL     1     -18.315 -11.348  -1.636  1.00  0.00     0.005 C 
ENDBRANCH   9  10
ENDBRANCH   8   9
ENDBRANCH   7   8
BRANCH   7  12
HETATM   12  C   UNL     1     -21.257  -7.175  -3.222  1.00  0.00     0.002 C 
HETATM   13  C   UNL     1     -21.986  -6.297  -2.210  1.00  0.00     0.005 C 
ENDBRANCH   7  12
ENDBRANCH   6   7
ENDBRANCH   5   6
ENDBRANCH   3   5
ENDBRANCH   1   3
BRANCH   1  14
HETATM   14  C   UNL     1     -22.711 -13.868  -2.185  1.00  0.00    -0.030 C 
BRANCH  14  15
HETATM   15  N   UNL     1     -22.895 -15.084  -2.464  1.00  0.00    -0.365 N 
ATOM     16  HN2 UNL     1     -22.680 -14.115  -2.226  1.00  0.00     0.165 HD
ATOM     17  HN1 UNL     1     -23.045 -16.067  -2.690  1.00  0.00     0.165 HD
ENDBRANCH  14  15
ENDBRANCH   1  14
BRANCH   2  18
HETATM   18  C   UNL     1     -22.409 -13.094   0.544  1.00  0.00    -0.023 A 
HETATM   19  C   UNL     1     -21.278 -13.847   0.890  1.00  0.00     0.012 A 
HETATM   20  C   UNL     1     -21.307 -14.673   2.021  1.00  0.00     0.001 A 
HETATM   21  C   UNL     1     -22.455 -14.749   2.809  1.00  0.00     0.000 A 
HETATM   22  C   UNL     1     -23.587 -14.016   2.460  1.00  0.00     0.001 A 
HETATM   23  C   UNL     1     -23.566 -13.196   1.331  1.00  0.00     0.012 A 
ENDBRANCH   2  18
BRANCH   2  24
HETATM   24  C   UNL     1     -22.202 -10.654  -0.069  1.00  0.00    -0.023 A 
HETATM   25  C   UNL     1     -23.286  -9.770  -0.163  1.00  0.00     0.012 A 
HETATM   26  C   UNL     1     -23.217  -8.507   0.424  1.00  0.00     0.001 A 
HETATM   27  C   UNL     1     -22.066  -8.116   1.106  1.00  0.00     0.000 A 
HETATM   28  C   UNL     1     -20.980  -8.986   1.198  1.00  0.00     0.001 A 
HETATM   29  C   UNL     1     -21.047 -10.254   0.616  1.00  0.00     0.012 A 
ENDBRANCH   2  24
TORSDOF 12
ENDMDL
MODEL 4
REMARK VINA RESULT:      -7.2      2.356      6.748
REMARK  12 active torsions:
REMARK  status: ('A' for Active; 'I' for Inactive)
REMARK    1  A    between atoms: C_2  and  C_3 
REMARK    2  A    between atoms: C_3  and  C_4 
REMARK    3  A    between atoms: C_4  and  C_5 
REMARK    4  A    between atoms: C_5  and  C_6 
REMARK    5  A    between atoms: C_5  and  C_8 
REMARK    6  A    between atoms: C_8  and  O_9 
REMARK    7  A    between atoms: O_9  and  C_10 
REMARK    8  A    between atoms: C_10  and  C_12 
REMARK    9  A    between atoms: C_12  and  C_26 
REMARK   10  A    between atoms: C_13  and  C_14 
REMARK   11  A    between atoms: C_13  and  C_20 
REMARK   12  A    between atoms: C_26  and  N_27 
ROOT
HETATM    1  C   UNL     1     -20.453 -10.993  -3.233  1.00  0.00     0.113 C 
HETATM    2  C   UNL     1     -19.856  -9.827  -3.613  1.00  0.00     0.010 C 
ENDROOT
BRANCH   1   3
HETATM    3  C   UNL     1     -19.685 -12.264  -3.037  1.00  0.00     0.303 C 
HETATM    4  O   UNL     1     -19.098 -12.874  -3.923  1.00  0.00    -0.258 OA
BRANCH   3   5
HETATM    5  O   UNL     1     -19.784 -12.739  -1.758  1.00  0.00    -0.317 OA
BRANCH   5   6
HETATM    6  C   UNL     1     -19.302 -11.866  -0.707  1.00  0.00     0.183 C 
BRANCH   6   7
HETATM    7  C   UNL     1     -20.342 -11.453   0.365  1.00  0.00     0.010 C 
BRANCH   7   8
HETATM    8  C   UNL     1     -20.952 -10.063   0.078  1.00  0.00     0.007 C 
BRANCH   8   9
HETATM    9  C   UNL     1     -20.940  -9.074   1.257  1.00  0.00     0.000 C 
BRANCH   9  10
HETATM   10  C   UNL     1     -21.926  -7.913   1.102  1.00  0.00    -0.005 C 
HETATM   11  C   UNL     1     -23.178  -8.339   0.346  1.00  0.00     0.005 C 
ENDBRANCH   9  10
ENDBRANCH   8   9
ENDBRANCH   7   8
BRANCH   7  12
HETATM   12  C   UNL     1     -21.417 -12.558   0.546  1.00  0.00     0.002 C 
HETATM   13  C   UNL     1     -22.870 -12.106   0.433  1.00  0.00     0.005 C 
ENDBRANCH   7  12
ENDBRANCH   6   7
ENDBRANCH   5   6
ENDBRANCH   3   5
ENDBRANCH   1   3
BRANCH   1  14
HETATM   14  C   UNL     1     -21.967 -11.016  -3.110  1.00  0.00    -0.030 C 
BRANCH  14  15
HETATM   15  N   UNL     1     -23.224 -11.035  -3.009  1.00  0.00    -0.365 N 
ATOM     16  HN2 UNL     1     -22.209 -10.952  -3.078  1.00  0.00     0.165 HD
ATOM     17  HN1 UNL     1     -24.241 -11.052  -2.928  1.00  0.00     0.165 HD
ENDBRANCH  14  15
ENDBRANCH   1  14
BRANCH   2  18
HETATM   18  C   UNL     1     -20.669  -8.603  -3.905  1.00  0.00    -0.023 A 
HETATM   19  C   UNL     1     -20.958  -7.672  -2.897  1.00  0.00     0.012 A 
HETATM   20  C   UNL     1     -21.556  -6.449  -3.225  1.00  0.00     0.001 A 
HETATM   21  C   UNL     1     -21.864  -6.148  -4.552  1.00  0.00     0.000 A 
HETATM   22  C   UNL     1     -21.594  -7.075  -5.555  1.00  0.00     0.001 A 
HETATM   23  C   UNL     1     -21.003  -8.299  -5.233  1.00  0.00     0.012 A 
ENDBRANCH   2  18
BRANCH   2  24
HETATM   24  C   UNL     1     -18.393  -9.694  -3.850  1.00  0.00    -0.023 A 
HETATM   25  C   UNL     1     -17.526  -9.479  -2.769  1.00  0.00     0.012 A 
HETATM   26  C   UNL     1     -16.144  -9.521  -2.958  1.00  0.00     0.001 A 
HETATM   27  C   UNL     1     -15.619  -9.776  -4.224  1.00  0.00     0.000 A 
HETATM   28  C   UNL     1     -16.475  -9.983  -5.305  1.00  0.00     0.001 A 
HETATM   29  C   UNL     1     -17.859  -9.947  -5.120  1.00  0.00     0.012 A 
ENDBRANCH   2  24
TORSDOF 12
ENDMDL
MODEL 5
REMARK VINA RESULT:      -7.0      2.386      6.183
REMARK  12 active torsions:
REMARK  status: ('A' for Active; 'I' for Inactive)
REMARK    1  A    between atoms: C_2  and  C_3 
REMARK    2  A    between atoms: C_3  and  C_4 
REMARK    3  A    between atoms: C_4  and  C_5 
REMARK    4  A    between atoms: C_5  and  C_6 
REMARK    5  A    between atoms: C_5  and  C_8 
REMARK    6  A    between atoms: C_8  and  O_9 
REMARK    7  A    between atoms: O_9  and  C_10 
REMARK    8  A    between atoms: C_10  and  C_12 
REMARK    9  A    between atoms: C_12  and  C_26 
REMARK   10  A    between atoms: C_13  and  C_14 
REMARK   11  A    between atoms: C_13  and  C_20 
REMARK   12  A    between atoms: C_26  and  N_27 
ROOT
HETATM    1  C   UNL     1     -20.648 -11.291  -3.395  1.00  0.00     0.113 C 
HETATM    2  C   UNL     1     -19.997 -10.124  -3.670  1.00  0.00     0.010 C 
ENDROOT
BRANCH   1   3
HETATM    3  C   UNL     1     -22.117 -11.347  -3.111  1.00  0.00     0.303 C 
HETATM    4  O   UNL     1     -22.999 -11.070  -3.915  1.00  0.00    -0.258 OA
BRANCH   3   5
HETATM    5  O   UNL     1     -22.383 -11.656  -1.806  1.00  0.00    -0.317 OA
BRANCH   5   6
HETATM    6  C   UNL     1     -22.545 -10.538  -0.898  1.00  0.00     0.183 C 
BRANCH   6   7
HETATM    7  C   UNL     1     -21.775 -10.635   0.444  1.00  0.00     0.010 C 
BRANCH   7   8
HETATM    8  C   UNL     1     -20.745 -11.787   0.442  1.00  0.00     0.007 C 
BRANCH   8   9
HETATM    9  C   UNL     1     -19.285 -11.374   0.183  1.00  0.00     0.000 C 
BRANCH   9  10
HETATM   10  C   UNL     1     -18.301 -12.547   0.186  1.00  0.00    -0.005 C 
HETATM   11  C   UNL     1     -16.856 -12.066   0.142  1.00  0.00     0.005 C 
ENDBRANCH   9  10
ENDBRANCH   8   9
ENDBRANCH   7   8
BRANCH   7  12
HETATM   12  C   UNL     1     -21.149  -9.266   0.822  1.00  0.00     0.002 C 
HETATM   13  C   UNL     1     -22.101  -8.074   0.840  1.00  0.00     0.005 C 
ENDBRANCH   7  12
ENDBRANCH   6   7
ENDBRANCH   5   6
ENDBRANCH   3   5
ENDBRANCH   1   3
BRANCH   1  14
HETATM   14  C   UNL     1     -19.820 -12.560  -3.271  1.00  0.00    -0.030 C 
BRANCH  14  15
HETATM   15  N   UNL     1     -19.133 -13.612  -3.168  1.00  0.00    -0.365 N 
ATOM     16  HN2 UNL     1     -19.715 -12.774  -3.189  1.00  0.00     0.165 HD
ATOM     17  HN1 UNL     1     -18.576 -14.463  -3.084  1.00  0.00     0.165 HD
ENDBRANCH  14  15
ENDBRANCH   1  14
BRANCH   2  18
HETATM   18  C   UNL     1     -18.510 -10.091  -3.841  1.00  0.00    -0.023 A 
HETATM   19  C   UNL     1     -17.928 -10.184  -5.114  1.00  0.00     0.012 A 
HETATM   20  C   UNL     1     -16.554  -9.965  -5.273  1.00  0.00     0.001 A 
HETATM   21  C   UNL     1     -15.759  -9.651  -4.171  1.00  0.00     0.000 A 
HETATM   22  C   UNL     1     -16.328  -9.573  -2.903  1.00  0.00     0.001 A 
HETATM   23  C   UNL     1     -17.696  -9.796  -2.737  1.00  0.00     0.012 A 
ENDBRANCH   2  18
BRANCH   2  24
HETATM   24  C   UNL     1     -20.678  -8.803  -3.735  1.00  0.00    -0.023 A 
HETATM   25  C   UNL     1     -20.731  -7.985  -2.597  1.00  0.00     0.012 A 
HETATM   26  C   UNL     1     -21.215  -6.679  -2.692  1.00  0.00     0.001 A 
HETATM   27  C   UNL     1     -21.652  -6.184  -3.919  1.00  0.00     0.000 A 
HETATM   28  C   UNL     1     -21.609  -6.994  -5.054  1.00  0.00     0.001 A 
HETATM   29  C   UNL     1     -21.120  -8.299  -4.965  1.00  0.00     0.012 A 
ENDBRANCH   2  24
TORSDOF 12
ENDMDL
MODEL 6
REMARK VINA RESULT:      -7.0      2.329      6.265
REMARK  12 active torsions:
REMARK  status: ('A' for Active; 'I' for Inactive)
REMARK    1  A    between atoms: C_2  and  C_3 
REMARK    2  A    between atoms: C_3  and  C_4 
REMARK    3  A    between atoms: C_4  and  C_5 
REMARK    4  A    between atoms: C_5  and  C_6 
REMARK    5  A    between atoms: C_5  and  C_8 
REMARK    6  A    between atoms: C_8  and  O_9 
REMARK    7  A    between atoms: O_9  and  C_10 
REMARK    8  A    between atoms: C_10  and  C_12 
REMARK    9  A    between atoms: C_12  and  C_26 
REMARK   10  A    between atoms: C_13  and  C_14 
REMARK   11  A    between atoms: C_13  and  C_20 
REMARK   12  A    between atoms: C_26  and  N_27 
ROOT
HETATM    1  C   UNL     1     -20.391 -11.001  -3.813  1.00  0.00     0.113 C 
HETATM    2  C   UNL     1     -19.790  -9.782  -3.940  1.00  0.00     0.010 C 
ENDROOT
BRANCH   1   3
HETATM    3  C   UNL     1     -21.854 -11.153  -3.536  1.00  0.00     0.303 C 
HETATM    4  O   UNL     1     -22.686 -11.544  -4.345  1.00  0.00    -0.258 OA
BRANCH   3   5
HETATM    5  O   UNL     1     -22.195 -10.713  -2.286  1.00  0.00    -0.317 OA
BRANCH   5   6
HETATM    6  C   UNL     1     -21.796 -11.554  -1.175  1.00  0.00     0.183 C 
BRANCH   6   7
HETATM    7  C   UNL     1     -20.574 -11.066  -0.357  1.00  0.00     0.010 C 
BRANCH   7   8
HETATM    8  C   UNL     1     -20.995 -10.289   0.911  1.00  0.00     0.007 C 
BRANCH   8   9
HETATM    9  C   UNL     1     -20.833  -8.760   0.839  1.00  0.00     0.000 C 
BRANCH   9  10
HETATM   10  C   UNL     1     -22.122  -7.987   1.134  1.00  0.00    -0.005 C 
HETATM   11  C   UNL     1     -23.285  -8.496   0.292  1.00  0.00     0.005 C 
ENDBRANCH   9  10
ENDBRANCH   8   9
ENDBRANCH   7   8
BRANCH   7  12
HETATM   12  C   UNL     1     -19.607 -12.241  -0.051  1.00  0.00     0.002 C 
HETATM   13  C   UNL     1     -18.122 -11.960  -0.258  1.00  0.00     0.005 C 
ENDBRANCH   7  12
ENDBRANCH   6   7
ENDBRANCH   5   6
ENDBRANCH   3   5
ENDBRANCH   1   3
BRANCH   1  14
HETATM   14  C   UNL     1     -19.511 -12.240  -3.853  1.00  0.00    -0.030 C 
BRANCH  14  15
HETATM   15  N   UNL     1     -18.780 -13.267  -3.887  1.00  0.00    -0.365 N 
ATOM     16  HN2 UNL     1     -19.322 -12.402  -3.894  1.00  0.00     0.165 HD
ATOM     17  HN1 UNL     1     -18.189 -14.098  -3.914  1.00  0.00     0.165 HD
ENDBRANCH  14  15
ENDBRANCH   1  14
BRANCH   2  18
HETATM   18  C   UNL     1     -18.307  -9.666  -4.109  1.00  0.00    -0.023 A 
HETATM   19  C   UNL     1     -17.457  -9.592  -2.996  1.00  0.00     0.012 A 
HETATM   20  C   UNL     1     -16.070  -9.672  -3.169  1.00  0.00     0.001 A 
HETATM   21  C   UNL     1     -15.526  -9.829  -4.443  1.00  0.00     0.000 A 
HETATM   22  C   UNL     1     -16.364  -9.888  -5.554  1.00  0.00     0.001 A 
HETATM   23  C   UNL     1     -17.747  -9.802  -5.389  1.00  0.00     0.012 A 
ENDBRANCH   2  18
BRANCH   2  24
HETATM   24  C   UNL     1     -20.525  -8.493  -3.836  1.00  0.00    -0.023 A 
HETATM   25  C   UNL     1     -21.254  -8.011  -4.933  1.00  0.00     0.012 A 
HETATM   26  C   UNL     1     -22.079  -6.895  -4.794  1.00  0.00     0.001 A 
HETATM   27  C   UNL     1     -22.180  -6.251  -3.562  1.00  0.00     0.000 A 
HETATM   28  C   UNL     1     -21.453  -6.719  -2.468  1.00  0.00     0.001 A 
HETATM   29  C   UNL     1     -20.630  -7.839  -2.601  1.00  0.00     0.012 A 
ENDBRANCH   2  24
TORSDOF 12
ENDMDL
MODEL 7
REMARK VINA RESULT:      -6.8      3.254      5.947
REMARK  12 active torsions:
REMARK  status: ('A' for Active; 'I' for Inactive)
REMARK    1  A    between atoms: C_2  and  C_3 
REMARK    2  A    between atoms: C_3  and  C_4 
REMARK    3  A    between atoms: C_4  and  C_5 
REMARK    4  A    between atoms: C_5  and  C_6 
REMARK    5  A    between atoms: C_5  and  C_8 
REMARK    6  A    between atoms: C_8  and  O_9 
REMARK    7  A    between atoms: O_9  and  C_10 
REMARK    8  A    between atoms: C_10  and  C_12 
REMARK    9  A    between atoms: C_12  and  C_26 
REMARK   10  A    between atoms: C_13  and  C_14 
REMARK   11  A    between atoms: C_13  and  C_20 
REMARK   12  A    between atoms: C_26  and  N_27 
ROOT
HETATM    1  C   UNL     1     -21.354  -7.626  -4.142  1.00  0.00     0.113 C 
HETATM    2  C   UNL     1     -21.047  -8.873  -3.679  1.00  0.00     0.010 C 
ENDROOT
BRANCH   1   3
HETATM    3  C   UNL     1     -21.020  -7.177  -5.531  1.00  0.00     0.303 C 
HETATM    4  O   UNL     1     -21.458  -7.683  -6.557  1.00  0.00    -0.258 OA
BRANCH   3   5
HETATM    5  O   UNL     1     -20.081  -6.183  -5.544  1.00  0.00    -0.317 OA
BRANCH   5   6
HETATM    6  C   UNL     1     -20.581  -4.824  -5.616  1.00  0.00     0.183 C 
BRANCH   6   7
HETATM    7  C   UNL     1     -21.061  -4.349  -7.010  1.00  0.00     0.010 C 
BRANCH   7   8
HETATM    8  C   UNL     1     -20.242  -4.987  -8.155  1.00  0.00     0.007 C 
BRANCH   8   9
HETATM    9  C   UNL     1     -19.847  -4.036  -9.300  1.00  0.00     0.000 C 
BRANCH   9  10
HETATM   10  C   UNL     1     -20.405  -4.448 -10.666  1.00  0.00    -0.005 C 
HETATM   11  C   UNL     1     -21.085  -3.280 -11.368  1.00  0.00     0.005 C 
ENDBRANCH   9  10
ENDBRANCH   8   9
ENDBRANCH   7   8
BRANCH   7  12
HETATM   12  C   UNL     1     -22.590  -4.561  -7.171  1.00  0.00     0.002 C 
HETATM   13  C   UNL     1     -23.228  -3.938  -8.409  1.00  0.00     0.005 C 
ENDBRANCH   7  12
ENDBRANCH   6   7
ENDBRANCH   5   6
ENDBRANCH   3   5
ENDBRANCH   1   3
BRANCH   1  14
HETATM   14  C   UNL     1     -21.962  -6.631  -3.167  1.00  0.00    -0.030 C 
BRANCH  14  15
HETATM   15  N   UNL     1     -22.468  -5.805  -2.359  1.00  0.00    -0.365 N 
ATOM     16  HN2 UNL     1     -22.004  -6.432  -3.018  1.00  0.00     0.165 HD
ATOM     17  HN1 UNL     1     -22.878  -5.138  -1.706  1.00  0.00     0.165 HD
ENDBRANCH  14  15
ENDBRANCH   1  14
BRANCH   2  18
HETATM   18  C   UNL     1     -21.299  -9.250  -2.252  1.00  0.00    -0.023 A 
HETATM   19  C   UNL     1     -20.567  -8.661  -1.210  1.00  0.00     0.012 A 
HETATM   20  C   UNL     1     -20.941  -8.885   0.121  1.00  0.00     0.001 A 
HETATM   21  C   UNL     1     -22.040  -9.690   0.418  1.00  0.00     0.000 A 
HETATM   22  C   UNL     1     -22.760 -10.290  -0.611  1.00  0.00     0.001 A 
HETATM   23  C   UNL     1     -22.389 -10.076  -1.939  1.00  0.00     0.012 A 
ENDBRANCH   2  18
BRANCH   2  24
HETATM   24  C   UNL     1     -20.375  -9.910  -4.506  1.00  0.00    -0.023 A 
HETATM   25  C   UNL     1     -21.141 -10.811  -5.260  1.00  0.00     0.012 A 
HETATM   26  C   UNL     1     -20.523 -11.674  -6.165  1.00  0.00     0.001 A 
HETATM   27  C   UNL     1     -19.139 -11.646  -6.322  1.00  0.00     0.000 A 
HETATM   28  C   UNL     1     -18.369 -10.759  -5.571  1.00  0.00     0.001 A 
HETATM   29  C   UNL     1     -18.983  -9.890  -4.667  1.00  0.00     0.012 A 
ENDBRANCH   2  24
TORSDOF 12
ENDMDL
MODEL 8
REMARK VINA RESULT:      -6.8      2.179      6.923
REMARK  12 active torsions:
REMARK  status: ('A' for Active; 'I' for Inactive)
REMARK    1  A    between atoms: C_2  and  C_3 
REMARK    2  A    between atoms: C_3  and  C_4 
REMARK    3  A    between atoms: C_4  and  C_5 
REMARK    4  A    between atoms: C_5  and  C_6 
REMARK    5  A    between atoms: C_5  and  C_8 
REMARK    6  A    between atoms: C_8  and  O_9 
REMARK    7  A    between atoms: O_9  and  C_10 
REMARK    8  A    between atoms: C_10  and  C_12 
REMARK    9  A    between atoms: C_12  and  C_26 
REMARK   10  A    between atoms: C_13  and  C_14 
REMARK   11  A    between atoms: C_13  and  C_20 
REMARK   12  A    between atoms: C_26  and  N_27 
ROOT
HETATM    1  C   UNL     1     -20.338 -10.984  -3.702  1.00  0.00     0.113 C 
HETATM    2  C   UNL     1     -19.735  -9.761  -3.765  1.00  0.00     0.010 C 
ENDROOT
BRANCH   1   3
HETATM    3  C   UNL     1     -21.735 -11.168  -3.193  1.00  0.00     0.303 C 
HETATM    4  O   UNL     1     -22.748 -10.793  -3.770  1.00  0.00    -0.258 OA
BRANCH   3   5
HETATM    5  O   UNL     1     -21.764 -11.727  -1.945  1.00  0.00    -0.317 OA
BRANCH   5   6
HETATM    6  C   UNL     1     -22.579 -11.053  -0.954  1.00  0.00     0.183 C 
BRANCH   6   7
HETATM    7  C   UNL     1     -22.119 -11.200   0.518  1.00  0.00     0.010 C 
BRANCH   7   8
HETATM    8  C   UNL     1     -22.077 -12.677   0.969  1.00  0.00     0.007 C 
BRANCH   8   9
HETATM    9  C   UNL     1     -23.446 -13.349   1.176  1.00  0.00     0.000 C 
BRANCH   9  10
HETATM   10  C   UNL     1     -23.557 -14.134   2.486  1.00  0.00    -0.005 C 
HETATM   11  C   UNL     1     -22.198 -14.631   2.959  1.00  0.00     0.005 C 
ENDBRANCH   9  10
ENDBRANCH   8   9
ENDBRANCH   7   8
BRANCH   7  12
HETATM   12  C   UNL     1     -20.777 -10.457   0.755  1.00  0.00     0.002 C 
HETATM   13  C   UNL     1     -20.868  -9.127   1.497  1.00  0.00     0.005 C 
ENDBRANCH   7  12
ENDBRANCH   6   7
ENDBRANCH   5   6
ENDBRANCH   3   5
ENDBRANCH   1   3
BRANCH   1  14
HETATM   14  C   UNL     1     -19.514 -12.208  -4.065  1.00  0.00    -0.030 C 
BRANCH  14  15
HETATM   15  N   UNL     1     -18.832 -13.225  -4.368  1.00  0.00    -0.365 N 
ATOM     16  HN2 UNL     1     -19.435 -12.427  -4.163  1.00  0.00     0.165 HD
ATOM     17  HN1 UNL     1     -18.279 -14.047  -4.612  1.00  0.00     0.165 HD
ENDBRANCH  14  15
ENDBRANCH   1  14
BRANCH   2  18
HETATM   18  C   UNL     1     -18.302  -9.629  -4.176  1.00  0.00    -0.023 A 
HETATM   19  C   UNL     1     -17.278  -9.580  -3.219  1.00  0.00     0.012 A 
HETATM   20  C   UNL     1     -15.938  -9.644  -3.624  1.00  0.00     0.001 A 
HETATM   21  C   UNL     1     -15.615  -9.759  -4.975  1.00  0.00     0.000 A 
HETATM   22  C   UNL     1     -16.627  -9.791  -5.931  1.00  0.00     0.001 A 
HETATM   23  C   UNL     1     -17.963  -9.722  -5.535  1.00  0.00     0.012 A 
ENDBRANCH   2  18
BRANCH   2  24
HETATM   24  C   UNL     1     -20.404  -8.497  -3.358  1.00  0.00    -0.023 A 
HETATM   25  C   UNL     1     -21.063  -7.713  -4.316  1.00  0.00     0.012 A 
HETATM   26  C   UNL     1     -21.833  -6.618  -3.921  1.00  0.00     0.001 A 
HETATM   27  C   UNL     1     -21.948  -6.298  -2.569  1.00  0.00     0.000 A 
HETATM   28  C   UNL     1     -21.290  -7.068  -1.611  1.00  0.00     0.001 A 
HETATM   29  C   UNL     1     -20.522  -8.167  -2.002  1.00  0.00     0.012 A 
ENDBRANCH   2  24
TORSDOF 12
ENDMDL
MODEL 9
REMARK VINA RESULT:      -6.6      2.904      6.403
REMARK  12 active torsions:
REMARK  status: ('A' for Active; 'I' for Inactive)
REMARK    1  A    between atoms: C_2  and  C_3 
REMARK    2  A    between atoms: C_3  and  C_4 
REMARK    3  A    between atoms: C_4  and  C_5 
REMARK    4  A    between atoms: C_5  and  C_6 
REMARK    5  A    between atoms: C_5  and  C_8 
REMARK    6  A    between atoms: C_8  and  O_9 
REMARK    7  A    between atoms: O_9  and  C_10 
REMARK    8  A    between atoms: C_10  and  C_12 
REMARK    9  A    between atoms: C_12  and  C_26 
REMARK   10  A    between atoms: C_13  and  C_14 
REMARK   11  A    between atoms: C_13  and  C_20 
REMARK   12  A    between atoms: C_26  and  N_27 
ROOT
HETATM    1  C   UNL     1     -18.692 -11.643  -1.498  1.00  0.00     0.113 C 
HETATM    2  C   UNL     1     -18.760 -10.773  -2.547  1.00  0.00     0.010 C 
ENDROOT
BRANCH   1   3
HETATM    3  C   UNL     1     -19.695 -11.642  -0.385  1.00  0.00     0.303 C 
HETATM    4  O   UNL     1     -19.490 -11.217   0.745  1.00  0.00    -0.258 OA
BRANCH   3   5
HETATM    5  O   UNL     1     -20.862 -12.264  -0.736  1.00  0.00    -0.317 OA
BRANCH   5   6
HETATM    6  C   UNL     1     -21.909 -12.283   0.265  1.00  0.00     0.183 C 
BRANCH   6   7
HETATM    7  C   UNL     1     -23.189 -11.477  -0.075  1.00  0.00     0.010 C 
BRANCH   7   8
HETATM    8  C   UNL     1     -22.866 -10.033  -0.518  1.00  0.00     0.007 C 
BRANCH   8   9
HETATM    9  C   UNL     1     -23.554  -8.918   0.290  1.00  0.00     0.000 C 
BRANCH   9  10
HETATM   10  C   UNL     1     -22.591  -7.849   0.815  1.00  0.00    -0.005 C 
HETATM   11  C   UNL     1     -21.280  -8.461   1.291  1.00  0.00     0.005 C 
ENDBRANCH   9  10
ENDBRANCH   8   9
ENDBRANCH   7   8
BRANCH   7  12
HETATM   12  C   UNL     1     -24.068 -12.241  -1.100  1.00  0.00     0.002 C 
HETATM   13  C   UNL     1     -24.087 -13.761  -0.967  1.00  0.00     0.005 C 
ENDBRANCH   7  12
ENDBRANCH   6   7
ENDBRANCH   5   6
ENDBRANCH   3   5
ENDBRANCH   1   3
BRANCH   1  14
HETATM   14  C   UNL     1     -17.492 -12.572  -1.413  1.00  0.00    -0.030 C 
BRANCH  14  15
HETATM   15  N   UNL     1     -16.497 -13.343  -1.344  1.00  0.00    -0.365 N 
ATOM     16  HN2 UNL     1     -17.287 -12.698  -1.336  1.00  0.00     0.165 HD
ATOM     17  HN1 UNL     1     -15.691 -13.967  -1.290  1.00  0.00     0.165 HD
ENDBRANCH  14  15
ENDBRANCH   1  14
BRANCH   2  18
HETATM   18  C   UNL     1     -17.681 -10.730  -3.584  1.00  0.00    -0.023 A 
HETATM   19  C   UNL     1     -17.791 -11.469  -4.771  1.00  0.00     0.012 A 
HETATM   20  C   UNL     1     -16.867 -11.274  -5.805  1.00  0.00     0.001 A 
HETATM   21  C   UNL     1     -15.837 -10.344  -5.664  1.00  0.00     0.000 A 
HETATM   22  C   UNL     1     -15.713  -9.620  -4.482  1.00  0.00     0.001 A 
HETATM   23  C   UNL     1     -16.627  -9.814  -3.445  1.00  0.00     0.012 A 
ENDBRANCH   2  18
BRANCH   2  24
HETATM   24  C   UNL     1     -19.836  -9.759  -2.702  1.00  0.00    -0.023 A 
HETATM   25  C   UNL     1     -19.750  -8.536  -2.021  1.00  0.00     0.012 A 
HETATM   26  C   UNL     1     -20.664  -7.516  -2.289  1.00  0.00     0.001 A 
HETATM   27  C   UNL     1     -21.669  -7.710  -3.235  1.00  0.00     0.000 A 
HETATM   28  C   UNL     1     -21.766  -8.925  -3.911  1.00  0.00     0.001 A 
HETATM   29  C   UNL     1     -20.851  -9.948  -3.650  1.00  0.00     0.012 A 
ENDBRANCH   2  24
TORSDOF 12
ENDMDL
