MODEL 1
REMARK VINA RESULT:      -7.7      0.000      0.000
REMARK  9 active torsions:
REMARK  status: ('A' for Active; 'I' for Inactive)
REMARK    1  A    between atoms: C_2  and  C_3 
REMARK    2  A    between atoms: C_3  and  C_4 
REMARK    3  A    between atoms: C_4  and  C_5 
REMARK    4  A    between atoms: C_5  and  C_6 
REMARK    5  A    between atoms: C_5  and  C_8 
REMARK    6  A    between atoms: C_8  and  O_9 
REMARK    7  A    between atoms: O_9  and  C_10 
REMARK    8  A    between atoms: C_10  and  C_12 
REMARK    9  A    between atoms: C_17  and  O_18 
ROOT
HETATM    1  C   UNL     1     -35.682  -0.119 -11.537  1.00  0.00     0.296 C 
HETATM    2  O   UNL     1     -36.227   0.571 -10.688  1.00  0.00    -0.259 OA
ENDROOT
BRANCH   1   3
HETATM    3  O   UNL     1     -34.813  -1.135 -11.297  1.00  0.00    -0.317 OA
BRANCH   3   4
HETATM    4  C   UNL     1     -35.415  -2.364 -10.847  1.00  0.00     0.183 C 
BRANCH   4   5
HETATM    5  C   UNL     1     -34.355  -3.452 -10.587  1.00  0.00     0.010 C 
BRANCH   5   6
HETATM    6  C   UNL     1     -34.933  -4.851 -10.906  1.00  0.00     0.007 C 
BRANCH   6   7
HETATM    7  C   UNL     1     -34.113  -6.043 -10.406  1.00  0.00     0.000 C 
BRANCH   7   8
HETATM    8  C   UNL     1     -34.948  -7.233  -9.932  1.00  0.00    -0.005 C 
HETATM    9  C   UNL     1     -34.080  -8.481  -9.855  1.00  0.00     0.005 C 
ENDBRANCH   7   8
ENDBRANCH   6   7
ENDBRANCH   5   6
BRANCH   5  10
HETATM   10  C   UNL     1     -33.032  -3.133 -11.315  1.00  0.00     0.002 C 
HETATM   11  C   UNL     1     -32.448  -4.255 -12.165  1.00  0.00     0.005 C 
ENDBRANCH   5  10
ENDBRANCH   4   5
ENDBRANCH   3   4
ENDBRANCH   1   3
BRANCH   1  12
HETATM   12  C   UNL     1     -35.839   0.151 -12.989  1.00  0.00     0.072 A 
HETATM   13  C   UNL     1     -34.769   0.802 -13.623  1.00  0.00     0.020 A 
HETATM   14  C   UNL     1     -34.841   1.133 -14.978  1.00  0.00     0.001 A 
HETATM   15  C   UNL     1     -35.986   0.820 -15.705  1.00  0.00     0.003 A 
HETATM   16  C   UNL     1     -37.060   0.182 -15.083  1.00  0.00     0.037 A 
HETATM   17  C   UNL     1     -36.991  -0.147 -13.724  1.00  0.00     0.082 A 
BRANCH  17  18
HETATM   18  O   UNL     1     -38.075  -0.722 -13.128  1.00  0.00    -0.360 OA
HETATM   19  H   UNL     1     -37.791  -1.489 -12.601  1.00  0.00     0.217 HD
ENDBRANCH  17  18
ENDBRANCH   1  12
TORSDOF 9
ENDMDL
MODEL 2
REMARK VINA RESULT:      -7.5     12.997     15.229
REMARK  9 active torsions:
REMARK  status: ('A' for Active; 'I' for Inactive)
REMARK    1  A    between atoms: C_2  and  C_3 
REMARK    2  A    between atoms: C_3  and  C_4 
REMARK    3  A    between atoms: C_4  and  C_5 
REMARK    4  A    between atoms: C_5  and  C_6 
REMARK    5  A    between atoms: C_5  and  C_8 
REMARK    6  A    between atoms: C_8  and  O_9 
REMARK    7  A    between atoms: O_9  and  C_10 
REMARK    8  A    between atoms: C_10  and  C_12 
REMARK    9  A    between atoms: C_17  and  O_18 
ROOT
HETATM    1  C   UNL     1     -22.095  -4.893  -7.152  1.00  0.00     0.296 C 
HETATM    2  O   UNL     1     -23.115  -4.718  -6.501  1.00  0.00    -0.259 OA
ENDROOT
BRANCH   1   3
HETATM    3  O   UNL     1     -20.928  -5.400  -6.676  1.00  0.00    -0.317 OA
BRANCH   3   4
HETATM    4  C   UNL     1     -20.663  -5.130  -5.286  1.00  0.00     0.183 C 
BRANCH   4   5
HETATM    5  C   UNL     1     -20.635  -6.426  -4.452  1.00  0.00     0.010 C 
BRANCH   5   6
HETATM    6  C   UNL     1     -21.947  -6.575  -3.647  1.00  0.00     0.007 C 
BRANCH   6   7
HETATM    7  C   UNL     1     -21.930  -6.002  -2.228  1.00  0.00     0.000 C 
BRANCH   7   8
HETATM    8  C   UNL     1     -22.244  -7.017  -1.129  1.00  0.00    -0.005 C 
HETATM    9  C   UNL     1     -21.143  -8.066  -1.059  1.00  0.00     0.005 C 
ENDBRANCH   7   8
ENDBRANCH   6   7
ENDBRANCH   5   6
BRANCH   5  10
HETATM   10  C   UNL     1     -20.286  -7.648  -5.327  1.00  0.00     0.002 C 
HETATM   11  C   UNL     1     -21.155  -8.884  -5.127  1.00  0.00     0.005 C 
ENDBRANCH   5  10
ENDBRANCH   4   5
ENDBRANCH   3   4
ENDBRANCH   1   3
BRANCH   1  12
HETATM   12  C   UNL     1     -21.981  -4.459  -8.567  1.00  0.00     0.072 A 
HETATM   13  C   UNL     1     -20.727  -4.628  -9.174  1.00  0.00     0.020 A 
HETATM   14  C   UNL     1     -20.513  -4.214 -10.491  1.00  0.00     0.001 A 
HETATM   15  C   UNL     1     -21.552  -3.623 -11.206  1.00  0.00     0.003 A 
HETATM   16  C   UNL     1     -22.800  -3.442 -10.609  1.00  0.00     0.037 A 
HETATM   17  C   UNL     1     -23.015  -3.853  -9.289  1.00  0.00     0.082 A 
BRANCH  17  18
HETATM   18  O   UNL     1     -24.228  -3.614  -8.712  1.00  0.00    -0.360 OA
HETATM   19  H   UNL     1     -24.703  -4.454  -8.587  1.00  0.00     0.217 HD
ENDBRANCH  17  18
ENDBRANCH   1  12
TORSDOF 9
ENDMDL
MODEL 3
REMARK VINA RESULT:      -7.5     11.836     13.936
REMARK  9 active torsions:
REMARK  status: ('A' for Active; 'I' for Inactive)
REMARK    1  A    between atoms: C_2  and  C_3 
REMARK    2  A    between atoms: C_3  and  C_4 
REMARK    3  A    between atoms: C_4  and  C_5 
REMARK    4  A    between atoms: C_5  and  C_6 
REMARK    5  A    between atoms: C_5  and  C_8 
REMARK    6  A    between atoms: C_8  and  O_9 
REMARK    7  A    between atoms: O_9  and  C_10 
REMARK    8  A    between atoms: C_10  and  C_12 
REMARK    9  A    between atoms: C_17  and  O_18 
ROOT
HETATM    1  C   UNL     1     -23.003  -4.041  -8.802  1.00  0.00     0.296 C 
HETATM    2  O   UNL     1     -23.995  -4.129  -8.093  1.00  0.00    -0.259 OA
ENDROOT
BRANCH   1   3
HETATM    3  O   UNL     1     -21.715  -4.124  -8.378  1.00  0.00    -0.317 OA
BRANCH   3   4
HETATM    4  C   UNL     1     -21.511  -3.853  -6.979  1.00  0.00     0.183 C 
BRANCH   4   5
HETATM    5  C   UNL     1     -20.879  -5.057  -6.254  1.00  0.00     0.010 C 
BRANCH   5   6
HETATM    6  C   UNL     1     -21.917  -6.193  -6.094  1.00  0.00     0.007 C 
BRANCH   6   7
HETATM    7  C   UNL     1     -22.085  -6.751  -4.679  1.00  0.00     0.000 C 
BRANCH   7   8
HETATM    8  C   UNL     1     -21.288  -6.009  -3.606  1.00  0.00    -0.005 C 
HETATM    9  C   UNL     1     -21.945  -6.197  -2.246  1.00  0.00     0.005 C 
ENDBRANCH   7   8
ENDBRANCH   6   7
ENDBRANCH   5   6
BRANCH   5  10
HETATM   10  C   UNL     1     -19.564  -5.493  -6.933  1.00  0.00     0.002 C 
HETATM   11  C   UNL     1     -18.620  -4.370  -7.345  1.00  0.00     0.005 C 
ENDBRANCH   5  10
ENDBRANCH   4   5
ENDBRANCH   3   4
ENDBRANCH   1   3
BRANCH   1  12
HETATM   12  C   UNL     1     -23.097  -3.721 -10.249  1.00  0.00     0.072 A 
HETATM   13  C   UNL     1     -21.896  -3.751 -10.976  1.00  0.00     0.020 A 
HETATM   14  C   UNL     1     -21.879  -3.426 -12.334  1.00  0.00     0.001 A 
HETATM   15  C   UNL     1     -23.062  -3.064 -12.972  1.00  0.00     0.003 A 
HETATM   16  C   UNL     1     -24.261  -3.021 -12.257  1.00  0.00     0.037 A 
HETATM   17  C   UNL     1     -24.279  -3.342 -10.896  1.00  0.00     0.082 A 
BRANCH  17  18
HETATM   18  O   UNL     1     -25.453  -3.240 -10.208  1.00  0.00    -0.360 OA
HETATM   19  H   UNL     1     -26.027  -3.995 -10.425  1.00  0.00     0.217 HD
ENDBRANCH  17  18
ENDBRANCH   1  12
TORSDOF 9
ENDMDL
MODEL 4
REMARK VINA RESULT:      -7.4      2.107      6.041
REMARK  9 active torsions:
REMARK  status: ('A' for Active; 'I' for Inactive)
REMARK    1  A    between atoms: C_2  and  C_3 
REMARK    2  A    between atoms: C_3  and  C_4 
REMARK    3  A    between atoms: C_4  and  C_5 
REMARK    4  A    between atoms: C_5  and  C_6 
REMARK    5  A    between atoms: C_5  and  C_8 
REMARK    6  A    between atoms: C_8  and  O_9 
REMARK    7  A    between atoms: O_9  and  C_10 
REMARK    8  A    between atoms: C_10  and  C_12 
REMARK    9  A    between atoms: C_17  and  O_18 
ROOT
HETATM    1  C   UNL     1     -34.646  -2.039 -12.599  1.00  0.00     0.296 C 
HETATM    2  O   UNL     1     -34.772  -1.954 -13.811  1.00  0.00    -0.259 OA
ENDROOT
BRANCH   1   3
HETATM    3  O   UNL     1     -34.703  -1.003 -11.721  1.00  0.00    -0.317 OA
BRANCH   3   4
HETATM    4  C   UNL     1     -35.640   0.037 -12.060  1.00  0.00     0.183 C 
BRANCH   4   5
HETATM    5  C   UNL     1     -37.080  -0.350 -11.670  1.00  0.00     0.010 C 
BRANCH   5   6
HETATM    6  C   UNL     1     -37.454   0.276 -10.306  1.00  0.00     0.007 C 
BRANCH   6   7
HETATM    7  C   UNL     1     -36.894  -0.430  -9.070  1.00  0.00     0.000 C 
BRANCH   7   8
HETATM    8  C   UNL     1     -37.451   0.081  -7.740  1.00  0.00    -0.005 C 
HETATM    9  C   UNL     1     -37.251   1.586  -7.636  1.00  0.00     0.005 C 
ENDBRANCH   7   8
ENDBRANCH   6   7
ENDBRANCH   5   6
BRANCH   5  10
HETATM   10  C   UNL     1     -38.074  -0.032 -12.807  1.00  0.00     0.002 C 
HETATM   11  C   UNL     1     -37.496  -0.021 -14.217  1.00  0.00     0.005 C 
ENDBRANCH   5  10
ENDBRANCH   4   5
ENDBRANCH   3   4
ENDBRANCH   1   3
BRANCH   1  12
HETATM   12  C   UNL     1     -34.301  -3.320 -11.931  1.00  0.00     0.072 A 
HETATM   13  C   UNL     1     -33.069  -3.895 -12.280  1.00  0.00     0.020 A 
HETATM   14  C   UNL     1     -32.677  -5.119 -11.733  1.00  0.00     0.001 A 
HETATM   15  C   UNL     1     -33.517  -5.777 -10.839  1.00  0.00     0.003 A 
HETATM   16  C   UNL     1     -34.748  -5.219 -10.492  1.00  0.00     0.037 A 
HETATM   17  C   UNL     1     -35.145  -3.994 -11.042  1.00  0.00     0.082 A 
BRANCH  17  18
HETATM   18  O   UNL     1     -36.376  -3.497 -10.729  1.00  0.00    -0.360 OA
HETATM   19  H   UNL     1     -36.286  -2.594 -10.379  1.00  0.00     0.217 HD
ENDBRANCH  17  18
ENDBRANCH   1  12
TORSDOF 9
ENDMDL
MODEL 5
REMARK VINA RESULT:      -7.4     14.470     16.544
REMARK  9 active torsions:
REMARK  status: ('A' for Active; 'I' for Inactive)
REMARK    1  A    between atoms: C_2  and  C_3 
REMARK    2  A    between atoms: C_3  and  C_4 
REMARK    3  A    between atoms: C_4  and  C_5 
REMARK    4  A    between atoms: C_5  and  C_6 
REMARK    5  A    between atoms: C_5  and  C_8 
REMARK    6  A    between atoms: C_8  and  O_9 
REMARK    7  A    between atoms: O_9  and  C_10 
REMARK    8  A    between atoms: C_10  and  C_12 
REMARK    9  A    between atoms: C_17  and  O_18 
ROOT
HETATM    1  C   UNL     1     -22.045  -6.020  -5.000  1.00  0.00     0.296 C 
HETATM    2  O   UNL     1     -23.224  -6.344  -5.005  1.00  0.00    -0.259 OA
ENDROOT
BRANCH   1   3
HETATM    3  O   UNL     1     -21.190  -6.154  -3.952  1.00  0.00    -0.317 OA
BRANCH   3   4
HETATM    4  C   UNL     1     -21.802  -6.100  -2.650  1.00  0.00     0.183 C 
BRANCH   4   5
HETATM    5  C   UNL     1     -21.311  -7.247  -1.745  1.00  0.00     0.010 C 
BRANCH   5   6
HETATM    6  C   UNL     1     -22.276  -7.443  -0.553  1.00  0.00     0.007 C 
BRANCH   6   7
HETATM    7  C   UNL     1     -22.225  -8.810   0.132  1.00  0.00     0.000 C 
BRANCH   7   8
HETATM    8  C   UNL     1     -23.565  -9.543   0.190  1.00  0.00    -0.005 C 
HETATM    9  C   UNL     1     -23.549 -10.735  -0.756  1.00  0.00     0.005 C 
ENDBRANCH   7   8
ENDBRANCH   6   7
ENDBRANCH   5   6
BRANCH   5  10
HETATM   10  C   UNL     1     -21.043  -8.530  -2.561  1.00  0.00     0.002 C 
HETATM   11  C   UNL     1     -19.599  -9.017  -2.587  1.00  0.00     0.005 C 
ENDBRANCH   5  10
ENDBRANCH   4   5
ENDBRANCH   3   4
ENDBRANCH   1   3
BRANCH   1  12
HETATM   12  C   UNL     1     -21.417  -5.323  -6.150  1.00  0.00     0.072 A 
HETATM   13  C   UNL     1     -20.016  -5.377  -6.225  1.00  0.00     0.020 A 
HETATM   14  C   UNL     1     -19.333  -4.719  -7.250  1.00  0.00     0.001 A 
HETATM   15  C   UNL     1     -20.047  -3.998  -8.203  1.00  0.00     0.003 A 
HETATM   16  C   UNL     1     -21.440  -3.929  -8.133  1.00  0.00     0.037 A 
HETATM   17  C   UNL     1     -22.125  -4.585  -7.105  1.00  0.00     0.082 A 
BRANCH  17  18
HETATM   18  O   UNL     1     -23.481  -4.457  -7.027  1.00  0.00    -0.360 OA
HETATM   19  H   UNL     1     -23.830  -5.065  -6.352  1.00  0.00     0.217 HD
ENDBRANCH  17  18
ENDBRANCH   1  12
TORSDOF 9
ENDMDL
MODEL 6
REMARK VINA RESULT:      -7.2      1.611      5.851
REMARK  9 active torsions:
REMARK  status: ('A' for Active; 'I' for Inactive)
REMARK    1  A    between atoms: C_2  and  C_3 
REMARK    2  A    between atoms: C_3  and  C_4 
REMARK    3  A    between atoms: C_4  and  C_5 
REMARK    4  A    between atoms: C_5  and  C_6 
REMARK    5  A    between atoms: C_5  and  C_8 
REMARK    6  A    between atoms: C_8  and  O_9 
REMARK    7  A    between atoms: O_9  and  C_10 
REMARK    8  A    between atoms: C_10  and  C_12 
REMARK    9  A    between atoms: C_17  and  O_18 
ROOT
HETATM    1  C   UNL     1     -35.918  -1.418 -10.469  1.00  0.00     0.296 C 
HETATM    2  O   UNL     1     -35.688  -0.650  -9.547  1.00  0.00    -0.259 OA
ENDROOT
BRANCH   1   3
HETATM    3  O   UNL     1     -37.017  -1.392 -11.268  1.00  0.00    -0.317 OA
BRANCH   3   4
HETATM    4  C   UNL     1     -37.154  -0.213 -12.084  1.00  0.00     0.183 C 
BRANCH   4   5
HETATM    5  C   UNL     1     -36.428  -0.372 -13.434  1.00  0.00     0.010 C 
BRANCH   5   6
HETATM    6  C   UNL     1     -37.320   0.143 -14.588  1.00  0.00     0.007 C 
BRANCH   6   7
HETATM    7  C   UNL     1     -37.391  -0.750 -15.829  1.00  0.00     0.000 C 
BRANCH   7   8
HETATM    8  C   UNL     1     -36.196  -0.619 -16.774  1.00  0.00    -0.005 C 
HETATM    9  C   UNL     1     -35.267  -1.813 -16.609  1.00  0.00     0.005 C 
ENDBRANCH   7   8
ENDBRANCH   6   7
ENDBRANCH   5   6
BRANCH   5  10
HETATM   10  C   UNL     1     -35.020   0.260 -13.392  1.00  0.00     0.002 C 
HETATM   11  C   UNL     1     -34.810   1.485 -14.273  1.00  0.00     0.005 C 
ENDBRANCH   5  10
ENDBRANCH   4   5
ENDBRANCH   3   4
ENDBRANCH   1   3
BRANCH   1  12
HETATM   12  C   UNL     1     -35.037  -2.575 -10.768  1.00  0.00     0.072 A 
HETATM   13  C   UNL     1     -33.712  -2.276 -11.123  1.00  0.00     0.020 A 
HETATM   14  C   UNL     1     -32.819  -3.295 -11.459  1.00  0.00     0.001 A 
HETATM   15  C   UNL     1     -33.248  -4.620 -11.448  1.00  0.00     0.003 A 
HETATM   16  C   UNL     1     -34.565  -4.928 -11.107  1.00  0.00     0.037 A 
HETATM   17  C   UNL     1     -35.462  -3.907 -10.773  1.00  0.00     0.082 A 
BRANCH  17  18
HETATM   18  O   UNL     1     -36.758  -4.231 -10.496  1.00  0.00    -0.360 OA
HETATM   19  H   UNL     1     -36.837  -5.193 -10.372  1.00  0.00     0.217 HD
ENDBRANCH  17  18
ENDBRANCH   1  12
TORSDOF 9
ENDMDL
MODEL 7
REMARK VINA RESULT:      -7.0     13.447     16.823
REMARK  9 active torsions:
REMARK  status: ('A' for Active; 'I' for Inactive)
REMARK    1  A    between atoms: C_2  and  C_3 
REMARK    2  A    between atoms: C_3  and  C_4 
REMARK    3  A    between atoms: C_4  and  C_5 
REMARK    4  A    between atoms: C_5  and  C_6 
REMARK    5  A    between atoms: C_5  and  C_8 
REMARK    6  A    between atoms: C_8  and  O_9 
REMARK    7  A    between atoms: O_9  and  C_10 
REMARK    8  A    between atoms: C_10  and  C_12 
REMARK    9  A    between atoms: C_17  and  O_18 
ROOT
HETATM    1  C   UNL     1     -22.261  -6.351  -5.073  1.00  0.00     0.296 C 
HETATM    2  O   UNL     1     -23.449  -6.079  -4.982  1.00  0.00    -0.259 OA
ENDROOT
BRANCH   1   3
HETATM    3  O   UNL     1     -21.488  -6.174  -6.177  1.00  0.00    -0.317 OA
BRANCH   3   4
HETATM    4  C   UNL     1     -21.617  -4.890  -6.816  1.00  0.00     0.183 C 
BRANCH   4   5
HETATM    5  C   UNL     1     -21.386  -4.988  -8.336  1.00  0.00     0.010 C 
BRANCH   5   6
HETATM    6  C   UNL     1     -22.362  -4.052  -9.089  1.00  0.00     0.007 C 
BRANCH   6   7
HETATM    7  C   UNL     1     -23.163  -4.695 -10.223  1.00  0.00     0.000 C 
BRANCH   7   8
HETATM    8  C   UNL     1     -22.779  -4.214 -11.623  1.00  0.00    -0.005 C 
HETATM    9  C   UNL     1     -21.698  -3.147 -11.529  1.00  0.00     0.005 C 
ENDBRANCH   7   8
ENDBRANCH   6   7
ENDBRANCH   5   6
BRANCH   5  10
HETATM   10  C   UNL     1     -19.901  -4.773  -8.693  1.00  0.00     0.002 C 
HETATM   11  C   UNL     1     -18.999  -4.311  -7.555  1.00  0.00     0.005 C 
ENDBRANCH   5  10
ENDBRANCH   4   5
ENDBRANCH   3   4
ENDBRANCH   1   3
BRANCH   1  12
HETATM   12  C   UNL     1     -21.522  -7.026  -3.976  1.00  0.00     0.072 A 
HETATM   13  C   UNL     1     -20.615  -8.027  -4.355  1.00  0.00     0.020 A 
HETATM   14  C   UNL     1     -19.903  -8.744  -3.391  1.00  0.00     0.001 A 
HETATM   15  C   UNL     1     -20.099  -8.466  -2.041  1.00  0.00     0.003 A 
HETATM   16  C   UNL     1     -21.005  -7.479  -1.651  1.00  0.00     0.037 A 
HETATM   17  C   UNL     1     -21.722  -6.763  -2.616  1.00  0.00     0.082 A 
BRANCH  17  18
HETATM   18  O   UNL     1     -22.641  -5.841  -2.207  1.00  0.00    -0.360 OA
HETATM   19  H   UNL     1     -22.931  -5.308  -2.968  1.00  0.00     0.217 HD
ENDBRANCH  17  18
ENDBRANCH   1  12
TORSDOF 9
ENDMDL
MODEL 8
REMARK VINA RESULT:      -7.0      2.346      6.091
REMARK  9 active torsions:
REMARK  status: ('A' for Active; 'I' for Inactive)
REMARK    1  A    between atoms: C_2  and  C_3 
REMARK    2  A    between atoms: C_3  and  C_4 
REMARK    3  A    between atoms: C_4  and  C_5 
REMARK    4  A    between atoms: C_5  and  C_6 
REMARK    5  A    between atoms: C_5  and  C_8 
REMARK    6  A    between atoms: C_8  and  O_9 
REMARK    7  A    between atoms: O_9  and  C_10 
REMARK    8  A    between atoms: C_10  and  C_12 
REMARK    9  A    between atoms: C_17  and  O_18 
ROOT
HETATM    1  C   UNL     1     -34.563  -3.237 -14.006  1.00  0.00     0.296 C 
HETATM    2  O   UNL     1     -34.524  -3.808 -15.085  1.00  0.00    -0.259 OA
ENDROOT
BRANCH   1   3
HETATM    3  O   UNL     1     -34.607  -1.891 -13.822  1.00  0.00    -0.317 OA
BRANCH   3   4
HETATM    4  C   UNL     1     -35.866  -1.269 -14.144  1.00  0.00     0.183 C 
BRANCH   4   5
HETATM    5  C   UNL     1     -35.980   0.135 -13.520  1.00  0.00     0.010 C 
BRANCH   5   6
HETATM    6  C   UNL     1     -35.650   0.081 -12.010  1.00  0.00     0.007 C 
BRANCH   6   7
HETATM    7  C   UNL     1     -36.851   0.019 -11.064  1.00  0.00     0.000 C 
BRANCH   7   8
HETATM    8  C   UNL     1     -36.681  -0.938  -9.884  1.00  0.00    -0.005 C 
HETATM    9  C   UNL     1     -37.092  -0.249  -8.591  1.00  0.00     0.005 C 
ENDBRANCH   7   8
ENDBRANCH   6   7
ENDBRANCH   5   6
BRANCH   5  10
HETATM   10  C   UNL     1     -35.155   1.170 -14.312  1.00  0.00     0.002 C 
HETATM   11  C   UNL     1     -35.735   1.605 -15.653  1.00  0.00     0.005 C 
ENDBRANCH   5  10
ENDBRANCH   4   5
ENDBRANCH   3   4
ENDBRANCH   1   3
BRANCH   1  12
HETATM   12  C   UNL     1     -34.460  -3.974 -12.721  1.00  0.00     0.072 A 
HETATM   13  C   UNL     1     -33.938  -3.261 -11.631  1.00  0.00     0.020 A 
HETATM   14  C   UNL     1     -33.767  -3.882 -10.391  1.00  0.00     0.001 A 
HETATM   15  C   UNL     1     -34.113  -5.222 -10.238  1.00  0.00     0.003 A 
HETATM   16  C   UNL     1     -34.624  -5.944 -11.318  1.00  0.00     0.037 A 
HETATM   17  C   UNL     1     -34.792  -5.323 -12.561  1.00  0.00     0.082 A 
BRANCH  17  18
HETATM   18  O   UNL     1     -35.242  -6.065 -13.614  1.00  0.00    -0.360 OA
HETATM   19  H   UNL     1     -36.214  -6.029 -13.649  1.00  0.00     0.217 HD
ENDBRANCH  17  18
ENDBRANCH   1  12
TORSDOF 9
ENDMDL
MODEL 9
REMARK VINA RESULT:      -7.0     14.441     16.482
REMARK  9 active torsions:
REMARK  status: ('A' for Active; 'I' for Inactive)
REMARK    1  A    between atoms: C_2  and  C_3 
REMARK    2  A    between atoms: C_3  and  C_4 
REMARK    3  A    between atoms: C_4  and  C_5 
REMARK    4  A    between atoms: C_5  and  C_6 
REMARK    5  A    between atoms: C_5  and  C_8 
REMARK    6  A    between atoms: C_8  and  O_9 
REMARK    7  A    between atoms: O_9  and  C_10 
REMARK    8  A    between atoms: C_10  and  C_12 
REMARK    9  A    between atoms: C_17  and  O_18 
ROOT
HETATM    1  C   UNL     1     -22.062  -6.373  -5.299  1.00  0.00     0.296 C 
HETATM    2  O   UNL     1     -23.200  -6.184  -4.895  1.00  0.00    -0.259 OA
ENDROOT
BRANCH   1   3
HETATM    3  O   UNL     1     -21.196  -7.306  -4.825  1.00  0.00    -0.317 OA
BRANCH   3   4
HETATM    4  C   UNL     1     -21.755  -8.620  -4.633  1.00  0.00     0.183 C 
BRANCH   4   5
HETATM    5  C   UNL     1     -21.148  -9.319  -3.401  1.00  0.00     0.010 C 
BRANCH   5   6
HETATM    6  C   UNL     1     -20.743  -8.275  -2.335  1.00  0.00     0.007 C 
BRANCH   6   7
HETATM    7  C   UNL     1     -21.438  -8.400  -0.978  1.00  0.00     0.000 C 
BRANCH   7   8
HETATM    8  C   UNL     1     -22.293  -7.193  -0.589  1.00  0.00    -0.005 C 
HETATM    9  C   UNL     1     -22.171  -6.106  -1.647  1.00  0.00     0.005 C 
ENDBRANCH   7   8
ENDBRANCH   6   7
ENDBRANCH   5   6
BRANCH   5  10
HETATM   10  C   UNL     1     -22.077 -10.434  -2.875  1.00  0.00     0.002 C 
HETATM   11  C   UNL     1     -22.332 -11.597  -3.826  1.00  0.00     0.005 C 
ENDBRANCH   5  10
ENDBRANCH   4   5
ENDBRANCH   3   4
ENDBRANCH   1   3
BRANCH   1  12
HETATM   12  C   UNL     1     -21.438  -5.501  -6.326  1.00  0.00     0.072 A 
HETATM   13  C   UNL     1     -20.038  -5.542  -6.415  1.00  0.00     0.020 A 
HETATM   14  C   UNL     1     -19.359  -4.728  -7.324  1.00  0.00     0.001 A 
HETATM   15  C   UNL     1     -20.076  -3.864  -8.146  1.00  0.00     0.003 A 
HETATM   16  C   UNL     1     -21.468  -3.807  -8.060  1.00  0.00     0.037 A 
HETATM   17  C   UNL     1     -22.150  -4.619  -7.146  1.00  0.00     0.082 A 
BRANCH  17  18
HETATM   18  O   UNL     1     -23.505  -4.505  -7.044  1.00  0.00    -0.360 OA
HETATM   19  H   UNL     1     -23.748  -4.297  -6.124  1.00  0.00     0.217 HD
ENDBRANCH  17  18
ENDBRANCH   1  12
TORSDOF 9
ENDMDL
