MODEL 1
REMARK VINA RESULT:      -5.6      0.000      0.000
REMARK WARNING: 32 MAX_TORS EXCEEDED!!!
REMARK  46 active torsions:
REMARK  status: ('A' for Active; 'I' for Inactive)
REMARK    1  A    between atoms: C_2  and  C_3 
REMARK    2  A    between atoms: C_3  and  C_4 
REMARK    3  A    between atoms: C_4  and  C_5 
REMARK    4  A    between atoms: C_5  and  C_6 
REMARK    5  A    between atoms: C_6  and  C_7 
REMARK    6  A    between atoms: C_7  and  C_8 
REMARK    7  A    between atoms: C_8  and  C_9 
REMARK    8  A    between atoms: C_9  and  C_10 
REMARK    9  A    between atoms: C_10  and  C_11 
REMARK   10  A    between atoms: C_11  and  C_12 
REMARK   11  A    between atoms: C_12  and  C_13 
REMARK   12  A    between atoms: C_13  and  C_14 
REMARK   13  A    between atoms: C_14  and  C_15 
REMARK   14  A    between atoms: C_15  and  C_16 
REMARK   15  A    between atoms: C_16  and  C_17 
REMARK   16  A    between atoms: C_17  and  C_18 
REMARK   17  A    between atoms: C_18  and  O_20 
REMARK   18  A    between atoms: O_20  and  C_21 
REMARK   19  A    between atoms: C_21  and  C_22 
REMARK   20  A    between atoms: C_22  and  O_23 
REMARK   21  A    between atoms: O_23  and  C_24 
REMARK   22  A    between atoms: C_24  and  C_25 
REMARK   23  A    between atoms: C_25  and  O_26 
REMARK   24  A    between atoms: O_26  and  C_27 
REMARK   25  A    between atoms: C_27  and  C_28 
REMARK   26  A    between atoms: C_28  and  O_29 
REMARK   27  A    between atoms: O_29  and  C_30 
REMARK   28  A    between atoms: C_30  and  C_31 
REMARK   29  A    between atoms: C_31  and  O_32 
REMARK   30  A    between atoms: O_32  and  C_33 
REMARK   31  A    between atoms: C_33  and  C_35 
REMARK   32  A    between atoms: C_35  and  C_36 
REMARK   33  A    between atoms: C_36  and  C_37 
REMARK   34  A    between atoms: C_37  and  C_38 
REMARK   35  A    between atoms: C_38  and  C_39 
REMARK   36  A    between atoms: C_39  and  C_40 
REMARK   37  A    between atoms: C_40  and  C_41 
REMARK   38  A    between atoms: C_41  and  C_42 
REMARK   39  A    between atoms: C_42  and  C_43 
REMARK   40  A    between atoms: C_43  and  C_44 
REMARK   41  A    between atoms: C_44  and  C_45 
REMARK   42  A    between atoms: C_45  and  C_46 
REMARK   43  A    between atoms: C_46  and  C_47 
REMARK   44  A    between atoms: C_47  and  C_48 
REMARK   45  A    between atoms: C_48  and  C_49 
REMARK   46  A    between atoms: C_49  and  C_50 
ROOT
HETATM    1  O   UNL     1     -17.476 -14.505  -7.857  1.00  0.00    -0.387 OA
ENDROOT
BRANCH   1   2
HETATM    2  C   UNL     1     -17.374 -13.086  -7.910  1.00  0.00     0.193 C 
BRANCH   2   3
HETATM    3  C   UNL     1     -18.659 -12.516  -8.487  1.00  0.00     0.193 C 
BRANCH   3   4
HETATM    4  O   UNL     1     -19.282 -11.670  -7.521  1.00  0.00    -0.387 OA
BRANCH   4   5
HETATM    5  C   UNL     1     -20.055 -12.449  -6.601  1.00  0.00     0.194 C 
BRANCH   5   6
HETATM    6  C   UNL     1     -21.456 -11.873  -6.479  1.00  0.00     0.205 C 
BRANCH   6   7
HETATM    7  O   UNL     1     -21.841 -11.767  -5.090  1.00  0.00    -0.319 OA
BRANCH   7   8
HETATM    8  C   UNL     1     -22.212 -12.953  -4.513  1.00  0.00     0.258 C 
HETATM    9  O   UNL     1     -22.975 -13.757  -5.018  1.00  0.00    -0.265 OA
BRANCH   8  10
HETATM   10  C   UNL     1     -21.510 -13.184  -3.183  1.00  0.00     0.111 C 
BRANCH  10  11
HETATM   11  C   UNL     1     -20.746 -11.941  -2.742  1.00  0.00     0.010 C 
BRANCH  11  12
HETATM   12  C   UNL     1     -19.498 -12.293  -1.943  1.00  0.00     0.000 C 
BRANCH  12  13
HETATM   13  C   UNL     1     -19.516 -11.588  -0.595  1.00  0.00     0.000 C 
BRANCH  13  14
HETATM   14  C   UNL     1     -20.403 -10.357  -0.658  1.00  0.00     0.000 C 
BRANCH  14  15
HETATM   15  C   UNL     1     -20.786  -9.918   0.744  1.00  0.00     0.000 C 
BRANCH  15  16
HETATM   16  C   UNL     1     -21.971  -8.972   0.683  1.00  0.00     0.000 C 
BRANCH  16  17
HETATM   17  C   UNL     1     -22.867  -9.339  -0.484  1.00  0.00     0.000 C 
BRANCH  17  18
HETATM   18  C   UNL     1     -23.852 -10.412  -0.061  1.00  0.00     0.000 C 
BRANCH  18  19
HETATM   19  C   UNL     1     -23.881 -11.522  -1.095  1.00  0.00     0.000 C 
BRANCH  19  20
HETATM   20  C   UNL     1     -23.890 -12.871  -0.401  1.00  0.00     0.000 C 
BRANCH  20  21
HETATM   21  C   UNL     1     -23.381 -12.723   1.020  1.00  0.00     0.000 C 
BRANCH  21  22
HETATM   22  C   UNL     1     -22.029 -13.397   1.156  1.00  0.00     0.000 C 
BRANCH  22  23
HETATM   23  C   UNL     1     -22.127 -14.560   2.127  1.00  0.00     0.000 C 
BRANCH  23  24
HETATM   24  C   UNL     1     -23.430 -14.481   2.903  1.00  0.00    -0.000 C 
BRANCH  24  25
HETATM   25  C   UNL     1     -24.321 -15.663   2.557  1.00  0.00    -0.005 C 
HETATM   26  C   UNL     1     -25.309 -15.915   3.676  1.00  0.00     0.005 C 
ENDBRANCH  24  25
ENDBRANCH  23  24
ENDBRANCH  22  23
ENDBRANCH  21  22
ENDBRANCH  20  21
ENDBRANCH  19  20
ENDBRANCH  18  19
ENDBRANCH  17  18
ENDBRANCH  16  17
ENDBRANCH  15  16
ENDBRANCH  14  15
ENDBRANCH  13  14
ENDBRANCH  12  13
ENDBRANCH  11  12
ENDBRANCH  10  11
ENDBRANCH   8  10
ENDBRANCH   7   8
ENDBRANCH   6   7
ENDBRANCH   5   6
ENDBRANCH   4   5
ENDBRANCH   3   4
ENDBRANCH   2   3
ENDBRANCH   1   2
BRANCH   1  27
HETATM   27  C   UNL     1     -16.571 -15.030  -6.885  1.00  0.00     0.193 C 
BRANCH  27  28
HETATM   28  C   UNL     1     -15.884 -13.888  -6.157  1.00  0.00     0.193 C 
BRANCH  28  29
HETATM   29  O   UNL     1     -14.829 -14.401  -5.340  1.00  0.00    -0.387 OA
BRANCH  29  30
HETATM   30  C   UNL     1     -14.839 -13.769  -4.061  1.00  0.00     0.194 C 
BRANCH  30  31
HETATM   31  C   UNL     1     -15.828 -12.616  -4.067  1.00  0.00     0.205 C 
BRANCH  31  32
HETATM   32  O   UNL     1     -15.199 -11.408  -3.576  1.00  0.00    -0.319 OA
BRANCH  32  33
HETATM   33  C   UNL     1     -15.844 -10.833  -2.519  1.00  0.00     0.258 C 
HETATM   34  O   UNL     1     -15.983 -11.395  -1.427  1.00  0.00    -0.265 OA
BRANCH  33  35
HETATM   35  C   UNL     1     -16.295  -9.416  -2.795  1.00  0.00     0.111 C 
BRANCH  35  36
HETATM   36  C   UNL     1     -17.797  -9.345  -3.056  1.00  0.00     0.010 C 
BRANCH  36  37
HETATM   37  C   UNL     1     -18.140  -9.646  -4.510  1.00  0.00     0.000 C 
BRANCH  37  38
HETATM   38  C   UNL     1     -19.524  -9.114  -4.850  1.00  0.00     0.000 C 
BRANCH  38  39
HETATM   39  C   UNL     1     -20.075  -8.303  -3.689  1.00  0.00     0.000 C 
BRANCH  39  40
HETATM   40  C   UNL     1     -21.583  -8.176  -3.808  1.00  0.00     0.000 C 
BRANCH  40  41
HETATM   41  C   UNL     1     -21.982  -6.712  -3.787  1.00  0.00     0.000 C 
BRANCH  41  42
HETATM   42  C   UNL     1     -20.871  -5.865  -4.377  1.00  0.00     0.000 C 
BRANCH  42  43
HETATM   43  C   UNL     1     -21.112  -5.659  -5.860  1.00  0.00     0.000 C 
BRANCH  43  44
HETATM   44  C   UNL     1     -19.811  -5.297  -6.550  1.00  0.00     0.000 C 
BRANCH  44  45
HETATM   45  C   UNL     1     -19.977  -5.402  -8.053  1.00  0.00     0.000 C 
BRANCH  45  46
HETATM   46  C   UNL     1     -20.300  -4.038  -8.633  1.00  0.00     0.000 C 
BRANCH  46  47
HETATM   47  C   UNL     1     -21.615  -4.095  -9.386  1.00  0.00     0.000 C 
BRANCH  47  48
HETATM   48  C   UNL     1     -21.353  -4.147 -10.881  1.00  0.00     0.000 C 
BRANCH  48  49
HETATM   49  C   UNL     1     -21.815  -2.857 -11.533  1.00  0.00    -0.000 C 
BRANCH  49  50
HETATM   50  C   UNL     1     -22.665  -3.161 -12.756  1.00  0.00    -0.005 C 
HETATM   51  C   UNL     1     -24.130  -2.944 -12.441  1.00  0.00     0.005 C 
ENDBRANCH  49  50
ENDBRANCH  48  49
ENDBRANCH  47  48
ENDBRANCH  46  47
ENDBRANCH  45  46
ENDBRANCH  44  45
ENDBRANCH  43  44
ENDBRANCH  42  43
ENDBRANCH  41  42
ENDBRANCH  40  41
ENDBRANCH  39  40
ENDBRANCH  38  39
ENDBRANCH  37  38
ENDBRANCH  36  37
ENDBRANCH  35  36
ENDBRANCH  33  35
ENDBRANCH  32  33
ENDBRANCH  31  32
ENDBRANCH  30  31
ENDBRANCH  29  30
ENDBRANCH  28  29
ENDBRANCH  27  28
ENDBRANCH   1  27
TORSDOF 46
ENDMDL
MODEL 2
REMARK VINA RESULT:      -5.3      2.218      8.705
REMARK WARNING: 32 MAX_TORS EXCEEDED!!!
REMARK  46 active torsions:
REMARK  status: ('A' for Active; 'I' for Inactive)
REMARK    1  A    between atoms: C_2  and  C_3 
REMARK    2  A    between atoms: C_3  and  C_4 
REMARK    3  A    between atoms: C_4  and  C_5 
REMARK    4  A    between atoms: C_5  and  C_6 
REMARK    5  A    between atoms: C_6  and  C_7 
REMARK    6  A    between atoms: C_7  and  C_8 
REMARK    7  A    between atoms: C_8  and  C_9 
REMARK    8  A    between atoms: C_9  and  C_10 
REMARK    9  A    between atoms: C_10  and  C_11 
REMARK   10  A    between atoms: C_11  and  C_12 
REMARK   11  A    between atoms: C_12  and  C_13 
REMARK   12  A    between atoms: C_13  and  C_14 
REMARK   13  A    between atoms: C_14  and  C_15 
REMARK   14  A    between atoms: C_15  and  C_16 
REMARK   15  A    between atoms: C_16  and  C_17 
REMARK   16  A    between atoms: C_17  and  C_18 
REMARK   17  A    between atoms: C_18  and  O_20 
REMARK   18  A    between atoms: O_20  and  C_21 
REMARK   19  A    between atoms: C_21  and  C_22 
REMARK   20  A    between atoms: C_22  and  O_23 
REMARK   21  A    between atoms: O_23  and  C_24 
REMARK   22  A    between atoms: C_24  and  C_25 
REMARK   23  A    between atoms: C_25  and  O_26 
REMARK   24  A    between atoms: O_26  and  C_27 
REMARK   25  A    between atoms: C_27  and  C_28 
REMARK   26  A    between atoms: C_28  and  O_29 
REMARK   27  A    between atoms: O_29  and  C_30 
REMARK   28  A    between atoms: C_30  and  C_31 
REMARK   29  A    between atoms: C_31  and  O_32 
REMARK   30  A    between atoms: O_32  and  C_33 
REMARK   31  A    between atoms: C_33  and  C_35 
REMARK   32  A    between atoms: C_35  and  C_36 
REMARK   33  A    between atoms: C_36  and  C_37 
REMARK   34  A    between atoms: C_37  and  C_38 
REMARK   35  A    between atoms: C_38  and  C_39 
REMARK   36  A    between atoms: C_39  and  C_40 
REMARK   37  A    between atoms: C_40  and  C_41 
REMARK   38  A    between atoms: C_41  and  C_42 
REMARK   39  A    between atoms: C_42  and  C_43 
REMARK   40  A    between atoms: C_43  and  C_44 
REMARK   41  A    between atoms: C_44  and  C_45 
REMARK   42  A    between atoms: C_45  and  C_46 
REMARK   43  A    between atoms: C_46  and  C_47 
REMARK   44  A    between atoms: C_47  and  C_48 
REMARK   45  A    between atoms: C_48  and  C_49 
REMARK   46  A    between atoms: C_49  and  C_50 
ROOT
HETATM    1  O   UNL     1     -19.227 -12.598  -7.890  1.00  0.00    -0.387 OA
ENDROOT
BRANCH   1   2
HETATM    2  C   UNL     1     -20.568 -13.074  -7.882  1.00  0.00     0.193 C 
BRANCH   2   3
HETATM    3  C   UNL     1     -21.106 -13.019  -6.463  1.00  0.00     0.193 C 
BRANCH   3   4
HETATM    4  O   UNL     1     -21.758 -14.250  -6.151  1.00  0.00    -0.387 OA
BRANCH   4   5
HETATM    5  C   UNL     1     -22.414 -14.160  -4.881  1.00  0.00     0.194 C 
BRANCH   5   6
HETATM    6  C   UNL     1     -22.551 -12.704  -4.467  1.00  0.00     0.205 C 
BRANCH   6   7
HETATM    7  O   UNL     1     -22.664 -12.594  -3.031  1.00  0.00    -0.319 OA
BRANCH   7   8
HETATM    8  C   UNL     1     -22.979 -11.339  -2.580  1.00  0.00     0.258 C 
HETATM    9  O   UNL     1     -22.844 -10.319  -3.231  1.00  0.00    -0.265 OA
BRANCH   8  10
HETATM   10  C   UNL     1     -23.581 -11.370  -1.183  1.00  0.00     0.111 C 
BRANCH  10  11
HETATM   11  C   UNL     1     -22.495 -11.482  -0.119  1.00  0.00     0.010 C 
BRANCH  11  12
HETATM   12  C   UNL     1     -21.989 -10.115   0.324  1.00  0.00     0.000 C 
BRANCH  12  13
HETATM   13  C   UNL     1     -23.088  -9.073   0.186  1.00  0.00     0.000 C 
BRANCH  13  14
HETATM   14  C   UNL     1     -22.485  -7.683   0.092  1.00  0.00     0.000 C 
BRANCH  14  15
HETATM   15  C   UNL     1     -21.723  -7.531  -1.212  1.00  0.00     0.000 C 
BRANCH  15  16
HETATM   16  C   UNL     1     -22.169  -6.270  -1.928  1.00  0.00     0.000 C 
BRANCH  16  17
HETATM   17  C   UNL     1     -21.336  -6.062  -3.178  1.00  0.00     0.000 C 
BRANCH  17  18
HETATM   18  C   UNL     1     -21.772  -7.033  -4.257  1.00  0.00     0.000 C 
BRANCH  18  19
HETATM   19  C   UNL     1     -21.375  -6.502  -5.621  1.00  0.00     0.000 C 
BRANCH  19  20
HETATM   20  C   UNL     1     -20.430  -5.326  -5.462  1.00  0.00     0.000 C 
BRANCH  20  21
HETATM   21  C   UNL     1     -20.685  -4.309  -6.557  1.00  0.00     0.000 C 
BRANCH  21  22
HETATM   22  C   UNL     1     -19.582  -4.382  -7.596  1.00  0.00     0.000 C 
BRANCH  22  23
HETATM   23  C   UNL     1     -20.156  -4.827  -8.929  1.00  0.00     0.000 C 
BRANCH  23  24
HETATM   24  C   UNL     1     -21.579  -4.316  -9.078  1.00  0.00    -0.000 C 
BRANCH  24  25
HETATM   25  C   UNL     1     -21.858  -3.950 -10.527  1.00  0.00    -0.005 C 
HETATM   26  C   UNL     1     -20.577  -3.521 -11.210  1.00  0.00     0.005 C 
ENDBRANCH  24  25
ENDBRANCH  23  24
ENDBRANCH  22  23
ENDBRANCH  21  22
ENDBRANCH  20  21
ENDBRANCH  19  20
ENDBRANCH  18  19
ENDBRANCH  17  18
ENDBRANCH  16  17
ENDBRANCH  15  16
ENDBRANCH  14  15
ENDBRANCH  13  14
ENDBRANCH  12  13
ENDBRANCH  11  12
ENDBRANCH  10  11
ENDBRANCH   8  10
ENDBRANCH   7   8
ENDBRANCH   6   7
ENDBRANCH   5   6
ENDBRANCH   4   5
ENDBRANCH   3   4
ENDBRANCH   2   3
ENDBRANCH   1   2
BRANCH   1  27
HETATM   27  C   UNL     1     -18.436 -13.363  -8.803  1.00  0.00     0.193 C 
BRANCH  27  28
HETATM   28  C   UNL     1     -18.433 -14.821  -8.378  1.00  0.00     0.193 C 
BRANCH  28  29
HETATM   29  O   UNL     1     -17.911 -14.937  -7.052  1.00  0.00    -0.387 OA
BRANCH  29  30
HETATM   30  C   UNL     1     -16.523 -14.605  -7.034  1.00  0.00     0.194 C 
BRANCH  30  31
HETATM   31  C   UNL     1     -16.013 -14.617  -5.603  1.00  0.00     0.205 C 
BRANCH  31  32
HETATM   32  O   UNL     1     -14.822 -15.433  -5.498  1.00  0.00    -0.319 OA
BRANCH  32  33
HETATM   33  C   UNL     1     -13.660 -14.719  -5.442  1.00  0.00     0.258 C 
HETATM   34  O   UNL     1     -13.095 -14.270  -6.445  1.00  0.00    -0.265 OA
BRANCH  33  35
HETATM   35  C   UNL     1     -13.184 -14.465  -4.029  1.00  0.00     0.111 C 
BRANCH  35  36
HETATM   36  C   UNL     1     -13.383 -13.008  -3.622  1.00  0.00     0.010 C 
BRANCH  36  37
HETATM   37  C   UNL     1     -14.436 -12.858  -2.531  1.00  0.00     0.000 C 
BRANCH  37  38
HETATM   38  C   UNL     1     -15.346 -11.675  -2.830  1.00  0.00     0.000 C 
BRANCH  38  39
HETATM   39  C   UNL     1     -15.306 -11.344  -4.313  1.00  0.00     0.000 C 
BRANCH  39  40
HETATM   40  C   UNL     1     -15.768  -9.916  -4.542  1.00  0.00     0.000 C 
BRANCH  40  41
HETATM   41  C   UNL     1     -16.556  -9.829  -5.835  1.00  0.00     0.000 C 
BRANCH  41  42
HETATM   42  C   UNL     1     -18.041  -9.929  -5.542  1.00  0.00     0.000 C 
BRANCH  42  43
HETATM   43  C   UNL     1     -18.341  -9.317  -4.188  1.00  0.00     0.000 C 
BRANCH  43  44
HETATM   44  C   UNL     1     -19.587  -9.951  -3.599  1.00  0.00     0.000 C 
BRANCH  44  45
HETATM   45  C   UNL     1     -19.376 -10.230  -2.124  1.00  0.00     0.000 C 
BRANCH  45  46
HETATM   46  C   UNL     1     -18.656 -11.554  -1.947  1.00  0.00     0.000 C 
BRANCH  46  47
HETATM   47  C   UNL     1     -18.610 -11.924  -0.476  1.00  0.00     0.000 C 
BRANCH  47  48
HETATM   48  C   UNL     1     -17.177 -11.881   0.022  1.00  0.00     0.000 C 
BRANCH  48  49
HETATM   49  C   UNL     1     -16.907 -13.070   0.925  1.00  0.00    -0.000 C 
BRANCH  49  50
HETATM   50  C   UNL     1     -15.661 -12.824   1.761  1.00  0.00    -0.005 C 
HETATM   51  C   UNL     1     -14.492 -13.607   1.198  1.00  0.00     0.005 C 
ENDBRANCH  49  50
ENDBRANCH  48  49
ENDBRANCH  47  48
ENDBRANCH  46  47
ENDBRANCH  45  46
ENDBRANCH  44  45
ENDBRANCH  43  44
ENDBRANCH  42  43
ENDBRANCH  41  42
ENDBRANCH  40  41
ENDBRANCH  39  40
ENDBRANCH  38  39
ENDBRANCH  37  38
ENDBRANCH  36  37
ENDBRANCH  35  36
ENDBRANCH  33  35
ENDBRANCH  32  33
ENDBRANCH  31  32
ENDBRANCH  30  31
ENDBRANCH  29  30
ENDBRANCH  28  29
ENDBRANCH  27  28
ENDBRANCH   1  27
TORSDOF 46
ENDMDL
MODEL 3
REMARK VINA RESULT:      -5.2      6.625     12.084
REMARK WARNING: 32 MAX_TORS EXCEEDED!!!
REMARK  46 active torsions:
REMARK  status: ('A' for Active; 'I' for Inactive)
REMARK    1  A    between atoms: C_2  and  C_3 
REMARK    2  A    between atoms: C_3  and  C_4 
REMARK    3  A    between atoms: C_4  and  C_5 
REMARK    4  A    between atoms: C_5  and  C_6 
REMARK    5  A    between atoms: C_6  and  C_7 
REMARK    6  A    between atoms: C_7  and  C_8 
REMARK    7  A    between atoms: C_8  and  C_9 
REMARK    8  A    between atoms: C_9  and  C_10 
REMARK    9  A    between atoms: C_10  and  C_11 
REMARK   10  A    between atoms: C_11  and  C_12 
REMARK   11  A    between atoms: C_12  and  C_13 
REMARK   12  A    between atoms: C_13  and  C_14 
REMARK   13  A    between atoms: C_14  and  C_15 
REMARK   14  A    between atoms: C_15  and  C_16 
REMARK   15  A    between atoms: C_16  and  C_17 
REMARK   16  A    between atoms: C_17  and  C_18 
REMARK   17  A    between atoms: C_18  and  O_20 
REMARK   18  A    between atoms: O_20  and  C_21 
REMARK   19  A    between atoms: C_21  and  C_22 
REMARK   20  A    between atoms: C_22  and  O_23 
REMARK   21  A    between atoms: O_23  and  C_24 
REMARK   22  A    between atoms: C_24  and  C_25 
REMARK   23  A    between atoms: C_25  and  O_26 
REMARK   24  A    between atoms: O_26  and  C_27 
REMARK   25  A    between atoms: C_27  and  C_28 
REMARK   26  A    between atoms: C_28  and  O_29 
REMARK   27  A    between atoms: O_29  and  C_30 
REMARK   28  A    between atoms: C_30  and  C_31 
REMARK   29  A    between atoms: C_31  and  O_32 
REMARK   30  A    between atoms: O_32  and  C_33 
REMARK   31  A    between atoms: C_33  and  C_35 
REMARK   32  A    between atoms: C_35  and  C_36 
REMARK   33  A    between atoms: C_36  and  C_37 
REMARK   34  A    between atoms: C_37  and  C_38 
REMARK   35  A    between atoms: C_38  and  C_39 
REMARK   36  A    between atoms: C_39  and  C_40 
REMARK   37  A    between atoms: C_40  and  C_41 
REMARK   38  A    between atoms: C_41  and  C_42 
REMARK   39  A    between atoms: C_42  and  C_43 
REMARK   40  A    between atoms: C_43  and  C_44 
REMARK   41  A    between atoms: C_44  and  C_45 
REMARK   42  A    between atoms: C_45  and  C_46 
REMARK   43  A    between atoms: C_46  and  C_47 
REMARK   44  A    between atoms: C_47  and  C_48 
REMARK   45  A    between atoms: C_48  and  C_49 
REMARK   46  A    between atoms: C_49  and  C_50 
ROOT
HETATM    1  O   UNL     1     -21.585  -3.912 -11.896  1.00  0.00    -0.387 OA
ENDROOT
BRANCH   1   2
HETATM    2  C   UNL     1     -20.445  -3.674 -11.077  1.00  0.00     0.193 C 
BRANCH   2   3
HETATM    3  C   UNL     1     -20.483  -4.616  -9.886  1.00  0.00     0.193 C 
BRANCH   3   4
HETATM    4  O   UNL     1     -20.533  -3.857  -8.679  1.00  0.00    -0.387 OA
BRANCH   4   5
HETATM    5  C   UNL     1     -21.878  -3.780  -8.193  1.00  0.00     0.194 C 
BRANCH   5   6
HETATM    6  C   UNL     1     -22.077  -4.763  -7.050  1.00  0.00     0.205 C 
BRANCH   6   7
HETATM    7  O   UNL     1     -20.801  -5.174  -6.509  1.00  0.00    -0.319 OA
BRANCH   7   8
HETATM    8  C   UNL     1     -20.778  -6.456  -6.024  1.00  0.00     0.258 C 
HETATM    9  O   UNL     1     -19.825  -7.208  -6.109  1.00  0.00    -0.265 OA
BRANCH   8  10
HETATM   10  C   UNL     1     -22.070  -6.816  -5.304  1.00  0.00     0.111 C 
BRANCH  10  11
HETATM   11  C   UNL     1     -21.795  -7.697  -4.091  1.00  0.00     0.010 C 
BRANCH  11  12
HETATM   12  C   UNL     1     -21.547  -6.873  -2.833  1.00  0.00     0.000 C 
BRANCH  12  13
HETATM   13  C   UNL     1     -21.199  -7.782  -1.665  1.00  0.00     0.000 C 
BRANCH  13  14
HETATM   14  C   UNL     1     -22.019  -7.406  -0.444  1.00  0.00     0.000 C 
BRANCH  14  15
HETATM   15  C   UNL     1     -22.233  -8.625   0.436  1.00  0.00     0.000 C 
BRANCH  15  16
HETATM   16  C   UNL     1     -23.404  -9.438  -0.084  1.00  0.00     0.000 C 
BRANCH  16  17
HETATM   17  C   UNL     1     -23.126 -10.918   0.098  1.00  0.00     0.000 C 
BRANCH  17  18
HETATM   18  C   UNL     1     -23.846 -11.714  -0.973  1.00  0.00     0.000 C 
BRANCH  18  19
HETATM   19  C   UNL     1     -22.871 -12.110  -2.066  1.00  0.00     0.000 C 
BRANCH  19  20
HETATM   20  C   UNL     1     -22.963 -11.129  -3.219  1.00  0.00     0.000 C 
BRANCH  20  21
HETATM   21  C   UNL     1     -21.909 -11.458  -4.259  1.00  0.00     0.000 C 
BRANCH  21  22
HETATM   22  C   UNL     1     -20.532 -11.111  -3.725  1.00  0.00     0.000 C 
BRANCH  22  23
HETATM   23  C   UNL     1     -19.515 -11.157  -4.852  1.00  0.00     0.000 C 
BRANCH  23  24
HETATM   24  C   UNL     1     -20.207 -11.486  -6.163  1.00  0.00    -0.000 C 
BRANCH  24  25
HETATM   25  C   UNL     1     -19.292 -12.320  -7.045  1.00  0.00    -0.005 C 
HETATM   26  C   UNL     1     -20.111 -13.094  -8.058  1.00  0.00     0.005 C 
ENDBRANCH  24  25
ENDBRANCH  23  24
ENDBRANCH  22  23
ENDBRANCH  21  22
ENDBRANCH  20  21
ENDBRANCH  19  20
ENDBRANCH  18  19
ENDBRANCH  17  18
ENDBRANCH  16  17
ENDBRANCH  15  16
ENDBRANCH  14  15
ENDBRANCH  13  14
ENDBRANCH  12  13
ENDBRANCH  11  12
ENDBRANCH  10  11
ENDBRANCH   8  10
ENDBRANCH   7   8
ENDBRANCH   6   7
ENDBRANCH   5   6
ENDBRANCH   4   5
ENDBRANCH   3   4
ENDBRANCH   2   3
ENDBRANCH   1   2
BRANCH   1  27
HETATM   27  C   UNL     1     -22.544  -2.865 -11.725  1.00  0.00     0.193 C 
BRANCH  27  28
HETATM   28  C   UNL     1     -23.901  -3.465 -11.398  1.00  0.00     0.193 C 
BRANCH  28  29
HETATM   29  O   UNL     1     -24.770  -3.334 -12.525  1.00  0.00    -0.387 OA
BRANCH  29  30
HETATM   30  C   UNL     1     -24.116  -3.782 -13.711  1.00  0.00     0.194 C 
BRANCH  30  31
HETATM   31  C   UNL     1     -24.584  -5.186 -14.055  1.00  0.00     0.205 C 
BRANCH  31  32
HETATM   32  O   UNL     1     -25.183  -5.210 -15.373  1.00  0.00    -0.319 OA
BRANCH  32  33
HETATM   33  C   UNL     1     -25.459  -6.463 -15.837  1.00  0.00     0.258 C 
HETATM   34  O   UNL     1     -25.055  -7.492 -15.284  1.00  0.00    -0.265 OA
BRANCH  33  35
HETATM   35  C   UNL     1     -26.371  -6.465 -17.043  1.00  0.00     0.111 C 
BRANCH  35  36
HETATM   36  C   UNL     1     -27.831  -6.662 -16.644  1.00  0.00     0.010 C 
BRANCH  36  37
HETATM   37  C   UNL     1     -28.779  -6.466 -17.821  1.00  0.00     0.000 C 
BRANCH  37  38
HETATM   38  C   UNL     1     -29.920  -7.470 -17.757  1.00  0.00     0.000 C 
BRANCH  38  39
HETATM   39  C   UNL     1     -31.197  -6.784 -17.302  1.00  0.00     0.000 C 
BRANCH  39  40
HETATM   40  C   UNL     1     -31.005  -5.278 -17.290  1.00  0.00     0.000 C 
BRANCH  40  41
HETATM   41  C   UNL     1     -31.771  -4.668 -16.130  1.00  0.00     0.000 C 
BRANCH  41  42
HETATM   42  C   UNL     1     -33.188  -4.342 -16.561  1.00  0.00     0.000 C 
BRANCH  42  43
HETATM   43  C   UNL     1     -34.099  -4.300 -15.349  1.00  0.00     0.000 C 
BRANCH  43  44
HETATM   44  C   UNL     1     -33.271  -4.340 -14.078  1.00  0.00     0.000 C 
BRANCH  44  45
HETATM   45  C   UNL     1     -33.996  -3.606 -12.967  1.00  0.00     0.000 C 
BRANCH  45  46
HETATM   46  C   UNL     1     -33.110  -3.528 -11.738  1.00  0.00     0.000 C 
BRANCH  46  47
HETATM   47  C   UNL     1     -33.866  -4.035 -10.524  1.00  0.00     0.000 C 
BRANCH  47  48
HETATM   48  C   UNL     1     -34.973  -4.976 -10.961  1.00  0.00     0.000 C 
BRANCH  48  49
HETATM   49  C   UNL     1     -34.437  -6.392 -11.071  1.00  0.00    -0.000 C 
BRANCH  49  50
HETATM   50  C   UNL     1     -34.868  -7.212  -9.866  1.00  0.00    -0.005 C 
HETATM   51  C   UNL     1     -34.071  -8.498  -9.799  1.00  0.00     0.005 C 
ENDBRANCH  49  50
ENDBRANCH  48  49
ENDBRANCH  47  48
ENDBRANCH  46  47
ENDBRANCH  45  46
ENDBRANCH  44  45
ENDBRANCH  43  44
ENDBRANCH  42  43
ENDBRANCH  41  42
ENDBRANCH  40  41
ENDBRANCH  39  40
ENDBRANCH  38  39
ENDBRANCH  37  38
ENDBRANCH  36  37
ENDBRANCH  35  36
ENDBRANCH  33  35
ENDBRANCH  32  33
ENDBRANCH  31  32
ENDBRANCH  30  31
ENDBRANCH  29  30
ENDBRANCH  28  29
ENDBRANCH  27  28
ENDBRANCH   1  27
TORSDOF 46
ENDMDL
MODEL 4
REMARK VINA RESULT:      -5.2      2.447      8.983
REMARK WARNING: 32 MAX_TORS EXCEEDED!!!
REMARK  46 active torsions:
REMARK  status: ('A' for Active; 'I' for Inactive)
REMARK    1  A    between atoms: C_2  and  C_3 
REMARK    2  A    between atoms: C_3  and  C_4 
REMARK    3  A    between atoms: C_4  and  C_5 
REMARK    4  A    between atoms: C_5  and  C_6 
REMARK    5  A    between atoms: C_6  and  C_7 
REMARK    6  A    between atoms: C_7  and  C_8 
REMARK    7  A    between atoms: C_8  and  C_9 
REMARK    8  A    between atoms: C_9  and  C_10 
REMARK    9  A    between atoms: C_10  and  C_11 
REMARK   10  A    between atoms: C_11  and  C_12 
REMARK   11  A    between atoms: C_12  and  C_13 
REMARK   12  A    between atoms: C_13  and  C_14 
REMARK   13  A    between atoms: C_14  and  C_15 
REMARK   14  A    between atoms: C_15  and  C_16 
REMARK   15  A    between atoms: C_16  and  C_17 
REMARK   16  A    between atoms: C_17  and  C_18 
REMARK   17  A    between atoms: C_18  and  O_20 
REMARK   18  A    between atoms: O_20  and  C_21 
REMARK   19  A    between atoms: C_21  and  C_22 
REMARK   20  A    between atoms: C_22  and  O_23 
REMARK   21  A    between atoms: O_23  and  C_24 
REMARK   22  A    between atoms: C_24  and  C_25 
REMARK   23  A    between atoms: C_25  and  O_26 
REMARK   24  A    between atoms: O_26  and  C_27 
REMARK   25  A    between atoms: C_27  and  C_28 
REMARK   26  A    between atoms: C_28  and  O_29 
REMARK   27  A    between atoms: O_29  and  C_30 
REMARK   28  A    between atoms: C_30  and  C_31 
REMARK   29  A    between atoms: C_31  and  O_32 
REMARK   30  A    between atoms: O_32  and  C_33 
REMARK   31  A    between atoms: C_33  and  C_35 
REMARK   32  A    between atoms: C_35  and  C_36 
REMARK   33  A    between atoms: C_36  and  C_37 
REMARK   34  A    between atoms: C_37  and  C_38 
REMARK   35  A    between atoms: C_38  and  C_39 
REMARK   36  A    between atoms: C_39  and  C_40 
REMARK   37  A    between atoms: C_40  and  C_41 
REMARK   38  A    between atoms: C_41  and  C_42 
REMARK   39  A    between atoms: C_42  and  C_43 
REMARK   40  A    between atoms: C_43  and  C_44 
REMARK   41  A    between atoms: C_44  and  C_45 
REMARK   42  A    between atoms: C_45  and  C_46 
REMARK   43  A    between atoms: C_46  and  C_47 
REMARK   44  A    between atoms: C_47  and  C_48 
REMARK   45  A    between atoms: C_48  and  C_49 
REMARK   46  A    between atoms: C_49  and  C_50 
ROOT
HETATM    1  O   UNL     1     -19.950 -11.653  -7.109  1.00  0.00    -0.387 OA
ENDROOT
BRANCH   1   2
HETATM    2  C   UNL     1     -21.316 -11.669  -6.709  1.00  0.00     0.193 C 
BRANCH   2   3
HETATM    3  C   UNL     1     -21.401 -12.073  -5.248  1.00  0.00     0.193 C 
BRANCH   3   4
HETATM    4  O   UNL     1     -22.626 -12.766  -5.014  1.00  0.00    -0.387 OA
BRANCH   4   5
HETATM    5  C   UNL     1     -22.528 -13.571  -3.834  1.00  0.00     0.194 C 
BRANCH   5   6
HETATM    6  C   UNL     1     -22.607 -12.692  -2.596  1.00  0.00     0.205 C 
BRANCH   6   7
HETATM    7  O   UNL     1     -22.950 -13.483  -1.436  1.00  0.00    -0.319 OA
BRANCH   7   8
HETATM    8  C   UNL     1     -22.161 -13.253  -0.339  1.00  0.00     0.258 C 
HETATM    9  O   UNL     1     -21.302 -14.016   0.063  1.00  0.00    -0.265 OA
BRANCH   8  10
HETATM   10  C   UNL     1     -22.441 -11.897   0.291  1.00  0.00     0.111 C 
BRANCH  10  11
HETATM   11  C   UNL     1     -21.151 -11.227   0.749  1.00  0.00     0.010 C 
BRANCH  11  12
HETATM   12  C   UNL     1     -20.948  -9.869   0.089  1.00  0.00     0.000 C 
BRANCH  12  13
HETATM   13  C   UNL     1     -21.430  -8.757   1.007  1.00  0.00     0.000 C 
BRANCH  13  14
HETATM   14  C   UNL     1     -22.418  -7.865   0.277  1.00  0.00     0.000 C 
BRANCH  14  15
HETATM   15  C   UNL     1     -22.027  -7.739  -1.185  1.00  0.00     0.000 C 
BRANCH  15  16
HETATM   16  C   UNL     1     -22.117  -6.289  -1.621  1.00  0.00     0.000 C 
BRANCH  16  17
HETATM   17  C   UNL     1     -21.395  -6.100  -2.942  1.00  0.00     0.000 C 
BRANCH  17  18
HETATM   18  C   UNL     1     -21.639  -7.297  -3.839  1.00  0.00     0.000 C 
BRANCH  18  19
HETATM   19  C   UNL     1     -21.028  -7.051  -5.206  1.00  0.00     0.000 C 
BRANCH  19  20
HETATM   20  C   UNL     1     -21.195  -5.593  -5.591  1.00  0.00     0.000 C 
BRANCH  20  21
HETATM   21  C   UNL     1     -21.217  -5.459  -7.101  1.00  0.00     0.000 C 
BRANCH  21  22
HETATM   22  C   UNL     1     -22.265  -4.443  -7.514  1.00  0.00     0.000 C 
BRANCH  22  23
HETATM   23  C   UNL     1     -22.066  -4.058  -8.969  1.00  0.00     0.000 C 
BRANCH  23  24
HETATM   24  C   UNL     1     -20.599  -4.175  -9.342  1.00  0.00    -0.000 C 
BRANCH  24  25
HETATM   25  C   UNL     1     -20.446  -4.280 -10.851  1.00  0.00    -0.005 C 
HETATM   26  C   UNL     1     -21.424  -3.351 -11.538  1.00  0.00     0.005 C 
ENDBRANCH  24  25
ENDBRANCH  23  24
ENDBRANCH  22  23
ENDBRANCH  21  22
ENDBRANCH  20  21
ENDBRANCH  19  20
ENDBRANCH  18  19
ENDBRANCH  17  18
ENDBRANCH  16  17
ENDBRANCH  15  16
ENDBRANCH  14  15
ENDBRANCH  13  14
ENDBRANCH  12  13
ENDBRANCH  11  12
ENDBRANCH  10  11
ENDBRANCH   8  10
ENDBRANCH   7   8
ENDBRANCH   6   7
ENDBRANCH   5   6
ENDBRANCH   4   5
ENDBRANCH   3   4
ENDBRANCH   2   3
ENDBRANCH   1   2
BRANCH   1  27
HETATM   27  C   UNL     1     -19.187 -12.548  -6.298  1.00  0.00     0.193 C 
BRANCH  27  28
HETATM   28  C   UNL     1     -17.732 -12.111  -6.284  1.00  0.00     0.193 C 
BRANCH  28  29
HETATM   29  O   UNL     1     -17.656 -10.690  -6.158  1.00  0.00    -0.387 OA
BRANCH  29  30
HETATM   30  C   UNL     1     -16.294 -10.266  -6.123  1.00  0.00     0.194 C 
BRANCH  30  31
HETATM   31  C   UNL     1     -15.381 -11.455  -6.365  1.00  0.00     0.205 C 
BRANCH  31  32
HETATM   32  O   UNL     1     -14.360 -11.526  -5.341  1.00  0.00    -0.319 OA
BRANCH  32  33
HETATM   33  C   UNL     1     -13.623 -12.674  -5.366  1.00  0.00     0.258 C 
HETATM   34  O   UNL     1     -13.199 -13.181  -6.411  1.00  0.00    -0.265 OA
BRANCH  33  35
HETATM   35  C   UNL     1     -13.312 -13.213  -3.988  1.00  0.00     0.111 C 
BRANCH  35  36
HETATM   36  C   UNL     1     -14.067 -14.510  -3.708  1.00  0.00     0.010 C 
BRANCH  36  37
HETATM   37  C   UNL     1     -13.631 -15.154  -2.398  1.00  0.00     0.000 C 
BRANCH  37  38
HETATM   38  C   UNL     1     -12.605 -14.281  -1.691  1.00  0.00     0.000 C 
BRANCH  38  39
HETATM   39  C   UNL     1     -12.785 -14.375  -0.185  1.00  0.00     0.000 C 
BRANCH  39  40
HETATM   40  C   UNL     1     -13.837 -15.417   0.152  1.00  0.00     0.000 C 
BRANCH  40  41
HETATM   41  C   UNL     1     -14.003 -15.516   1.657  1.00  0.00     0.000 C 
BRANCH  41  42
HETATM   42  C   UNL     1     -14.765 -14.311   2.173  1.00  0.00     0.000 C 
BRANCH  42  43
HETATM   43  C   UNL     1     -16.085 -14.181   1.435  1.00  0.00     0.000 C 
BRANCH  43  44
HETATM   44  C   UNL     1     -16.513 -12.727   1.394  1.00  0.00     0.000 C 
BRANCH  44  45
HETATM   45  C   UNL     1     -15.655 -11.965   0.403  1.00  0.00     0.000 C 
BRANCH  45  46
HETATM   46  C   UNL     1     -15.915 -12.475  -1.003  1.00  0.00     0.000 C 
BRANCH  46  47
HETATM   47  C   UNL     1     -15.680 -11.363  -2.007  1.00  0.00     0.000 C 
BRANCH  47  48
HETATM   48  C   UNL     1     -16.992 -10.980  -2.669  1.00  0.00     0.000 C 
BRANCH  48  49
HETATM   49  C   UNL     1     -17.101  -9.469  -2.767  1.00  0.00    -0.000 C 
BRANCH  49  50
HETATM   50  C   UNL     1     -18.559  -9.042  -2.702  1.00  0.00    -0.005 C 
HETATM   51  C   UNL     1     -19.457 -10.182  -3.133  1.00  0.00     0.005 C 
ENDBRANCH  49  50
ENDBRANCH  48  49
ENDBRANCH  47  48
ENDBRANCH  46  47
ENDBRANCH  45  46
ENDBRANCH  44  45
ENDBRANCH  43  44
ENDBRANCH  42  43
ENDBRANCH  41  42
ENDBRANCH  40  41
ENDBRANCH  39  40
ENDBRANCH  38  39
ENDBRANCH  37  38
ENDBRANCH  36  37
ENDBRANCH  35  36
ENDBRANCH  33  35
ENDBRANCH  32  33
ENDBRANCH  31  32
ENDBRANCH  30  31
ENDBRANCH  29  30
ENDBRANCH  28  29
ENDBRANCH  27  28
ENDBRANCH   1  27
TORSDOF 46
ENDMDL
MODEL 5
REMARK VINA RESULT:      -5.2      1.526      3.156
REMARK WARNING: 32 MAX_TORS EXCEEDED!!!
REMARK  46 active torsions:
REMARK  status: ('A' for Active; 'I' for Inactive)
REMARK    1  A    between atoms: C_2  and  C_3 
REMARK    2  A    between atoms: C_3  and  C_4 
REMARK    3  A    between atoms: C_4  and  C_5 
REMARK    4  A    between atoms: C_5  and  C_6 
REMARK    5  A    between atoms: C_6  and  C_7 
REMARK    6  A    between atoms: C_7  and  C_8 
REMARK    7  A    between atoms: C_8  and  C_9 
REMARK    8  A    between atoms: C_9  and  C_10 
REMARK    9  A    between atoms: C_10  and  C_11 
REMARK   10  A    between atoms: C_11  and  C_12 
REMARK   11  A    between atoms: C_12  and  C_13 
REMARK   12  A    between atoms: C_13  and  C_14 
REMARK   13  A    between atoms: C_14  and  C_15 
REMARK   14  A    between atoms: C_15  and  C_16 
REMARK   15  A    between atoms: C_16  and  C_17 
REMARK   16  A    between atoms: C_17  and  C_18 
REMARK   17  A    between atoms: C_18  and  O_20 
REMARK   18  A    between atoms: O_20  and  C_21 
REMARK   19  A    between atoms: C_21  and  C_22 
REMARK   20  A    between atoms: C_22  and  O_23 
REMARK   21  A    between atoms: O_23  and  C_24 
REMARK   22  A    between atoms: C_24  and  C_25 
REMARK   23  A    between atoms: C_25  and  O_26 
REMARK   24  A    between atoms: O_26  and  C_27 
REMARK   25  A    between atoms: C_27  and  C_28 
REMARK   26  A    between atoms: C_28  and  O_29 
REMARK   27  A    between atoms: O_29  and  C_30 
REMARK   28  A    between atoms: C_30  and  C_31 
REMARK   29  A    between atoms: C_31  and  O_32 
REMARK   30  A    between atoms: O_32  and  C_33 
REMARK   31  A    between atoms: C_33  and  C_35 
REMARK   32  A    between atoms: C_35  and  C_36 
REMARK   33  A    between atoms: C_36  and  C_37 
REMARK   34  A    between atoms: C_37  and  C_38 
REMARK   35  A    between atoms: C_38  and  C_39 
REMARK   36  A    between atoms: C_39  and  C_40 
REMARK   37  A    between atoms: C_40  and  C_41 
REMARK   38  A    between atoms: C_41  and  C_42 
REMARK   39  A    between atoms: C_42  and  C_43 
REMARK   40  A    between atoms: C_43  and  C_44 
REMARK   41  A    between atoms: C_44  and  C_45 
REMARK   42  A    between atoms: C_45  and  C_46 
REMARK   43  A    between atoms: C_46  and  C_47 
REMARK   44  A    between atoms: C_47  and  C_48 
REMARK   45  A    between atoms: C_48  and  C_49 
REMARK   46  A    between atoms: C_49  and  C_50 
ROOT
HETATM    1  O   UNL     1     -17.493 -13.508  -8.230  1.00  0.00    -0.387 OA
ENDROOT
BRANCH   1   2
HETATM    2  C   UNL     1     -18.813 -13.136  -8.609  1.00  0.00     0.193 C 
BRANCH   2   3
HETATM    3  C   UNL     1     -19.434 -12.307  -7.498  1.00  0.00     0.193 C 
BRANCH   3   4
HETATM    4  O   UNL     1     -20.812 -12.651  -7.358  1.00  0.00    -0.387 OA
BRANCH   4   5
HETATM    5  C   UNL     1     -21.493 -11.672  -6.565  1.00  0.00     0.194 C 
BRANCH   5   6
HETATM    6  C   UNL     1     -22.125 -12.332  -5.351  1.00  0.00     0.205 C 
BRANCH   6   7
HETATM    7  O   UNL     1     -22.671 -13.623  -5.703  1.00  0.00    -0.319 OA
BRANCH   7   8
HETATM    8  C   UNL     1     -23.088 -14.373  -4.635  1.00  0.00     0.258 C 
HETATM    9  O   UNL     1     -23.764 -15.382  -4.723  1.00  0.00    -0.265 OA
BRANCH   8  10
HETATM   10  C   UNL     1     -22.556 -13.833  -3.316  1.00  0.00     0.111 C 
BRANCH  10  11
HETATM   11  C   UNL     1     -22.845 -14.797  -2.171  1.00  0.00     0.010 C 
BRANCH  11  12
HETATM   12  C   UNL     1     -23.938 -14.272  -1.248  1.00  0.00     0.000 C 
BRANCH  12  13
HETATM   13  C   UNL     1     -23.419 -14.165   0.178  1.00  0.00     0.000 C 
BRANCH  13  14
HETATM   14  C   UNL     1     -23.380 -12.711   0.615  1.00  0.00     0.000 C 
BRANCH  14  15
HETATM   15  C   UNL     1     -23.938 -11.822  -0.481  1.00  0.00     0.000 C 
BRANCH  15  16
HETATM   16  C   UNL     1     -24.090 -10.402   0.033  1.00  0.00     0.000 C 
BRANCH  16  17
HETATM   17  C   UNL     1     -23.019  -9.515  -0.572  1.00  0.00     0.000 C 
BRANCH  17  18
HETATM   18  C   UNL     1     -22.459  -8.587   0.487  1.00  0.00     0.000 C 
BRANCH  18  19
HETATM   19  C   UNL     1     -21.138  -9.127   1.002  1.00  0.00     0.000 C 
BRANCH  19  20
HETATM   20  C   UNL     1     -20.441  -9.913  -0.093  1.00  0.00     0.000 C 
BRANCH  20  21
HETATM   21  C   UNL     1     -19.980 -11.253   0.449  1.00  0.00     0.000 C 
BRANCH  21  22
HETATM   22  C   UNL     1     -19.917 -12.269  -0.675  1.00  0.00     0.000 C 
BRANCH  22  23
HETATM   23  C   UNL     1     -18.526 -12.871  -0.750  1.00  0.00     0.000 C 
BRANCH  23  24
HETATM   24  C   UNL     1     -17.637 -12.259   0.319  1.00  0.00    -0.000 C 
BRANCH  24  25
HETATM   25  C   UNL     1     -16.813 -13.340   1.000  1.00  0.00    -0.005 C 
HETATM   26  C   UNL     1     -15.644 -12.718   1.733  1.00  0.00     0.005 C 
ENDBRANCH  24  25
ENDBRANCH  23  24
ENDBRANCH  22  23
ENDBRANCH  21  22
ENDBRANCH  20  21
ENDBRANCH  19  20
ENDBRANCH  18  19
ENDBRANCH  17  18
ENDBRANCH  16  17
ENDBRANCH  15  16
ENDBRANCH  14  15
ENDBRANCH  13  14
ENDBRANCH  12  13
ENDBRANCH  11  12
ENDBRANCH  10  11
ENDBRANCH   8  10
ENDBRANCH   7   8
ENDBRANCH   6   7
ENDBRANCH   5   6
ENDBRANCH   4   5
ENDBRANCH   3   4
ENDBRANCH   2   3
ENDBRANCH   1   2
BRANCH   1  27
HETATM   27  C   UNL     1     -17.130 -12.863  -7.007  1.00  0.00     0.193 C 
BRANCH  27  28
HETATM   28  C   UNL     1     -15.652 -12.511  -7.034  1.00  0.00     0.193 C 
BRANCH  28  29
HETATM   29  O   UNL     1     -14.880 -13.634  -6.607  1.00  0.00    -0.387 OA
BRANCH  29  30
HETATM   30  C   UNL     1     -13.618 -13.205  -6.097  1.00  0.00     0.194 C 
BRANCH  30  31
HETATM   31  C   UNL     1     -13.818 -12.022  -5.165  1.00  0.00     0.205 C 
BRANCH  31  32
HETATM   32  O   UNL     1     -13.679 -12.438  -3.785  1.00  0.00    -0.319 OA
BRANCH  32  33
HETATM   33  C   UNL     1     -14.790 -12.221  -3.023  1.00  0.00     0.258 C 
HETATM   34  O   UNL     1     -15.014 -12.825  -1.968  1.00  0.00    -0.265 OA
BRANCH  33  35
HETATM   35  C   UNL     1     -15.672 -11.114  -3.556  1.00  0.00     0.111 C 
BRANCH  35  36
HETATM   36  C   UNL     1     -16.319 -10.317  -2.426  1.00  0.00     0.010 C 
BRANCH  36  37
HETATM   37  C   UNL     1     -17.420  -9.394  -2.934  1.00  0.00     0.000 C 
BRANCH  37  38
HETATM   38  C   UNL     1     -18.449 -10.182  -3.730  1.00  0.00     0.000 C 
BRANCH  38  39
HETATM   39  C   UNL     1     -19.453  -9.237  -4.370  1.00  0.00     0.000 C 
BRANCH  39  40
HETATM   40  C   UNL     1     -20.223  -8.488  -3.296  1.00  0.00     0.000 C 
BRANCH  40  41
HETATM   41  C   UNL     1     -21.060  -7.392  -3.930  1.00  0.00     0.000 C 
BRANCH  41  42
HETATM   42  C   UNL     1     -20.932  -7.453  -5.440  1.00  0.00     0.000 C 
BRANCH  42  43
HETATM   43  C   UNL     1     -20.319  -6.166  -5.957  1.00  0.00     0.000 C 
BRANCH  43  44
HETATM   44  C   UNL     1     -20.937  -5.801  -7.294  1.00  0.00     0.000 C 
BRANCH  44  45
HETATM   45  C   UNL     1     -22.005  -4.744  -7.098  1.00  0.00     0.000 C 
BRANCH  45  46
HETATM   46  C   UNL     1     -22.241  -4.000  -8.399  1.00  0.00     0.000 C 
BRANCH  46  47
HETATM   47  C   UNL     1     -21.195  -4.403  -9.421  1.00  0.00     0.000 C 
BRANCH  47  48
HETATM   48  C   UNL     1     -21.726  -4.168 -10.824  1.00  0.00     0.000 C 
BRANCH  48  49
HETATM   49  C   UNL     1     -23.179  -4.598 -10.907  1.00  0.00    -0.000 C 
BRANCH  49  50
HETATM   50  C   UNL     1     -24.008  -3.520 -11.587  1.00  0.00    -0.005 C 
HETATM   51  C   UNL     1     -23.102  -2.524 -12.280  1.00  0.00     0.005 C 
ENDBRANCH  49  50
ENDBRANCH  48  49
ENDBRANCH  47  48
ENDBRANCH  46  47
ENDBRANCH  45  46
ENDBRANCH  44  45
ENDBRANCH  43  44
ENDBRANCH  42  43
ENDBRANCH  41  42
ENDBRANCH  40  41
ENDBRANCH  39  40
ENDBRANCH  38  39
ENDBRANCH  37  38
ENDBRANCH  36  37
ENDBRANCH  35  36
ENDBRANCH  33  35
ENDBRANCH  32  33
ENDBRANCH  31  32
ENDBRANCH  30  31
ENDBRANCH  29  30
ENDBRANCH  28  29
ENDBRANCH  27  28
ENDBRANCH   1  27
TORSDOF 46
ENDMDL
MODEL 6
REMARK VINA RESULT:      -5.2      6.633     11.952
REMARK WARNING: 32 MAX_TORS EXCEEDED!!!
REMARK  46 active torsions:
REMARK  status: ('A' for Active; 'I' for Inactive)
REMARK    1  A    between atoms: C_2  and  C_3 
REMARK    2  A    between atoms: C_3  and  C_4 
REMARK    3  A    between atoms: C_4  and  C_5 
REMARK    4  A    between atoms: C_5  and  C_6 
REMARK    5  A    between atoms: C_6  and  C_7 
REMARK    6  A    between atoms: C_7  and  C_8 
REMARK    7  A    between atoms: C_8  and  C_9 
REMARK    8  A    between atoms: C_9  and  C_10 
REMARK    9  A    between atoms: C_10  and  C_11 
REMARK   10  A    between atoms: C_11  and  C_12 
REMARK   11  A    between atoms: C_12  and  C_13 
REMARK   12  A    between atoms: C_13  and  C_14 
REMARK   13  A    between atoms: C_14  and  C_15 
REMARK   14  A    between atoms: C_15  and  C_16 
REMARK   15  A    between atoms: C_16  and  C_17 
REMARK   16  A    between atoms: C_17  and  C_18 
REMARK   17  A    between atoms: C_18  and  O_20 
REMARK   18  A    between atoms: O_20  and  C_21 
REMARK   19  A    between atoms: C_21  and  C_22 
REMARK   20  A    between atoms: C_22  and  O_23 
REMARK   21  A    between atoms: O_23  and  C_24 
REMARK   22  A    between atoms: C_24  and  C_25 
REMARK   23  A    between atoms: C_25  and  O_26 
REMARK   24  A    between atoms: O_26  and  C_27 
REMARK   25  A    between atoms: C_27  and  C_28 
REMARK   26  A    between atoms: C_28  and  O_29 
REMARK   27  A    between atoms: O_29  and  C_30 
REMARK   28  A    between atoms: C_30  and  C_31 
REMARK   29  A    between atoms: C_31  and  O_32 
REMARK   30  A    between atoms: O_32  and  C_33 
REMARK   31  A    between atoms: C_33  and  C_35 
REMARK   32  A    between atoms: C_35  and  C_36 
REMARK   33  A    between atoms: C_36  and  C_37 
REMARK   34  A    between atoms: C_37  and  C_38 
REMARK   35  A    between atoms: C_38  and  C_39 
REMARK   36  A    between atoms: C_39  and  C_40 
REMARK   37  A    between atoms: C_40  and  C_41 
REMARK   38  A    between atoms: C_41  and  C_42 
REMARK   39  A    between atoms: C_42  and  C_43 
REMARK   40  A    between atoms: C_43  and  C_44 
REMARK   41  A    between atoms: C_44  and  C_45 
REMARK   42  A    between atoms: C_45  and  C_46 
REMARK   43  A    between atoms: C_46  and  C_47 
REMARK   44  A    between atoms: C_47  and  C_48 
REMARK   45  A    between atoms: C_48  and  C_49 
REMARK   46  A    between atoms: C_49  and  C_50 
ROOT
HETATM    1  O   UNL     1     -23.552  -4.800 -10.671  1.00  0.00    -0.387 OA
ENDROOT
BRANCH   1   2
HETATM    2  C   UNL     1     -22.222  -4.534 -10.243  1.00  0.00     0.193 C 
BRANCH   2   3
HETATM    3  C   UNL     1     -22.225  -4.271  -8.746  1.00  0.00     0.193 C 
BRANCH   3   4
HETATM    4  O   UNL     1     -21.705  -5.409  -8.060  1.00  0.00    -0.387 OA
BRANCH   4   5
HETATM    5  C   UNL     1     -20.345  -5.182  -7.675  1.00  0.00     0.194 C 
BRANCH   5   6
HETATM    6  C   UNL     1     -20.261  -4.936  -6.178  1.00  0.00     0.205 C 
BRANCH   6   7
HETATM    7  O   UNL     1     -20.094  -6.185  -5.469  1.00  0.00    -0.319 OA
BRANCH   7   8
HETATM    8  C   UNL     1     -21.129  -6.502  -4.628  1.00  0.00     0.258 C 
HETATM    9  O   UNL     1     -22.215  -5.953  -4.635  1.00  0.00    -0.265 OA
BRANCH   8  10
HETATM   10  C   UNL     1     -20.785  -7.671  -3.717  1.00  0.00     0.111 C 
BRANCH  10  11
HETATM   11  C   UNL     1     -21.384  -7.480  -2.329  1.00  0.00     0.010 C 
BRANCH  11  12
HETATM   12  C   UNL     1     -20.399  -7.851  -1.227  1.00  0.00     0.000 C 
BRANCH  12  13
HETATM   13  C   UNL     1     -21.105  -8.624  -0.124  1.00  0.00     0.000 C 
BRANCH  13  14
HETATM   14  C   UNL     1     -22.387  -7.916   0.277  1.00  0.00     0.000 C 
BRANCH  14  15
HETATM   15  C   UNL     1     -23.537  -8.906   0.326  1.00  0.00     0.000 C 
BRANCH  15  16
HETATM   16  C   UNL     1     -23.170 -10.164  -0.439  1.00  0.00     0.000 C 
BRANCH  16  17
HETATM   17  C   UNL     1     -24.205 -11.243  -0.188  1.00  0.00     0.000 C 
BRANCH  17  18
HETATM   18  C   UNL     1     -23.519 -12.581   0.005  1.00  0.00     0.000 C 
BRANCH  18  19
HETATM   19  C   UNL     1     -22.256 -12.400   0.826  1.00  0.00     0.000 C 
BRANCH  19  20
HETATM   20  C   UNL     1     -21.313 -13.564   0.584  1.00  0.00     0.000 C 
BRANCH  20  21
HETATM   21  C   UNL     1     -20.231 -13.154  -0.397  1.00  0.00     0.000 C 
BRANCH  21  22
HETATM   22  C   UNL     1     -19.718 -11.769  -0.050  1.00  0.00     0.000 C 
BRANCH  22  23
HETATM   23  C   UNL     1     -18.672 -11.338  -1.062  1.00  0.00     0.000 C 
BRANCH  23  24
HETATM   24  C   UNL     1     -19.306 -11.186  -2.433  1.00  0.00    -0.000 C 
BRANCH  24  25
HETATM   25  C   UNL     1     -18.386 -10.404  -3.355  1.00  0.00    -0.005 C 
HETATM   26  C   UNL     1     -17.093 -10.071  -2.640  1.00  0.00     0.005 C 
ENDBRANCH  24  25
ENDBRANCH  23  24
ENDBRANCH  22  23
ENDBRANCH  21  22
ENDBRANCH  20  21
ENDBRANCH  19  20
ENDBRANCH  18  19
ENDBRANCH  17  18
ENDBRANCH  16  17
ENDBRANCH  15  16
ENDBRANCH  14  15
ENDBRANCH  13  14
ENDBRANCH  12  13
ENDBRANCH  11  12
ENDBRANCH  10  11
ENDBRANCH   8  10
ENDBRANCH   7   8
ENDBRANCH   6   7
ENDBRANCH   5   6
ENDBRANCH   4   5
ENDBRANCH   3   4
ENDBRANCH   2   3
ENDBRANCH   1   2
BRANCH   1  27
HETATM   27  C   UNL     1     -24.290  -3.581 -10.780  1.00  0.00     0.193 C 
BRANCH  27  28
HETATM   28  C   UNL     1     -23.876  -2.844 -12.042  1.00  0.00     0.193 C 
BRANCH  28  29
HETATM   29  O   UNL     1     -24.806  -3.121 -13.090  1.00  0.00    -0.387 OA
BRANCH  29  30
HETATM   30  C   UNL     1     -24.163  -3.822 -14.154  1.00  0.00     0.194 C 
BRANCH  30  31
HETATM   31  C   UNL     1     -24.821  -5.178 -14.345  1.00  0.00     0.205 C 
BRANCH  31  32
HETATM   32  O   UNL     1     -24.972  -5.471 -15.754  1.00  0.00    -0.319 OA
BRANCH  32  33
HETATM   33  C   UNL     1     -25.809  -6.516 -16.020  1.00  0.00     0.258 C 
HETATM   34  O   UNL     1     -25.704  -7.621 -15.475  1.00  0.00    -0.265 OA
BRANCH  33  35
HETATM   35  C   UNL     1     -26.922  -6.159 -16.980  1.00  0.00     0.111 C 
BRANCH  35  36
HETATM   36  C   UNL     1     -28.252  -6.773 -16.552  1.00  0.00     0.010 C 
BRANCH  36  37
HETATM   37  C   UNL     1     -29.140  -7.104 -17.745  1.00  0.00     0.000 C 
BRANCH  37  38
HETATM   38  C   UNL     1     -30.605  -6.900 -17.390  1.00  0.00     0.000 C 
BRANCH  38  39
HETATM   39  C   UNL     1     -30.971  -5.429 -17.496  1.00  0.00     0.000 C 
BRANCH  39  40
HETATM   40  C   UNL     1     -31.664  -4.970 -16.225  1.00  0.00     0.000 C 
BRANCH  40  41
HETATM   41  C   UNL     1     -32.884  -4.137 -16.573  1.00  0.00     0.000 C 
BRANCH  41  42
HETATM   42  C   UNL     1     -33.990  -4.396 -15.568  1.00  0.00     0.000 C 
BRANCH  42  43
HETATM   43  C   UNL     1     -33.487  -4.116 -14.165  1.00  0.00     0.000 C 
BRANCH  43  44
HETATM   44  C   UNL     1     -34.468  -3.220 -13.433  1.00  0.00     0.000 C 
BRANCH  44  45
HETATM   45  C   UNL     1     -33.995  -2.988 -12.012  1.00  0.00     0.000 C 
BRANCH  45  46
HETATM   46  C   UNL     1     -32.777  -3.848 -11.728  1.00  0.00     0.000 C 
BRANCH  46  47
HETATM   47  C   UNL     1     -33.206  -5.280 -11.468  1.00  0.00     0.000 C 
BRANCH  47  48
HETATM   48  C   UNL     1     -34.178  -5.325 -10.303  1.00  0.00     0.000 C 
BRANCH  48  49
HETATM   49  C   UNL     1     -34.992  -6.604 -10.357  1.00  0.00    -0.000 C 
BRANCH  49  50
HETATM   50  C   UNL     1     -34.557  -7.552  -9.251  1.00  0.00    -0.005 C 
HETATM   51  C   UNL     1     -34.006  -8.831  -9.846  1.00  0.00     0.005 C 
ENDBRANCH  49  50
ENDBRANCH  48  49
ENDBRANCH  47  48
ENDBRANCH  46  47
ENDBRANCH  45  46
ENDBRANCH  44  45
ENDBRANCH  43  44
ENDBRANCH  42  43
ENDBRANCH  41  42
ENDBRANCH  40  41
ENDBRANCH  39  40
ENDBRANCH  38  39
ENDBRANCH  37  38
ENDBRANCH  36  37
ENDBRANCH  35  36
ENDBRANCH  33  35
ENDBRANCH  32  33
ENDBRANCH  31  32
ENDBRANCH  30  31
ENDBRANCH  29  30
ENDBRANCH  28  29
ENDBRANCH  27  28
ENDBRANCH   1  27
TORSDOF 46
ENDMDL
MODEL 7
REMARK VINA RESULT:      -5.1      1.477      3.146
REMARK WARNING: 32 MAX_TORS EXCEEDED!!!
REMARK  46 active torsions:
REMARK  status: ('A' for Active; 'I' for Inactive)
REMARK    1  A    between atoms: C_2  and  C_3 
REMARK    2  A    between atoms: C_3  and  C_4 
REMARK    3  A    between atoms: C_4  and  C_5 
REMARK    4  A    between atoms: C_5  and  C_6 
REMARK    5  A    between atoms: C_6  and  C_7 
REMARK    6  A    between atoms: C_7  and  C_8 
REMARK    7  A    between atoms: C_8  and  C_9 
REMARK    8  A    between atoms: C_9  and  C_10 
REMARK    9  A    between atoms: C_10  and  C_11 
REMARK   10  A    between atoms: C_11  and  C_12 
REMARK   11  A    between atoms: C_12  and  C_13 
REMARK   12  A    between atoms: C_13  and  C_14 
REMARK   13  A    between atoms: C_14  and  C_15 
REMARK   14  A    between atoms: C_15  and  C_16 
REMARK   15  A    between atoms: C_16  and  C_17 
REMARK   16  A    between atoms: C_17  and  C_18 
REMARK   17  A    between atoms: C_18  and  O_20 
REMARK   18  A    between atoms: O_20  and  C_21 
REMARK   19  A    between atoms: C_21  and  C_22 
REMARK   20  A    between atoms: C_22  and  O_23 
REMARK   21  A    between atoms: O_23  and  C_24 
REMARK   22  A    between atoms: C_24  and  C_25 
REMARK   23  A    between atoms: C_25  and  O_26 
REMARK   24  A    between atoms: O_26  and  C_27 
REMARK   25  A    between atoms: C_27  and  C_28 
REMARK   26  A    between atoms: C_28  and  O_29 
REMARK   27  A    between atoms: O_29  and  C_30 
REMARK   28  A    between atoms: C_30  and  C_31 
REMARK   29  A    between atoms: C_31  and  O_32 
REMARK   30  A    between atoms: O_32  and  C_33 
REMARK   31  A    between atoms: C_33  and  C_35 
REMARK   32  A    between atoms: C_35  and  C_36 
REMARK   33  A    between atoms: C_36  and  C_37 
REMARK   34  A    between atoms: C_37  and  C_38 
REMARK   35  A    between atoms: C_38  and  C_39 
REMARK   36  A    between atoms: C_39  and  C_40 
REMARK   37  A    between atoms: C_40  and  C_41 
REMARK   38  A    between atoms: C_41  and  C_42 
REMARK   39  A    between atoms: C_42  and  C_43 
REMARK   40  A    between atoms: C_43  and  C_44 
REMARK   41  A    between atoms: C_44  and  C_45 
REMARK   42  A    between atoms: C_45  and  C_46 
REMARK   43  A    between atoms: C_46  and  C_47 
REMARK   44  A    between atoms: C_47  and  C_48 
REMARK   45  A    between atoms: C_48  and  C_49 
REMARK   46  A    between atoms: C_49  and  C_50 
ROOT
HETATM    1  O   UNL     1     -17.691 -13.382  -8.451  1.00  0.00    -0.387 OA
ENDROOT
BRANCH   1   2
HETATM    2  C   UNL     1     -19.023 -13.048  -8.823  1.00  0.00     0.193 C 
BRANCH   2   3
HETATM    3  C   UNL     1     -19.943 -13.274  -7.635  1.00  0.00     0.193 C 
BRANCH   3   4
HETATM    4  O   UNL     1     -20.642 -12.067  -7.335  1.00  0.00    -0.387 OA
BRANCH   4   5
HETATM    5  C   UNL     1     -21.815 -12.349  -6.564  1.00  0.00     0.194 C 
BRANCH   5   6
HETATM    6  C   UNL     1     -21.968 -13.849  -6.375  1.00  0.00     0.205 C 
BRANCH   6   7
HETATM    7  O   UNL     1     -23.327 -14.178  -6.010  1.00  0.00    -0.319 OA
BRANCH   7   8
HETATM    8  C   UNL     1     -23.439 -15.016  -4.932  1.00  0.00     0.258 C 
HETATM    9  O   UNL     1     -23.753 -16.190  -5.002  1.00  0.00    -0.265 OA
BRANCH   8  10
HETATM   10  C   UNL     1     -23.063 -14.324  -3.631  1.00  0.00     0.111 C 
BRANCH  10  11
HETATM   11  C   UNL     1     -22.035 -15.138  -2.853  1.00  0.00     0.010 C 
BRANCH  11  12
HETATM   12  C   UNL     1     -20.753 -14.353  -2.609  1.00  0.00     0.000 C 
BRANCH  12  13
HETATM   13  C   UNL     1     -20.083 -14.819  -1.325  1.00  0.00     0.000 C 
BRANCH  13  14
HETATM   14  C   UNL     1     -19.705 -13.625  -0.467  1.00  0.00     0.000 C 
BRANCH  14  15
HETATM   15  C   UNL     1     -20.664 -13.499   0.704  1.00  0.00     0.000 C 
BRANCH  15  16
HETATM   16  C   UNL     1     -21.465 -14.779   0.856  1.00  0.00     0.000 C 
BRANCH  16  17
HETATM   17  C   UNL     1     -22.908 -14.450   1.184  1.00  0.00     0.000 C 
BRANCH  17  18
HETATM   18  C   UNL     1     -23.175 -12.980   0.923  1.00  0.00     0.000 C 
BRANCH  18  19
HETATM   19  C   UNL     1     -23.809 -12.805  -0.444  1.00  0.00     0.000 C 
BRANCH  19  20
HETATM   20  C   UNL     1     -23.967 -11.329  -0.753  1.00  0.00     0.000 C 
BRANCH  20  21
HETATM   21  C   UNL     1     -23.279 -11.001  -2.065  1.00  0.00     0.000 C 
BRANCH  21  22
HETATM   22  C   UNL     1     -21.774 -11.028  -1.879  1.00  0.00     0.000 C 
BRANCH  22  23
HETATM   23  C   UNL     1     -21.355  -9.943  -0.903  1.00  0.00     0.000 C 
BRANCH  23  24
HETATM   24  C   UNL     1     -21.890  -8.597  -1.361  1.00  0.00    -0.000 C 
BRANCH  24  25
HETATM   25  C   UNL     1     -22.023  -7.653  -0.177  1.00  0.00    -0.005 C 
HETATM   26  C   UNL     1     -23.221  -8.038   0.663  1.00  0.00     0.005 C 
ENDBRANCH  24  25
ENDBRANCH  23  24
ENDBRANCH  22  23
ENDBRANCH  21  22
ENDBRANCH  20  21
ENDBRANCH  19  20
ENDBRANCH  18  19
ENDBRANCH  17  18
ENDBRANCH  16  17
ENDBRANCH  15  16
ENDBRANCH  14  15
ENDBRANCH  13  14
ENDBRANCH  12  13
ENDBRANCH  11  12
ENDBRANCH  10  11
ENDBRANCH   8  10
ENDBRANCH   7   8
ENDBRANCH   6   7
ENDBRANCH   5   6
ENDBRANCH   4   5
ENDBRANCH   3   4
ENDBRANCH   2   3
ENDBRANCH   1   2
BRANCH   1  27
HETATM   27  C   UNL     1     -17.550 -13.346  -7.029  1.00  0.00     0.193 C 
BRANCH  27  28
HETATM   28  C   UNL     1     -16.416 -12.409  -6.652  1.00  0.00     0.193 C 
BRANCH  28  29
HETATM   29  O   UNL     1     -15.383 -13.143  -5.991  1.00  0.00    -0.387 OA
BRANCH  29  30
HETATM   30  C   UNL     1     -14.676 -12.299  -5.084  1.00  0.00     0.194 C 
BRANCH  30  31
HETATM   31  C   UNL     1     -15.594 -11.196  -4.589  1.00  0.00     0.205 C 
BRANCH  31  32
HETATM   32  O   UNL     1     -15.548 -11.111  -3.144  1.00  0.00    -0.319 OA
BRANCH  32  33
HETATM   33  C   UNL     1     -16.704 -11.490  -2.526  1.00  0.00     0.258 C 
HETATM   34  O   UNL     1     -16.730 -12.036  -1.417  1.00  0.00    -0.265 OA
BRANCH  33  35
HETATM   35  C   UNL     1     -17.947 -11.101  -3.295  1.00  0.00     0.111 C 
BRANCH  35  36
HETATM   36  C   UNL     1     -18.393  -9.680  -2.962  1.00  0.00     0.010 C 
BRANCH  36  37
HETATM   37  C   UNL     1     -18.833  -8.912  -4.202  1.00  0.00     0.000 C 
BRANCH  37  38
HETATM   38  C   UNL     1     -20.046  -9.577  -4.837  1.00  0.00     0.000 C 
BRANCH  38  39
HETATM   39  C   UNL     1     -21.132  -8.546  -5.098  1.00  0.00     0.000 C 
BRANCH  39  40
HETATM   40  C   UNL     1     -20.864  -7.288  -4.291  1.00  0.00     0.000 C 
BRANCH  40  41
HETATM   41  C   UNL     1     -21.682  -6.136  -4.843  1.00  0.00     0.000 C 
BRANCH  41  42
HETATM   42  C   UNL     1     -20.856  -5.347  -5.841  1.00  0.00     0.000 C 
BRANCH  42  43
HETATM   43  C   UNL     1     -21.578  -5.284  -7.173  1.00  0.00     0.000 C 
BRANCH  43  44
HETATM   44  C   UNL     1     -21.173  -4.029  -7.922  1.00  0.00     0.000 C 
BRANCH  44  45
HETATM   45  C   UNL     1     -19.853  -4.254  -8.631  1.00  0.00     0.000 C 
BRANCH  45  46
HETATM   46  C   UNL     1     -20.103  -4.786 -10.030  1.00  0.00     0.000 C 
BRANCH  46  47
HETATM   47  C   UNL     1     -20.443  -3.641 -10.965  1.00  0.00     0.000 C 
BRANCH  47  48
HETATM   48  C   UNL     1     -21.684  -3.983 -11.770  1.00  0.00     0.000 C 
BRANCH  48  49
HETATM   49  C   UNL     1     -22.882  -3.233 -11.218  1.00  0.00    -0.000 C 
BRANCH  49  50
HETATM   50  C   UNL     1     -23.809  -4.190 -10.484  1.00  0.00    -0.005 C 
HETATM   51  C   UNL     1     -24.925  -3.421  -9.810  1.00  0.00     0.005 C 
ENDBRANCH  49  50
ENDBRANCH  48  49
ENDBRANCH  47  48
ENDBRANCH  46  47
ENDBRANCH  45  46
ENDBRANCH  44  45
ENDBRANCH  43  44
ENDBRANCH  42  43
ENDBRANCH  41  42
ENDBRANCH  40  41
ENDBRANCH  39  40
ENDBRANCH  38  39
ENDBRANCH  37  38
ENDBRANCH  36  37
ENDBRANCH  35  36
ENDBRANCH  33  35
ENDBRANCH  32  33
ENDBRANCH  31  32
ENDBRANCH  30  31
ENDBRANCH  29  30
ENDBRANCH  28  29
ENDBRANCH  27  28
ENDBRANCH   1  27
TORSDOF 46
ENDMDL
MODEL 8
REMARK VINA RESULT:      -5.1      6.555     11.935
REMARK WARNING: 32 MAX_TORS EXCEEDED!!!
REMARK  46 active torsions:
REMARK  status: ('A' for Active; 'I' for Inactive)
REMARK    1  A    between atoms: C_2  and  C_3 
REMARK    2  A    between atoms: C_3  and  C_4 
REMARK    3  A    between atoms: C_4  and  C_5 
REMARK    4  A    between atoms: C_5  and  C_6 
REMARK    5  A    between atoms: C_6  and  C_7 
REMARK    6  A    between atoms: C_7  and  C_8 
REMARK    7  A    between atoms: C_8  and  C_9 
REMARK    8  A    between atoms: C_9  and  C_10 
REMARK    9  A    between atoms: C_10  and  C_11 
REMARK   10  A    between atoms: C_11  and  C_12 
REMARK   11  A    between atoms: C_12  and  C_13 
REMARK   12  A    between atoms: C_13  and  C_14 
REMARK   13  A    between atoms: C_14  and  C_15 
REMARK   14  A    between atoms: C_15  and  C_16 
REMARK   15  A    between atoms: C_16  and  C_17 
REMARK   16  A    between atoms: C_17  and  C_18 
REMARK   17  A    between atoms: C_18  and  O_20 
REMARK   18  A    between atoms: O_20  and  C_21 
REMARK   19  A    between atoms: C_21  and  C_22 
REMARK   20  A    between atoms: C_22  and  O_23 
REMARK   21  A    between atoms: O_23  and  C_24 
REMARK   22  A    between atoms: C_24  and  C_25 
REMARK   23  A    between atoms: C_25  and  O_26 
REMARK   24  A    between atoms: O_26  and  C_27 
REMARK   25  A    between atoms: C_27  and  C_28 
REMARK   26  A    between atoms: C_28  and  O_29 
REMARK   27  A    between atoms: O_29  and  C_30 
REMARK   28  A    between atoms: C_30  and  C_31 
REMARK   29  A    between atoms: C_31  and  O_32 
REMARK   30  A    between atoms: O_32  and  C_33 
REMARK   31  A    between atoms: C_33  and  C_35 
REMARK   32  A    between atoms: C_35  and  C_36 
REMARK   33  A    between atoms: C_36  and  C_37 
REMARK   34  A    between atoms: C_37  and  C_38 
REMARK   35  A    between atoms: C_38  and  C_39 
REMARK   36  A    between atoms: C_39  and  C_40 
REMARK   37  A    between atoms: C_40  and  C_41 
REMARK   38  A    between atoms: C_41  and  C_42 
REMARK   39  A    between atoms: C_42  and  C_43 
REMARK   40  A    between atoms: C_43  and  C_44 
REMARK   41  A    between atoms: C_44  and  C_45 
REMARK   42  A    between atoms: C_45  and  C_46 
REMARK   43  A    between atoms: C_46  and  C_47 
REMARK   44  A    between atoms: C_47  and  C_48 
REMARK   45  A    between atoms: C_48  and  C_49 
REMARK   46  A    between atoms: C_49  and  C_50 
ROOT
HETATM    1  O   UNL     1     -22.385  -4.783 -10.413  1.00  0.00    -0.387 OA
ENDROOT
BRANCH   1   2
HETATM    2  C   UNL     1     -23.099  -4.252  -9.303  1.00  0.00     0.193 C 
BRANCH   2   3
HETATM    3  C   UNL     1     -22.108  -3.804  -8.243  1.00  0.00     0.193 C 
BRANCH   3   4
HETATM    4  O   UNL     1     -20.803  -4.272  -8.580  1.00  0.00    -0.387 OA
BRANCH   4   5
HETATM    5  C   UNL     1     -20.278  -5.086  -7.525  1.00  0.00     0.194 C 
BRANCH   5   6
HETATM    6  C   UNL     1     -20.725  -4.546  -6.177  1.00  0.00     0.205 C 
BRANCH   6   7
HETATM    7  O   UNL     1     -20.762  -5.606  -5.195  1.00  0.00    -0.319 OA
BRANCH   7   8
HETATM    8  C   UNL     1     -21.934  -6.317  -5.171  1.00  0.00     0.258 C 
HETATM    9  O   UNL     1     -23.037  -5.833  -5.348  1.00  0.00    -0.265 OA
BRANCH   8  10
HETATM   10  C   UNL     1     -21.694  -7.803  -4.954  1.00  0.00     0.111 C 
BRANCH  10  11
HETATM   11  C   UNL     1     -21.368  -8.101  -3.495  1.00  0.00     0.010 C 
BRANCH  11  12
HETATM   12  C   UNL     1     -20.243  -9.120  -3.360  1.00  0.00     0.000 C 
BRANCH  12  13
HETATM   13  C   UNL     1     -19.862  -9.295  -1.898  1.00  0.00     0.000 C 
BRANCH  13  14
HETATM   14  C   UNL     1     -20.559  -8.251  -1.044  1.00  0.00     0.000 C 
BRANCH  14  15
HETATM   15  C   UNL     1     -21.301  -8.922   0.098  1.00  0.00     0.000 C 
BRANCH  15  16
HETATM   16  C   UNL     1     -22.781  -8.600   0.013  1.00  0.00     0.000 C 
BRANCH  16  17
HETATM   17  C   UNL     1     -23.584  -9.881  -0.100  1.00  0.00     0.000 C 
BRANCH  17  18
HETATM   18  C   UNL     1     -22.694 -11.075   0.188  1.00  0.00     0.000 C 
BRANCH  18  19
HETATM   19  C   UNL     1     -22.743 -12.048  -0.975  1.00  0.00     0.000 C 
BRANCH  19  20
HETATM   20  C   UNL     1     -23.258 -11.344  -2.215  1.00  0.00     0.000 C 
BRANCH  20  21
HETATM   21  C   UNL     1     -22.581 -11.912  -3.449  1.00  0.00     0.000 C 
BRANCH  21  22
HETATM   22  C   UNL     1     -21.343 -12.688  -3.046  1.00  0.00     0.000 C 
BRANCH  22  23
HETATM   23  C   UNL     1     -20.697 -13.304  -4.274  1.00  0.00     0.000 C 
BRANCH  23  24
HETATM   24  C   UNL     1     -20.766 -12.334  -5.439  1.00  0.00    -0.000 C 
BRANCH  24  25
HETATM   25  C   UNL     1     -20.898 -13.093  -6.750  1.00  0.00    -0.005 C 
HETATM   26  C   UNL     1     -19.834 -12.634  -7.725  1.00  0.00     0.005 C 
ENDBRANCH  24  25
ENDBRANCH  23  24
ENDBRANCH  22  23
ENDBRANCH  21  22
ENDBRANCH  20  21
ENDBRANCH  19  20
ENDBRANCH  18  19
ENDBRANCH  17  18
ENDBRANCH  16  17
ENDBRANCH  15  16
ENDBRANCH  14  15
ENDBRANCH  13  14
ENDBRANCH  12  13
ENDBRANCH  11  12
ENDBRANCH  10  11
ENDBRANCH   8  10
ENDBRANCH   7   8
ENDBRANCH   6   7
ENDBRANCH   5   6
ENDBRANCH   4   5
ENDBRANCH   3   4
ENDBRANCH   2   3
ENDBRANCH   1   2
BRANCH   1  27
HETATM   27  C   UNL     1     -22.715  -4.064 -11.603  1.00  0.00     0.193 C 
BRANCH  27  28
HETATM   28  C   UNL     1     -24.057  -3.375 -11.428  1.00  0.00     0.193 C 
BRANCH  28  29
HETATM   29  O   UNL     1     -24.658  -3.157 -12.706  1.00  0.00    -0.387 OA
BRANCH  29  30
HETATM   30  C   UNL     1     -23.925  -3.838 -13.723  1.00  0.00     0.194 C 
BRANCH  30  31
HETATM   31  C   UNL     1     -24.608  -5.154 -14.052  1.00  0.00     0.205 C 
BRANCH  31  32
HETATM   32  O   UNL     1     -24.932  -5.216 -15.462  1.00  0.00    -0.319 OA
BRANCH  32  33
HETATM   33  C   UNL     1     -25.347  -6.446 -15.885  1.00  0.00     0.258 C 
HETATM   34  O   UNL     1     -25.259  -7.464 -15.190  1.00  0.00    -0.265 OA
BRANCH  33  35
HETATM   35  C   UNL     1     -25.995  -6.419 -17.251  1.00  0.00     0.111 C 
BRANCH  35  36
HETATM   36  C   UNL     1     -27.517  -6.357 -17.150  1.00  0.00     0.010 C 
BRANCH  36  37
HETATM   37  C   UNL     1     -28.181  -6.331 -18.521  1.00  0.00     0.000 C 
BRANCH  37  38
HETATM   38  C   UNL     1     -29.640  -6.749 -18.412  1.00  0.00     0.000 C 
BRANCH  38  39
HETATM   39  C   UNL     1     -30.172  -6.440 -17.022  1.00  0.00     0.000 C 
BRANCH  39  40
HETATM   40  C   UNL     1     -31.604  -5.942 -17.109  1.00  0.00     0.000 C 
BRANCH  40  41
HETATM   41  C   UNL     1     -31.677  -4.496 -16.653  1.00  0.00     0.000 C 
BRANCH  41  42
HETATM   42  C   UNL     1     -33.112  -4.010 -16.709  1.00  0.00     0.000 C 
BRANCH  42  43
HETATM   43  C   UNL     1     -33.927  -4.685 -15.622  1.00  0.00     0.000 C 
BRANCH  43  44
HETATM   44  C   UNL     1     -34.236  -3.694 -14.516  1.00  0.00     0.000 C 
BRANCH  44  45
HETATM   45  C   UNL     1     -34.202  -4.394 -13.172  1.00  0.00     0.000 C 
BRANCH  45  46
HETATM   46  C   UNL     1     -32.883  -4.113 -12.477  1.00  0.00     0.000 C 
BRANCH  46  47
HETATM   47  C   UNL     1     -33.107  -3.182 -11.300  1.00  0.00     0.000 C 
BRANCH  47  48
HETATM   48  C   UNL     1     -34.567  -3.217 -10.885  1.00  0.00     0.000 C 
BRANCH  48  49
HETATM   49  C   UNL     1     -35.083  -1.804 -10.682  1.00  0.00    -0.000 C 
BRANCH  49  50
HETATM   50  C   UNL     1     -34.803  -0.961 -11.916  1.00  0.00    -0.005 C 
HETATM   51  C   UNL     1     -36.024  -0.927 -12.812  1.00  0.00     0.005 C 
ENDBRANCH  49  50
ENDBRANCH  48  49
ENDBRANCH  47  48
ENDBRANCH  46  47
ENDBRANCH  45  46
ENDBRANCH  44  45
ENDBRANCH  43  44
ENDBRANCH  42  43
ENDBRANCH  41  42
ENDBRANCH  40  41
ENDBRANCH  39  40
ENDBRANCH  38  39
ENDBRANCH  37  38
ENDBRANCH  36  37
ENDBRANCH  35  36
ENDBRANCH  33  35
ENDBRANCH  32  33
ENDBRANCH  31  32
ENDBRANCH  30  31
ENDBRANCH  29  30
ENDBRANCH  28  29
ENDBRANCH  27  28
ENDBRANCH   1  27
TORSDOF 46
ENDMDL
MODEL 9
REMARK VINA RESULT:      -5.0      2.369      8.937
REMARK WARNING: 32 MAX_TORS EXCEEDED!!!
REMARK  46 active torsions:
REMARK  status: ('A' for Active; 'I' for Inactive)
REMARK    1  A    between atoms: C_2  and  C_3 
REMARK    2  A    between atoms: C_3  and  C_4 
REMARK    3  A    between atoms: C_4  and  C_5 
REMARK    4  A    between atoms: C_5  and  C_6 
REMARK    5  A    between atoms: C_6  and  C_7 
REMARK    6  A    between atoms: C_7  and  C_8 
REMARK    7  A    between atoms: C_8  and  C_9 
REMARK    8  A    between atoms: C_9  and  C_10 
REMARK    9  A    between atoms: C_10  and  C_11 
REMARK   10  A    between atoms: C_11  and  C_12 
REMARK   11  A    between atoms: C_12  and  C_13 
REMARK   12  A    between atoms: C_13  and  C_14 
REMARK   13  A    between atoms: C_14  and  C_15 
REMARK   14  A    between atoms: C_15  and  C_16 
REMARK   15  A    between atoms: C_16  and  C_17 
REMARK   16  A    between atoms: C_17  and  C_18 
REMARK   17  A    between atoms: C_18  and  O_20 
REMARK   18  A    between atoms: O_20  and  C_21 
REMARK   19  A    between atoms: C_21  and  C_22 
REMARK   20  A    between atoms: C_22  and  O_23 
REMARK   21  A    between atoms: O_23  and  C_24 
REMARK   22  A    between atoms: C_24  and  C_25 
REMARK   23  A    between atoms: C_25  and  O_26 
REMARK   24  A    between atoms: O_26  and  C_27 
REMARK   25  A    between atoms: C_27  and  C_28 
REMARK   26  A    between atoms: C_28  and  O_29 
REMARK   27  A    between atoms: O_29  and  C_30 
REMARK   28  A    between atoms: C_30  and  C_31 
REMARK   29  A    between atoms: C_31  and  O_32 
REMARK   30  A    between atoms: O_32  and  C_33 
REMARK   31  A    between atoms: C_33  and  C_35 
REMARK   32  A    between atoms: C_35  and  C_36 
REMARK   33  A    between atoms: C_36  and  C_37 
REMARK   34  A    between atoms: C_37  and  C_38 
REMARK   35  A    between atoms: C_38  and  C_39 
REMARK   36  A    between atoms: C_39  and  C_40 
REMARK   37  A    between atoms: C_40  and  C_41 
REMARK   38  A    between atoms: C_41  and  C_42 
REMARK   39  A    between atoms: C_42  and  C_43 
REMARK   40  A    between atoms: C_43  and  C_44 
REMARK   41  A    between atoms: C_44  and  C_45 
REMARK   42  A    between atoms: C_45  and  C_46 
REMARK   43  A    between atoms: C_46  and  C_47 
REMARK   44  A    between atoms: C_47  and  C_48 
REMARK   45  A    between atoms: C_48  and  C_49 
REMARK   46  A    between atoms: C_49  and  C_50 
ROOT
HETATM    1  O   UNL     1     -18.253 -13.728  -7.637  1.00  0.00    -0.387 OA
ENDROOT
BRANCH   1   2
HETATM    2  C   UNL     1     -18.767 -12.404  -7.729  1.00  0.00     0.193 C 
BRANCH   2   3
HETATM    3  C   UNL     1     -19.566 -12.093  -6.474  1.00  0.00     0.193 C 
BRANCH   3   4
HETATM    4  O   UNL     1     -20.153 -13.293  -5.972  1.00  0.00    -0.387 OA
BRANCH   4   5
HETATM    5  C   UNL     1     -21.525 -13.382  -6.371  1.00  0.00     0.194 C 
BRANCH   5   6
HETATM    6  C   UNL     1     -22.359 -12.370  -5.602  1.00  0.00     0.205 C 
BRANCH   6   7
HETATM    7  O   UNL     1     -22.269 -12.617  -4.181  1.00  0.00    -0.319 OA
BRANCH   7   8
HETATM    8  C   UNL     1     -22.645 -11.558  -3.396  1.00  0.00     0.258 C 
HETATM    9  O   UNL     1     -22.692 -10.402  -3.774  1.00  0.00    -0.265 OA
BRANCH   8  10
HETATM   10  C   UNL     1     -23.060 -12.002  -2.001  1.00  0.00     0.111 C 
BRANCH  10  11
HETATM   11  C   UNL     1     -23.465 -10.809  -1.143  1.00  0.00     0.010 C 
BRANCH  11  12
HETATM   12  C   UNL     1     -22.595 -10.680   0.101  1.00  0.00     0.000 C 
BRANCH  12  13
HETATM   13  C   UNL     1     -21.790  -9.390   0.052  1.00  0.00     0.000 C 
BRANCH  13  14
HETATM   14  C   UNL     1     -22.718  -8.190   0.110  1.00  0.00     0.000 C 
BRANCH  14  15
HETATM   15  C   UNL     1     -22.323  -7.173  -0.947  1.00  0.00     0.000 C 
BRANCH  15  16
HETATM   16  C   UNL     1     -21.024  -7.593  -1.608  1.00  0.00     0.000 C 
BRANCH  16  17
HETATM   17  C   UNL     1     -21.181  -7.573  -3.117  1.00  0.00     0.000 C 
BRANCH  17  18
HETATM   18  C   UNL     1     -21.201  -6.142  -3.615  1.00  0.00     0.000 C 
BRANCH  18  19
HETATM   19  C   UNL     1     -21.684  -6.103  -5.053  1.00  0.00     0.000 C 
BRANCH  19  20
HETATM   20  C   UNL     1     -20.559  -6.504  -5.987  1.00  0.00     0.000 C 
BRANCH  20  21
HETATM   21  C   UNL     1     -19.861  -5.264  -6.514  1.00  0.00     0.000 C 
BRANCH  21  22
HETATM   22  C   UNL     1     -20.880  -4.171  -6.774  1.00  0.00     0.000 C 
BRANCH  22  23
HETATM   23  C   UNL     1     -20.877  -3.801  -8.246  1.00  0.00     0.000 C 
BRANCH  23  24
HETATM   24  C   UNL     1     -22.075  -4.424  -8.940  1.00  0.00    -0.000 C 
BRANCH  24  25
HETATM   25  C   UNL     1     -21.902  -4.359 -10.449  1.00  0.00    -0.005 C 
HETATM   26  C   UNL     1     -20.451  -4.103 -10.795  1.00  0.00     0.005 C 
ENDBRANCH  24  25
ENDBRANCH  23  24
ENDBRANCH  22  23
ENDBRANCH  21  22
ENDBRANCH  20  21
ENDBRANCH  19  20
ENDBRANCH  18  19
ENDBRANCH  17  18
ENDBRANCH  16  17
ENDBRANCH  15  16
ENDBRANCH  14  15
ENDBRANCH  13  14
ENDBRANCH  12  13
ENDBRANCH  11  12
ENDBRANCH  10  11
ENDBRANCH   8  10
ENDBRANCH   7   8
ENDBRANCH   6   7
ENDBRANCH   5   6
ENDBRANCH   4   5
ENDBRANCH   3   4
ENDBRANCH   2   3
ENDBRANCH   1   2
BRANCH   1  27
HETATM   27  C   UNL     1     -16.910 -13.705  -7.149  1.00  0.00     0.193 C 
BRANCH  27  28
HETATM   28  C   UNL     1     -16.573 -15.044  -6.517  1.00  0.00     0.193 C 
BRANCH  28  29
HETATM   29  O   UNL     1     -17.738 -15.592  -5.896  1.00  0.00    -0.387 OA
BRANCH  29  30
HETATM   30  C   UNL     1     -17.591 -15.595  -4.477  1.00  0.00     0.194 C 
BRANCH  30  31
HETATM   31  C   UNL     1     -18.960 -15.552  -3.820  1.00  0.00     0.205 C 
BRANCH  31  32
HETATM   32  O   UNL     1     -18.830 -15.612  -2.379  1.00  0.00    -0.319 OA
BRANCH  32  33
HETATM   33  C   UNL     1     -19.721 -14.826  -1.706  1.00  0.00     0.258 C 
HETATM   34  O   UNL     1     -20.945 -14.911  -1.857  1.00  0.00    -0.265 OA
BRANCH  33  35
HETATM   35  C   UNL     1     -19.064 -13.904  -0.703  1.00  0.00     0.111 C 
BRANCH  35  36
HETATM   36  C   UNL     1     -19.614 -12.484  -0.800  1.00  0.00     0.010 C 
BRANCH  36  37
HETATM   37  C   UNL     1     -19.269 -11.827  -2.131  1.00  0.00     0.000 C 
BRANCH  37  38
HETATM   38  C   UNL     1     -18.713 -10.428  -1.905  1.00  0.00     0.000 C 
BRANCH  38  39
HETATM   39  C   UNL     1     -18.139  -9.877  -3.199  1.00  0.00     0.000 C 
BRANCH  39  40
HETATM   40  C   UNL     1     -16.663  -9.566  -3.025  1.00  0.00     0.000 C 
BRANCH  40  41
HETATM   41  C   UNL     1     -15.949  -9.683  -4.359  1.00  0.00     0.000 C 
BRANCH  41  42
HETATM   42  C   UNL     1     -15.817 -11.144  -4.747  1.00  0.00     0.000 C 
BRANCH  42  43
HETATM   43  C   UNL     1     -14.562 -11.730  -4.128  1.00  0.00     0.000 C 
BRANCH  43  44
HETATM   44  C   UNL     1     -14.841 -13.135  -3.628  1.00  0.00     0.000 C 
BRANCH  44  45
HETATM   45  C   UNL     1     -15.895 -13.096  -2.539  1.00  0.00     0.000 C 
BRANCH  45  46
HETATM   46  C   UNL     1     -15.227 -13.021  -1.179  1.00  0.00     0.000 C 
BRANCH  46  47
HETATM   47  C   UNL     1     -15.949 -12.012  -0.305  1.00  0.00     0.000 C 
BRANCH  47  48
HETATM   48  C   UNL     1     -15.483 -12.148   1.134  1.00  0.00     0.000 C 
BRANCH  48  49
HETATM   49  C   UNL     1     -14.716 -13.446   1.309  1.00  0.00    -0.000 C 
BRANCH  49  50
HETATM   50  C   UNL     1     -15.270 -14.229   2.489  1.00  0.00    -0.005 C 
HETATM   51  C   UNL     1     -16.700 -14.645   2.214  1.00  0.00     0.005 C 
ENDBRANCH  49  50
ENDBRANCH  48  49
ENDBRANCH  47  48
ENDBRANCH  46  47
ENDBRANCH  45  46
ENDBRANCH  44  45
ENDBRANCH  43  44
ENDBRANCH  42  43
ENDBRANCH  41  42
ENDBRANCH  40  41
ENDBRANCH  39  40
ENDBRANCH  38  39
ENDBRANCH  37  38
ENDBRANCH  36  37
ENDBRANCH  35  36
ENDBRANCH  33  35
ENDBRANCH  32  33
ENDBRANCH  31  32
ENDBRANCH  30  31
ENDBRANCH  29  30
ENDBRANCH  28  29
ENDBRANCH  27  28
ENDBRANCH   1  27
TORSDOF 46
ENDMDL
