MODEL 1
REMARK VINA RESULT:      -6.6      0.000      0.000
REMARK  15 active torsions:
REMARK  status: ('A' for Active; 'I' for Inactive)
REMARK    1  A    between atoms: C_2  and  C_3 
REMARK    2  A    between atoms: C_3  and  C_4 
REMARK    3  A    between atoms: C_4  and  C_5 
REMARK    4  A    between atoms: C_5  and  C_6 
REMARK    5  A    between atoms: C_6  and  C_7 
REMARK    6  A    between atoms: C_7  and  C_8 
REMARK    7  A    between atoms: C_8  and  C_9 
REMARK    8  A    between atoms: C_9  and  C_10 
REMARK    9  A    between atoms: C_10  and  C_11 
REMARK   10  A    between atoms: C_11  and  C_12 
REMARK   11  A    between atoms: C_12  and  C_13 
REMARK   12  A    between atoms: C_13  and  C_14 
REMARK   13  A    between atoms: C_14  and  C_15 
REMARK   14  A    between atoms: C_15  and  C_16 
REMARK   15  A    between atoms: C_16  and  O_18 
ROOT
HETATM    1  C   UNL     1     -22.208  -4.401  -7.415  1.00  0.00     0.000 C 
ENDROOT
BRANCH   1   2
HETATM    2  C   UNL     1     -21.016  -5.339  -7.487  1.00  0.00     0.000 C 
BRANCH   2   3
HETATM    3  C   UNL     1     -20.065  -5.061  -6.336  1.00  0.00     0.000 C 
BRANCH   3   4
HETATM    4  C   UNL     1     -20.726  -5.426  -5.019  1.00  0.00     0.000 C 
BRANCH   4   5
HETATM    5  C   UNL     1     -20.821  -6.936  -4.887  1.00  0.00     0.000 C 
BRANCH   5   6
HETATM    6  C   UNL     1     -21.150  -7.314  -3.453  1.00  0.00     0.000 C 
BRANCH   6   7
HETATM    7  C   UNL     1     -21.756  -6.125  -2.727  1.00  0.00     0.000 C 
BRANCH   7   8
HETATM    8  C   UNL     1     -22.264  -6.550  -1.359  1.00  0.00    -0.000 C 
BRANCH   8   9
HETATM    9  C   UNL     1     -21.923  -8.010  -1.088  1.00  0.00    -0.005 C 
HETATM   10  C   UNL     1     -22.119  -8.336   0.377  1.00  0.00     0.005 C 
ENDBRANCH   8   9
ENDBRANCH   7   8
ENDBRANCH   6   7
ENDBRANCH   5   6
ENDBRANCH   4   5
ENDBRANCH   3   4
ENDBRANCH   2   3
ENDBRANCH   1   2
BRANCH   1  11
HETATM   11  C   UNL     1     -22.390  -3.688  -8.745  1.00  0.00     0.000 C 
BRANCH  11  12
HETATM   12  C   UNL     1     -22.077  -4.629  -9.896  1.00  0.00     0.000 C 
BRANCH  12  13
HETATM   13  C   UNL     1     -21.147  -3.953 -10.898  1.00  0.00     0.001 C 
BRANCH  13  14
HETATM   14  C   UNL     1     -21.875  -2.817 -11.603  1.00  0.00     0.010 C 
BRANCH  14  15
HETATM   15  C   UNL     1     -22.745  -3.313 -12.755  1.00  0.00     0.110 C 
BRANCH  15  16
HETATM   16  C   UNL     1     -24.171  -2.829 -12.573  1.00  0.00     0.139 C 
HETATM   17  O   UNL     1     -24.888  -3.116 -11.632  1.00  0.00    -0.650 OA
BRANCH  16  18
HETATM   18  O   UNL     1     -24.589  -2.027 -13.574  1.00  0.00    -0.776 OA
HETATM   19  H   UNL     1     -24.865  -1.130 -13.296  1.00  0.00     0.167 HD
ENDBRANCH  16  18
ENDBRANCH  15  16
ENDBRANCH  14  15
ENDBRANCH  13  14
ENDBRANCH  12  13
ENDBRANCH  11  12
ENDBRANCH   1  11
TORSDOF 15
ENDMDL
MODEL 2
REMARK VINA RESULT:      -6.5      1.172      1.506
REMARK  15 active torsions:
REMARK  status: ('A' for Active; 'I' for Inactive)
REMARK    1  A    between atoms: C_2  and  C_3 
REMARK    2  A    between atoms: C_3  and  C_4 
REMARK    3  A    between atoms: C_4  and  C_5 
REMARK    4  A    between atoms: C_5  and  C_6 
REMARK    5  A    between atoms: C_6  and  C_7 
REMARK    6  A    between atoms: C_7  and  C_8 
REMARK    7  A    between atoms: C_8  and  C_9 
REMARK    8  A    between atoms: C_9  and  C_10 
REMARK    9  A    between atoms: C_10  and  C_11 
REMARK   10  A    between atoms: C_11  and  C_12 
REMARK   11  A    between atoms: C_12  and  C_13 
REMARK   12  A    between atoms: C_13  and  C_14 
REMARK   13  A    between atoms: C_14  and  C_15 
REMARK   14  A    between atoms: C_15  and  C_16 
REMARK   15  A    between atoms: C_16  and  O_18 
ROOT
HETATM    1  C   UNL     1     -20.803  -5.308  -8.040  1.00  0.00     0.000 C 
ENDROOT
BRANCH   1   2
HETATM    2  C   UNL     1     -20.196  -4.514  -6.896  1.00  0.00     0.000 C 
BRANCH   2   3
HETATM    3  C   UNL     1     -20.624  -5.107  -5.566  1.00  0.00     0.000 C 
BRANCH   3   4
HETATM    4  C   UNL     1     -21.039  -6.555  -5.754  1.00  0.00     0.000 C 
BRANCH   4   5
HETATM    5  C   UNL     1     -21.851  -7.022  -4.559  1.00  0.00     0.000 C 
BRANCH   5   6
HETATM    6  C   UNL     1     -21.424  -6.266  -3.312  1.00  0.00     0.000 C 
BRANCH   6   7
HETATM    7  C   UNL     1     -21.382  -7.208  -2.121  1.00  0.00     0.000 C 
BRANCH   7   8
HETATM    8  C   UNL     1     -22.351  -6.739  -1.048  1.00  0.00    -0.000 C 
BRANCH   8   9
HETATM    9  C   UNL     1     -22.761  -7.899  -0.149  1.00  0.00    -0.005 C 
HETATM   10  C   UNL     1     -21.742  -8.098   0.953  1.00  0.00     0.005 C 
ENDBRANCH   8   9
ENDBRANCH   7   8
ENDBRANCH   6   7
ENDBRANCH   5   6
ENDBRANCH   4   5
ENDBRANCH   3   4
ENDBRANCH   2   3
ENDBRANCH   1   2
BRANCH   1  11
HETATM   11  C   UNL     1     -21.841  -4.466  -8.763  1.00  0.00     0.000 C 
BRANCH  11  12
HETATM   12  C   UNL     1     -21.259  -3.900 -10.049  1.00  0.00     0.000 C 
BRANCH  12  13
HETATM   13  C   UNL     1     -22.146  -4.260 -11.236  1.00  0.00     0.001 C 
BRANCH  13  14
HETATM   14  C   UNL     1     -22.419  -3.022 -12.079  1.00  0.00     0.010 C 
BRANCH  14  15
HETATM   15  C   UNL     1     -23.639  -3.193 -12.981  1.00  0.00     0.110 C 
BRANCH  15  16
HETATM   16  C   UNL     1     -23.470  -2.367 -14.243  1.00  0.00     0.139 C 
HETATM   17  O   UNL     1     -22.662  -2.600 -15.122  1.00  0.00    -0.650 OA
BRANCH  16  18
HETATM   18  O   UNL     1     -24.319  -1.321 -14.308  1.00  0.00    -0.776 OA
HETATM   19  H   UNL     1     -25.022  -1.403 -14.984  1.00  0.00     0.167 HD
ENDBRANCH  16  18
ENDBRANCH  15  16
ENDBRANCH  14  15
ENDBRANCH  13  14
ENDBRANCH  12  13
ENDBRANCH  11  12
ENDBRANCH   1  11
TORSDOF 15
ENDMDL
MODEL 3
REMARK VINA RESULT:      -6.4     12.845     15.111
REMARK  15 active torsions:
REMARK  status: ('A' for Active; 'I' for Inactive)
REMARK    1  A    between atoms: C_2  and  C_3 
REMARK    2  A    between atoms: C_3  and  C_4 
REMARK    3  A    between atoms: C_4  and  C_5 
REMARK    4  A    between atoms: C_5  and  C_6 
REMARK    5  A    between atoms: C_6  and  C_7 
REMARK    6  A    between atoms: C_7  and  C_8 
REMARK    7  A    between atoms: C_8  and  C_9 
REMARK    8  A    between atoms: C_9  and  C_10 
REMARK    9  A    between atoms: C_10  and  C_11 
REMARK   10  A    between atoms: C_11  and  C_12 
REMARK   11  A    between atoms: C_12  and  C_13 
REMARK   12  A    between atoms: C_13  and  C_14 
REMARK   13  A    between atoms: C_14  and  C_15 
REMARK   14  A    between atoms: C_15  and  C_16 
REMARK   15  A    between atoms: C_16  and  O_18 
ROOT
HETATM    1  C   UNL     1     -33.929  -2.083 -11.338  1.00  0.00     0.000 C 
ENDROOT
BRANCH   1   2
HETATM    2  C   UNL     1     -34.859  -1.434 -10.328  1.00  0.00     0.000 C 
BRANCH   2   3
HETATM    3  C   UNL     1     -36.282  -1.916 -10.546  1.00  0.00     0.000 C 
BRANCH   3   4
HETATM    4  C   UNL     1     -37.259  -0.964  -9.880  1.00  0.00     0.000 C 
BRANCH   4   5
HETATM    5  C   UNL     1     -36.808   0.472 -10.089  1.00  0.00     0.000 C 
BRANCH   5   6
HETATM    6  C   UNL     1     -37.091   1.293  -8.843  1.00  0.00     0.000 C 
BRANCH   6   7
HETATM    7  C   UNL     1     -36.763   0.484  -7.600  1.00  0.00     0.000 C 
BRANCH   7   8
HETATM    8  C   UNL     1     -37.769   0.782  -6.500  1.00  0.00    -0.000 C 
BRANCH   8   9
HETATM    9  C   UNL     1     -37.112   0.683  -5.129  1.00  0.00    -0.005 C 
HETATM   10  C   UNL     1     -37.772  -0.402  -4.304  1.00  0.00     0.005 C 
ENDBRANCH   8   9
ENDBRANCH   7   8
ENDBRANCH   6   7
ENDBRANCH   5   6
ENDBRANCH   4   5
ENDBRANCH   3   4
ENDBRANCH   2   3
ENDBRANCH   1   2
BRANCH   1  11
HETATM   11  C   UNL     1     -33.532  -3.471 -10.863  1.00  0.00     0.000 C 
BRANCH  11  12
HETATM   12  C   UNL     1     -33.595  -4.461 -12.014  1.00  0.00     0.000 C 
BRANCH  12  13
HETATM   13  C   UNL     1     -34.530  -5.616 -11.669  1.00  0.00     0.001 C 
BRANCH  13  14
HETATM   14  C   UNL     1     -34.378  -5.992 -10.202  1.00  0.00     0.010 C 
BRANCH  14  15
HETATM   15  C   UNL     1     -35.006  -7.346  -9.883  1.00  0.00     0.110 C 
BRANCH  15  16
HETATM   16  C   UNL     1     -33.931  -8.417  -9.832  1.00  0.00     0.139 C 
HETATM   17  O   UNL     1     -34.004  -9.444  -9.184  1.00  0.00    -0.650 OA
BRANCH  16  18
HETATM   18  O   UNL     1     -32.855  -8.123 -10.591  1.00  0.00    -0.776 OA
HETATM   19  H   UNL     1     -32.195  -8.840 -10.665  1.00  0.00     0.167 HD
ENDBRANCH  16  18
ENDBRANCH  15  16
ENDBRANCH  14  15
ENDBRANCH  13  14
ENDBRANCH  12  13
ENDBRANCH  11  12
ENDBRANCH   1  11
TORSDOF 15
ENDMDL
MODEL 4
REMARK VINA RESULT:      -6.3      1.931      3.595
REMARK  15 active torsions:
REMARK  status: ('A' for Active; 'I' for Inactive)
REMARK    1  A    between atoms: C_2  and  C_3 
REMARK    2  A    between atoms: C_3  and  C_4 
REMARK    3  A    between atoms: C_4  and  C_5 
REMARK    4  A    between atoms: C_5  and  C_6 
REMARK    5  A    between atoms: C_6  and  C_7 
REMARK    6  A    between atoms: C_7  and  C_8 
REMARK    7  A    between atoms: C_8  and  C_9 
REMARK    8  A    between atoms: C_9  and  C_10 
REMARK    9  A    between atoms: C_10  and  C_11 
REMARK   10  A    between atoms: C_11  and  C_12 
REMARK   11  A    between atoms: C_12  and  C_13 
REMARK   12  A    between atoms: C_13  and  C_14 
REMARK   13  A    between atoms: C_14  and  C_15 
REMARK   14  A    between atoms: C_15  and  C_16 
REMARK   15  A    between atoms: C_16  and  O_18 
ROOT
HETATM    1  C   UNL     1     -20.617  -6.427  -5.521  1.00  0.00     0.000 C 
ENDROOT
BRANCH   1   2
HETATM    2  C   UNL     1     -21.809  -6.595  -4.595  1.00  0.00     0.000 C 
BRANCH   2   3
HETATM    3  C   UNL     1     -21.333  -6.848  -3.175  1.00  0.00     0.000 C 
BRANCH   3   4
HETATM    4  C   UNL     1     -22.248  -6.144  -2.189  1.00  0.00     0.000 C 
BRANCH   4   5
HETATM    5  C   UNL     1     -22.190  -6.840  -0.840  1.00  0.00     0.000 C 
BRANCH   5   6
HETATM    6  C   UNL     1     -21.475  -8.174  -0.973  1.00  0.00     0.000 C 
BRANCH   6   7
HETATM    7  C   UNL     1     -21.600  -8.963   0.320  1.00  0.00     0.000 C 
BRANCH   7   8
HETATM    8  C   UNL     1     -22.097 -10.370   0.029  1.00  0.00    -0.000 C 
BRANCH   8   9
HETATM    9  C   UNL     1     -23.610 -10.380  -0.151  1.00  0.00    -0.005 C 
HETATM   10  C   UNL     1     -24.008 -11.368  -1.227  1.00  0.00     0.005 C 
ENDBRANCH   8   9
ENDBRANCH   7   8
ENDBRANCH   6   7
ENDBRANCH   5   6
ENDBRANCH   4   5
ENDBRANCH   3   4
ENDBRANCH   2   3
ENDBRANCH   1   2
BRANCH   1  11
HETATM   11  C   UNL     1     -20.226  -4.961  -5.606  1.00  0.00     0.000 C 
BRANCH  11  12
HETATM   12  C   UNL     1     -20.096  -4.532  -7.058  1.00  0.00     0.000 C 
BRANCH  12  13
HETATM   13  C   UNL     1     -21.231  -5.122  -7.889  1.00  0.00     0.001 C 
BRANCH  13  14
HETATM   14  C   UNL     1     -22.426  -4.180  -7.887  1.00  0.00     0.010 C 
BRANCH  14  15
HETATM   15  C   UNL     1     -22.775  -3.684  -9.288  1.00  0.00     0.110 C 
BRANCH  15  16
HETATM   16  C   UNL     1     -24.261  -3.861  -9.545  1.00  0.00     0.139 C 
HETATM   17  O   UNL     1     -24.771  -4.867 -10.003  1.00  0.00    -0.650 OA
BRANCH  16  18
HETATM   18  O   UNL     1     -24.989  -2.776  -9.212  1.00  0.00    -0.776 OA
HETATM   19  H   UNL     1     -25.943  -2.842  -9.415  1.00  0.00     0.167 HD
ENDBRANCH  16  18
ENDBRANCH  15  16
ENDBRANCH  14  15
ENDBRANCH  13  14
ENDBRANCH  12  13
ENDBRANCH  11  12
ENDBRANCH   1  11
TORSDOF 15
ENDMDL
MODEL 5
REMARK VINA RESULT:      -6.3      1.574      2.608
REMARK  15 active torsions:
REMARK  status: ('A' for Active; 'I' for Inactive)
REMARK    1  A    between atoms: C_2  and  C_3 
REMARK    2  A    between atoms: C_3  and  C_4 
REMARK    3  A    between atoms: C_4  and  C_5 
REMARK    4  A    between atoms: C_5  and  C_6 
REMARK    5  A    between atoms: C_6  and  C_7 
REMARK    6  A    between atoms: C_7  and  C_8 
REMARK    7  A    between atoms: C_8  and  C_9 
REMARK    8  A    between atoms: C_9  and  C_10 
REMARK    9  A    between atoms: C_10  and  C_11 
REMARK   10  A    between atoms: C_11  and  C_12 
REMARK   11  A    between atoms: C_12  and  C_13 
REMARK   12  A    between atoms: C_13  and  C_14 
REMARK   13  A    between atoms: C_14  and  C_15 
REMARK   14  A    between atoms: C_15  and  C_16 
REMARK   15  A    between atoms: C_16  and  O_18 
ROOT
HETATM    1  C   UNL     1     -20.702  -5.754  -6.848  1.00  0.00     0.000 C 
ENDROOT
BRANCH   1   2
HETATM    2  C   UNL     1     -20.847  -5.557  -5.349  1.00  0.00     0.000 C 
BRANCH   2   3
HETATM    3  C   UNL     1     -21.678  -6.681  -4.755  1.00  0.00     0.000 C 
BRANCH   3   4
HETATM    4  C   UNL     1     -21.240  -6.949  -3.326  1.00  0.00     0.000 C 
BRANCH   4   5
HETATM    5  C   UNL     1     -21.963  -6.010  -2.377  1.00  0.00     0.000 C 
BRANCH   5   6
HETATM    6  C   UNL     1     -22.298  -6.733  -1.084  1.00  0.00     0.000 C 
BRANCH   6   7
HETATM    7  C   UNL     1     -21.438  -7.977  -0.944  1.00  0.00     0.000 C 
BRANCH   7   8
HETATM    8  C   UNL     1     -21.747  -8.684   0.365  1.00  0.00    -0.000 C 
BRANCH   8   9
HETATM    9  C   UNL     1     -23.235  -8.995   0.470  1.00  0.00    -0.005 C 
HETATM   10  C   UNL     1     -23.563 -10.267  -0.284  1.00  0.00     0.005 C 
ENDBRANCH   8   9
ENDBRANCH   7   8
ENDBRANCH   6   7
ENDBRANCH   5   6
ENDBRANCH   4   5
ENDBRANCH   3   4
ENDBRANCH   2   3
ENDBRANCH   1   2
BRANCH   1  11
HETATM   11  C   UNL     1     -19.683  -4.774  -7.405  1.00  0.00     0.000 C 
BRANCH  11  12
HETATM   12  C   UNL     1     -20.023  -4.420  -8.844  1.00  0.00     0.000 C 
BRANCH  12  13
HETATM   13  C   UNL     1     -21.446  -4.858  -9.177  1.00  0.00     0.001 C 
BRANCH  13  14
HETATM   14  C   UNL     1     -22.327  -3.639  -9.410  1.00  0.00     0.010 C 
BRANCH  14  15
HETATM   15  C   UNL     1     -23.776  -3.885  -8.997  1.00  0.00     0.110 C 
BRANCH  15  16
HETATM   16  C   UNL     1     -24.716  -3.312 -10.041  1.00  0.00     0.139 C 
HETATM   17  O   UNL     1     -25.930  -3.297  -9.950  1.00  0.00    -0.650 OA
BRANCH  16  18
HETATM   18  O   UNL     1     -24.072  -2.804 -11.112  1.00  0.00    -0.776 OA
HETATM   19  H   UNL     1     -24.631  -2.280 -11.719  1.00  0.00     0.167 HD
ENDBRANCH  16  18
ENDBRANCH  15  16
ENDBRANCH  14  15
ENDBRANCH  13  14
ENDBRANCH  12  13
ENDBRANCH  11  12
ENDBRANCH   1  11
TORSDOF 15
ENDMDL
MODEL 6
REMARK VINA RESULT:      -6.0     12.774     15.914
REMARK  15 active torsions:
REMARK  status: ('A' for Active; 'I' for Inactive)
REMARK    1  A    between atoms: C_2  and  C_3 
REMARK    2  A    between atoms: C_3  and  C_4 
REMARK    3  A    between atoms: C_4  and  C_5 
REMARK    4  A    between atoms: C_5  and  C_6 
REMARK    5  A    between atoms: C_6  and  C_7 
REMARK    6  A    between atoms: C_7  and  C_8 
REMARK    7  A    between atoms: C_8  and  C_9 
REMARK    8  A    between atoms: C_9  and  C_10 
REMARK    9  A    between atoms: C_10  and  C_11 
REMARK   10  A    between atoms: C_11  and  C_12 
REMARK   11  A    between atoms: C_12  and  C_13 
REMARK   12  A    between atoms: C_13  and  C_14 
REMARK   13  A    between atoms: C_14  and  C_15 
REMARK   14  A    between atoms: C_15  and  C_16 
REMARK   15  A    between atoms: C_16  and  O_18 
ROOT
HETATM    1  C   UNL     1     -34.244  -2.305 -11.561  1.00  0.00     0.000 C 
ENDROOT
BRANCH   1   2
HETATM    2  C   UNL     1     -34.892  -1.880 -10.254  1.00  0.00     0.000 C 
BRANCH   2   3
HETATM    3  C   UNL     1     -36.399  -2.048 -10.342  1.00  0.00     0.000 C 
BRANCH   3   4
HETATM    4  C   UNL     1     -37.088  -0.762  -9.925  1.00  0.00     0.000 C 
BRANCH   4   5
HETATM    5  C   UNL     1     -36.961   0.276 -11.026  1.00  0.00     0.000 C 
BRANCH   5   6
HETATM    6  C   UNL     1     -37.727  -0.176 -12.258  1.00  0.00     0.000 C 
BRANCH   6   7
HETATM    7  C   UNL     1     -36.858  -0.026 -13.495  1.00  0.00     0.000 C 
BRANCH   7   8
HETATM    8  C   UNL     1     -35.467   0.447 -13.106  1.00  0.00    -0.000 C 
BRANCH   8   9
HETATM    9  C   UNL     1     -34.805   1.183 -14.264  1.00  0.00    -0.005 C 
HETATM   10  C   UNL     1     -35.661   1.086 -15.509  1.00  0.00     0.005 C 
ENDBRANCH   8   9
ENDBRANCH   7   8
ENDBRANCH   6   7
ENDBRANCH   5   6
ENDBRANCH   4   5
ENDBRANCH   3   4
ENDBRANCH   2   3
ENDBRANCH   1   2
BRANCH   1  11
HETATM   11  C   UNL     1     -32.899  -2.956 -11.286  1.00  0.00     0.000 C 
BRANCH  11  12
HETATM   12  C   UNL     1     -32.850  -4.345 -11.901  1.00  0.00     0.000 C 
BRANCH  12  13
HETATM   13  C   UNL     1     -34.201  -4.703 -12.512  1.00  0.00     0.001 C 
BRANCH  13  14
HETATM   14  C   UNL     1     -34.803  -5.898 -11.786  1.00  0.00     0.010 C 
BRANCH  14  15
HETATM   15  C   UNL     1     -33.960  -6.333 -10.590  1.00  0.00     0.110 C 
BRANCH  15  16
HETATM   16  C   UNL     1     -34.336  -7.744 -10.177  1.00  0.00     0.139 C 
HETATM   17  O   UNL     1     -35.386  -8.055  -9.644  1.00  0.00    -0.650 OA
BRANCH  16  18
HETATM   18  O   UNL     1     -33.379  -8.652 -10.459  1.00  0.00    -0.776 OA
HETATM   19  H   UNL     1     -33.700  -9.570 -10.563  1.00  0.00     0.167 HD
ENDBRANCH  16  18
ENDBRANCH  15  16
ENDBRANCH  14  15
ENDBRANCH  13  14
ENDBRANCH  12  13
ENDBRANCH  11  12
ENDBRANCH   1  11
TORSDOF 15
ENDMDL
MODEL 7
REMARK VINA RESULT:      -6.0      4.005      8.831
REMARK  15 active torsions:
REMARK  status: ('A' for Active; 'I' for Inactive)
REMARK    1  A    between atoms: C_2  and  C_3 
REMARK    2  A    between atoms: C_3  and  C_4 
REMARK    3  A    between atoms: C_4  and  C_5 
REMARK    4  A    between atoms: C_5  and  C_6 
REMARK    5  A    between atoms: C_6  and  C_7 
REMARK    6  A    between atoms: C_7  and  C_8 
REMARK    7  A    between atoms: C_8  and  C_9 
REMARK    8  A    between atoms: C_9  and  C_10 
REMARK    9  A    between atoms: C_10  and  C_11 
REMARK   10  A    between atoms: C_11  and  C_12 
REMARK   11  A    between atoms: C_12  and  C_13 
REMARK   12  A    between atoms: C_13  and  C_14 
REMARK   13  A    between atoms: C_14  and  C_15 
REMARK   14  A    between atoms: C_15  and  C_16 
REMARK   15  A    between atoms: C_16  and  O_18 
ROOT
HETATM    1  C   UNL     1     -20.440  -5.740  -5.970  1.00  0.00     0.000 C 
ENDROOT
BRANCH   1   2
HETATM    2  C   UNL     1     -21.446  -5.363  -7.044  1.00  0.00     0.000 C 
BRANCH   2   3
HETATM    3  C   UNL     1     -21.188  -3.946  -7.525  1.00  0.00     0.000 C 
BRANCH   3   4
HETATM    4  C   UNL     1     -20.061  -3.943  -8.542  1.00  0.00     0.000 C 
BRANCH   4   5
HETATM    5  C   UNL     1     -20.545  -4.533  -9.855  1.00  0.00     0.000 C 
BRANCH   5   6
HETATM    6  C   UNL     1     -20.534  -3.470 -10.940  1.00  0.00     0.000 C 
BRANCH   6   7
HETATM    7  C   UNL     1     -21.803  -3.559 -11.769  1.00  0.00     0.000 C 
BRANCH   7   8
HETATM    8  C   UNL     1     -22.816  -4.460 -11.083  1.00  0.00    -0.000 C 
BRANCH   8   9
HETATM    9  C   UNL     1     -24.145  -3.737 -10.903  1.00  0.00    -0.005 C 
HETATM   10  C   UNL     1     -24.395  -3.447  -9.438  1.00  0.00     0.005 C 
ENDBRANCH   8   9
ENDBRANCH   7   8
ENDBRANCH   6   7
ENDBRANCH   5   6
ENDBRANCH   4   5
ENDBRANCH   3   4
ENDBRANCH   2   3
ENDBRANCH   1   2
BRANCH   1  11
HETATM   11  C   UNL     1     -21.007  -6.841  -5.090  1.00  0.00     0.000 C 
BRANCH  11  12
HETATM   12  C   UNL     1     -20.074  -8.041  -5.078  1.00  0.00     0.000 C 
BRANCH  12  13
HETATM   13  C   UNL     1     -19.995  -8.638  -3.676  1.00  0.00     0.001 C 
BRANCH  13  14
HETATM   14  C   UNL     1     -21.270  -8.331  -2.904  1.00  0.00     0.010 C 
BRANCH  14  15
HETATM   15  C   UNL     1     -21.002  -7.509  -1.647  1.00  0.00     0.110 C 
BRANCH  15  16
HETATM   16  C   UNL     1     -22.281  -6.832  -1.187  1.00  0.00     0.139 C 
HETATM   17  O   UNL     1     -23.013  -7.254  -0.311  1.00  0.00    -0.650 OA
BRANCH  16  18
HETATM   18  O   UNL     1     -22.543  -5.689  -1.852  1.00  0.00    -0.776 OA
HETATM   19  H   UNL     1     -23.456  -5.353  -1.752  1.00  0.00     0.167 HD
ENDBRANCH  16  18
ENDBRANCH  15  16
ENDBRANCH  14  15
ENDBRANCH  13  14
ENDBRANCH  12  13
ENDBRANCH  11  12
ENDBRANCH   1  11
TORSDOF 15
ENDMDL
MODEL 8
REMARK VINA RESULT:      -5.9      4.960      9.720
REMARK  15 active torsions:
REMARK  status: ('A' for Active; 'I' for Inactive)
REMARK    1  A    between atoms: C_2  and  C_3 
REMARK    2  A    between atoms: C_3  and  C_4 
REMARK    3  A    between atoms: C_4  and  C_5 
REMARK    4  A    between atoms: C_5  and  C_6 
REMARK    5  A    between atoms: C_6  and  C_7 
REMARK    6  A    between atoms: C_7  and  C_8 
REMARK    7  A    between atoms: C_8  and  C_9 
REMARK    8  A    between atoms: C_9  and  C_10 
REMARK    9  A    between atoms: C_10  and  C_11 
REMARK   10  A    between atoms: C_11  and  C_12 
REMARK   11  A    between atoms: C_12  and  C_13 
REMARK   12  A    between atoms: C_13  and  C_14 
REMARK   13  A    between atoms: C_14  and  C_15 
REMARK   14  A    between atoms: C_15  and  C_16 
REMARK   15  A    between atoms: C_16  and  O_18 
ROOT
HETATM    1  C   UNL     1     -21.853  -6.314  -5.315  1.00  0.00     0.000 C 
ENDROOT
BRANCH   1   2
HETATM    2  C   UNL     1     -20.589  -5.484  -5.459  1.00  0.00     0.000 C 
BRANCH   2   3
HETATM    3  C   UNL     1     -20.341  -5.164  -6.923  1.00  0.00     0.000 C 
BRANCH   3   4
HETATM    4  C   UNL     1     -20.883  -3.784  -7.250  1.00  0.00     0.000 C 
BRANCH   4   5
HETATM    5  C   UNL     1     -22.123  -3.906  -8.117  1.00  0.00     0.000 C 
BRANCH   5   6
HETATM    6  C   UNL     1     -21.771  -4.562  -9.441  1.00  0.00     0.000 C 
BRANCH   6   7
HETATM    7  C   UNL     1     -20.528  -3.916 -10.028  1.00  0.00     0.000 C 
BRANCH   7   8
HETATM    8  C   UNL     1     -20.840  -3.322 -11.392  1.00  0.00    -0.000 C 
BRANCH   8   9
HETATM    9  C   UNL     1     -22.205  -3.789 -11.882  1.00  0.00    -0.005 C 
HETATM   10  C   UNL     1     -23.061  -2.603 -12.271  1.00  0.00     0.005 C 
ENDBRANCH   8   9
ENDBRANCH   7   8
ENDBRANCH   6   7
ENDBRANCH   5   6
ENDBRANCH   4   5
ENDBRANCH   3   4
ENDBRANCH   2   3
ENDBRANCH   1   2
BRANCH   1  11
HETATM   11  C   UNL     1     -21.700  -7.300  -4.170  1.00  0.00     0.000 C 
BRANCH  11  12
HETATM   12  C   UNL     1     -21.138  -6.601  -2.943  1.00  0.00     0.000 C 
BRANCH  12  13
HETATM   13  C   UNL     1     -22.250  -6.315  -1.938  1.00  0.00     0.001 C 
BRANCH  13  14
HETATM   14  C   UNL     1     -21.979  -7.051  -0.634  1.00  0.00     0.010 C 
BRANCH  14  15
HETATM   15  C   UNL     1     -22.107  -8.565  -0.787  1.00  0.00     0.110 C 
BRANCH  15  16
HETATM   16  C   UNL     1     -23.292  -9.068   0.016  1.00  0.00     0.139 C 
HETATM   17  O   UNL     1     -23.783 -10.177  -0.091  1.00  0.00    -0.650 OA
BRANCH  16  18
HETATM   18  O   UNL     1     -23.768  -8.155   0.886  1.00  0.00    -0.776 OA
HETATM   19  H   UNL     1     -23.086  -7.606   1.323  1.00  0.00     0.167 HD
ENDBRANCH  16  18
ENDBRANCH  15  16
ENDBRANCH  14  15
ENDBRANCH  13  14
ENDBRANCH  12  13
ENDBRANCH  11  12
ENDBRANCH   1  11
TORSDOF 15
ENDMDL
MODEL 9
REMARK VINA RESULT:      -5.8      2.263      4.542
REMARK  15 active torsions:
REMARK  status: ('A' for Active; 'I' for Inactive)
REMARK    1  A    between atoms: C_2  and  C_3 
REMARK    2  A    between atoms: C_3  and  C_4 
REMARK    3  A    between atoms: C_4  and  C_5 
REMARK    4  A    between atoms: C_5  and  C_6 
REMARK    5  A    between atoms: C_6  and  C_7 
REMARK    6  A    between atoms: C_7  and  C_8 
REMARK    7  A    between atoms: C_8  and  C_9 
REMARK    8  A    between atoms: C_9  and  C_10 
REMARK    9  A    between atoms: C_10  and  C_11 
REMARK   10  A    between atoms: C_11  and  C_12 
REMARK   11  A    between atoms: C_12  and  C_13 
REMARK   12  A    between atoms: C_13  and  C_14 
REMARK   13  A    between atoms: C_14  and  C_15 
REMARK   14  A    between atoms: C_15  and  C_16 
REMARK   15  A    between atoms: C_16  and  O_18 
ROOT
HETATM    1  C   UNL     1     -21.297  -6.110  -3.987  1.00  0.00     0.000 C 
ENDROOT
BRANCH   1   2
HETATM    2  C   UNL     1     -22.384  -6.484  -2.995  1.00  0.00     0.000 C 
BRANCH   2   3
HETATM    3  C   UNL     1     -21.926  -6.173  -1.580  1.00  0.00     0.000 C 
BRANCH   3   4
HETATM    4  C   UNL     1     -22.468  -7.216  -0.619  1.00  0.00     0.000 C 
BRANCH   4   5
HETATM    5  C   UNL     1     -21.370  -8.194  -0.242  1.00  0.00     0.000 C 
BRANCH   5   6
HETATM    6  C   UNL     1     -21.738  -9.593  -0.704  1.00  0.00     0.000 C 
BRANCH   6   7
HETATM    7  C   UNL     1     -21.170  -9.851  -2.089  1.00  0.00     0.000 C 
BRANCH   7   8
HETATM    8  C   UNL     1     -19.708  -9.436  -2.141  1.00  0.00    -0.000 C 
BRANCH   8   9
HETATM    9  C   UNL     1     -19.297  -9.093  -3.568  1.00  0.00    -0.005 C 
HETATM   10  C   UNL     1     -20.268  -9.701  -4.558  1.00  0.00     0.005 C 
ENDBRANCH   8   9
ENDBRANCH   7   8
ENDBRANCH   6   7
ENDBRANCH   5   6
ENDBRANCH   4   5
ENDBRANCH   3   4
ENDBRANCH   2   3
ENDBRANCH   1   2
BRANCH   1  11
HETATM   11  C   UNL     1     -21.741  -6.453  -5.399  1.00  0.00     0.000 C 
BRANCH  11  12
HETATM   12  C   UNL     1     -20.627  -6.156  -6.390  1.00  0.00     0.000 C 
BRANCH  12  13
HETATM   13  C   UNL     1     -20.149  -4.716  -6.235  1.00  0.00     0.001 C 
BRANCH  13  14
HETATM   14  C   UNL     1     -21.078  -3.773  -6.986  1.00  0.00     0.010 C 
BRANCH  14  15
HETATM   15  C   UNL     1     -21.463  -4.313  -8.361  1.00  0.00     0.110 C 
BRANCH  15  16
HETATM   16  C   UNL     1     -22.904  -3.953  -8.674  1.00  0.00     0.139 C 
HETATM   17  O   UNL     1     -23.287  -3.472  -9.724  1.00  0.00    -0.650 OA
BRANCH  16  18
HETATM   18  O   UNL     1     -23.749  -4.220  -7.657  1.00  0.00    -0.776 OA
HETATM   19  H   UNL     1     -23.568  -3.730  -6.830  1.00  0.00     0.167 HD
ENDBRANCH  16  18
ENDBRANCH  15  16
ENDBRANCH  14  15
ENDBRANCH  13  14
ENDBRANCH  12  13
ENDBRANCH  11  12
ENDBRANCH   1  11
TORSDOF 15
ENDMDL
