MODEL 1
REMARK VINA RESULT:      -4.0      0.000      0.000
REMARK  2 active torsions:
REMARK  status: ('A' for Active; 'I' for Inactive)
REMARK    1  A    between atoms: N_2  and  C_5 
REMARK    2  A    between atoms: C_5  and  C_6 
ROOT
HETATM    1  C   UNL     1     -23.490  -5.015 -11.600  1.00  0.00     0.272 C 
HETATM    2  N   UNL     1     -23.233  -3.742 -10.847  1.00  0.00    -0.069 N 
HETATM    3  C   UNL     1     -24.441  -3.343 -10.017  1.00  0.00     0.272 C 
HETATM    4  C   UNL     1     -22.019  -3.873  -9.942  1.00  0.00     0.272 C 
ENDROOT
BRANCH   2   5
HETATM    5  C   UNL     1     -22.948  -2.580 -11.884  1.00  0.00     0.348 C 
BRANCH   5   6
HETATM    6  C   UNL     1     -23.580  -2.726 -13.295  1.00  0.00     0.199 C 
HETATM    7  O   UNL     1     -22.742  -2.911 -14.219  1.00  0.00    -0.647 OA
HETATM    8  O   UNL     1     -24.823  -2.514 -13.328  1.00  0.00    -0.647 OA
ENDBRANCH   5   6
ENDBRANCH   2   5
TORSDOF 2
ENDMDL
MODEL 2
REMARK VINA RESULT:      -3.9     15.076     16.003
REMARK  2 active torsions:
REMARK  status: ('A' for Active; 'I' for Inactive)
REMARK    1  A    between atoms: N_2  and  C_5 
REMARK    2  A    between atoms: C_5  and  C_6 
ROOT
HETATM    1  C   UNL     1     -29.040 -14.548 -21.629  1.00  0.00     0.272 C 
HETATM    2  N   UNL     1     -29.859 -15.699 -21.122  1.00  0.00    -0.069 N 
HETATM    3  C   UNL     1     -31.300 -15.597 -21.592  1.00  0.00     0.272 C 
HETATM    4  C   UNL     1     -29.275 -17.029 -21.568  1.00  0.00     0.272 C 
ENDROOT
BRANCH   2   5
HETATM    5  C   UNL     1     -29.859 -15.672 -19.538  1.00  0.00     0.348 C 
BRANCH   5   6
HETATM    6  C   UNL     1     -29.604 -14.299 -18.859  1.00  0.00     0.199 C 
HETATM    7  O   UNL     1     -28.544 -14.250 -18.177  1.00  0.00    -0.647 OA
HETATM    8  O   UNL     1     -30.553 -13.477 -18.984  1.00  0.00    -0.647 OA
ENDBRANCH   5   6
ENDBRANCH   2   5
TORSDOF 2
ENDMDL
MODEL 3
REMARK VINA RESULT:      -3.8      0.755      2.163
REMARK  2 active torsions:
REMARK  status: ('A' for Active; 'I' for Inactive)
REMARK    1  A    between atoms: N_2  and  C_5 
REMARK    2  A    between atoms: C_5  and  C_6 
ROOT
HETATM    1  C   UNL     1     -22.706  -3.641  -9.573  1.00  0.00     0.272 C 
HETATM    2  N   UNL     1     -22.550  -3.878 -11.048  1.00  0.00    -0.069 N 
HETATM    3  C   UNL     1     -21.129  -4.291 -11.389  1.00  0.00     0.272 C 
HETATM    4  C   UNL     1     -23.518  -4.941 -11.540  1.00  0.00     0.272 C 
ENDROOT
BRANCH   2   5
HETATM    5  C   UNL     1     -22.867  -2.532 -11.820  1.00  0.00     0.348 C 
BRANCH   5   6
HETATM    6  C   UNL     1     -23.518  -2.663 -13.223  1.00  0.00     0.199 C 
HETATM    7  O   UNL     1     -24.780  -2.637 -13.211  1.00  0.00    -0.647 OA
HETATM    8  O   UNL     1     -22.699  -2.902 -14.152  1.00  0.00    -0.647 OA
ENDBRANCH   5   6
ENDBRANCH   2   5
TORSDOF 2
ENDMDL
MODEL 4
REMARK VINA RESULT:      -3.7      2.377      3.427
REMARK  2 active torsions:
REMARK  status: ('A' for Active; 'I' for Inactive)
REMARK    1  A    between atoms: N_2  and  C_5 
REMARK    2  A    between atoms: C_5  and  C_6 
ROOT
HETATM    1  C   UNL     1     -21.314  -4.159 -11.374  1.00  0.00     0.272 C 
HETATM    2  N   UNL     1     -22.734  -3.803 -11.707  1.00  0.00    -0.069 N 
HETATM    3  C   UNL     1     -22.816  -3.049 -13.023  1.00  0.00     0.272 C 
HETATM    4  C   UNL     1     -23.611  -5.042 -11.778  1.00  0.00     0.272 C 
ENDROOT
BRANCH   2   5
HETATM    5  C   UNL     1     -23.307  -2.863 -10.569  1.00  0.00     0.348 C 
BRANCH   5   6
HETATM    6  C   UNL     1     -24.383  -3.472  -9.629  1.00  0.00     0.199 C 
HETATM    7  O   UNL     1     -25.567  -3.150  -9.922  1.00  0.00    -0.647 OA
HETATM    8  O   UNL     1     -23.910  -4.095  -8.639  1.00  0.00    -0.647 OA
ENDBRANCH   5   6
ENDBRANCH   2   5
TORSDOF 2
ENDMDL
MODEL 5
REMARK VINA RESULT:      -3.6      7.837      8.768
REMARK  2 active torsions:
REMARK  status: ('A' for Active; 'I' for Inactive)
REMARK    1  A    between atoms: N_2  and  C_5 
REMARK    2  A    between atoms: C_5  and  C_6 
ROOT
HETATM    1  C   UNL     1     -28.185  -6.258 -18.528  1.00  0.00     0.272 C 
HETATM    2  N   UNL     1     -29.376  -6.921 -17.899  1.00  0.00    -0.069 N 
HETATM    3  C   UNL     1     -30.477  -5.914 -17.615  1.00  0.00     0.272 C 
HETATM    4  C   UNL     1     -29.920  -8.031 -18.783  1.00  0.00     0.272 C 
ENDROOT
BRANCH   2   5
HETATM    5  C   UNL     1     -28.936  -7.565 -16.520  1.00  0.00     0.348 C 
BRANCH   5   6
HETATM    6  C   UNL     1     -27.894  -6.780 -15.678  1.00  0.00     0.199 C 
HETATM    7  O   UNL     1     -26.816  -7.404 -15.479  1.00  0.00    -0.647 OA
HETATM    8  O   UNL     1     -28.323  -5.689 -15.211  1.00  0.00    -0.647 OA
ENDBRANCH   5   6
ENDBRANCH   2   5
TORSDOF 2
ENDMDL
MODEL 6
REMARK VINA RESULT:      -3.6      2.457      3.236
REMARK  2 active torsions:
REMARK  status: ('A' for Active; 'I' for Inactive)
REMARK    1  A    between atoms: N_2  and  C_5 
REMARK    2  A    between atoms: C_5  and  C_6 
ROOT
HETATM    1  C   UNL     1     -23.480  -5.085 -11.607  1.00  0.00     0.272 C 
HETATM    2  N   UNL     1     -23.622  -3.611 -11.364  1.00  0.00    -0.069 N 
HETATM    3  C   UNL     1     -24.340  -2.932 -12.518  1.00  0.00     0.272 C 
HETATM    4  C   UNL     1     -24.368  -3.334 -10.070  1.00  0.00     0.272 C 
ENDROOT
BRANCH   2   5
HETATM    5  C   UNL     1     -22.178  -2.970 -11.243  1.00  0.00     0.348 C 
BRANCH   5   6
HETATM    6  C   UNL     1     -21.063  -3.860 -10.632  1.00  0.00     0.199 C 
HETATM    7  O   UNL     1     -21.154  -4.017  -9.384  1.00  0.00    -0.647 OA
HETATM    8  O   UNL     1     -20.160  -4.191 -11.449  1.00  0.00    -0.647 OA
ENDBRANCH   5   6
ENDBRANCH   2   5
TORSDOF 2
ENDMDL
MODEL 7
REMARK VINA RESULT:      -3.5      3.441      4.361
REMARK  2 active torsions:
REMARK  status: ('A' for Active; 'I' for Inactive)
REMARK    1  A    between atoms: N_2  and  C_5 
REMARK    2  A    between atoms: C_5  and  C_6 
ROOT
HETATM    1  C   UNL     1     -23.731  -5.227 -10.578  1.00  0.00     0.272 C 
HETATM    2  N   UNL     1     -23.622  -3.755 -10.305  1.00  0.00    -0.069 N 
HETATM    3  C   UNL     1     -23.290  -2.986 -11.571  1.00  0.00     0.272 C 
HETATM    4  C   UNL     1     -24.907  -3.210  -9.704  1.00  0.00     0.272 C 
ENDROOT
BRANCH   2   5
HETATM    5  C   UNL     1     -22.454  -3.512  -9.264  1.00  0.00     0.348 C 
BRANCH   5   6
HETATM    6  C   UNL     1     -22.302  -4.552  -8.121  1.00  0.00     0.199 C 
HETATM    7  O   UNL     1     -23.156  -4.435  -7.200  1.00  0.00    -0.647 OA
HETATM    8  O   UNL     1     -21.275  -5.279  -8.217  1.00  0.00    -0.647 OA
ENDBRANCH   5   6
ENDBRANCH   2   5
TORSDOF 2
ENDMDL
MODEL 8
REMARK VINA RESULT:      -3.4     16.620     17.637
REMARK  2 active torsions:
REMARK  status: ('A' for Active; 'I' for Inactive)
REMARK    1  A    between atoms: N_2  and  C_5 
REMARK    2  A    between atoms: C_5  and  C_6 
ROOT
HETATM    1  C   UNL     1     -12.358   6.505 -20.202  1.00  0.00     0.272 C 
HETATM    2  N   UNL     1     -11.957   5.215 -20.855  1.00  0.00    -0.069 N 
HETATM    3  C   UNL     1     -13.059   4.175 -20.737  1.00  0.00     0.272 C 
HETATM    4  C   UNL     1     -11.613   5.422 -22.321  1.00  0.00     0.272 C 
ENDROOT
BRANCH   2   5
HETATM    5  C   UNL     1     -10.671   4.648 -20.126  1.00  0.00     0.348 C 
BRANCH   5   6
HETATM    6  C   UNL     1      -9.716   5.686 -19.476  1.00  0.00     0.199 C 
HETATM    7  O   UNL     1      -8.897   6.207 -20.280  1.00  0.00    -0.647 OA
HETATM    8  O   UNL     1      -9.815   5.763 -18.221  1.00  0.00    -0.647 OA
ENDBRANCH   5   6
ENDBRANCH   2   5
TORSDOF 2
ENDMDL
MODEL 9
REMARK VINA RESULT:      -3.4     18.075     19.009
REMARK  2 active torsions:
REMARK  status: ('A' for Active; 'I' for Inactive)
REMARK    1  A    between atoms: N_2  and  C_5 
REMARK    2  A    between atoms: C_5  and  C_6 
ROOT
HETATM    1  C   UNL     1      -9.244   6.453 -20.687  1.00  0.00     0.272 C 
HETATM    2  N   UNL     1     -10.745   6.460 -20.732  1.00  0.00    -0.069 N 
HETATM    3  C   UNL     1     -11.254   6.064 -22.108  1.00  0.00     0.272 C 
HETATM    4  C   UNL     1     -11.331   5.524 -19.688  1.00  0.00     0.272 C 
ENDROOT
BRANCH   2   5
HETATM    5  C   UNL     1     -11.261   7.924 -20.422  1.00  0.00     0.348 C 
BRANCH   5   6
HETATM    6  C   UNL     1     -10.277   8.877 -19.690  1.00  0.00     0.199 C 
HETATM    7  O   UNL     1     -10.272   8.747 -18.435  1.00  0.00    -0.647 OA
HETATM    8  O   UNL     1      -9.723   9.724 -20.442  1.00  0.00    -0.647 OA
ENDBRANCH   5   6
ENDBRANCH   2   5
TORSDOF 2
ENDMDL
