MODEL 1
REMARK VINA RESULT:      -8.6      0.000      0.000
REMARK  2 active torsions:
REMARK  status: ('A' for Active; 'I' for Inactive)
REMARK    1  A    between atoms: C_14  and  O_28 
REMARK    2  A    between atoms: C_20  and  O_25 
ROOT
HETATM    1  C   UNL     1     -15.512  -9.879  -4.909  1.00  0.00     0.001 A 
HETATM    2  C   UNL     1     -15.819  -9.607  -3.563  1.00  0.00     0.001 A 
HETATM    3  C   UNL     1     -17.121  -9.773  -3.080  1.00  0.00     0.012 A 
HETATM    4  C   UNL     1     -18.096 -10.215  -3.962  1.00  0.00     0.003 A 
HETATM    5  C   UNL     1     -17.781 -10.474  -5.282  1.00  0.00     0.049 A 
HETATM    6  C   UNL     1     -16.503 -10.318  -5.787  1.00  0.00     0.018 A 
HETATM    7  C   UNL     1     -18.981 -10.921  -5.976  1.00  0.00     0.295 A 
HETATM    8  O   UNL     1     -19.068 -11.216  -7.149  1.00  0.00    -0.259 OA
HETATM    9  O   UNL     1     -19.989 -10.938  -5.055  1.00  0.00    -0.291 OA
HETATM   10  C   UNL     1     -19.547 -10.507  -3.741  1.00  0.00     0.159 A 
HETATM   11  C   UNL     1     -20.333  -9.269  -3.371  1.00  0.00     0.023 A 
HETATM   12  C   UNL     1     -20.359  -8.141  -4.217  1.00  0.00     0.036 A 
HETATM   13  C   UNL     1     -21.040  -6.983  -3.848  1.00  0.00     0.046 A 
HETATM   14  C   UNL     1     -21.725  -6.931  -2.635  1.00  0.00     0.103 A 
HETATM   15  C   UNL     1     -21.723  -8.047  -1.788  1.00  0.00     0.080 A 
HETATM   16  C   UNL     1     -21.024  -9.214  -2.155  1.00  0.00     0.106 A 
HETATM   17  O   UNL     1     -21.040 -10.263  -1.266  1.00  0.00    -0.306 OA
HETATM   18  C   UNL     1     -20.454 -11.462  -1.590  1.00  0.00     0.106 A 
HETATM   19  C   UNL     1     -20.572 -12.510  -0.658  1.00  0.00     0.080 A 
HETATM   20  C   UNL     1     -19.984 -13.756  -0.912  1.00  0.00     0.103 A 
HETATM   21  C   UNL     1     -19.289 -13.962  -2.101  1.00  0.00     0.046 A 
HETATM   22  C   UNL     1     -19.180 -12.926  -3.029  1.00  0.00     0.036 A 
HETATM   23  C   UNL     1     -19.747 -11.659  -2.779  1.00  0.00     0.023 A 
HETATM   24 BR   UNL     1     -18.450 -15.615  -2.497  1.00  0.00    -0.048 Br
HETATM   25 BR   UNL     1     -21.515 -12.250   0.978  1.00  0.00    -0.045 Br
HETATM   26 BR   UNL     1     -22.663  -7.978  -0.131  1.00  0.00    -0.045 Br
HETATM   27 BR   UNL     1     -20.996  -5.488  -5.012  1.00  0.00    -0.048 Br
ENDROOT
BRANCH  14  28
HETATM   28  O   UNL     1     -22.394  -5.794  -2.263  1.00  0.00    -0.358 OA
HETATM   29  H   UNL     1     -22.950  -5.507  -3.010  1.00  0.00     0.217 HD
ENDBRANCH  14  28
BRANCH  20  30
HETATM   30  O   UNL     1     -20.071 -14.780  -0.005  1.00  0.00    -0.358 OA
HETATM   31  H   UNL     1     -20.992 -15.095   0.011  1.00  0.00     0.217 HD
ENDBRANCH  20  30
TORSDOF 2
ENDMDL
MODEL 2
REMARK VINA RESULT:      -7.7      3.372      6.911
REMARK  2 active torsions:
REMARK  status: ('A' for Active; 'I' for Inactive)
REMARK    1  A    between atoms: C_14  and  O_28 
REMARK    2  A    between atoms: C_20  and  O_25 
ROOT
HETATM    1  C   UNL     1     -22.023  -8.217   1.101  1.00  0.00     0.001 A 
HETATM    2  C   UNL     1     -20.929  -8.804   1.760  1.00  0.00     0.001 A 
HETATM    3  C   UNL     1     -20.450 -10.060   1.372  1.00  0.00     0.012 A 
HETATM    4  C   UNL     1     -21.082 -10.705   0.318  1.00  0.00     0.003 A 
HETATM    5  C   UNL     1     -22.160 -10.118  -0.317  1.00  0.00     0.049 A 
HETATM    6  C   UNL     1     -22.654  -8.878   0.046  1.00  0.00     0.018 A 
HETATM    7  C   UNL     1     -22.624 -11.003  -1.376  1.00  0.00     0.295 A 
HETATM    8  O   UNL     1     -23.562 -10.808  -2.120  1.00  0.00    -0.259 OA
HETATM    9  O   UNL     1     -21.807 -12.097  -1.366  1.00  0.00    -0.291 OA
HETATM   10  C   UNL     1     -20.791 -12.020  -0.332  1.00  0.00     0.159 A 
HETATM   11  C   UNL     1     -21.001 -13.186   0.610  1.00  0.00     0.023 A 
HETATM   12  C   UNL     1     -22.247 -13.405   1.233  1.00  0.00     0.036 A 
HETATM   13  C   UNL     1     -22.420 -14.449   2.140  1.00  0.00     0.046 A 
HETATM   14  C   UNL     1     -21.361 -15.305   2.433  1.00  0.00     0.103 A 
HETATM   15  C   UNL     1     -20.120 -15.112   1.812  1.00  0.00     0.080 A 
HETATM   16  C   UNL     1     -19.939 -14.050   0.904  1.00  0.00     0.106 A 
HETATM   17  O   UNL     1     -18.689 -13.900   0.351  1.00  0.00    -0.306 OA
HETATM   18  C   UNL     1     -18.459 -12.943  -0.606  1.00  0.00     0.106 A 
HETATM   19  C   UNL     1     -17.174 -12.895  -1.175  1.00  0.00     0.080 A 
HETATM   20  C   UNL     1     -16.860 -11.933  -2.145  1.00  0.00     0.103 A 
HETATM   21  C   UNL     1     -17.833 -11.025  -2.556  1.00  0.00     0.046 A 
HETATM   22  C   UNL     1     -19.110 -11.077  -1.998  1.00  0.00     0.036 A 
HETATM   23  C   UNL     1     -19.435 -12.026  -1.005  1.00  0.00     0.023 A 
HETATM   24 BR   UNL     1     -17.469  -9.683  -3.844  1.00  0.00    -0.048 Br
HETATM   25 BR   UNL     1     -15.825 -14.126  -0.625  1.00  0.00    -0.045 Br
HETATM   26 BR   UNL     1     -18.671 -16.287   2.208  1.00  0.00    -0.045 Br
HETATM   27 BR   UNL     1     -24.108 -14.659   2.976  1.00  0.00    -0.048 Br
ENDROOT
BRANCH  14  28
HETATM   28  O   UNL     1     -21.523 -16.331   3.327  1.00  0.00    -0.358 OA
HETATM   29  H   UNL     1     -21.662 -15.947   4.212  1.00  0.00     0.217 HD
ENDBRANCH  14  28
BRANCH  20  30
HETATM   30  O   UNL     1     -15.605 -11.860  -2.693  1.00  0.00    -0.358 OA
HETATM   31  H   UNL     1     -14.955 -11.914  -1.970  1.00  0.00     0.217 HD
ENDBRANCH  20  30
TORSDOF 2
ENDMDL
MODEL 3
REMARK VINA RESULT:      -7.7      1.644      5.673
REMARK  2 active torsions:
REMARK  status: ('A' for Active; 'I' for Inactive)
REMARK    1  A    between atoms: C_14  and  O_28 
REMARK    2  A    between atoms: C_20  and  O_25 
ROOT
HETATM    1  C   UNL     1     -19.453 -12.566  -7.755  1.00  0.00     0.001 A 
HETATM    2  C   UNL     1     -20.510 -12.518  -6.828  1.00  0.00     0.001 A 
HETATM    3  C   UNL     1     -20.369 -11.830  -5.619  1.00  0.00     0.012 A 
HETATM    4  C   UNL     1     -19.161 -11.196  -5.362  1.00  0.00     0.003 A 
HETATM    5  C   UNL     1     -18.130 -11.255  -6.280  1.00  0.00     0.049 A 
HETATM    6  C   UNL     1     -18.242 -11.928  -7.483  1.00  0.00     0.018 A 
HETATM    7  C   UNL     1     -16.992 -10.510  -5.762  1.00  0.00     0.295 A 
HETATM    8  O   UNL     1     -15.914 -10.371  -6.301  1.00  0.00    -0.259 OA
HETATM    9  O   UNL     1     -17.368 -10.003  -4.550  1.00  0.00    -0.291 OA
HETATM   10  C   UNL     1     -18.724 -10.375  -4.191  1.00  0.00     0.159 A 
HETATM   11  C   UNL     1     -18.659 -11.183  -2.914  1.00  0.00     0.023 A 
HETATM   12  C   UNL     1     -17.849 -12.334  -2.819  1.00  0.00     0.036 A 
HETATM   13  C   UNL     1     -17.833 -13.106  -1.660  1.00  0.00     0.046 A 
HETATM   14  C   UNL     1     -18.611 -12.738  -0.563  1.00  0.00     0.103 A 
HETATM   15  C   UNL     1     -19.411 -11.590  -0.634  1.00  0.00     0.080 A 
HETATM   16  C   UNL     1     -19.438 -10.815  -1.810  1.00  0.00     0.106 A 
HETATM   17  O   UNL     1     -20.264  -9.717  -1.822  1.00  0.00    -0.306 OA
HETATM   18  C   UNL     1     -20.280  -8.866  -2.900  1.00  0.00     0.106 A 
HETATM   19  C   UNL     1     -21.099  -7.726  -2.810  1.00  0.00     0.080 A 
HETATM   20  C   UNL     1     -21.180  -6.823  -3.878  1.00  0.00     0.103 A 
HETATM   21  C   UNL     1     -20.433  -7.049  -5.031  1.00  0.00     0.046 A 
HETATM   22  C   UNL     1     -19.614  -8.175  -5.118  1.00  0.00     0.036 A 
HETATM   23  C   UNL     1     -19.538  -9.105  -4.060  1.00  0.00     0.023 A 
HETATM   24 BR   UNL     1     -20.514  -5.881  -6.522  1.00  0.00    -0.048 Br
HETATM   25 BR   UNL     1     -22.133  -7.398  -1.242  1.00  0.00    -0.045 Br
HETATM   26 BR   UNL     1     -20.472 -11.084   0.867  1.00  0.00    -0.045 Br
HETATM   27 BR   UNL     1     -16.756 -14.665  -1.616  1.00  0.00    -0.048 Br
ENDROOT
BRANCH  14  28
HETATM   28  O   UNL     1     -18.604 -13.495   0.579  1.00  0.00    -0.358 OA
HETATM   29  H   UNL     1     -19.111 -13.021   1.264  1.00  0.00     0.217 HD
ENDBRANCH  14  28
BRANCH  20  30
HETATM   30  O   UNL     1     -21.991  -5.719  -3.814  1.00  0.00    -0.358 OA
HETATM   31  H   UNL     1     -21.432  -4.940  -3.646  1.00  0.00     0.217 HD
ENDBRANCH  20  30
TORSDOF 2
ENDMDL
MODEL 4
REMARK VINA RESULT:      -7.5      3.484      5.814
REMARK  2 active torsions:
REMARK  status: ('A' for Active; 'I' for Inactive)
REMARK    1  A    between atoms: C_14  and  O_28 
REMARK    2  A    between atoms: C_20  and  O_25 
ROOT
HETATM    1  C   UNL     1     -22.169  -8.395   1.026  1.00  0.00     0.001 A 
HETATM    2  C   UNL     1     -23.203  -8.825   0.175  1.00  0.00     0.001 A 
HETATM    3  C   UNL     1     -23.075 -10.003  -0.567  1.00  0.00     0.012 A 
HETATM    4  C   UNL     1     -21.903 -10.735  -0.437  1.00  0.00     0.003 A 
HETATM    5  C   UNL     1     -20.893 -10.298   0.399  1.00  0.00     0.049 A 
HETATM    6  C   UNL     1     -20.993  -9.137   1.144  1.00  0.00     0.018 A 
HETATM    7  C   UNL     1     -19.791 -11.247   0.346  1.00  0.00     0.295 A 
HETATM    8  O   UNL     1     -18.738 -11.165   0.942  1.00  0.00    -0.259 OA
HETATM    9  O   UNL     1     -20.166 -12.244  -0.509  1.00  0.00    -0.291 OA
HETATM   10  C   UNL     1     -21.488 -12.025  -1.069  1.00  0.00     0.159 A 
HETATM   11  C   UNL     1     -21.341 -11.910  -2.570  1.00  0.00     0.023 A 
HETATM   12  C   UNL     1     -20.458 -10.973  -3.147  1.00  0.00     0.036 A 
HETATM   13  C   UNL     1     -20.366 -10.833  -4.530  1.00  0.00     0.046 A 
HETATM   14  C   UNL     1     -21.137 -11.636  -5.368  1.00  0.00     0.103 A 
HETATM   15  C   UNL     1     -22.008 -12.583  -4.813  1.00  0.00     0.080 A 
HETATM   16  C   UNL     1     -22.112 -12.717  -3.415  1.00  0.00     0.106 A 
HETATM   17  O   UNL     1     -23.005 -13.646  -2.937  1.00  0.00    -0.306 OA
HETATM   18  C   UNL     1     -23.100 -13.894  -1.589  1.00  0.00     0.106 A 
HETATM   19  C   UNL     1     -23.987 -14.907  -1.180  1.00  0.00     0.080 A 
HETATM   20  C   UNL     1     -24.150 -15.204   0.179  1.00  0.00     0.103 A 
HETATM   21  C   UNL     1     -23.420 -14.498   1.132  1.00  0.00     0.046 A 
HETATM   22  C   UNL     1     -22.535 -13.498   0.727  1.00  0.00     0.036 A 
HETATM   23  C   UNL     1     -22.375 -13.173  -0.637  1.00  0.00     0.023 A 
HETATM   24 BR   UNL     1     -23.611 -14.830   2.988  1.00  0.00    -0.048 Br
HETATM   25 BR   UNL     1     -24.999 -15.885  -2.467  1.00  0.00    -0.045 Br
HETATM   26 BR   UNL     1     -23.060 -13.685  -5.959  1.00  0.00    -0.045 Br
HETATM   27 BR   UNL     1     -19.194  -9.522  -5.238  1.00  0.00    -0.048 Br
ENDROOT
BRANCH  14  28
HETATM   28  O   UNL     1     -21.055 -11.501  -6.730  1.00  0.00    -0.358 OA
HETATM   29  H   UNL     1     -21.847 -11.907  -7.127  1.00  0.00     0.217 HD
ENDBRANCH  14  28
BRANCH  20  30
HETATM   30  O   UNL     1     -25.026 -16.174   0.594  1.00  0.00    -0.358 OA
HETATM   31  H   UNL     1     -25.722 -15.747   1.124  1.00  0.00     0.217 HD
ENDBRANCH  20  30
TORSDOF 2
ENDMDL
MODEL 5
REMARK VINA RESULT:      -7.3      2.533      5.168
REMARK  2 active torsions:
REMARK  status: ('A' for Active; 'I' for Inactive)
REMARK    1  A    between atoms: C_14  and  O_28 
REMARK    2  A    between atoms: C_20  and  O_25 
ROOT
HETATM    1  C   UNL     1     -24.073 -11.859  -0.816  1.00  0.00     0.001 A 
HETATM    2  C   UNL     1     -23.459 -12.391  -1.964  1.00  0.00     0.001 A 
HETATM    3  C   UNL     1     -22.162 -12.009  -2.323  1.00  0.00     0.012 A 
HETATM    4  C   UNL     1     -21.500 -11.096  -1.514  1.00  0.00     0.003 A 
HETATM    5  C   UNL     1     -22.118 -10.578  -0.392  1.00  0.00     0.049 A 
HETATM    6  C   UNL     1     -23.399 -10.938  -0.014  1.00  0.00     0.018 A 
HETATM    7  C   UNL     1     -21.205  -9.654   0.266  1.00  0.00     0.295 A 
HETATM    8  O   UNL     1     -21.429  -9.010   1.269  1.00  0.00    -0.259 OA
HETATM    9  O   UNL     1     -20.051  -9.648  -0.465  1.00  0.00    -0.291 OA
HETATM   10  C   UNL     1     -20.122 -10.524  -1.620  1.00  0.00     0.159 A 
HETATM   11  C   UNL     1     -19.946  -9.672  -2.858  1.00  0.00     0.023 A 
HETATM   12  C   UNL     1     -20.776  -8.557  -3.100  1.00  0.00     0.036 A 
HETATM   13  C   UNL     1     -20.646  -7.807  -4.267  1.00  0.00     0.046 A 
HETATM   14  C   UNL     1     -19.675  -8.142  -5.210  1.00  0.00     0.103 A 
HETATM   15  C   UNL     1     -18.832  -9.237  -4.979  1.00  0.00     0.080 A 
HETATM   16  C   UNL     1     -18.971 -10.004  -3.805  1.00  0.00     0.106 A 
HETATM   17  O   UNL     1     -18.130 -11.081  -3.654  1.00  0.00    -0.306 OA
HETATM   18  C   UNL     1     -18.147 -11.824  -2.499  1.00  0.00     0.106 A 
HETATM   19  C   UNL     1     -17.211 -12.868  -2.389  1.00  0.00     0.080 A 
HETATM   20  C   UNL     1     -17.181 -13.679  -1.247  1.00  0.00     0.103 A 
HETATM   21  C   UNL     1     -18.078 -13.443  -0.209  1.00  0.00     0.046 A 
HETATM   22  C   UNL     1     -19.002 -12.402  -0.314  1.00  0.00     0.036 A 
HETATM   23  C   UNL     1     -19.058 -11.590  -1.466  1.00  0.00     0.023 A 
HETATM   24 BR   UNL     1     -18.109 -14.517   1.352  1.00  0.00    -0.048 Br
HETATM   25 BR   UNL     1     -15.975 -13.213  -3.800  1.00  0.00    -0.045 Br
HETATM   26 BR   UNL     1     -17.501  -9.693  -6.266  1.00  0.00    -0.045 Br
HETATM   27 BR   UNL     1     -21.823  -6.350  -4.551  1.00  0.00    -0.048 Br
ENDROOT
BRANCH  14  28
HETATM   28  O   UNL     1     -19.544  -7.412  -6.362  1.00  0.00    -0.358 OA
HETATM   29  H   UNL     1     -18.620  -7.482  -6.666  1.00  0.00     0.217 HD
ENDBRANCH  14  28
BRANCH  20  30
HETATM   30  O   UNL     1     -16.288 -14.714  -1.135  1.00  0.00    -0.358 OA
HETATM   31  H   UNL     1     -16.511 -15.382  -1.808  1.00  0.00     0.217 HD
ENDBRANCH  20  30
TORSDOF 2
ENDMDL
MODEL 6
REMARK VINA RESULT:      -7.1      2.475      6.930
REMARK  2 active torsions:
REMARK  status: ('A' for Active; 'I' for Inactive)
REMARK    1  A    between atoms: C_14  and  O_28 
REMARK    2  A    between atoms: C_20  and  O_25 
ROOT
HETATM    1  C   UNL     1     -22.697  -8.284   1.109  1.00  0.00     0.001 A 
HETATM    2  C   UNL     1     -21.298  -8.349   0.981  1.00  0.00     0.001 A 
HETATM    3  C   UNL     1     -20.702  -9.269   0.112  1.00  0.00     0.012 A 
HETATM    4  C   UNL     1     -21.529 -10.110  -0.620  1.00  0.00     0.003 A 
HETATM    5  C   UNL     1     -22.902 -10.038  -0.480  1.00  0.00     0.049 A 
HETATM    6  C   UNL     1     -23.517  -9.139   0.371  1.00  0.00     0.018 A 
HETATM    7  C   UNL     1     -23.519 -11.023  -1.357  1.00  0.00     0.295 A 
HETATM    8  O   UNL     1     -24.706 -11.243  -1.473  1.00  0.00    -0.259 OA
HETATM    9  O   UNL     1     -22.505 -11.657  -2.018  1.00  0.00    -0.291 OA
HETATM   10  C   UNL     1     -21.196 -11.162  -1.630  1.00  0.00     0.159 A 
HETATM   11  C   UNL     1     -20.426 -12.316  -1.028  1.00  0.00     0.023 A 
HETATM   12  C   UNL     1     -20.951 -13.061   0.049  1.00  0.00     0.036 A 
HETATM   13  C   UNL     1     -20.215 -14.088   0.636  1.00  0.00     0.046 A 
HETATM   14  C   UNL     1     -18.948 -14.407   0.151  1.00  0.00     0.103 A 
HETATM   15  C   UNL     1     -18.416 -13.687  -0.927  1.00  0.00     0.080 A 
HETATM   16  C   UNL     1     -19.154 -12.640  -1.513  1.00  0.00     0.106 A 
HETATM   17  O   UNL     1     -18.562 -11.958  -2.550  1.00  0.00    -0.306 OA
HETATM   18  C   UNL     1     -19.252 -10.982  -3.227  1.00  0.00     0.106 A 
HETATM   19  C   UNL     1     -18.606 -10.376  -4.320  1.00  0.00     0.080 A 
HETATM   20  C   UNL     1     -19.241  -9.360  -5.048  1.00  0.00     0.103 A 
HETATM   21  C   UNL     1     -20.525  -8.957  -4.692  1.00  0.00     0.046 A 
HETATM   22  C   UNL     1     -21.170  -9.563  -3.613  1.00  0.00     0.036 A 
HETATM   23  C   UNL     1     -20.536 -10.572  -2.858  1.00  0.00     0.023 A 
HETATM   24 BR   UNL     1     -21.432  -7.572  -5.617  1.00  0.00    -0.048 Br
HETATM   25 BR   UNL     1     -16.846 -10.910  -4.823  1.00  0.00    -0.045 Br
HETATM   26 BR   UNL     1     -16.684 -14.126  -1.593  1.00  0.00    -0.045 Br
HETATM   27 BR   UNL     1     -20.962 -15.018   2.109  1.00  0.00    -0.048 Br
ENDROOT
BRANCH  14  28
HETATM   28  O   UNL     1     -18.216 -15.413   0.726  1.00  0.00    -0.358 OA
HETATM   29  H   UNL     1     -17.759 -15.052   1.507  1.00  0.00     0.217 HD
ENDBRANCH  14  28
BRANCH  20  30
HETATM   30  O   UNL     1     -18.616  -8.745  -6.102  1.00  0.00    -0.358 OA
HETATM   31  H   UNL     1     -18.431  -7.823  -5.849  1.00  0.00     0.217 HD
ENDBRANCH  20  30
TORSDOF 2
ENDMDL
MODEL 7
REMARK VINA RESULT:      -7.0     18.415     21.070
REMARK  2 active torsions:
REMARK  status: ('A' for Active; 'I' for Inactive)
REMARK    1  A    between atoms: C_14  and  O_28 
REMARK    2  A    between atoms: C_20  and  O_25 
ROOT
HETATM    1  C   UNL     1     -24.535   5.620  -2.577  1.00  0.00     0.001 A 
HETATM    2  C   UNL     1     -23.637   5.801  -1.510  1.00  0.00     0.001 A 
HETATM    3  C   UNL     1     -23.480   7.056  -0.913  1.00  0.00     0.012 A 
HETATM    4  C   UNL     1     -24.236   8.113  -1.400  1.00  0.00     0.003 A 
HETATM    5  C   UNL     1     -25.112   7.921  -2.452  1.00  0.00     0.049 A 
HETATM    6  C   UNL     1     -25.287   6.692  -3.061  1.00  0.00     0.018 A 
HETATM    7  C   UNL     1     -25.770   9.184  -2.756  1.00  0.00     0.295 A 
HETATM    8  O   UNL     1     -26.585   9.380  -3.632  1.00  0.00    -0.259 OA
HETATM    9  O   UNL     1     -25.289  10.105  -1.870  1.00  0.00    -0.291 OA
HETATM   10  C   UNL     1     -24.308   9.541  -0.961  1.00  0.00     0.159 A 
HETATM   11  C   UNL     1     -23.003  10.275  -1.177  1.00  0.00     0.023 A 
HETATM   12  C   UNL     1     -22.417  10.362  -2.457  1.00  0.00     0.036 A 
HETATM   13  C   UNL     1     -21.189  10.993  -2.642  1.00  0.00     0.046 A 
HETATM   14  C   UNL     1     -20.526  11.565  -1.558  1.00  0.00     0.103 A 
HETATM   15  C   UNL     1     -21.099  11.501  -0.281  1.00  0.00     0.080 A 
HETATM   16  C   UNL     1     -22.335  10.853  -0.090  1.00  0.00     0.106 A 
HETATM   17  O   UNL     1     -22.828  10.803   1.192  1.00  0.00    -0.306 OA
HETATM   18  C   UNL     1     -24.066  10.264   1.443  1.00  0.00     0.106 A 
HETATM   19  C   UNL     1     -24.533  10.310   2.770  1.00  0.00     0.080 A 
HETATM   20  C   UNL     1     -25.779   9.764   3.105  1.00  0.00     0.103 A 
HETATM   21  C   UNL     1     -26.566   9.182   2.115  1.00  0.00     0.046 A 
HETATM   22  C   UNL     1     -26.108   9.143   0.797  1.00  0.00     0.036 A 
HETATM   23  C   UNL     1     -24.846   9.669   0.448  1.00  0.00     0.023 A 
HETATM   24 BR   UNL     1     -28.250   8.402   2.503  1.00  0.00    -0.048 Br
HETATM   25 BR   UNL     1     -23.471  11.100   4.142  1.00  0.00    -0.045 Br
HETATM   26 BR   UNL     1     -20.194  12.288   1.202  1.00  0.00    -0.045 Br
HETATM   27 BR   UNL     1     -20.437  11.034  -4.381  1.00  0.00    -0.048 Br
ENDROOT
BRANCH  14  28
HETATM   28  O   UNL     1     -19.315  12.183  -1.731  1.00  0.00    -0.358 OA
HETATM   29  H   UNL     1     -18.744  11.957  -0.974  1.00  0.00     0.217 HD
ENDBRANCH  14  28
BRANCH  20  30
HETATM   30  O   UNL     1     -26.238   9.782   4.397  1.00  0.00    -0.358 OA
HETATM   31  H   UNL     1     -25.534   9.438   4.974  1.00  0.00     0.217 HD
ENDBRANCH  20  30
TORSDOF 2
ENDMDL
MODEL 8
REMARK VINA RESULT:      -6.7      3.494      6.817
REMARK  2 active torsions:
REMARK  status: ('A' for Active; 'I' for Inactive)
REMARK    1  A    between atoms: C_14  and  O_28 
REMARK    2  A    between atoms: C_20  and  O_25 
ROOT
HETATM    1  C   UNL     1     -15.950 -13.985   2.601  1.00  0.00     0.001 A 
HETATM    2  C   UNL     1     -15.786 -12.683   2.094  1.00  0.00     0.001 A 
HETATM    3  C   UNL     1     -16.240 -12.352   0.813  1.00  0.00     0.012 A 
HETATM    4  C   UNL     1     -16.859 -13.341   0.062  1.00  0.00     0.003 A 
HETATM    5  C   UNL     1     -17.010 -14.617   0.572  1.00  0.00     0.049 A 
HETATM    6  C   UNL     1     -16.570 -14.972   1.834  1.00  0.00     0.018 A 
HETATM    7  C   UNL     1     -17.686 -15.444  -0.417  1.00  0.00     0.295 A 
HETATM    8  O   UNL     1     -17.963 -16.620  -0.307  1.00  0.00    -0.259 OA
HETATM    9  O   UNL     1     -17.943 -14.645  -1.495  1.00  0.00    -0.291 OA
HETATM   10  C   UNL     1     -17.462 -13.289  -1.306  1.00  0.00     0.159 A 
HETATM   11  C   UNL     1     -16.432 -13.010  -2.379  1.00  0.00     0.023 A 
HETATM   12  C   UNL     1     -15.314 -13.853  -2.553  1.00  0.00     0.036 A 
HETATM   13  C   UNL     1     -14.341 -13.563  -3.506  1.00  0.00     0.046 A 
HETATM   14  C   UNL     1     -14.469 -12.436  -4.317  1.00  0.00     0.103 A 
HETATM   15  C   UNL     1     -15.579 -11.596  -4.168  1.00  0.00     0.080 A 
HETATM   16  C   UNL     1     -16.559 -11.881  -3.196  1.00  0.00     0.106 A 
HETATM   17  O   UNL     1     -17.609 -11.001  -3.084  1.00  0.00    -0.306 OA
HETATM   18  C   UNL     1     -18.645 -11.257  -2.220  1.00  0.00     0.106 A 
HETATM   19  C   UNL     1     -19.718 -10.347  -2.211  1.00  0.00     0.080 A 
HETATM   20  C   UNL     1     -20.802 -10.533  -1.343  1.00  0.00     0.103 A 
HETATM   21  C   UNL     1     -20.822 -11.634  -0.491  1.00  0.00     0.046 A 
HETATM   22  C   UNL     1     -19.763 -12.542  -0.505  1.00  0.00     0.036 A 
HETATM   23  C   UNL     1     -18.654 -12.357  -1.358  1.00  0.00     0.023 A 
HETATM   24 BR   UNL     1     -22.244 -11.933   0.726  1.00  0.00    -0.048 Br
HETATM   25 BR   UNL     1     -19.709  -8.830  -3.366  1.00  0.00    -0.045 Br
HETATM   26 BR   UNL     1     -15.757 -10.058  -5.281  1.00  0.00    -0.045 Br
HETATM   27 BR   UNL     1     -12.841 -14.712  -3.657  1.00  0.00    -0.048 Br
ENDROOT
BRANCH  14  28
HETATM   28  O   UNL     1     -13.512 -12.142  -5.254  1.00  0.00    -0.358 OA
HETATM   29  H   UNL     1     -12.660 -12.023  -4.796  1.00  0.00     0.217 HD
ENDBRANCH  14  28
BRANCH  20  30
HETATM   30  O   UNL     1     -21.843  -9.642  -1.306  1.00  0.00    -0.358 OA
HETATM   31  H   UNL     1     -21.738  -9.084  -0.516  1.00  0.00     0.217 HD
ENDBRANCH  20  30
TORSDOF 2
ENDMDL
MODEL 9
REMARK VINA RESULT:      -6.6      2.913      5.813
REMARK  2 active torsions:
REMARK  status: ('A' for Active; 'I' for Inactive)
REMARK    1  A    between atoms: C_14  and  O_28 
REMARK    2  A    between atoms: C_20  and  O_25 
ROOT
HETATM    1  C   UNL     1     -18.335 -12.869  -7.419  1.00  0.00     0.001 A 
HETATM    2  C   UNL     1     -18.876 -13.489  -6.278  1.00  0.00     0.001 A 
HETATM    3  C   UNL     1     -18.637 -12.970  -5.002  1.00  0.00     0.012 A 
HETATM    4  C   UNL     1     -17.857 -11.827  -4.895  1.00  0.00     0.003 A 
HETATM    5  C   UNL     1     -17.329 -11.231  -6.024  1.00  0.00     0.049 A 
HETATM    6  C   UNL     1     -17.549 -11.723  -7.298  1.00  0.00     0.018 A 
HETATM    7  C   UNL     1     -16.560 -10.061  -5.625  1.00  0.00     0.295 A 
HETATM    8  O   UNL     1     -15.948  -9.315  -6.360  1.00  0.00    -0.259 OA
HETATM    9  O   UNL     1     -16.656  -9.967  -4.266  1.00  0.00    -0.291 OA
HETATM   10  C   UNL     1     -17.453 -11.036  -3.692  1.00  0.00     0.159 A 
HETATM   11  C   UNL     1     -16.564 -11.824  -2.756  1.00  0.00     0.023 A 
HETATM   12  C   UNL     1     -15.344 -12.377  -3.201  1.00  0.00     0.036 A 
HETATM   13  C   UNL     1     -14.554 -13.147  -2.350  1.00  0.00     0.046 A 
HETATM   14  C   UNL     1     -14.954 -13.370  -1.034  1.00  0.00     0.103 A 
HETATM   15  C   UNL     1     -16.155 -12.817  -0.570  1.00  0.00     0.080 A 
HETATM   16  C   UNL     1     -16.961 -12.048  -1.432  1.00  0.00     0.106 A 
HETATM   17  O   UNL     1     -18.139 -11.558  -0.922  1.00  0.00    -0.306 OA
HETATM   18  C   UNL     1     -18.935 -10.730  -1.674  1.00  0.00     0.106 A 
HETATM   19  C   UNL     1     -20.090 -10.212  -1.060  1.00  0.00     0.080 A 
HETATM   20  C   UNL     1     -20.960  -9.374  -1.771  1.00  0.00     0.103 A 
HETATM   21  C   UNL     1     -20.671  -9.043  -3.092  1.00  0.00     0.046 A 
HETATM   22  C   UNL     1     -19.522  -9.549  -3.699  1.00  0.00     0.036 A 
HETATM   23  C   UNL     1     -18.648 -10.410  -3.004  1.00  0.00     0.023 A 
HETATM   24 BR   UNL     1     -21.817  -7.936  -4.120  1.00  0.00    -0.048 Br
HETATM   25 BR   UNL     1     -20.507 -10.655   0.747  1.00  0.00    -0.045 Br
HETATM   26 BR   UNL     1     -16.700 -13.118   1.232  1.00  0.00    -0.045 Br
HETATM   27 BR   UNL     1     -12.950 -13.897  -3.026  1.00  0.00    -0.048 Br
ENDROOT
BRANCH  14  28
HETATM   28  O   UNL     1     -14.184 -14.131  -0.193  1.00  0.00    -0.358 OA
HETATM   29  H   UNL     1     -13.748 -13.537   0.445  1.00  0.00     0.217 HD
ENDBRANCH  14  28
BRANCH  20  30
HETATM   30  O   UNL     1     -22.101  -8.880  -1.193  1.00  0.00    -0.358 OA
HETATM   31  H   UNL     1     -21.853  -8.127  -0.628  1.00  0.00     0.217 HD
ENDBRANCH  20  30
TORSDOF 2
ENDMDL
