MODEL 1
REMARK VINA RESULT:      -7.1      0.000      0.000
REMARK  18 active torsions:
REMARK  status: ('A' for Active; 'I' for Inactive)
REMARK    1  A    between atoms: C_2  and  C_3 
REMARK    2  A    between atoms: C_3  and  C_4 
REMARK    3  A    between atoms: C_4  and  C_5 
REMARK    4  A    between atoms: C_5  and  C_6 
REMARK    5  A    between atoms: C_6  and  C_7 
REMARK    6  A    between atoms: C_7  and  C_8 
REMARK    7  A    between atoms: C_7  and  O_21 
REMARK    8  A    between atoms: C_8  and  C_9 
REMARK    9  A    between atoms: C_9  and  C_10 
REMARK   10  A    between atoms: C_10  and  C_11 
REMARK   11  A    between atoms: C_11  and  C_12 
REMARK   12  A    between atoms: C_12  and  C_13 
REMARK   13  A    between atoms: C_13  and  C_14 
REMARK   14  A    between atoms: C_14  and  C_15 
REMARK   15  A    between atoms: C_15  and  C_16 
REMARK   16  A    between atoms: C_16  and  C_17 
REMARK   17  A    between atoms: C_17  and  C_18 
REMARK   18  A    between atoms: C_18  and  O_20 
ROOT
HETATM    1  C   UNL     1     -20.300  -5.274  -5.529  1.00  0.00     0.000 C 
ENDROOT
BRANCH   1   2
HETATM    2  C   UNL     1     -21.538  -6.054  -5.072  1.00  0.00     0.002 C 
BRANCH   2   3
HETATM    3  C   UNL     1     -21.232  -7.116  -4.006  1.00  0.00     0.032 C 
BRANCH   3   4
HETATM    4  C   UNL     1     -21.396  -6.576  -2.580  1.00  0.00     0.118 C 
BRANCH   4   5
HETATM    5  C   UNL     1     -21.497  -7.676  -1.509  1.00  0.00     0.032 C 
BRANCH   5   6
HETATM    6  C   UNL     1     -22.301  -7.240  -0.288  1.00  0.00     0.002 C 
BRANCH   6   7
HETATM    7  C   UNL     1     -22.978  -8.400   0.445  1.00  0.00     0.000 C 
BRANCH   7   8
HETATM    8  C   UNL     1     -22.884  -9.659  -0.422  1.00  0.00    -0.000 C 
BRANCH   8   9
HETATM    9  C   UNL     1     -23.960 -10.692  -0.105  1.00  0.00    -0.005 C 
HETATM   10  C   UNL     1     -24.056 -11.720  -1.224  1.00  0.00     0.005 C 
ENDBRANCH   8   9
ENDBRANCH   7   8
ENDBRANCH   6   7
ENDBRANCH   5   6
ENDBRANCH   4   5
BRANCH   4  11
HETATM   11  O   UNL     1     -22.588  -5.789  -2.510  1.00  0.00    -0.396 OA
HETATM   12  H   UNL     1     -22.879  -5.611  -3.421  1.00  0.00     0.210 HD
ENDBRANCH   4  11
ENDBRANCH   3   4
ENDBRANCH   2   3
ENDBRANCH   1   2
BRANCH   1  13
HETATM   13  C   UNL     1     -20.601  -4.326  -6.689  1.00  0.00     0.000 C 
BRANCH  13  14
HETATM   14  C   UNL     1     -22.038  -4.463  -7.181  1.00  0.00     0.000 C 
BRANCH  14  15
HETATM   15  C   UNL     1     -22.108  -4.225  -8.690  1.00  0.00     0.000 C 
BRANCH  15  16
HETATM   16  C   UNL     1     -20.746  -4.465  -9.332  1.00  0.00     0.000 C 
BRANCH  16  17
HETATM   17  C   UNL     1     -20.690  -3.942 -10.766  1.00  0.00     0.001 C 
BRANCH  17  18
HETATM   18  C   UNL     1     -22.088  -3.953 -11.377  1.00  0.00     0.010 C 
BRANCH  18  19
HETATM   19  C   UNL     1     -22.436  -2.631 -12.053  1.00  0.00     0.110 C 
BRANCH  19  20
HETATM   20  C   UNL     1     -23.189  -2.857 -13.345  1.00  0.00     0.139 C 
HETATM   21  O   UNL     1     -24.402  -2.790 -13.478  1.00  0.00    -0.650 OA
BRANCH  20  22
HETATM   22  O   UNL     1     -22.366  -3.151 -14.376  1.00  0.00    -0.776 OA
HETATM   23  H   UNL     1     -22.683  -2.822 -15.238  1.00  0.00     0.167 HD
ENDBRANCH  20  22
ENDBRANCH  19  20
ENDBRANCH  18  19
ENDBRANCH  17  18
ENDBRANCH  16  17
ENDBRANCH  15  16
ENDBRANCH  14  15
ENDBRANCH  13  14
ENDBRANCH   1  13
TORSDOF 18
ENDMDL
MODEL 2
REMARK VINA RESULT:      -6.8      1.638      2.322
REMARK  18 active torsions:
REMARK  status: ('A' for Active; 'I' for Inactive)
REMARK    1  A    between atoms: C_2  and  C_3 
REMARK    2  A    between atoms: C_3  and  C_4 
REMARK    3  A    between atoms: C_4  and  C_5 
REMARK    4  A    between atoms: C_5  and  C_6 
REMARK    5  A    between atoms: C_6  and  C_7 
REMARK    6  A    between atoms: C_7  and  C_8 
REMARK    7  A    between atoms: C_7  and  O_21 
REMARK    8  A    between atoms: C_8  and  C_9 
REMARK    9  A    between atoms: C_9  and  C_10 
REMARK   10  A    between atoms: C_10  and  C_11 
REMARK   11  A    between atoms: C_11  and  C_12 
REMARK   12  A    between atoms: C_12  and  C_13 
REMARK   13  A    between atoms: C_13  and  C_14 
REMARK   14  A    between atoms: C_14  and  C_15 
REMARK   15  A    between atoms: C_15  and  C_16 
REMARK   16  A    between atoms: C_16  and  C_17 
REMARK   17  A    between atoms: C_17  and  C_18 
REMARK   18  A    between atoms: C_18  and  O_20 
ROOT
HETATM    1  C   UNL     1     -22.099  -6.328  -5.106  1.00  0.00     0.000 C 
ENDROOT
BRANCH   1   2
HETATM    2  C   UNL     1     -21.299  -6.201  -3.805  1.00  0.00     0.002 C 
BRANCH   2   3
HETATM    3  C   UNL     1     -22.171  -6.255  -2.543  1.00  0.00     0.032 C 
BRANCH   3   4
HETATM    4  C   UNL     1     -21.869  -7.485  -1.677  1.00  0.00     0.118 C 
BRANCH   4   5
HETATM    5  C   UNL     1     -22.262  -7.312  -0.199  1.00  0.00     0.032 C 
BRANCH   5   6
HETATM    6  C   UNL     1     -23.172  -8.429   0.304  1.00  0.00     0.002 C 
BRANCH   6   7
HETATM    7  C   UNL     1     -22.695  -9.829  -0.089  1.00  0.00     0.000 C 
BRANCH   7   8
HETATM    8  C   UNL     1     -23.885 -10.791  -0.044  1.00  0.00    -0.000 C 
BRANCH   8   9
HETATM    9  C   UNL     1     -24.028 -11.634  -1.308  1.00  0.00    -0.005 C 
HETATM   10  C   UNL     1     -23.001 -11.207  -2.348  1.00  0.00     0.005 C 
ENDBRANCH   8   9
ENDBRANCH   7   8
ENDBRANCH   6   7
ENDBRANCH   5   6
ENDBRANCH   4   5
BRANCH   4  11
HETATM   11  O   UNL     1     -20.468  -7.761  -1.726  1.00  0.00    -0.396 OA
HETATM   12  H   UNL     1     -20.103  -7.602  -0.837  1.00  0.00     0.210 HD
ENDBRANCH   4  11
ENDBRANCH   3   4
ENDBRANCH   2   3
ENDBRANCH   1   2
BRANCH   1  13
HETATM   13  C   UNL     1     -21.250  -6.042  -6.345  1.00  0.00     0.000 C 
BRANCH  13  14
HETATM   14  C   UNL     1     -20.341  -4.835  -6.149  1.00  0.00     0.000 C 
BRANCH  14  15
HETATM   15  C   UNL     1     -19.927  -4.255  -7.502  1.00  0.00     0.000 C 
BRANCH  15  16
HETATM   16  C   UNL     1     -21.127  -4.182  -8.439  1.00  0.00     0.000 C 
BRANCH  16  17
HETATM   17  C   UNL     1     -20.704  -4.135  -9.907  1.00  0.00     0.001 C 
BRANCH  17  18
HETATM   18  C   UNL     1     -21.938  -4.028 -10.798  1.00  0.00     0.010 C 
BRANCH  18  19
HETATM   19  C   UNL     1     -23.180  -4.620 -10.141  1.00  0.00     0.110 C 
BRANCH  19  20
HETATM   20  C   UNL     1     -24.324  -3.631 -10.139  1.00  0.00     0.139 C 
HETATM   21  O   UNL     1     -24.876  -3.185 -11.134  1.00  0.00    -0.650 OA
BRANCH  20  22
HETATM   22  O   UNL     1     -24.694  -3.273  -8.889  1.00  0.00    -0.776 OA
HETATM   23  H   UNL     1     -25.353  -2.555  -8.865  1.00  0.00     0.167 HD
ENDBRANCH  20  22
ENDBRANCH  19  20
ENDBRANCH  18  19
ENDBRANCH  17  18
ENDBRANCH  16  17
ENDBRANCH  15  16
ENDBRANCH  14  15
ENDBRANCH  13  14
ENDBRANCH   1  13
TORSDOF 18
ENDMDL
MODEL 3
REMARK VINA RESULT:      -6.7      1.495      2.210
REMARK  18 active torsions:
REMARK  status: ('A' for Active; 'I' for Inactive)
REMARK    1  A    between atoms: C_2  and  C_3 
REMARK    2  A    between atoms: C_3  and  C_4 
REMARK    3  A    between atoms: C_4  and  C_5 
REMARK    4  A    between atoms: C_5  and  C_6 
REMARK    5  A    between atoms: C_6  and  C_7 
REMARK    6  A    between atoms: C_7  and  C_8 
REMARK    7  A    between atoms: C_7  and  O_21 
REMARK    8  A    between atoms: C_8  and  C_9 
REMARK    9  A    between atoms: C_9  and  C_10 
REMARK   10  A    between atoms: C_10  and  C_11 
REMARK   11  A    between atoms: C_11  and  C_12 
REMARK   12  A    between atoms: C_12  and  C_13 
REMARK   13  A    between atoms: C_13  and  C_14 
REMARK   14  A    between atoms: C_14  and  C_15 
REMARK   15  A    between atoms: C_15  and  C_16 
REMARK   16  A    between atoms: C_16  and  C_17 
REMARK   17  A    between atoms: C_17  and  C_18 
REMARK   18  A    between atoms: C_18  and  O_20 
ROOT
HETATM    1  C   UNL     1     -20.002  -4.758  -5.946  1.00  0.00     0.000 C 
ENDROOT
BRANCH   1   2
HETATM    2  C   UNL     1     -21.106  -5.667  -5.396  1.00  0.00     0.002 C 
BRANCH   2   3
HETATM    3  C   UNL     1     -21.142  -7.053  -6.056  1.00  0.00     0.032 C 
BRANCH   3   4
HETATM    4  C   UNL     1     -21.367  -8.178  -5.037  1.00  0.00     0.118 C 
BRANCH   4   5
HETATM    5  C   UNL     1     -20.510  -8.044  -3.766  1.00  0.00     0.032 C 
BRANCH   5   6
HETATM    6  C   UNL     1     -21.299  -8.321  -2.491  1.00  0.00     0.002 C 
BRANCH   6   7
HETATM    7  C   UNL     1     -21.724  -7.053  -1.747  1.00  0.00     0.000 C 
BRANCH   7   8
HETATM    8  C   UNL     1     -22.475  -7.451  -0.473  1.00  0.00    -0.000 C 
BRANCH   8   9
HETATM    9  C   UNL     1     -22.138  -8.857   0.012  1.00  0.00    -0.005 C 
HETATM   10  C   UNL     1     -23.348  -9.771  -0.131  1.00  0.00     0.005 C 
ENDBRANCH   8   9
ENDBRANCH   7   8
ENDBRANCH   6   7
ENDBRANCH   5   6
ENDBRANCH   4   5
BRANCH   4  11
HETATM   11  O   UNL     1     -21.051  -9.432  -5.646  1.00  0.00    -0.396 OA
HETATM   12  H   UNL     1     -21.888  -9.861  -5.896  1.00  0.00     0.210 HD
ENDBRANCH   4  11
ENDBRANCH   3   4
ENDBRANCH   2   3
ENDBRANCH   1   2
BRANCH   1  13
HETATM   13  C   UNL     1     -20.258  -4.337  -7.393  1.00  0.00     0.000 C 
BRANCH  13  14
HETATM   14  C   UNL     1     -21.555  -3.550  -7.539  1.00  0.00     0.000 C 
BRANCH  14  15
HETATM   15  C   UNL     1     -22.364  -4.073  -8.726  1.00  0.00     0.000 C 
BRANCH  15  16
HETATM   16  C   UNL     1     -21.516  -4.068  -9.993  1.00  0.00     0.000 C 
BRANCH  16  17
HETATM   17  C   UNL     1     -22.335  -4.431 -11.230  1.00  0.00     0.001 C 
BRANCH  17  18
HETATM   18  C   UNL     1     -22.465  -3.212 -12.140  1.00  0.00     0.010 C 
BRANCH  18  19
HETATM   19  C   UNL     1     -23.628  -3.342 -13.119  1.00  0.00     0.110 C 
BRANCH  19  20
HETATM   20  C   UNL     1     -23.421  -2.467 -14.335  1.00  0.00     0.139 C 
HETATM   21  O   UNL     1     -22.625  -2.684 -15.237  1.00  0.00    -0.650 OA
BRANCH  20  22
HETATM   22  O   UNL     1     -24.227  -1.382 -14.332  1.00  0.00    -0.776 OA
HETATM   23  H   UNL     1     -25.116  -1.553 -13.967  1.00  0.00     0.167 HD
ENDBRANCH  20  22
ENDBRANCH  19  20
ENDBRANCH  18  19
ENDBRANCH  17  18
ENDBRANCH  16  17
ENDBRANCH  15  16
ENDBRANCH  14  15
ENDBRANCH  13  14
ENDBRANCH   1  13
TORSDOF 18
ENDMDL
MODEL 4
REMARK VINA RESULT:      -6.5      2.267      4.154
REMARK  18 active torsions:
REMARK  status: ('A' for Active; 'I' for Inactive)
REMARK    1  A    between atoms: C_2  and  C_3 
REMARK    2  A    between atoms: C_3  and  C_4 
REMARK    3  A    between atoms: C_4  and  C_5 
REMARK    4  A    between atoms: C_5  and  C_6 
REMARK    5  A    between atoms: C_6  and  C_7 
REMARK    6  A    between atoms: C_7  and  C_8 
REMARK    7  A    between atoms: C_7  and  O_21 
REMARK    8  A    between atoms: C_8  and  C_9 
REMARK    9  A    between atoms: C_9  and  C_10 
REMARK   10  A    between atoms: C_10  and  C_11 
REMARK   11  A    between atoms: C_11  and  C_12 
REMARK   12  A    between atoms: C_12  and  C_13 
REMARK   13  A    between atoms: C_13  and  C_14 
REMARK   14  A    between atoms: C_14  and  C_15 
REMARK   15  A    between atoms: C_15  and  C_16 
REMARK   16  A    between atoms: C_16  and  C_17 
REMARK   17  A    between atoms: C_17  and  C_18 
REMARK   18  A    between atoms: C_18  and  O_20 
ROOT
HETATM    1  C   UNL     1     -20.259  -3.997 -10.166  1.00  0.00     0.000 C 
ENDROOT
BRANCH   1   2
HETATM    2  C   UNL     1     -20.017  -4.818  -8.895  1.00  0.00     0.002 C 
BRANCH   2   3
HETATM    3  C   UNL     1     -20.072  -3.982  -7.608  1.00  0.00     0.032 C 
BRANCH   3   4
HETATM    4  C   UNL     1     -21.018  -4.584  -6.561  1.00  0.00     0.118 C 
BRANCH   4   5
HETATM    5  C   UNL     1     -21.132  -6.117  -6.638  1.00  0.00     0.032 C 
BRANCH   5   6
HETATM    6  C   UNL     1     -20.364  -6.823  -5.525  1.00  0.00     0.002 C 
BRANCH   6   7
HETATM    7  C   UNL     1     -21.251  -7.279  -4.364  1.00  0.00     0.000 C 
BRANCH   7   8
HETATM    8  C   UNL     1     -21.547  -6.077  -3.462  1.00  0.00    -0.000 C 
BRANCH   8   9
HETATM    9  C   UNL     1     -21.994  -6.473  -2.058  1.00  0.00    -0.005 C 
HETATM   10  C   UNL     1     -21.217  -7.691  -1.578  1.00  0.00     0.005 C 
ENDBRANCH   8   9
ENDBRANCH   7   8
ENDBRANCH   6   7
ENDBRANCH   5   6
ENDBRANCH   4   5
BRANCH   4  11
HETATM   11  O   UNL     1     -22.327  -4.040  -6.743  1.00  0.00    -0.396 OA
HETATM   12  H   UNL     1     -22.677  -3.807  -5.865  1.00  0.00     0.210 HD
ENDBRANCH   4  11
ENDBRANCH   3   4
ENDBRANCH   2   3
ENDBRANCH   1   2
BRANCH   1  13
HETATM   13  C   UNL     1     -21.511  -4.442 -10.921  1.00  0.00     0.000 C 
BRANCH  13  14
HETATM   14  C   UNL     1     -22.639  -4.836  -9.973  1.00  0.00     0.000 C 
BRANCH  14  15
HETATM   15  C   UNL     1     -23.804  -3.854 -10.096  1.00  0.00     0.000 C 
BRANCH  15  16
HETATM   16  C   UNL     1     -23.581  -2.906 -11.269  1.00  0.00     0.000 C 
BRANCH  16  17
HETATM   17  C   UNL     1     -24.660  -3.058 -12.340  1.00  0.00     0.001 C 
BRANCH  17  18
HETATM   18  C   UNL     1     -24.045  -3.621 -13.619  1.00  0.00     0.010 C 
BRANCH  18  19
HETATM   19  C   UNL     1     -22.913  -2.748 -14.150  1.00  0.00     0.110 C 
BRANCH  19  20
HETATM   20  C   UNL     1     -23.445  -1.620 -15.005  1.00  0.00     0.139 C 
HETATM   21  O   UNL     1     -24.527  -1.070 -14.858  1.00  0.00    -0.650 OA
BRANCH  20  22
HETATM   22  O   UNL     1     -22.583  -1.264 -15.983  1.00  0.00    -0.776 OA
HETATM   23  H   UNL     1     -22.352  -1.994 -16.588  1.00  0.00     0.167 HD
ENDBRANCH  20  22
ENDBRANCH  19  20
ENDBRANCH  18  19
ENDBRANCH  17  18
ENDBRANCH  16  17
ENDBRANCH  15  16
ENDBRANCH  14  15
ENDBRANCH  13  14
ENDBRANCH   1  13
TORSDOF 18
ENDMDL
MODEL 5
REMARK VINA RESULT:      -6.3      2.697     10.621
REMARK  18 active torsions:
REMARK  status: ('A' for Active; 'I' for Inactive)
REMARK    1  A    between atoms: C_2  and  C_3 
REMARK    2  A    between atoms: C_3  and  C_4 
REMARK    3  A    between atoms: C_4  and  C_5 
REMARK    4  A    between atoms: C_5  and  C_6 
REMARK    5  A    between atoms: C_6  and  C_7 
REMARK    6  A    between atoms: C_7  and  C_8 
REMARK    7  A    between atoms: C_7  and  O_21 
REMARK    8  A    between atoms: C_8  and  C_9 
REMARK    9  A    between atoms: C_9  and  C_10 
REMARK   10  A    between atoms: C_10  and  C_11 
REMARK   11  A    between atoms: C_11  and  C_12 
REMARK   12  A    between atoms: C_12  and  C_13 
REMARK   13  A    between atoms: C_13  and  C_14 
REMARK   14  A    between atoms: C_14  and  C_15 
REMARK   15  A    between atoms: C_15  and  C_16 
REMARK   16  A    between atoms: C_16  and  C_17 
REMARK   17  A    between atoms: C_17  and  C_18 
REMARK   18  A    between atoms: C_18  and  O_20 
ROOT
HETATM    1  C   UNL     1     -21.672  -6.222  -5.876  1.00  0.00     0.000 C 
ENDROOT
BRANCH   1   2
HETATM    2  C   UNL     1     -20.755  -5.659  -6.967  1.00  0.00     0.002 C 
BRANCH   2   3
HETATM    3  C   UNL     1     -21.516  -5.127  -8.190  1.00  0.00     0.032 C 
BRANCH   3   4
HETATM    4  C   UNL     1     -20.720  -4.061  -8.955  1.00  0.00     0.118 C 
BRANCH   4   5
HETATM    5  C   UNL     1     -20.246  -4.521 -10.345  1.00  0.00     0.032 C 
BRANCH   5   6
HETATM    6  C   UNL     1     -21.319  -4.362 -11.417  1.00  0.00     0.002 C 
BRANCH   6   7
HETATM    7  C   UNL     1     -21.781  -2.915 -11.609  1.00  0.00     0.000 C 
BRANCH   7   8
HETATM    8  C   UNL     1     -23.309  -2.887 -11.689  1.00  0.00    -0.000 C 
BRANCH   8   9
HETATM    9  C   UNL     1     -23.978  -3.972 -10.851  1.00  0.00    -0.005 C 
HETATM   10  C   UNL     1     -24.641  -3.361  -9.624  1.00  0.00     0.005 C 
ENDBRANCH   8   9
ENDBRANCH   7   8
ENDBRANCH   6   7
ENDBRANCH   5   6
ENDBRANCH   4   5
BRANCH   4  11
HETATM   11  O   UNL     1     -19.563  -3.704  -8.195  1.00  0.00    -0.396 OA
HETATM   12  H   UNL     1     -19.756  -3.885  -7.258  1.00  0.00     0.210 HD
ENDBRANCH   4  11
ENDBRANCH   3   4
ENDBRANCH   2   3
ENDBRANCH   1   2
BRANCH   1  13
HETATM   13  C   UNL     1     -21.143  -5.948  -4.468  1.00  0.00     0.000 C 
BRANCH  13  14
HETATM   14  C   UNL     1     -21.886  -6.757  -3.412  1.00  0.00     0.000 C 
BRANCH  14  15
HETATM   15  C   UNL     1     -21.926  -5.994  -2.088  1.00  0.00     0.000 C 
BRANCH  15  16
HETATM   16  C   UNL     1     -22.363  -6.914  -0.954  1.00  0.00     0.000 C 
BRANCH  16  17
HETATM   17  C   UNL     1     -21.312  -7.980  -0.645  1.00  0.00     0.001 C 
BRANCH  17  18
HETATM   18  C   UNL     1     -21.854  -8.953   0.398  1.00  0.00     0.010 C 
BRANCH  18  19
HETATM   19  C   UNL     1     -23.299  -9.355   0.121  1.00  0.00     0.110 C 
BRANCH  19  20
HETATM   20  C   UNL     1     -23.392 -10.797  -0.322  1.00  0.00     0.139 C 
HETATM   21  O   UNL     1     -24.148 -11.227  -1.182  1.00  0.00    -0.650 OA
BRANCH  20  22
HETATM   22  O   UNL     1     -22.531 -11.597   0.344  1.00  0.00    -0.776 OA
HETATM   23  H   UNL     1     -21.987 -12.160  -0.237  1.00  0.00     0.167 HD
ENDBRANCH  20  22
ENDBRANCH  19  20
ENDBRANCH  18  19
ENDBRANCH  17  18
ENDBRANCH  16  17
ENDBRANCH  15  16
ENDBRANCH  14  15
ENDBRANCH  13  14
ENDBRANCH   1  13
TORSDOF 18
ENDMDL
MODEL 6
REMARK VINA RESULT:      -6.2      3.101      9.468
REMARK  18 active torsions:
REMARK  status: ('A' for Active; 'I' for Inactive)
REMARK    1  A    between atoms: C_2  and  C_3 
REMARK    2  A    between atoms: C_3  and  C_4 
REMARK    3  A    between atoms: C_4  and  C_5 
REMARK    4  A    between atoms: C_5  and  C_6 
REMARK    5  A    between atoms: C_6  and  C_7 
REMARK    6  A    between atoms: C_7  and  C_8 
REMARK    7  A    between atoms: C_7  and  O_21 
REMARK    8  A    between atoms: C_8  and  C_9 
REMARK    9  A    between atoms: C_9  and  C_10 
REMARK   10  A    between atoms: C_10  and  C_11 
REMARK   11  A    between atoms: C_11  and  C_12 
REMARK   12  A    between atoms: C_12  and  C_13 
REMARK   13  A    between atoms: C_13  and  C_14 
REMARK   14  A    between atoms: C_14  and  C_15 
REMARK   15  A    between atoms: C_15  and  C_16 
REMARK   16  A    between atoms: C_16  and  C_17 
REMARK   17  A    between atoms: C_17  and  C_18 
REMARK   18  A    between atoms: C_18  and  O_20 
ROOT
HETATM    1  C   UNL     1     -22.318  -6.449  -1.693  1.00  0.00     0.000 C 
ENDROOT
BRANCH   1   2
HETATM    2  C   UNL     1     -21.279  -6.193  -2.790  1.00  0.00     0.002 C 
BRANCH   2   3
HETATM    3  C   UNL     1     -21.805  -6.465  -4.207  1.00  0.00     0.032 C 
BRANCH   3   4
HETATM    4  C   UNL     1     -20.686  -6.464  -5.256  1.00  0.00     0.118 C 
BRANCH   4   5
HETATM    5  C   UNL     1     -20.228  -5.055  -5.672  1.00  0.00     0.032 C 
BRANCH   5   6
HETATM    6  C   UNL     1     -20.407  -4.793  -7.164  1.00  0.00     0.002 C 
BRANCH   6   7
HETATM    7  C   UNL     1     -21.574  -3.857  -7.485  1.00  0.00     0.000 C 
BRANCH   7   8
HETATM    8  C   UNL     1     -21.871  -3.928  -8.986  1.00  0.00    -0.000 C 
BRANCH   8   9
HETATM    9  C   UNL     1     -20.619  -4.091  -9.842  1.00  0.00    -0.005 C 
HETATM   10  C   UNL     1     -20.967  -3.969 -11.319  1.00  0.00     0.005 C 
ENDBRANCH   8   9
ENDBRANCH   7   8
ENDBRANCH   6   7
ENDBRANCH   5   6
ENDBRANCH   4   5
BRANCH   4  11
HETATM   11  O   UNL     1     -21.142  -7.139  -6.430  1.00  0.00    -0.396 OA
HETATM   12  H   UNL     1     -20.914  -8.081  -6.339  1.00  0.00     0.210 HD
ENDBRANCH   4  11
ENDBRANCH   3   4
ENDBRANCH   2   3
ENDBRANCH   1   2
BRANCH   1  13
HETATM   13  C   UNL     1     -21.830  -7.452  -0.648  1.00  0.00     0.000 C 
BRANCH  13  14
HETATM   14  C   UNL     1     -22.949  -8.370  -0.171  1.00  0.00     0.000 C 
BRANCH  14  15
HETATM   15  C   UNL     1     -22.407  -9.775   0.094  1.00  0.00     0.000 C 
BRANCH  15  16
HETATM   16  C   UNL     1     -23.534 -10.800   0.040  1.00  0.00     0.000 C 
BRANCH  16  17
HETATM   17  C   UNL     1     -23.842 -11.237  -1.391  1.00  0.00     0.001 C 
BRANCH  17  18
HETATM   18  C   UNL     1     -22.543 -11.383  -2.178  1.00  0.00     0.010 C 
BRANCH  18  19
HETATM   19  C   UNL     1     -22.691 -10.932  -3.628  1.00  0.00     0.110 C 
BRANCH  19  20
HETATM   20  C   UNL     1     -21.474 -10.162  -4.090  1.00  0.00     0.139 C 
HETATM   21  O   UNL     1     -21.175  -9.943  -5.255  1.00  0.00    -0.650 OA
BRANCH  20  22
HETATM   22  O   UNL     1     -20.721  -9.723  -3.058  1.00  0.00    -0.776 OA
HETATM   23  H   UNL     1     -20.538  -8.765  -3.085  1.00  0.00     0.167 HD
ENDBRANCH  20  22
ENDBRANCH  19  20
ENDBRANCH  18  19
ENDBRANCH  17  18
ENDBRANCH  16  17
ENDBRANCH  15  16
ENDBRANCH  14  15
ENDBRANCH  13  14
ENDBRANCH   1  13
TORSDOF 18
ENDMDL
MODEL 7
REMARK VINA RESULT:      -6.2      2.051      3.514
REMARK  18 active torsions:
REMARK  status: ('A' for Active; 'I' for Inactive)
REMARK    1  A    between atoms: C_2  and  C_3 
REMARK    2  A    between atoms: C_3  and  C_4 
REMARK    3  A    between atoms: C_4  and  C_5 
REMARK    4  A    between atoms: C_5  and  C_6 
REMARK    5  A    between atoms: C_6  and  C_7 
REMARK    6  A    between atoms: C_7  and  C_8 
REMARK    7  A    between atoms: C_7  and  O_21 
REMARK    8  A    between atoms: C_8  and  C_9 
REMARK    9  A    between atoms: C_9  and  C_10 
REMARK   10  A    between atoms: C_10  and  C_11 
REMARK   11  A    between atoms: C_11  and  C_12 
REMARK   12  A    between atoms: C_12  and  C_13 
REMARK   13  A    between atoms: C_13  and  C_14 
REMARK   14  A    between atoms: C_14  and  C_15 
REMARK   15  A    between atoms: C_15  and  C_16 
REMARK   16  A    between atoms: C_16  and  C_17 
REMARK   17  A    between atoms: C_17  and  C_18 
REMARK   18  A    between atoms: C_18  and  O_20 
ROOT
HETATM    1  C   UNL     1     -21.438  -6.266  -2.608  1.00  0.00     0.000 C 
ENDROOT
BRANCH   1   2
HETATM    2  C   UNL     1     -22.330  -6.721  -1.448  1.00  0.00     0.002 C 
BRANCH   2   3
HETATM    3  C   UNL     1     -21.668  -7.766  -0.540  1.00  0.00     0.032 C 
BRANCH   3   4
HETATM    4  C   UNL     1     -22.677  -8.460   0.385  1.00  0.00     0.118 C 
BRANCH   4   5
HETATM    5  C   UNL     1     -23.211  -9.792  -0.172  1.00  0.00     0.032 C 
BRANCH   5   6
HETATM    6  C   UNL     1     -22.100 -10.791  -0.479  1.00  0.00     0.002 C 
BRANCH   6   7
HETATM    7  C   UNL     1     -21.968 -11.900   0.568  1.00  0.00     0.000 C 
BRANCH   7   8
HETATM    8  C   UNL     1     -23.204 -12.801   0.498  1.00  0.00    -0.000 C 
BRANCH   8   9
HETATM    9  C   UNL     1     -23.518 -13.497   1.818  1.00  0.00    -0.005 C 
HETATM   10  C   UNL     1     -22.281 -14.208   2.350  1.00  0.00     0.005 C 
ENDBRANCH   8   9
ENDBRANCH   7   8
ENDBRANCH   6   7
ENDBRANCH   5   6
ENDBRANCH   4   5
BRANCH   4  11
HETATM   11  O   UNL     1     -23.795  -7.595   0.593  1.00  0.00    -0.396 OA
HETATM   12  H   UNL     1     -23.512  -6.885   1.196  1.00  0.00     0.210 HD
ENDBRANCH   4  11
ENDBRANCH   3   4
ENDBRANCH   2   3
ENDBRANCH   1   2
BRANCH   1  13
HETATM   13  C   UNL     1     -21.594  -7.148  -3.847  1.00  0.00     0.000 C 
BRANCH  13  14
HETATM   14  C   UNL     1     -21.629  -6.326  -5.131  1.00  0.00     0.000 C 
BRANCH  14  15
HETATM   15  C   UNL     1     -20.591  -5.206  -5.073  1.00  0.00     0.000 C 
BRANCH  15  16
HETATM   16  C   UNL     1     -20.010  -4.945  -6.458  1.00  0.00     0.000 C 
BRANCH  16  17
HETATM   17  C   UNL     1     -21.018  -5.243  -7.567  1.00  0.00     0.001 C 
BRANCH  17  18
HETATM   18  C   UNL     1     -20.497  -4.709  -8.898  1.00  0.00     0.010 C 
BRANCH  18  19
HETATM   19  C   UNL     1     -21.524  -3.839  -9.615  1.00  0.00     0.110 C 
BRANCH  19  20
HETATM   20  C   UNL     1     -21.312  -3.861 -11.112  1.00  0.00     0.139 C 
HETATM   21  O   UNL     1     -21.903  -4.584 -11.901  1.00  0.00    -0.650 OA
BRANCH  20  22
HETATM   22  O   UNL     1     -20.372  -2.976 -11.512  1.00  0.00    -0.776 OA
HETATM   23  H   UNL     1     -20.629  -2.457 -12.297  1.00  0.00     0.167 HD
ENDBRANCH  20  22
ENDBRANCH  19  20
ENDBRANCH  18  19
ENDBRANCH  17  18
ENDBRANCH  16  17
ENDBRANCH  15  16
ENDBRANCH  14  15
ENDBRANCH  13  14
ENDBRANCH   1  13
TORSDOF 18
ENDMDL
MODEL 8
REMARK VINA RESULT:      -6.1      2.944      3.945
REMARK  18 active torsions:
REMARK  status: ('A' for Active; 'I' for Inactive)
REMARK    1  A    between atoms: C_2  and  C_3 
REMARK    2  A    between atoms: C_3  and  C_4 
REMARK    3  A    between atoms: C_4  and  C_5 
REMARK    4  A    between atoms: C_5  and  C_6 
REMARK    5  A    between atoms: C_6  and  C_7 
REMARK    6  A    between atoms: C_7  and  C_8 
REMARK    7  A    between atoms: C_7  and  O_21 
REMARK    8  A    between atoms: C_8  and  C_9 
REMARK    9  A    between atoms: C_9  and  C_10 
REMARK   10  A    between atoms: C_10  and  C_11 
REMARK   11  A    between atoms: C_11  and  C_12 
REMARK   12  A    between atoms: C_12  and  C_13 
REMARK   13  A    between atoms: C_13  and  C_14 
REMARK   14  A    between atoms: C_14  and  C_15 
REMARK   15  A    between atoms: C_15  and  C_16 
REMARK   16  A    between atoms: C_16  and  C_17 
REMARK   17  A    between atoms: C_17  and  C_18 
REMARK   18  A    between atoms: C_18  and  O_20 
ROOT
HETATM    1  C   UNL     1     -19.398  -4.205  -7.865  1.00  0.00     0.000 C 
ENDROOT
BRANCH   1   2
HETATM    2  C   UNL     1     -19.694  -5.357  -6.899  1.00  0.00     0.002 C 
BRANCH   2   3
HETATM    3  C   UNL     1     -20.421  -4.913  -5.621  1.00  0.00     0.032 C 
BRANCH   3   4
HETATM    4  C   UNL     1     -21.424  -5.962  -5.125  1.00  0.00     0.118 C 
BRANCH   4   5
HETATM    5  C   UNL     1     -21.208  -7.360  -5.731  1.00  0.00     0.032 C 
BRANCH   5   6
HETATM    6  C   UNL     1     -21.358  -8.478  -4.703  1.00  0.00     0.002 C 
BRANCH   6   7
HETATM    7  C   UNL     1     -20.281  -9.559  -4.815  1.00  0.00     0.000 C 
BRANCH   7   8
HETATM    8  C   UNL     1     -18.904  -8.912  -4.636  1.00  0.00    -0.000 C 
BRANCH   8   9
HETATM    9  C   UNL     1     -17.750  -9.900  -4.777  1.00  0.00    -0.005 C 
HETATM   10  C   UNL     1     -17.715 -10.476  -6.186  1.00  0.00     0.005 C 
ENDBRANCH   8   9
ENDBRANCH   7   8
ENDBRANCH   6   7
ENDBRANCH   5   6
ENDBRANCH   4   5
BRANCH   4  11
HETATM   11  O   UNL     1     -22.748  -5.541  -5.461  1.00  0.00    -0.396 OA
HETATM   12  H   UNL     1     -23.343  -5.836  -4.750  1.00  0.00     0.210 HD
ENDBRANCH   4  11
ENDBRANCH   3   4
ENDBRANCH   2   3
ENDBRANCH   1   2
BRANCH   1  13
HETATM   13  C   UNL     1     -20.392  -4.142  -9.024  1.00  0.00     0.000 C 
BRANCH  13  14
HETATM   14  C   UNL     1     -21.574  -5.081  -8.814  1.00  0.00     0.000 C 
BRANCH  14  15
HETATM   15  C   UNL     1     -22.888  -4.302  -8.876  1.00  0.00     0.000 C 
BRANCH  15  16
HETATM   16  C   UNL     1     -22.938  -3.439 -10.131  1.00  0.00     0.000 C 
BRANCH  16  17
HETATM   17  C   UNL     1     -24.354  -3.328 -10.693  1.00  0.00     0.001 C 
BRANCH  17  18
HETATM   18  C   UNL     1     -24.309  -3.363 -12.218  1.00  0.00     0.010 C 
BRANCH  18  19
HETATM   19  C   UNL     1     -23.152  -2.545 -12.783  1.00  0.00     0.110 C 
BRANCH  19  20
HETATM   20  C   UNL     1     -23.358  -2.245 -14.251  1.00  0.00     0.139 C 
HETATM   21  O   UNL     1     -22.781  -2.799 -15.175  1.00  0.00    -0.650 OA
BRANCH  20  22
HETATM   22  O   UNL     1     -24.272  -1.271 -14.454  1.00  0.00    -0.776 OA
HETATM   23  H   UNL     1     -24.803  -1.393 -15.263  1.00  0.00     0.167 HD
ENDBRANCH  20  22
ENDBRANCH  19  20
ENDBRANCH  18  19
ENDBRANCH  17  18
ENDBRANCH  16  17
ENDBRANCH  15  16
ENDBRANCH  14  15
ENDBRANCH  13  14
ENDBRANCH   1  13
TORSDOF 18
ENDMDL
MODEL 9
REMARK VINA RESULT:      -6.1      3.150     10.475
REMARK  18 active torsions:
REMARK  status: ('A' for Active; 'I' for Inactive)
REMARK    1  A    between atoms: C_2  and  C_3 
REMARK    2  A    between atoms: C_3  and  C_4 
REMARK    3  A    between atoms: C_4  and  C_5 
REMARK    4  A    between atoms: C_5  and  C_6 
REMARK    5  A    between atoms: C_6  and  C_7 
REMARK    6  A    between atoms: C_7  and  C_8 
REMARK    7  A    between atoms: C_7  and  O_21 
REMARK    8  A    between atoms: C_8  and  C_9 
REMARK    9  A    between atoms: C_9  and  C_10 
REMARK   10  A    between atoms: C_10  and  C_11 
REMARK   11  A    between atoms: C_11  and  C_12 
REMARK   12  A    between atoms: C_12  and  C_13 
REMARK   13  A    between atoms: C_13  and  C_14 
REMARK   14  A    between atoms: C_14  and  C_15 
REMARK   15  A    between atoms: C_15  and  C_16 
REMARK   16  A    between atoms: C_16  and  C_17 
REMARK   17  A    between atoms: C_17  and  C_18 
REMARK   18  A    between atoms: C_18  and  O_20 
ROOT
HETATM    1  C   UNL     1     -20.413  -8.689  -3.417  1.00  0.00     0.000 C 
ENDROOT
BRANCH   1   2
HETATM    2  C   UNL     1     -21.281  -8.103  -4.535  1.00  0.00     0.002 C 
BRANCH   2   3
HETATM    3  C   UNL     1     -20.469  -7.427  -5.649  1.00  0.00     0.032 C 
BRANCH   3   4
HETATM    4  C   UNL     1     -21.111  -6.117  -6.125  1.00  0.00     0.118 C 
BRANCH   4   5
HETATM    5  C   UNL     1     -20.200  -4.887  -5.963  1.00  0.00     0.032 C 
BRANCH   5   6
HETATM    6  C   UNL     1     -19.582  -4.432  -7.281  1.00  0.00     0.002 C 
BRANCH   6   7
HETATM    7  C   UNL     1     -20.253  -5.044  -8.513  1.00  0.00     0.000 C 
BRANCH   7   8
HETATM    8  C   UNL     1     -21.071  -3.963  -9.224  1.00  0.00    -0.000 C 
BRANCH   8   9
HETATM    9  C   UNL     1     -20.596  -3.685 -10.648  1.00  0.00    -0.005 C 
HETATM   10  C   UNL     1     -21.549  -4.314 -11.656  1.00  0.00     0.005 C 
ENDBRANCH   8   9
ENDBRANCH   7   8
ENDBRANCH   6   7
ENDBRANCH   5   6
ENDBRANCH   4   5
BRANCH   4  11
HETATM   11  O   UNL     1     -22.303  -5.878  -5.375  1.00  0.00    -0.396 OA
HETATM   12  H   UNL     1     -22.861  -6.673  -5.444  1.00  0.00     0.210 HD
ENDBRANCH   4  11
ENDBRANCH   3   4
ENDBRANCH   2   3
ENDBRANCH   1   2
BRANCH   1  13
HETATM   13  C   UNL     1     -20.384  -7.802  -2.173  1.00  0.00     0.000 C 
BRANCH  13  14
HETATM   14  C   UNL     1     -21.368  -6.642  -2.276  1.00  0.00     0.000 C 
BRANCH  14  15
HETATM   15  C   UNL     1     -22.389  -6.708  -1.141  1.00  0.00     0.000 C 
BRANCH  15  16
HETATM   16  C   UNL     1     -21.966  -7.741  -0.102  1.00  0.00     0.000 C 
BRANCH  16  17
HETATM   17  C   UNL     1     -23.169  -8.385   0.586  1.00  0.00     0.001 C 
BRANCH  17  18
HETATM   18  C   UNL     1     -23.421  -9.770  -0.003  1.00  0.00     0.010 C 
BRANCH  18  19
HETATM   19  C   UNL     1     -22.143 -10.421  -0.521  1.00  0.00     0.110 C 
BRANCH  19  20
HETATM   20  C   UNL     1     -21.398 -11.127   0.590  1.00  0.00     0.139 C 
HETATM   21  O   UNL     1     -20.451 -10.667   1.211  1.00  0.00    -0.650 OA
BRANCH  20  22
HETATM   22  O   UNL     1     -21.893 -12.359   0.840  1.00  0.00    -0.776 OA
HETATM   23  H   UNL     1     -21.221 -13.066   0.814  1.00  0.00     0.167 HD
ENDBRANCH  20  22
ENDBRANCH  19  20
ENDBRANCH  18  19
ENDBRANCH  17  18
ENDBRANCH  16  17
ENDBRANCH  15  16
ENDBRANCH  14  15
ENDBRANCH  13  14
ENDBRANCH   1  13
TORSDOF 18
ENDMDL
