MODEL 1
REMARK VINA RESULT:      -9.9      0.000      0.000
REMARK  7 active torsions:
REMARK  status: ('A' for Active; 'I' for Inactive)
REMARK       I    between atoms: C_2  and  N_4 
REMARK    1  A    between atoms: N_7  and  C_10 
REMARK    2  A    between atoms: C_13  and  O_16 
REMARK    3  A    between atoms: O_16  and  C_17 
REMARK    4  A    between atoms: C_17  and  C_18 
REMARK    5  A    between atoms: C_21  and  C_23 
REMARK    6  A    between atoms: C_21  and  C_30 
REMARK    7  A    between atoms: C_23  and  N_24 
ROOT
HETATM    1  C   UNL     1     -21.941  -6.618  -3.299  1.00  0.00     0.173 C 
HETATM    2  C   UNL     1     -22.297  -6.365  -1.860  1.00  0.00     0.206 C 
HETATM    3  O   UNL     1     -21.524  -7.283  -1.101  1.00  0.00    -0.347 OA
HETATM    4  C   UNL     1     -21.106  -8.343  -1.989  1.00  0.00     0.212 C 
HETATM    5  O   UNL     1     -21.447  -7.959  -3.339  1.00  0.00    -0.340 OA
ENDROOT
BRANCH   1   6
HETATM    6  C   UNL     1     -20.949  -5.590  -3.873  1.00  0.00     0.209 C 
BRANCH   6   7
HETATM    7  O   UNL     1     -20.195  -6.110  -4.974  1.00  0.00    -0.349 OA
BRANCH   7   8
HETATM    8  C   UNL     1     -20.588  -5.693  -6.219  1.00  0.00     0.069 A 
HETATM    9  C   UNL     1     -21.920  -5.296  -6.344  1.00  0.00     0.039 A 
HETATM   10  C   UNL     1     -22.441  -4.919  -7.594  1.00  0.00     0.032 A 
HETATM   11  C   UNL     1     -21.653  -4.939  -8.751  1.00  0.00     0.030 A 
HETATM   12  C   UNL     1     -20.306  -5.287  -8.589  1.00  0.00     0.032 A 
HETATM   13  C   UNL     1     -19.772  -5.646  -7.344  1.00  0.00     0.039 A 
BRANCH  11  14
HETATM   14  N   UNL     1     -22.154  -4.652 -10.004  1.00  0.00    -0.378 N 
HETATM   15  C   UNL     1     -21.328  -4.178 -11.124  1.00  0.00     0.143 C 
HETATM   16  C   UNL     1     -21.852  -2.838 -11.683  1.00  0.00     0.145 C 
HETATM   17  N   UNL     1     -23.306  -2.866 -11.905  1.00  0.00    -0.349 N 
HETATM   18  C   UNL     1     -23.966  -2.586 -13.086  1.00  0.00     0.215 C 
HETATM   19  C   UNL     1     -24.080  -3.297 -10.737  1.00  0.00     0.145 C 
HETATM   20  C   UNL     1     -23.127  -2.219 -14.281  1.00  0.00     0.117 C 
HETATM   21  O   UNL     1     -25.191  -2.651 -13.194  1.00  0.00    -0.274 OA
HETATM   22  C   UNL     1     -23.609  -4.678 -10.248  1.00  0.00     0.143 C 
ENDBRANCH  11  14
ENDBRANCH   7   8
ENDBRANCH   6   7
ENDBRANCH   1   6
BRANCH   4  23
HETATM   23  C   UNL     1     -19.564  -8.434  -1.888  1.00  0.00     0.203 C 
BRANCH  23  24
HETATM   24  N   UNL     1     -18.947  -9.442  -2.715  1.00  0.00    -0.346 N 
HETATM   25  C   UNL     1     -18.566 -10.696  -2.320  1.00  0.00     0.109 A 
HETATM   26  C   UNL     1     -18.165 -11.324  -3.475  1.00  0.00     0.106 A 
HETATM   27  N   UNL     1     -18.288 -10.488  -4.554  1.00  0.00    -0.361 N 
HETATM   28  C   UNL     1     -18.772  -9.367  -4.070  1.00  0.00     0.182 A 
ATOM     29  HN  UNL     1     -18.053 -10.693  -5.526  1.00  0.00     0.166 HD
ENDBRANCH  23  24
ENDBRANCH   4  23
BRANCH   4  30
HETATM   30  C   UNL     1     -21.837  -9.654  -1.642  1.00  0.00     0.027 A 
HETATM   31  C   UNL     1     -21.951 -10.166  -0.331  1.00  0.00     0.047 A 
HETATM   32  C   UNL     1     -22.678 -11.340  -0.065  1.00  0.00     0.048 A 
HETATM   33 CL   UNL     1     -21.210  -9.424   1.045  1.00  0.00    -0.084 Cl
HETATM   34  C   UNL     1     -23.281 -12.040  -1.101  1.00  0.00     0.035 A 
HETATM   35  C   UNL     1     -23.167 -11.581  -2.404  1.00  0.00     0.024 A 
HETATM   36 CL   UNL     1     -24.165 -13.477  -0.768  1.00  0.00    -0.084 Cl
HETATM   37  C   UNL     1     -22.458 -10.402  -2.669  1.00  0.00     0.016 A 
ENDBRANCH   4  30
TORSDOF 7
ENDMDL
MODEL 2
REMARK VINA RESULT:      -9.5      1.401      1.846
REMARK  7 active torsions:
REMARK  status: ('A' for Active; 'I' for Inactive)
REMARK       I    between atoms: C_2  and  N_4 
REMARK    1  A    between atoms: N_7  and  C_10 
REMARK    2  A    between atoms: C_13  and  O_16 
REMARK    3  A    between atoms: O_16  and  C_17 
REMARK    4  A    between atoms: C_17  and  C_18 
REMARK    5  A    between atoms: C_21  and  C_23 
REMARK    6  A    between atoms: C_21  and  C_30 
REMARK    7  A    between atoms: C_23  and  N_24 
ROOT
HETATM    1  C   UNL     1     -21.127  -7.897  -3.309  1.00  0.00     0.173 C 
HETATM    2  C   UNL     1     -20.353  -7.686  -2.036  1.00  0.00     0.206 C 
HETATM    3  O   UNL     1     -19.735  -8.930  -1.745  1.00  0.00    -0.347 OA
HETATM    4  C   UNL     1     -20.448  -9.955  -2.475  1.00  0.00     0.212 C 
HETATM    5  O   UNL     1     -21.368  -9.305  -3.378  1.00  0.00    -0.340 OA
ENDROOT
BRANCH   1   6
HETATM    6  C   UNL     1     -20.415  -7.342  -4.556  1.00  0.00     0.209 C 
BRANCH   6   7
HETATM    7  O   UNL     1     -20.665  -5.945  -4.753  1.00  0.00    -0.349 OA
BRANCH   7   8
HETATM    8  C   UNL     1     -20.978  -5.569  -6.034  1.00  0.00     0.069 A 
HETATM    9  C   UNL     1     -22.282  -5.119  -6.243  1.00  0.00     0.039 A 
HETATM   10  C   UNL     1     -22.724  -4.777  -7.533  1.00  0.00     0.032 A 
HETATM   11  C   UNL     1     -21.883  -4.886  -8.647  1.00  0.00     0.030 A 
HETATM   12  C   UNL     1     -20.563  -5.286  -8.402  1.00  0.00     0.032 A 
HETATM   13  C   UNL     1     -20.108  -5.610  -7.117  1.00  0.00     0.039 A 
BRANCH  11  14
HETATM   14  N   UNL     1     -22.309  -4.635  -9.934  1.00  0.00    -0.378 N 
HETATM   15  C   UNL     1     -21.407  -4.260 -11.034  1.00  0.00     0.143 C 
HETATM   16  C   UNL     1     -21.831  -2.923 -11.680  1.00  0.00     0.145 C 
HETATM   17  N   UNL     1     -23.273  -2.886 -11.971  1.00  0.00    -0.349 N 
HETATM   18  C   UNL     1     -23.861  -2.631 -13.195  1.00  0.00     0.215 C 
HETATM   19  C   UNL     1     -24.122  -3.219 -10.824  1.00  0.00     0.145 C 
HETATM   20  C   UNL     1     -22.948  -2.368 -14.363  1.00  0.00     0.117 C 
HETATM   21  O   UNL     1     -25.081  -2.637 -13.359  1.00  0.00    -0.274 OA
HETATM   22  C   UNL     1     -23.751  -4.596 -10.249  1.00  0.00     0.143 C 
ENDBRANCH  11  14
ENDBRANCH   7   8
ENDBRANCH   6   7
ENDBRANCH   1   6
BRANCH   4  23
HETATM   23  C   UNL     1     -19.400 -10.717  -3.321  1.00  0.00     0.203 C 
BRANCH  23  24
HETATM   24  N   UNL     1     -18.022 -10.469  -2.972  1.00  0.00    -0.346 N 
HETATM   25  C   UNL     1     -17.297 -11.120  -2.011  1.00  0.00     0.109 A 
HETATM   26  C   UNL     1     -16.017 -10.639  -2.147  1.00  0.00     0.106 A 
HETATM   27  N   UNL     1     -15.946  -9.714  -3.156  1.00  0.00    -0.361 N 
HETATM   28  C   UNL     1     -17.164  -9.641  -3.643  1.00  0.00     0.182 A 
ATOM     29  HN  UNL     1     -15.124  -9.194  -3.463  1.00  0.00     0.166 HD
ENDBRANCH  23  24
ENDBRANCH   4  23
BRANCH   4  30
HETATM   30  C   UNL     1     -21.244 -10.849  -1.506  1.00  0.00     0.027 A 
HETATM   31  C   UNL     1     -22.220 -11.782  -1.920  1.00  0.00     0.047 A 
HETATM   32  C   UNL     1     -22.877 -12.613  -0.996  1.00  0.00     0.048 A 
HETATM   33 CL   UNL     1     -22.704 -11.979  -3.569  1.00  0.00    -0.084 Cl
HETATM   34  C   UNL     1     -22.594 -12.512   0.360  1.00  0.00     0.035 A 
HETATM   35  C   UNL     1     -21.661 -11.589   0.805  1.00  0.00     0.024 A 
HETATM   36 CL   UNL     1     -23.404 -13.529   1.485  1.00  0.00    -0.084 Cl
HETATM   37  C   UNL     1     -20.994 -10.772  -0.116  1.00  0.00     0.016 A 
ENDBRANCH   4  30
TORSDOF 7
ENDMDL
MODEL 3
REMARK VINA RESULT:      -9.5      1.822      2.159
REMARK  7 active torsions:
REMARK  status: ('A' for Active; 'I' for Inactive)
REMARK       I    between atoms: C_2  and  N_4 
REMARK    1  A    between atoms: N_7  and  C_10 
REMARK    2  A    between atoms: C_13  and  O_16 
REMARK    3  A    between atoms: O_16  and  C_17 
REMARK    4  A    between atoms: C_17  and  C_18 
REMARK    5  A    between atoms: C_21  and  C_23 
REMARK    6  A    between atoms: C_21  and  C_30 
REMARK    7  A    between atoms: C_23  and  N_24 
ROOT
HETATM    1  C   UNL     1     -21.163  -8.054  -3.063  1.00  0.00     0.173 C 
HETATM    2  C   UNL     1     -20.164  -8.037  -1.938  1.00  0.00     0.206 C 
HETATM    3  O   UNL     1     -19.713  -9.375  -1.797  1.00  0.00    -0.347 OA
HETATM    4  C   UNL     1     -20.691 -10.235  -2.423  1.00  0.00     0.212 C 
HETATM    5  O   UNL     1     -21.633  -9.403  -3.133  1.00  0.00    -0.340 OA
ENDROOT
BRANCH   1   6
HETATM    6  C   UNL     1     -20.589  -7.543  -4.397  1.00  0.00     0.209 C 
BRANCH   6   7
HETATM    7  O   UNL     1     -20.808  -6.140  -4.586  1.00  0.00    -0.349 OA
BRANCH   7   8
HETATM    8  C   UNL     1     -21.091  -5.746  -5.869  1.00  0.00     0.069 A 
HETATM    9  C   UNL     1     -22.353  -5.190  -6.079  1.00  0.00     0.039 A 
HETATM   10  C   UNL     1     -22.768  -4.820  -7.370  1.00  0.00     0.032 A 
HETATM   11  C   UNL     1     -21.941  -5.006  -8.485  1.00  0.00     0.030 A 
HETATM   12  C   UNL     1     -20.659  -5.514  -8.239  1.00  0.00     0.032 A 
HETATM   13  C   UNL     1     -20.230  -5.867  -6.953  1.00  0.00     0.039 A 
BRANCH  11  14
HETATM   14  N   UNL     1     -22.348  -4.728  -9.773  1.00  0.00    -0.378 N 
HETATM   15  C   UNL     1     -21.436  -4.284 -10.838  1.00  0.00     0.143 C 
HETATM   16  C   UNL     1     -21.894  -2.943 -11.450  1.00  0.00     0.145 C 
HETATM   17  N   UNL     1     -23.330  -2.949 -11.774  1.00  0.00    -0.349 N 
HETATM   18  C   UNL     1     -23.899  -2.675 -13.002  1.00  0.00     0.215 C 
HETATM   19  C   UNL     1     -24.191  -3.350 -10.658  1.00  0.00     0.145 C 
HETATM   20  C   UNL     1     -22.971  -2.340 -14.140  1.00  0.00     0.117 C 
HETATM   21  O   UNL     1     -25.115  -2.719 -13.195  1.00  0.00    -0.274 OA
HETATM   22  C   UNL     1     -23.782  -4.731 -10.119  1.00  0.00     0.143 C 
ENDBRANCH  11  14
ENDBRANCH   7   8
ENDBRANCH   6   7
ENDBRANCH   1   6
BRANCH   4  23
HETATM   23  C   UNL     1     -19.933 -11.098  -3.461  1.00  0.00     0.203 C 
BRANCH  23  24
HETATM   24  N   UNL     1     -20.727 -11.583  -4.564  1.00  0.00    -0.346 N 
HETATM   25  C   UNL     1     -20.777 -11.054  -5.824  1.00  0.00     0.109 A 
HETATM   26  C   UNL     1     -21.550 -11.931  -6.546  1.00  0.00     0.106 A 
HETATM   27  N   UNL     1     -21.973 -12.971  -5.761  1.00  0.00    -0.361 N 
HETATM   28  C   UNL     1     -21.453 -12.743  -4.576  1.00  0.00     0.182 A 
ATOM     29  HN  UNL     1     -22.566 -13.755  -6.036  1.00  0.00     0.166 HD
ENDBRANCH  23  24
ENDBRANCH   4  23
BRANCH   4  30
HETATM   30  C   UNL     1     -21.447 -11.053  -1.359  1.00  0.00     0.027 A 
HETATM   31  C   UNL     1     -20.813 -11.753  -0.309  1.00  0.00     0.047 A 
HETATM   32  C   UNL     1     -21.557 -12.437   0.668  1.00  0.00     0.048 A 
HETATM   33 CL   UNL     1     -19.095 -11.847  -0.134  1.00  0.00    -0.084 Cl
HETATM   34  C   UNL     1     -22.944 -12.461   0.603  1.00  0.00     0.035 A 
HETATM   35  C   UNL     1     -23.599 -11.807  -0.430  1.00  0.00     0.024 A 
HETATM   36 CL   UNL     1     -23.847 -13.304   1.798  1.00  0.00    -0.084 Cl
HETATM   37  C   UNL     1     -22.860 -11.110  -1.394  1.00  0.00     0.016 A 
ENDBRANCH   4  30
TORSDOF 7
ENDMDL
MODEL 4
REMARK VINA RESULT:      -9.4      2.053      2.745
REMARK  7 active torsions:
REMARK  status: ('A' for Active; 'I' for Inactive)
REMARK       I    between atoms: C_2  and  N_4 
REMARK    1  A    between atoms: N_7  and  C_10 
REMARK    2  A    between atoms: C_13  and  O_16 
REMARK    3  A    between atoms: O_16  and  C_17 
REMARK    4  A    between atoms: C_17  and  C_18 
REMARK    5  A    between atoms: C_21  and  C_23 
REMARK    6  A    between atoms: C_21  and  C_30 
REMARK    7  A    between atoms: C_23  and  N_24 
ROOT
HETATM    1  C   UNL     1     -20.942  -8.212  -1.992  1.00  0.00     0.173 C 
HETATM    2  C   UNL     1     -19.717  -9.035  -2.285  1.00  0.00     0.206 C 
HETATM    3  O   UNL     1     -20.190 -10.318  -2.662  1.00  0.00    -0.347 OA
HETATM    4  C   UNL     1     -21.544 -10.447  -2.172  1.00  0.00     0.212 C 
HETATM    5  O   UNL     1     -21.969  -9.158  -1.681  1.00  0.00    -0.340 OA
ENDROOT
BRANCH   1   6
HETATM    6  C   UNL     1     -21.325  -7.257  -3.137  1.00  0.00     0.209 C 
BRANCH   6   7
HETATM    7  O   UNL     1     -20.504  -7.436  -4.298  1.00  0.00    -0.349 OA
BRANCH   7   8
HETATM    8  C   UNL     1     -20.786  -6.618  -5.361  1.00  0.00     0.069 A 
HETATM    9  C   UNL     1     -22.013  -5.954  -5.320  1.00  0.00     0.039 A 
HETATM   10  C   UNL     1     -22.428  -5.148  -6.395  1.00  0.00     0.032 A 
HETATM   11  C   UNL     1     -21.637  -4.991  -7.539  1.00  0.00     0.030 A 
HETATM   12  C   UNL     1     -20.386  -5.621  -7.531  1.00  0.00     0.032 A 
HETATM   13  C   UNL     1     -19.956  -6.412  -6.456  1.00  0.00     0.039 A 
BRANCH  11  14
HETATM   14  N   UNL     1     -22.049  -4.273  -8.642  1.00  0.00    -0.378 N 
HETATM   15  C   UNL     1     -23.454  -3.935  -8.916  1.00  0.00     0.143 C 
HETATM   16  C   UNL     1     -23.896  -4.443 -10.305  1.00  0.00     0.145 C 
HETATM   17  N   UNL     1     -22.921  -4.100 -11.352  1.00  0.00    -0.349 N 
HETATM   18  C   UNL     1     -23.174  -3.407 -12.520  1.00  0.00     0.215 C 
HETATM   19  C   UNL     1     -21.547  -4.509 -11.045  1.00  0.00     0.145 C 
HETATM   20  C   UNL     1     -24.585  -2.942 -12.760  1.00  0.00     0.117 C 
HETATM   21  O   UNL     1     -22.293  -3.144 -13.340  1.00  0.00    -0.274 OA
HETATM   22  C   UNL     1     -21.087  -3.916  -9.702  1.00  0.00     0.143 C 
ENDBRANCH  11  14
ENDBRANCH   7   8
ENDBRANCH   6   7
ENDBRANCH   1   6
BRANCH   4  23
HETATM   23  C   UNL     1     -22.429 -10.816  -3.387  1.00  0.00     0.203 C 
BRANCH  23  24
HETATM   24  N   UNL     1     -21.723 -11.331  -4.535  1.00  0.00    -0.346 N 
HETATM   25  C   UNL     1     -21.514 -12.649  -4.837  1.00  0.00     0.109 A 
HETATM   26  C   UNL     1     -20.928 -12.638  -6.080  1.00  0.00     0.106 A 
HETATM   27  N   UNL     1     -20.772 -11.355  -6.537  1.00  0.00    -0.361 N 
HETATM   28  C   UNL     1     -21.271 -10.589  -5.593  1.00  0.00     0.182 A 
ATOM     29  HN  UNL     1     -20.358 -11.058  -7.421  1.00  0.00     0.166 HD
ENDBRANCH  23  24
ENDBRANCH   4  23
BRANCH   4  30
HETATM   30  C   UNL     1     -21.603 -11.467  -1.019  1.00  0.00     0.027 A 
HETATM   31  C   UNL     1     -22.742 -11.671  -0.209  1.00  0.00     0.047 A 
HETATM   32  C   UNL     1     -22.759 -12.656   0.794  1.00  0.00     0.048 A 
HETATM   33 CL   UNL     1     -24.192 -10.740  -0.358  1.00  0.00    -0.084 Cl
HETATM   34  C   UNL     1     -21.634 -13.437   1.028  1.00  0.00     0.035 A 
HETATM   35  C   UNL     1     -20.490 -13.245   0.269  1.00  0.00     0.024 A 
HETATM   36 CL   UNL     1     -21.661 -14.636   2.259  1.00  0.00    -0.084 Cl
HETATM   37  C   UNL     1     -20.477 -12.277  -0.742  1.00  0.00     0.016 A 
ENDBRANCH   4  30
TORSDOF 7
ENDMDL
MODEL 5
REMARK VINA RESULT:      -9.3      2.437      3.811
REMARK  7 active torsions:
REMARK  status: ('A' for Active; 'I' for Inactive)
REMARK       I    between atoms: C_2  and  N_4 
REMARK    1  A    between atoms: N_7  and  C_10 
REMARK    2  A    between atoms: C_13  and  O_16 
REMARK    3  A    between atoms: O_16  and  C_17 
REMARK    4  A    between atoms: C_17  and  C_18 
REMARK    5  A    between atoms: C_21  and  C_23 
REMARK    6  A    between atoms: C_21  and  C_30 
REMARK    7  A    between atoms: C_23  and  N_24 
ROOT
HETATM    1  C   UNL     1     -20.281  -8.084  -4.925  1.00  0.00     0.173 C 
HETATM    2  C   UNL     1     -21.200  -9.273  -5.007  1.00  0.00     0.206 C 
HETATM    3  O   UNL     1     -20.779 -10.161  -3.983  1.00  0.00    -0.347 OA
HETATM    4  C   UNL     1     -19.425  -9.805  -3.623  1.00  0.00     0.212 C 
HETATM    5  O   UNL     1     -19.098  -8.562  -4.280  1.00  0.00    -0.340 OA
ENDROOT
BRANCH   1   6
HETATM    6  C   UNL     1     -20.912  -6.873  -4.214  1.00  0.00     0.209 C 
BRANCH   6   7
HETATM    7  O   UNL     1     -20.410  -5.625  -4.706  1.00  0.00    -0.349 OA
BRANCH   7   8
HETATM    8  C   UNL     1     -20.772  -5.298  -5.988  1.00  0.00     0.069 A 
HETATM    9  C   UNL     1     -22.137  -5.123  -6.217  1.00  0.00     0.039 A 
HETATM   10  C   UNL     1     -22.618  -4.857  -7.511  1.00  0.00     0.032 A 
HETATM   11  C   UNL     1     -21.754  -4.770  -8.609  1.00  0.00     0.030 A 
HETATM   12  C   UNL     1     -20.385  -4.893  -8.343  1.00  0.00     0.032 A 
HETATM   13  C   UNL     1     -19.894  -5.140  -7.053  1.00  0.00     0.039 A 
BRANCH  11  14
HETATM   14  N   UNL     1     -22.201  -4.589  -9.901  1.00  0.00    -0.378 N 
HETATM   15  C   UNL     1     -21.315  -4.283 -11.034  1.00  0.00     0.143 C 
HETATM   16  C   UNL     1     -21.743  -2.982 -11.748  1.00  0.00     0.145 C 
HETATM   17  N   UNL     1     -23.189  -2.952 -12.017  1.00  0.00    -0.349 N 
HETATM   18  C   UNL     1     -23.797  -2.762 -13.243  1.00  0.00     0.215 C 
HETATM   19  C   UNL     1     -24.020  -3.213 -10.838  1.00  0.00     0.145 C 
HETATM   20  C   UNL     1     -22.903  -2.571 -14.439  1.00  0.00     0.117 C 
HETATM   21  O   UNL     1     -25.020  -2.769 -13.386  1.00  0.00    -0.274 OA
HETATM   22  C   UNL     1     -23.647  -4.559 -10.192  1.00  0.00     0.143 C 
ENDBRANCH  11  14
ENDBRANCH   7   8
ENDBRANCH   6   7
ENDBRANCH   1   6
BRANCH   4  23
HETATM   23  C   UNL     1     -19.416  -9.559  -2.095  1.00  0.00     0.203 C 
BRANCH  23  24
HETATM   24  N   UNL     1     -20.665  -9.809  -1.418  1.00  0.00    -0.346 N 
HETATM   25  C   UNL     1     -21.004 -10.940  -0.727  1.00  0.00     0.109 A 
HETATM   26  C   UNL     1     -22.219 -10.653  -0.152  1.00  0.00     0.106 A 
HETATM   27  N   UNL     1     -22.627  -9.386  -0.477  1.00  0.00    -0.361 N 
HETATM   28  C   UNL     1     -21.668  -8.896  -1.230  1.00  0.00     0.182 A 
ATOM     29  HN  UNL     1     -23.491  -8.922  -0.196  1.00  0.00     0.166 HD
ENDBRANCH  23  24
ENDBRANCH   4  23
BRANCH   4  30
HETATM   30  C   UNL     1     -18.441 -10.893  -4.090  1.00  0.00     0.027 A 
HETATM   31  C   UNL     1     -17.052 -10.858  -3.837  1.00  0.00     0.047 A 
HETATM   32  C   UNL     1     -16.208 -11.907  -4.239  1.00  0.00     0.048 A 
HETATM   33 CL   UNL     1     -16.268  -9.540  -3.037  1.00  0.00    -0.084 Cl
HETATM   34  C   UNL     1     -16.725 -12.999  -4.924  1.00  0.00     0.035 A 
HETATM   35  C   UNL     1     -18.080 -13.054  -5.214  1.00  0.00     0.024 A 
HETATM   36 CL   UNL     1     -15.686 -14.277  -5.417  1.00  0.00    -0.084 Cl
HETATM   37  C   UNL     1     -18.925 -12.018  -4.798  1.00  0.00     0.016 A 
ENDBRANCH   4  30
TORSDOF 7
ENDMDL
MODEL 6
REMARK VINA RESULT:      -9.2      2.607      4.185
REMARK  7 active torsions:
REMARK  status: ('A' for Active; 'I' for Inactive)
REMARK       I    between atoms: C_2  and  N_4 
REMARK    1  A    between atoms: N_7  and  C_10 
REMARK    2  A    between atoms: C_13  and  O_16 
REMARK    3  A    between atoms: O_16  and  C_17 
REMARK    4  A    between atoms: C_17  and  C_18 
REMARK    5  A    between atoms: C_21  and  C_23 
REMARK    6  A    between atoms: C_21  and  C_30 
REMARK    7  A    between atoms: C_23  and  N_24 
ROOT
HETATM    1  C   UNL     1     -18.894  -9.322  -4.304  1.00  0.00     0.173 C 
HETATM    2  C   UNL     1     -18.769 -10.739  -4.795  1.00  0.00     0.206 C 
HETATM    3  O   UNL     1     -19.289 -11.558  -3.760  1.00  0.00    -0.347 OA
HETATM    4  C   UNL     1     -19.276 -10.782  -2.540  1.00  0.00     0.212 C 
HETATM    5  O   UNL     1     -18.945  -9.418  -2.878  1.00  0.00    -0.340 OA
ENDROOT
BRANCH   1   6
HETATM    6  C   UNL     1     -20.095  -8.571  -4.905  1.00  0.00     0.209 C 
BRANCH   6   7
HETATM    7  O   UNL     1     -20.037  -7.160  -4.662  1.00  0.00    -0.349 OA
BRANCH   7   8
HETATM    8  C   UNL     1     -20.423  -6.357  -5.705  1.00  0.00     0.069 A 
HETATM    9  C   UNL     1     -21.733  -5.877  -5.660  1.00  0.00     0.039 A 
HETATM   10  C   UNL     1     -22.249  -5.105  -6.716  1.00  0.00     0.032 A 
HETATM   11  C   UNL     1     -21.479  -4.802  -7.845  1.00  0.00     0.030 A 
HETATM   12  C   UNL     1     -20.152  -5.248  -7.839  1.00  0.00     0.032 A 
HETATM   13  C   UNL     1     -19.622  -6.002  -6.783  1.00  0.00     0.039 A 
BRANCH  11  14
HETATM   14  N   UNL     1     -21.980  -4.116  -8.931  1.00  0.00    -0.378 N 
HETATM   15  C   UNL     1     -23.406  -3.803  -9.110  1.00  0.00     0.143 C 
HETATM   16  C   UNL     1     -23.940  -4.351 -10.452  1.00  0.00     0.145 C 
HETATM   17  N   UNL     1     -23.048  -4.021 -11.575  1.00  0.00    -0.349 N 
HETATM   18  C   UNL     1     -23.394  -3.359 -12.737  1.00  0.00     0.215 C 
HETATM   19  C   UNL     1     -21.649  -4.404 -11.358  1.00  0.00     0.145 C 
HETATM   20  C   UNL     1     -24.826  -2.918 -12.884  1.00  0.00     0.117 C 
HETATM   21  O   UNL     1     -22.580  -3.105 -13.624  1.00  0.00    -0.274 OA
HETATM   22  C   UNL     1     -21.102  -3.773 -10.066  1.00  0.00     0.143 C 
ENDBRANCH  11  14
ENDBRANCH   7   8
ENDBRANCH   6   7
ENDBRANCH   1   6
BRANCH   4  23
HETATM   23  C   UNL     1     -20.717 -10.804  -1.977  1.00  0.00     0.203 C 
BRANCH  23  24
HETATM   24  N   UNL     1     -21.111  -9.631  -1.234  1.00  0.00    -0.346 N 
HETATM   25  C   UNL     1     -21.889  -8.603  -1.690  1.00  0.00     0.109 A 
HETATM   26  C   UNL     1     -22.100  -7.804  -0.592  1.00  0.00     0.106 A 
HETATM   27  N   UNL     1     -21.471  -8.315   0.513  1.00  0.00    -0.361 N 
HETATM   28  C   UNL     1     -20.893  -9.421   0.101  1.00  0.00     0.182 A 
ATOM     29  HN  UNL     1     -21.453  -7.920   1.454  1.00  0.00     0.166 HD
ENDBRANCH  23  24
ENDBRANCH   4  23
BRANCH   4  30
HETATM   30  C   UNL     1     -18.213 -11.329  -1.567  1.00  0.00     0.027 A 
HETATM   31  C   UNL     1     -16.829 -11.087  -1.700  1.00  0.00     0.047 A 
HETATM   32  C   UNL     1     -15.908 -11.564  -0.751  1.00  0.00     0.048 A 
HETATM   33 CL   UNL     1     -16.141 -10.212  -3.025  1.00  0.00    -0.084 Cl
HETATM   34  C   UNL     1     -16.346 -12.314   0.334  1.00  0.00     0.035 A 
HETATM   35  C   UNL     1     -17.696 -12.593   0.481  1.00  0.00     0.024 A 
HETATM   36 CL   UNL     1     -15.214 -12.898   1.488  1.00  0.00    -0.084 Cl
HETATM   37  C   UNL     1     -18.616 -12.103  -0.454  1.00  0.00     0.016 A 
ENDBRANCH   4  30
TORSDOF 7
ENDMDL
MODEL 7
REMARK VINA RESULT:      -8.2      3.649      5.607
REMARK  7 active torsions:
REMARK  status: ('A' for Active; 'I' for Inactive)
REMARK       I    between atoms: C_2  and  N_4 
REMARK    1  A    between atoms: N_7  and  C_10 
REMARK    2  A    between atoms: C_13  and  O_16 
REMARK    3  A    between atoms: O_16  and  C_17 
REMARK    4  A    between atoms: C_17  and  C_18 
REMARK    5  A    between atoms: C_21  and  C_23 
REMARK    6  A    between atoms: C_21  and  C_30 
REMARK    7  A    between atoms: C_23  and  N_24 
ROOT
HETATM    1  C   UNL     1     -19.100 -10.413  -2.922  1.00  0.00     0.173 C 
HETATM    2  C   UNL     1     -18.025  -9.365  -2.817  1.00  0.00     0.206 C 
HETATM    3  O   UNL     1     -17.142  -9.602  -3.902  1.00  0.00    -0.347 OA
HETATM    4  C   UNL     1     -17.353 -10.961  -4.349  1.00  0.00     0.212 C 
HETATM    5  O   UNL     1     -18.516 -11.482  -3.671  1.00  0.00    -0.340 OA
ENDROOT
BRANCH   1   6
HETATM    6  C   UNL     1     -20.409  -9.886  -3.536  1.00  0.00     0.209 C 
BRANCH   6   7
HETATM    7  O   UNL     1     -20.677  -8.527  -3.173  1.00  0.00    -0.349 OA
BRANCH   7   8
HETATM    8  C   UNL     1     -20.953  -7.674  -4.211  1.00  0.00     0.069 A 
HETATM    9  C   UNL     1     -19.997  -7.607  -5.225  1.00  0.00     0.039 A 
HETATM   10  C   UNL     1     -20.152  -6.711  -6.297  1.00  0.00     0.032 A 
HETATM   11  C   UNL     1     -21.254  -5.852  -6.380  1.00  0.00     0.030 A 
HETATM   12  C   UNL     1     -22.226  -5.979  -5.380  1.00  0.00     0.032 A 
HETATM   13  C   UNL     1     -22.091  -6.883  -4.317  1.00  0.00     0.039 A 
BRANCH  11  14
HETATM   14  N   UNL     1     -21.395  -4.908  -7.375  1.00  0.00    -0.378 N 
HETATM   15  C   UNL     1     -22.683  -4.560  -7.993  1.00  0.00     0.143 C 
HETATM   16  C   UNL     1     -22.641  -4.741  -9.525  1.00  0.00     0.145 C 
HETATM   17  N   UNL     1     -21.441  -4.129 -10.118  1.00  0.00    -0.349 N 
HETATM   18  C   UNL     1     -21.408  -3.189 -11.129  1.00  0.00     0.215 C 
HETATM   19  C   UNL     1     -20.184  -4.554  -9.494  1.00  0.00     0.145 C 
HETATM   20  C   UNL     1     -22.726  -2.726 -11.691  1.00  0.00     0.117 C 
HETATM   21  O   UNL     1     -20.357  -2.711 -11.559  1.00  0.00    -0.274 OA
HETATM   22  C   UNL     1     -20.204  -4.280  -7.981  1.00  0.00     0.143 C 
ENDBRANCH  11  14
ENDBRANCH   7   8
ENDBRANCH   6   7
ENDBRANCH   1   6
BRANCH   4  23
HETATM   23  C   UNL     1     -17.667 -10.893  -5.863  1.00  0.00     0.203 C 
BRANCH  23  24
HETATM   24  N   UNL     1     -18.453 -11.986  -6.383  1.00  0.00    -0.346 N 
HETATM   25  C   UNL     1     -19.807 -11.993  -6.576  1.00  0.00     0.109 A 
HETATM   26  C   UNL     1     -20.068 -13.183  -7.212  1.00  0.00     0.106 A 
HETATM   27  N   UNL     1     -18.914 -13.897  -7.407  1.00  0.00    -0.361 N 
HETATM   28  C   UNL     1     -17.956 -13.147  -6.910  1.00  0.00     0.182 A 
ATOM     29  HN  UNL     1     -18.819 -14.814  -7.844  1.00  0.00     0.166 HD
ENDBRANCH  23  24
ENDBRANCH   4  23
BRANCH   4  30
HETATM   30  C   UNL     1     -16.134 -11.836  -3.999  1.00  0.00     0.027 A 
HETATM   31  C   UNL     1     -15.005 -11.982  -4.834  1.00  0.00     0.047 A 
HETATM   32  C   UNL     1     -13.896 -12.749  -4.439  1.00  0.00     0.048 A 
HETATM   33 CL   UNL     1     -14.885 -11.256  -6.400  1.00  0.00    -0.084 Cl
HETATM   34  C   UNL     1     -13.902 -13.409  -3.217  1.00  0.00     0.035 A 
HETATM   35  C   UNL     1     -15.004 -13.310  -2.383  1.00  0.00     0.024 A 
HETATM   36 CL   UNL     1     -12.544 -14.350  -2.742  1.00  0.00    -0.084 Cl
HETATM   37  C   UNL     1     -16.103 -12.531  -2.768  1.00  0.00     0.016 A 
ENDBRANCH   4  30
TORSDOF 7
ENDMDL
MODEL 8
REMARK VINA RESULT:      -8.1      2.996      4.392
REMARK  7 active torsions:
REMARK  status: ('A' for Active; 'I' for Inactive)
REMARK       I    between atoms: C_2  and  N_4 
REMARK    1  A    between atoms: N_7  and  C_10 
REMARK    2  A    between atoms: C_13  and  O_16 
REMARK    3  A    between atoms: O_16  and  C_17 
REMARK    4  A    between atoms: C_17  and  C_18 
REMARK    5  A    between atoms: C_21  and  C_23 
REMARK    6  A    between atoms: C_21  and  C_30 
REMARK    7  A    between atoms: C_23  and  N_24 
ROOT
HETATM    1  C   UNL     1     -18.981  -9.150  -2.979  1.00  0.00     0.173 C 
HETATM    2  C   UNL     1     -17.603  -9.310  -3.562  1.00  0.00     0.206 C 
HETATM    3  O   UNL     1     -17.405 -10.706  -3.717  1.00  0.00    -0.347 OA
HETATM    4  C   UNL     1     -18.350 -11.381  -2.855  1.00  0.00     0.212 C 
HETATM    5  O   UNL     1     -19.268 -10.395  -2.336  1.00  0.00    -0.340 OA
ENDROOT
BRANCH   1   6
HETATM    6  C   UNL     1     -20.041  -8.747  -4.019  1.00  0.00     0.209 C 
BRANCH   6   7
HETATM    7  O   UNL     1     -20.547  -7.424  -3.802  1.00  0.00    -0.349 OA
BRANCH   7   8
HETATM    8  C   UNL     1     -21.009  -6.770  -4.915  1.00  0.00     0.069 A 
HETATM    9  C   UNL     1     -20.072  -6.529  -5.921  1.00  0.00     0.039 A 
HETATM   10  C   UNL     1     -20.427  -5.803  -7.071  1.00  0.00     0.032 A 
HETATM   11  C   UNL     1     -21.718  -5.290  -7.243  1.00  0.00     0.030 A 
HETATM   12  C   UNL     1     -22.654  -5.593  -6.246  1.00  0.00     0.032 A 
HETATM   13  C   UNL     1     -22.314  -6.333  -5.104  1.00  0.00     0.039 A 
BRANCH  11  14
HETATM   14  N   UNL     1     -22.076  -4.507  -8.320  1.00  0.00    -0.378 N 
HETATM   15  C   UNL     1     -23.466  -4.159  -8.650  1.00  0.00     0.143 C 
HETATM   16  C   UNL     1     -23.828  -4.584 -10.090  1.00  0.00     0.145 C 
HETATM   17  N   UNL     1     -22.800  -4.173 -11.059  1.00  0.00    -0.349 N 
HETATM   18  C   UNL     1     -22.994  -3.410 -12.195  1.00  0.00     0.215 C 
HETATM   19  C   UNL     1     -21.441  -4.593 -10.702  1.00  0.00     0.145 C 
HETATM   20  C   UNL     1     -24.395  -2.938 -12.482  1.00  0.00     0.117 C 
HETATM   21  O   UNL     1     -22.073  -3.093 -12.948  1.00  0.00    -0.274 OA
HETATM   22  C   UNL     1     -21.060  -4.081  -9.303  1.00  0.00     0.143 C 
ENDBRANCH  11  14
ENDBRANCH   7   8
ENDBRANCH   6   7
ENDBRANCH   1   6
BRANCH   4  23
HETATM   23  C   UNL     1     -19.149 -12.363  -3.746  1.00  0.00     0.203 C 
BRANCH  23  24
HETATM   24  N   UNL     1     -18.910 -12.249  -5.164  1.00  0.00    -0.346 N 
HETATM   25  C   UNL     1     -17.942 -12.900  -5.880  1.00  0.00     0.109 A 
HETATM   26  C   UNL     1     -18.200 -12.584  -7.192  1.00  0.00     0.106 A 
HETATM   27  N   UNL     1     -19.290 -11.759  -7.292  1.00  0.00    -0.361 N 
HETATM   28  C   UNL     1     -19.705 -11.584  -6.058  1.00  0.00     0.182 A 
ATOM     29  HN  UNL     1     -19.693 -11.365  -8.143  1.00  0.00     0.166 HD
ENDBRANCH  23  24
ENDBRANCH   4  23
BRANCH   4  30
HETATM   30  C   UNL     1     -17.618 -12.054  -1.678  1.00  0.00     0.027 A 
HETATM   31  C   UNL     1     -16.369 -12.701  -1.797  1.00  0.00     0.047 A 
HETATM   32  C   UNL     1     -15.720 -13.250  -0.677  1.00  0.00     0.048 A 
HETATM   33 CL   UNL     1     -15.539 -12.892  -3.302  1.00  0.00    -0.084 Cl
HETATM   34  C   UNL     1     -16.315 -13.188   0.577  1.00  0.00     0.035 A 
HETATM   35  C   UNL     1     -17.554 -12.583   0.725  1.00  0.00     0.024 A 
HETATM   36 CL   UNL     1     -15.518 -13.865   1.941  1.00  0.00    -0.084 Cl
HETATM   37  C   UNL     1     -18.193 -12.021  -0.387  1.00  0.00     0.016 A 
ENDBRANCH   4  30
TORSDOF 7
ENDMDL
MODEL 9
REMARK VINA RESULT:      -8.1      1.882      2.394
REMARK  7 active torsions:
REMARK  status: ('A' for Active; 'I' for Inactive)
REMARK       I    between atoms: C_2  and  N_4 
REMARK    1  A    between atoms: N_7  and  C_10 
REMARK    2  A    between atoms: C_13  and  O_16 
REMARK    3  A    between atoms: O_16  and  C_17 
REMARK    4  A    between atoms: C_17  and  C_18 
REMARK    5  A    between atoms: C_21  and  C_23 
REMARK    6  A    between atoms: C_21  and  C_30 
REMARK    7  A    between atoms: C_23  and  N_24 
ROOT
HETATM    1  C   UNL     1     -21.749  -7.332  -3.659  1.00  0.00     0.173 C 
HETATM    2  C   UNL     1     -21.366  -8.034  -2.384  1.00  0.00     0.206 C 
HETATM    3  O   UNL     1     -20.286  -8.891  -2.721  1.00  0.00    -0.347 OA
HETATM    4  C   UNL     1     -20.314  -9.088  -4.153  1.00  0.00     0.212 C 
HETATM    5  O   UNL     1     -21.285  -8.179  -4.713  1.00  0.00    -0.340 OA
ENDROOT
BRANCH   1   6
HETATM    6  C   UNL     1     -21.206  -5.895  -3.751  1.00  0.00     0.209 C 
BRANCH   6   7
HETATM    7  O   UNL     1     -20.286  -5.725  -4.836  1.00  0.00    -0.349 OA
BRANCH   7   8
HETATM    8  C   UNL     1     -20.847  -5.533  -6.072  1.00  0.00     0.069 A 
HETATM    9  C   UNL     1     -20.008  -5.735  -7.169  1.00  0.00     0.039 A 
HETATM   10  C   UNL     1     -20.466  -5.494  -8.475  1.00  0.00     0.032 A 
HETATM   11  C   UNL     1     -21.766  -5.037  -8.723  1.00  0.00     0.030 A 
HETATM   12  C   UNL     1     -22.605  -4.897  -7.610  1.00  0.00     0.032 A 
HETATM   13  C   UNL     1     -22.163  -5.153  -6.305  1.00  0.00     0.039 A 
BRANCH  11  14
HETATM   14  N   UNL     1     -22.220  -4.717  -9.984  1.00  0.00    -0.378 N 
HETATM   15  C   UNL     1     -21.346  -4.249 -11.071  1.00  0.00     0.143 C 
HETATM   16  C   UNL     1     -21.815  -2.886 -11.625  1.00  0.00     0.145 C 
HETATM   17  N   UNL     1     -23.262  -2.868 -11.891  1.00  0.00    -0.349 N 
HETATM   18  C   UNL     1     -23.877  -2.552 -13.087  1.00  0.00     0.215 C 
HETATM   19  C   UNL     1     -24.083  -3.295 -10.753  1.00  0.00     0.145 C 
HETATM   20  C   UNL     1     -22.991  -2.191 -14.249  1.00  0.00     0.117 C 
HETATM   21  O   UNL     1     -25.099  -2.579 -13.232  1.00  0.00    -0.274 OA
HETATM   22  C   UNL     1     -23.667  -4.696 -10.273  1.00  0.00     0.143 C 
ENDBRANCH  11  14
ENDBRANCH   7   8
ENDBRANCH   6   7
ENDBRANCH   1   6
BRANCH   4  23
HETATM   23  C   UNL     1     -18.917  -8.693  -4.689  1.00  0.00     0.203 C 
BRANCH  23  24
HETATM   24  N   UNL     1     -17.815  -9.480  -4.190  1.00  0.00    -0.346 N 
HETATM   25  C   UNL     1     -17.374  -9.532  -2.895  1.00  0.00     0.109 A 
HETATM   26  C   UNL     1     -16.411 -10.511  -2.889  1.00  0.00     0.106 A 
HETATM   27  N   UNL     1     -16.252 -11.050  -4.139  1.00  0.00    -0.361 N 
HETATM   28  C   UNL     1     -17.118 -10.419  -4.900  1.00  0.00     0.182 A 
ATOM     29  HN  UNL     1     -15.600 -11.783  -4.420  1.00  0.00     0.166 HD
ENDBRANCH  23  24
ENDBRANCH   4  23
BRANCH   4  30
HETATM   30  C   UNL     1     -20.729 -10.533  -4.488  1.00  0.00     0.027 A 
HETATM   31  C   UNL     1     -20.733 -11.587  -3.548  1.00  0.00     0.047 A 
HETATM   32  C   UNL     1     -21.175 -12.876  -3.895  1.00  0.00     0.048 A 
HETATM   33 CL   UNL     1     -20.190 -11.405  -1.916  1.00  0.00    -0.084 Cl
HETATM   34  C   UNL     1     -21.597 -13.146  -5.191  1.00  0.00     0.035 A 
HETATM   35  C   UNL     1     -21.581 -12.141  -6.146  1.00  0.00     0.024 A 
HETATM   36 CL   UNL     1     -22.133 -14.725  -5.610  1.00  0.00    -0.084 Cl
HETATM   37  C   UNL     1     -21.158 -10.853  -5.797  1.00  0.00     0.016 A 
ENDBRANCH   4  30
TORSDOF 7
ENDMDL
