MODEL 1
REMARK VINA RESULT:      -6.2      0.000      0.000
REMARK  17 active torsions:
REMARK  status: ('A' for Active; 'I' for Inactive)
REMARK    1  A    between atoms: C_1  and  C_2 
REMARK    2  A    between atoms: C_1  and  O_24 
REMARK    3  A    between atoms: C_3  and  O_23 
REMARK    4  A    between atoms: C_4  and  O_22 
REMARK    5  A    between atoms: C_5  and  O_21 
REMARK    6  A    between atoms: C_6  and  O_8 
REMARK    7  A    between atoms: O_8  and  C_9 
REMARK    8  A    between atoms: C_9  and  C_10 
REMARK    9  A    between atoms: C_9  and  C_14 
REMARK   10  A    between atoms: C_10  and  C_11 
REMARK   11  A    between atoms: C_10  and  O_13 
REMARK   12  A    between atoms: C_11  and  O_12 
REMARK   13  A    between atoms: C_14  and  C_15 
REMARK   14  A    between atoms: C_14  and  O_20 
REMARK   15  A    between atoms: C_15  and  C_16 
REMARK   16  A    between atoms: C_15  and  O_19 
REMARK   17  A    between atoms: C_16  and  O_18 
ROOT
HETATM    1  C   UNL     1     -23.434  -4.333 -10.800  1.00  0.00     0.187 C 
ENDROOT
BRANCH   1   2
HETATM    2  O   UNL     1     -22.038  -4.127 -10.460  1.00  0.00    -0.348 OA
BRANCH   2   3
HETATM    3  C   UNL     1     -21.667  -4.198  -9.069  1.00  0.00     0.292 C 
HETATM    4  C   UNL     1     -20.137  -3.992  -9.032  1.00  0.00     0.204 C 
HETATM    5  C   UNL     1     -19.618  -4.146  -7.602  1.00  0.00     0.183 C 
HETATM    6  C   UNL     1     -20.029  -5.512  -7.025  1.00  0.00     0.180 C 
HETATM    7  C   UNL     1     -21.554  -5.709  -7.165  1.00  0.00     0.179 C 
HETATM    8  O   UNL     1     -22.014  -5.467  -8.521  1.00  0.00    -0.348 OA
BRANCH   4   9
HETATM    9  O   UNL     1     -19.482  -4.978  -9.865  1.00  0.00    -0.388 OA
HETATM   10  H   UNL     1     -18.601  -4.599 -10.053  1.00  0.00     0.210 HD
ENDBRANCH   4   9
BRANCH   5  11
HETATM   11  O   UNL     1     -18.196  -3.994  -7.592  1.00  0.00    -0.390 OA
HETATM   12  H   UNL     1     -17.914  -4.097  -8.524  1.00  0.00     0.210 HD
ENDBRANCH   5  11
BRANCH   6  13
HETATM   13  O   UNL     1     -19.344  -6.576  -7.706  1.00  0.00    -0.390 OA
HETATM   14  H   UNL     1     -18.784  -6.168  -8.389  1.00  0.00     0.210 HD
ENDBRANCH   6  13
BRANCH   7  15
HETATM   15  C   UNL     1     -22.312  -4.864  -6.124  1.00  0.00     0.198 C 
BRANCH  15  16
HETATM   16  O   UNL     1     -23.719  -4.953  -6.324  1.00  0.00    -0.398 OA
HETATM   17  H   UNL     1     -24.023  -5.744  -5.843  1.00  0.00     0.209 HD
ENDBRANCH  15  16
ENDBRANCH   7  15
ENDBRANCH   2   3
ENDBRANCH   1   2
BRANCH   1  18
HETATM   18  C   UNL     1     -24.375  -4.175  -9.563  1.00  0.00     0.173 C 
BRANCH  18  19
HETATM   19  C   UNL     1     -25.133  -2.843  -9.443  1.00  0.00     0.198 C 
BRANCH  19  20
HETATM   20  O   UNL     1     -26.536  -3.078  -9.605  1.00  0.00    -0.398 OA
HETATM   21  H   UNL     1     -26.609  -3.889 -10.144  1.00  0.00     0.209 HD
ENDBRANCH  19  20
ENDBRANCH  18  19
BRANCH  18  22
HETATM   22  O   UNL     1     -25.416  -5.193  -9.601  1.00  0.00    -0.391 OA
HETATM   23  H   UNL     1     -25.099  -5.928  -9.037  1.00  0.00     0.210 HD
ENDBRANCH  18  22
ENDBRANCH   1  18
BRANCH   1  24
HETATM   24  C   UNL     1     -23.737  -3.312 -11.945  1.00  0.00     0.189 C 
BRANCH  24  25
HETATM   25  C   UNL     1     -23.024  -3.628 -13.279  1.00  0.00     0.246 C 
BRANCH  25  26
HETATM   26  C   UNL     1     -23.262  -2.551 -14.332  1.00  0.00     0.172 C 
HETATM   27  O   UNL     1     -24.123  -1.686 -14.265  1.00  0.00    -0.648 OA
BRANCH  26  28
HETATM   28  O   UNL     1     -22.351  -2.608 -15.332  1.00  0.00    -0.774 OA
HETATM   29  H   UNL     1     -22.725  -3.106 -16.095  1.00  0.00     0.167 HD
ENDBRANCH  26  28
ENDBRANCH  25  26
BRANCH  25  30
HETATM   30  O   UNL     1     -21.595  -3.669 -13.088  1.00  0.00    -0.382 OA
HETATM   31  H   UNL     1     -21.324  -4.590 -13.295  1.00  0.00     0.210 HD
ENDBRANCH  25  30
ENDBRANCH  24  25
BRANCH  24  32
HETATM   32  O   UNL     1     -25.134  -3.145 -12.222  1.00  0.00    -0.390 OA
HETATM   33  H   UNL     1     -25.571  -4.017 -12.124  1.00  0.00     0.210 HD
ENDBRANCH  24  32
ENDBRANCH   1  24
TORSDOF 17
ENDMDL
MODEL 2
REMARK VINA RESULT:      -5.8      5.822      9.743
REMARK  17 active torsions:
REMARK  status: ('A' for Active; 'I' for Inactive)
REMARK    1  A    between atoms: C_1  and  C_2 
REMARK    2  A    between atoms: C_1  and  O_24 
REMARK    3  A    between atoms: C_3  and  O_23 
REMARK    4  A    between atoms: C_4  and  O_22 
REMARK    5  A    between atoms: C_5  and  O_21 
REMARK    6  A    between atoms: C_6  and  O_8 
REMARK    7  A    between atoms: O_8  and  C_9 
REMARK    8  A    between atoms: C_9  and  C_10 
REMARK    9  A    between atoms: C_9  and  C_14 
REMARK   10  A    between atoms: C_10  and  C_11 
REMARK   11  A    between atoms: C_10  and  O_13 
REMARK   12  A    between atoms: C_11  and  O_12 
REMARK   13  A    between atoms: C_14  and  C_15 
REMARK   14  A    between atoms: C_14  and  O_20 
REMARK   15  A    between atoms: C_15  and  C_16 
REMARK   16  A    between atoms: C_15  and  O_19 
REMARK   17  A    between atoms: C_16  and  O_18 
ROOT
HETATM    1  C   UNL     1     -21.327  -7.330  -3.941  1.00  0.00     0.187 C 
ENDROOT
BRANCH   1   2
HETATM    2  O   UNL     1     -21.913  -8.562  -4.437  1.00  0.00    -0.348 OA
BRANCH   2   3
HETATM    3  C   UNL     1     -21.020  -9.641  -4.779  1.00  0.00     0.292 C 
HETATM    4  C   UNL     1     -21.622 -10.905  -4.130  1.00  0.00     0.204 C 
HETATM    5  C   UNL     1     -20.698 -12.103  -4.348  1.00  0.00     0.183 C 
HETATM    6  C   UNL     1     -19.287 -11.798  -3.814  1.00  0.00     0.180 C 
HETATM    7  C   UNL     1     -18.763 -10.479  -4.424  1.00  0.00     0.179 C 
HETATM    8  O   UNL     1     -19.713  -9.391  -4.269  1.00  0.00    -0.348 OA
BRANCH   4   9
HETATM    9  O   UNL     1     -21.782 -10.705  -2.705  1.00  0.00    -0.388 OA
HETATM   10  H   UNL     1     -22.205  -9.827  -2.623  1.00  0.00     0.210 HD
ENDBRANCH   4   9
BRANCH   5  11
HETATM   11  O   UNL     1     -21.250 -13.255  -3.705  1.00  0.00    -0.390 OA
HETATM   12  H   UNL     1     -20.567 -13.554  -3.070  1.00  0.00     0.210 HD
ENDBRANCH   5  11
BRANCH   6  13
HETATM   13  O   UNL     1     -19.301 -11.691  -2.381  1.00  0.00    -0.390 OA
HETATM   14  H   UNL     1     -19.759 -10.862  -2.158  1.00  0.00     0.210 HD
ENDBRANCH   6  13
BRANCH   7  15
HETATM   15  C   UNL     1     -18.336 -10.687  -5.889  1.00  0.00     0.198 C 
BRANCH  15  16
HETATM   16  O   UNL     1     -17.966  -9.451  -6.490  1.00  0.00    -0.398 OA
HETATM   17  H   UNL     1     -17.185  -9.630  -7.046  1.00  0.00     0.209 HD
ENDBRANCH  15  16
ENDBRANCH   7  15
ENDBRANCH   2   3
ENDBRANCH   1   2
BRANCH   1  18
HETATM   18  C   UNL     1     -21.558  -6.129  -4.913  1.00  0.00     0.173 C 
BRANCH  18  19
HETATM   19  C   UNL     1     -20.906  -6.233  -6.300  1.00  0.00     0.198 C 
BRANCH  19  20
HETATM   20  O   UNL     1     -19.786  -7.123  -6.234  1.00  0.00    -0.398 OA
HETATM   21  H   UNL     1     -20.142  -7.975  -5.916  1.00  0.00     0.209 HD
ENDBRANCH  19  20
ENDBRANCH  18  19
BRANCH  18  22
HETATM   22  O   UNL     1     -22.982  -5.979  -5.182  1.00  0.00    -0.391 OA
HETATM   23  H   UNL     1     -23.314  -5.325  -4.533  1.00  0.00     0.210 HD
ENDBRANCH  18  22
ENDBRANCH   1  18
BRANCH   1  24
HETATM   24  C   UNL     1     -21.956  -7.113  -2.526  1.00  0.00     0.189 C 
BRANCH  24  25
HETATM   25  C   UNL     1     -21.031  -7.511  -1.355  1.00  0.00     0.246 C 
BRANCH  25  26
HETATM   26  C   UNL     1     -21.811  -7.868  -0.094  1.00  0.00     0.172 C 
HETATM   27  O   UNL     1     -21.346  -8.446   0.877  1.00  0.00    -0.648 OA
BRANCH  26  28
HETATM   28  O   UNL     1     -23.081  -7.397  -0.133  1.00  0.00    -0.774 OA
HETATM   29  H   UNL     1     -23.559  -7.793  -0.898  1.00  0.00     0.167 HD
ENDBRANCH  26  28
ENDBRANCH  25  26
BRANCH  25  30
HETATM   30  O   UNL     1     -20.277  -8.695  -1.688  1.00  0.00    -0.382 OA
HETATM   31  H   UNL     1     -19.401  -8.376  -1.997  1.00  0.00     0.210 HD
ENDBRANCH  25  30
ENDBRANCH  24  25
BRANCH  24  32
HETATM   32  O   UNL     1     -22.414  -5.775  -2.290  1.00  0.00    -0.390 OA
HETATM   33  H   UNL     1     -23.066  -5.801  -1.558  1.00  0.00     0.210 HD
ENDBRANCH  24  32
ENDBRANCH   1  24
TORSDOF 17
ENDMDL
MODEL 3
REMARK VINA RESULT:      -5.6      7.049     10.358
REMARK  17 active torsions:
REMARK  status: ('A' for Active; 'I' for Inactive)
REMARK    1  A    between atoms: C_1  and  C_2 
REMARK    2  A    between atoms: C_1  and  O_24 
REMARK    3  A    between atoms: C_3  and  O_23 
REMARK    4  A    between atoms: C_4  and  O_22 
REMARK    5  A    between atoms: C_5  and  O_21 
REMARK    6  A    between atoms: C_6  and  O_8 
REMARK    7  A    between atoms: O_8  and  C_9 
REMARK    8  A    between atoms: C_9  and  C_10 
REMARK    9  A    between atoms: C_9  and  C_14 
REMARK   10  A    between atoms: C_10  and  C_11 
REMARK   11  A    between atoms: C_10  and  O_13 
REMARK   12  A    between atoms: C_11  and  O_12 
REMARK   13  A    between atoms: C_14  and  C_15 
REMARK   14  A    between atoms: C_14  and  O_20 
REMARK   15  A    between atoms: C_15  and  C_16 
REMARK   16  A    between atoms: C_15  and  O_19 
REMARK   17  A    between atoms: C_16  and  O_18 
ROOT
HETATM    1  C   UNL     1     -21.209  -7.786  -1.970  1.00  0.00     0.187 C 
ENDROOT
BRANCH   1   2
HETATM    2  O   UNL     1     -21.347  -8.696  -3.091  1.00  0.00    -0.348 OA
BRANCH   2   3
HETATM    3  C   UNL     1     -20.186  -9.453  -3.489  1.00  0.00     0.292 C 
HETATM    4  C   UNL     1     -19.709  -8.824  -4.815  1.00  0.00     0.204 C 
HETATM    5  C   UNL     1     -18.530  -9.616  -5.382  1.00  0.00     0.183 C 
HETATM    6  C   UNL     1     -18.910 -11.097  -5.552  1.00  0.00     0.180 C 
HETATM    7  C   UNL     1     -19.465 -11.658  -4.223  1.00  0.00     0.179 C 
HETATM    8  O   UNL     1     -20.522 -10.825  -3.679  1.00  0.00    -0.348 OA
BRANCH   4   9
HETATM    9  O   UNL     1     -20.781  -8.840  -5.787  1.00  0.00    -0.388 OA
HETATM   10  H   UNL     1     -20.661  -9.679  -6.276  1.00  0.00     0.210 HD
ENDBRANCH   4   9
BRANCH   5  11
HETATM   11  O   UNL     1     -18.128  -9.045  -6.630  1.00  0.00    -0.390 OA
HETATM   12  H   UNL     1     -18.958  -8.777  -7.076  1.00  0.00     0.210 HD
ENDBRANCH   5  11
BRANCH   6  13
HETATM   13  O   UNL     1     -19.897 -11.252  -6.585  1.00  0.00    -0.390 OA
HETATM   14  H   UNL     1     -19.958 -12.202  -6.786  1.00  0.00     0.210 HD
ENDBRANCH   6  13
BRANCH   7  15
HETATM   15  C   UNL     1     -18.326 -11.901  -3.216  1.00  0.00     0.198 C 
BRANCH  15  16
HETATM   16  O   UNL     1     -18.731 -12.814  -2.201  1.00  0.00    -0.398 OA
HETATM   17  H   UNL     1     -19.591 -12.499  -1.865  1.00  0.00     0.209 HD
ENDBRANCH  15  16
ENDBRANCH   7  15
ENDBRANCH   2   3
ENDBRANCH   1   2
BRANCH   1  18
HETATM   18  C   UNL     1     -21.339  -6.289  -2.400  1.00  0.00     0.173 C 
BRANCH  18  19
HETATM   19  C   UNL     1     -21.300  -6.003  -3.909  1.00  0.00     0.198 C 
BRANCH  19  20
HETATM   20  O   UNL     1     -22.531  -6.425  -4.506  1.00  0.00    -0.398 OA
HETATM   21  H   UNL     1     -22.503  -6.106  -5.428  1.00  0.00     0.209 HD
ENDBRANCH  19  20
ENDBRANCH  18  19
BRANCH  18  22
HETATM   22  O   UNL     1     -22.620  -5.756  -1.954  1.00  0.00    -0.391 OA
HETATM   23  H   UNL     1     -23.158  -5.631  -2.762  1.00  0.00     0.210 HD
ENDBRANCH  18  22
ENDBRANCH   1  18
BRANCH   1  24
HETATM   24  C   UNL     1     -22.297  -8.231  -0.938  1.00  0.00     0.189 C 
BRANCH  24  25
HETATM   25  C   UNL     1     -22.432  -9.762  -0.782  1.00  0.00     0.246 C 
BRANCH  25  26
HETATM   26  C   UNL     1     -21.271 -10.369  -0.000  1.00  0.00     0.172 C 
HETATM   27  O   UNL     1     -20.902  -9.997   1.104  1.00  0.00    -0.648 OA
BRANCH  26  28
HETATM   28  O   UNL     1     -20.732 -11.436  -0.638  1.00  0.00    -0.774 OA
HETATM   29  H   UNL     1     -19.918 -11.728  -0.166  1.00  0.00     0.167 HD
ENDBRANCH  26  28
ENDBRANCH  25  26
BRANCH  25  30
HETATM   30  O   UNL     1     -23.617 -10.089  -0.026  1.00  0.00    -0.382 OA
HETATM   31  H   UNL     1     -23.707  -9.381   0.648  1.00  0.00     0.210 HD
ENDBRANCH  25  30
ENDBRANCH  24  25
BRANCH  24  32
HETATM   32  O   UNL     1     -22.127  -7.669   0.369  1.00  0.00    -0.390 OA
HETATM   33  H   UNL     1     -21.187  -7.405   0.467  1.00  0.00     0.210 HD
ENDBRANCH  24  32
ENDBRANCH   1  24
TORSDOF 17
ENDMDL
MODEL 4
REMARK VINA RESULT:      -5.6      5.883      9.778
REMARK  17 active torsions:
REMARK  status: ('A' for Active; 'I' for Inactive)
REMARK    1  A    between atoms: C_1  and  C_2 
REMARK    2  A    between atoms: C_1  and  O_24 
REMARK    3  A    between atoms: C_3  and  O_23 
REMARK    4  A    between atoms: C_4  and  O_22 
REMARK    5  A    between atoms: C_5  and  O_21 
REMARK    6  A    between atoms: C_6  and  O_8 
REMARK    7  A    between atoms: O_8  and  C_9 
REMARK    8  A    between atoms: C_9  and  C_10 
REMARK    9  A    between atoms: C_9  and  C_14 
REMARK   10  A    between atoms: C_10  and  C_11 
REMARK   11  A    between atoms: C_10  and  O_13 
REMARK   12  A    between atoms: C_11  and  O_12 
REMARK   13  A    between atoms: C_14  and  C_15 
REMARK   14  A    between atoms: C_14  and  O_20 
REMARK   15  A    between atoms: C_15  and  C_16 
REMARK   16  A    between atoms: C_15  and  O_19 
REMARK   17  A    between atoms: C_16  and  O_18 
ROOT
HETATM    1  C   UNL     1     -20.887  -7.005  -3.417  1.00  0.00     0.187 C 
ENDROOT
BRANCH   1   2
HETATM    2  O   UNL     1     -20.744  -8.341  -3.964  1.00  0.00    -0.348 OA
BRANCH   2   3
HETATM    3  C   UNL     1     -19.418  -8.901  -4.032  1.00  0.00     0.292 C 
HETATM    4  C   UNL     1     -19.380  -9.734  -5.331  1.00  0.00     0.204 C 
HETATM    5  C   UNL     1     -18.039 -10.458  -5.457  1.00  0.00     0.183 C 
HETATM    6  C   UNL     1     -17.777 -11.323  -4.211  1.00  0.00     0.180 C 
HETATM    7  C   UNL     1     -17.913 -10.466  -2.933  1.00  0.00     0.179 C 
HETATM    8  O   UNL     1     -19.164  -9.729  -2.900  1.00  0.00    -0.348 OA
BRANCH   4   9
HETATM    9  O   UNL     1     -20.435 -10.725  -5.318  1.00  0.00    -0.388 OA
HETATM   10  H   UNL     1     -20.117 -11.420  -4.708  1.00  0.00     0.210 HD
ENDBRANCH   4   9
BRANCH   5  11
HETATM   11  O   UNL     1     -18.037 -11.257  -6.643  1.00  0.00    -0.390 OA
HETATM   12  H   UNL     1     -17.235 -10.990  -7.138  1.00  0.00     0.210 HD
ENDBRANCH   5  11
BRANCH   6  13
HETATM   13  O   UNL     1     -18.703 -12.420  -4.153  1.00  0.00    -0.390 OA
HETATM   14  H   UNL     1     -19.318 -12.241  -3.420  1.00  0.00     0.210 HD
ENDBRANCH   6  13
BRANCH   7  15
HETATM   15  C   UNL     1     -16.685  -9.555  -2.753  1.00  0.00     0.198 C 
BRANCH  15  16
HETATM   16  O   UNL     1     -15.506 -10.325  -2.545  1.00  0.00    -0.398 OA
HETATM   17  H   UNL     1     -15.645 -10.839  -1.728  1.00  0.00     0.209 HD
ENDBRANCH  15  16
ENDBRANCH   7  15
ENDBRANCH   2   3
ENDBRANCH   1   2
BRANCH   1  18
HETATM   18  C   UNL     1     -21.279  -5.956  -4.507  1.00  0.00     0.173 C 
BRANCH  18  19
HETATM   19  C   UNL     1     -20.501  -6.019  -5.831  1.00  0.00     0.198 C 
BRANCH  19  20
HETATM   20  O   UNL     1     -21.090  -7.007  -6.683  1.00  0.00    -0.398 OA
HETATM   21  H   UNL     1     -20.835  -7.870  -6.305  1.00  0.00     0.209 HD
ENDBRANCH  19  20
ENDBRANCH  18  19
BRANCH  18  22
HETATM   22  O   UNL     1     -22.674  -6.136  -4.888  1.00  0.00    -0.391 OA
HETATM   23  H   UNL     1     -22.700  -6.934  -5.454  1.00  0.00     0.210 HD
ENDBRANCH  18  22
ENDBRANCH   1  18
BRANCH   1  24
HETATM   24  C   UNL     1     -21.946  -7.135  -2.274  1.00  0.00     0.189 C 
BRANCH  24  25
HETATM   25  C   UNL     1     -21.456  -7.937  -1.047  1.00  0.00     0.246 C 
BRANCH  25  26
HETATM   26  C   UNL     1     -22.363  -7.753   0.165  1.00  0.00     0.172 C 
HETATM   27  O   UNL     1     -23.562  -7.522   0.113  1.00  0.00    -0.648 OA
BRANCH  26  28
HETATM   28  O   UNL     1     -21.701  -7.955   1.330  1.00  0.00    -0.774 OA
HETATM   29  H   UNL     1     -21.966  -7.270   1.986  1.00  0.00     0.167 HD
ENDBRANCH  26  28
ENDBRANCH  25  26
BRANCH  25  30
HETATM   30  O   UNL     1     -21.476  -9.352  -1.331  1.00  0.00    -0.382 OA
HETATM   31  H   UNL     1     -20.878  -9.479  -2.099  1.00  0.00     0.210 HD
ENDBRANCH  25  30
ENDBRANCH  24  25
BRANCH  24  32
HETATM   32  O   UNL     1     -22.454  -5.880  -1.803  1.00  0.00    -0.390 OA
HETATM   33  H   UNL     1     -21.836  -5.175  -2.089  1.00  0.00     0.210 HD
ENDBRANCH  24  32
ENDBRANCH   1  24
TORSDOF 17
ENDMDL
MODEL 5
REMARK VINA RESULT:      -5.4      6.069      8.975
REMARK  17 active torsions:
REMARK  status: ('A' for Active; 'I' for Inactive)
REMARK    1  A    between atoms: C_1  and  C_2 
REMARK    2  A    between atoms: C_1  and  O_24 
REMARK    3  A    between atoms: C_3  and  O_23 
REMARK    4  A    between atoms: C_4  and  O_22 
REMARK    5  A    between atoms: C_5  and  O_21 
REMARK    6  A    between atoms: C_6  and  O_8 
REMARK    7  A    between atoms: O_8  and  C_9 
REMARK    8  A    between atoms: C_9  and  C_10 
REMARK    9  A    between atoms: C_9  and  C_14 
REMARK   10  A    between atoms: C_10  and  C_11 
REMARK   11  A    between atoms: C_10  and  O_13 
REMARK   12  A    between atoms: C_11  and  O_12 
REMARK   13  A    between atoms: C_14  and  C_15 
REMARK   14  A    between atoms: C_14  and  O_20 
REMARK   15  A    between atoms: C_15  and  C_16 
REMARK   16  A    between atoms: C_15  and  O_19 
REMARK   17  A    between atoms: C_16  and  O_18 
ROOT
HETATM    1  C   UNL     1     -21.034  -8.468  -3.087  1.00  0.00     0.187 C 
ENDROOT
BRANCH   1   2
HETATM    2  O   UNL     1     -19.607  -8.699  -2.971  1.00  0.00    -0.348 OA
BRANCH   2   3
HETATM    3  C   UNL     1     -19.037  -9.780  -3.736  1.00  0.00     0.292 C 
HETATM    4  C   UNL     1     -17.794 -10.243  -2.946  1.00  0.00     0.204 C 
HETATM    5  C   UNL     1     -17.050 -11.331  -3.720  1.00  0.00     0.183 C 
HETATM    6  C   UNL     1     -16.683 -10.833  -5.129  1.00  0.00     0.180 C 
HETATM    7  C   UNL     1     -17.943 -10.299  -5.847  1.00  0.00     0.179 C 
HETATM    8  O   UNL     1     -18.664  -9.333  -5.037  1.00  0.00    -0.348 OA
BRANCH   4   9
HETATM    9  O   UNL     1     -16.892  -9.130  -2.741  1.00  0.00    -0.388 OA
HETATM   10  H   UNL     1     -17.415  -8.338  -2.979  1.00  0.00     0.210 HD
ENDBRANCH   4   9
BRANCH   5  11
HETATM   11  O   UNL     1     -15.880 -11.718  -2.994  1.00  0.00    -0.390 OA
HETATM   12  H   UNL     1     -16.182 -12.387  -2.346  1.00  0.00     0.210 HD
ENDBRANCH   5  11
BRANCH   6  13
HETATM   13  O   UNL     1     -15.696  -9.793  -5.057  1.00  0.00    -0.390 OA
HETATM   14  H   UNL     1     -15.701  -9.451  -4.146  1.00  0.00     0.210 HD
ENDBRANCH   6  13
BRANCH   7  15
HETATM   15  C   UNL     1     -18.837 -11.461  -6.318  1.00  0.00     0.198 C 
BRANCH  15  16
HETATM   16  O   UNL     1     -20.134 -10.993  -6.671  1.00  0.00    -0.398 OA
HETATM   17  H   UNL     1     -20.506 -11.639  -7.299  1.00  0.00     0.209 HD
ENDBRANCH  15  16
ENDBRANCH   7  15
ENDBRANCH   2   3
ENDBRANCH   1   2
BRANCH   1  18
HETATM   18  C   UNL     1     -21.776  -8.637  -1.723  1.00  0.00     0.173 C 
BRANCH  18  19
HETATM   19  C   UNL     1     -21.728 -10.034  -1.085  1.00  0.00     0.198 C 
BRANCH  19  20
HETATM   20  O   UNL     1     -20.432 -10.255  -0.518  1.00  0.00    -0.398 OA
HETATM   21  H   UNL     1     -20.296 -11.222  -0.532  1.00  0.00     0.209 HD
ENDBRANCH  19  20
ENDBRANCH  18  19
BRANCH  18  22
HETATM   22  O   UNL     1     -21.185  -7.754  -0.726  1.00  0.00    -0.391 OA
HETATM   23  H   UNL     1     -20.451  -8.257  -0.318  1.00  0.00     0.210 HD
ENDBRANCH  18  22
ENDBRANCH   1  18
BRANCH   1  24
HETATM   24  C   UNL     1     -21.175  -7.034  -3.695  1.00  0.00     0.189 C 
BRANCH  24  25
HETATM   25  C   UNL     1     -21.382  -7.013  -5.226  1.00  0.00     0.246 C 
BRANCH  25  26
HETATM   26  C   UNL     1     -20.305  -6.208  -5.946  1.00  0.00     0.172 C 
HETATM   27  O   UNL     1     -20.091  -5.017  -5.774  1.00  0.00    -0.648 OA
BRANCH  26  28
HETATM   28  O   UNL     1     -19.546  -6.985  -6.755  1.00  0.00    -0.774 OA
HETATM   29  H   UNL     1     -18.631  -7.046  -6.395  1.00  0.00     0.167 HD
ENDBRANCH  26  28
ENDBRANCH  25  26
BRANCH  25  30
HETATM   30  O   UNL     1     -21.288  -8.349  -5.765  1.00  0.00    -0.382 OA
HETATM   31  H   UNL     1     -21.124  -8.936  -4.995  1.00  0.00     0.210 HD
ENDBRANCH  25  30
ENDBRANCH  24  25
BRANCH  24  32
HETATM   32  O   UNL     1     -22.215  -6.247  -3.100  1.00  0.00    -0.390 OA
HETATM   33  H   UNL     1     -22.881  -6.859  -2.722  1.00  0.00     0.210 HD
ENDBRANCH  24  32
ENDBRANCH   1  24
TORSDOF 17
ENDMDL
MODEL 6
REMARK VINA RESULT:      -5.4      5.992      9.397
REMARK  17 active torsions:
REMARK  status: ('A' for Active; 'I' for Inactive)
REMARK    1  A    between atoms: C_1  and  C_2 
REMARK    2  A    between atoms: C_1  and  O_24 
REMARK    3  A    between atoms: C_3  and  O_23 
REMARK    4  A    between atoms: C_4  and  O_22 
REMARK    5  A    between atoms: C_5  and  O_21 
REMARK    6  A    between atoms: C_6  and  O_8 
REMARK    7  A    between atoms: O_8  and  C_9 
REMARK    8  A    between atoms: C_9  and  C_10 
REMARK    9  A    between atoms: C_9  and  C_14 
REMARK   10  A    between atoms: C_10  and  C_11 
REMARK   11  A    between atoms: C_10  and  O_13 
REMARK   12  A    between atoms: C_11  and  O_12 
REMARK   13  A    between atoms: C_14  and  C_15 
REMARK   14  A    between atoms: C_14  and  O_20 
REMARK   15  A    between atoms: C_15  and  C_16 
REMARK   16  A    between atoms: C_15  and  O_19 
REMARK   17  A    between atoms: C_16  and  O_18 
ROOT
HETATM    1  C   UNL     1     -19.844  -8.662  -4.257  1.00  0.00     0.187 C 
ENDROOT
BRANCH   1   2
HETATM    2  O   UNL     1     -20.453  -9.728  -3.484  1.00  0.00    -0.348 OA
BRANCH   2   3
HETATM    3  C   UNL     1     -20.769  -9.460  -2.103  1.00  0.00     0.292 C 
HETATM    4  C   UNL     1     -20.204 -10.654  -1.304  1.00  0.00     0.204 C 
HETATM    5  C   UNL     1     -20.570 -10.521   0.175  1.00  0.00     0.183 C 
HETATM    6  C   UNL     1     -22.094 -10.387   0.342  1.00  0.00     0.180 C 
HETATM    7  C   UNL     1     -22.624  -9.237  -0.543  1.00  0.00     0.179 C 
HETATM    8  O   UNL     1     -22.179  -9.359  -1.920  1.00  0.00    -0.348 OA
BRANCH   4   9
HETATM    9  O   UNL     1     -20.760 -11.894  -1.802  1.00  0.00    -0.388 OA
HETATM   10  H   UNL     1     -21.726 -11.742  -1.825  1.00  0.00     0.210 HD
ENDBRANCH   4   9
BRANCH   5  11
HETATM   11  O   UNL     1     -20.075 -11.655   0.892  1.00  0.00    -0.390 OA
HETATM   12  H   UNL     1     -20.799 -11.920   1.496  1.00  0.00     0.210 HD
ENDBRANCH   5  11
BRANCH   6  13
HETATM   13  O   UNL     1     -22.752 -11.611  -0.018  1.00  0.00    -0.390 OA
HETATM   14  H   UNL     1     -22.081 -12.315  -0.005  1.00  0.00     0.210 HD
ENDBRANCH   6  13
BRANCH   7  15
HETATM   15  C   UNL     1     -22.276  -7.869   0.072  1.00  0.00     0.198 C 
BRANCH  15  16
HETATM   16  O   UNL     1     -22.719  -6.807  -0.767  1.00  0.00    -0.398 OA
HETATM   17  H   UNL     1     -21.921  -6.356  -1.097  1.00  0.00     0.209 HD
ENDBRANCH  15  16
ENDBRANCH   7  15
ENDBRANCH   2   3
ENDBRANCH   1   2
BRANCH   1  18
HETATM   18  C   UNL     1     -18.843  -9.204  -5.327  1.00  0.00     0.173 C 
BRANCH  18  19
HETATM   19  C   UNL     1     -17.535  -9.813  -4.798  1.00  0.00     0.198 C 
BRANCH  19  20
HETATM   20  O   UNL     1     -17.838 -10.918  -3.940  1.00  0.00    -0.398 OA
HETATM   21  H   UNL     1     -18.810 -10.926  -3.849  1.00  0.00     0.209 HD
ENDBRANCH  19  20
ENDBRANCH  18  19
BRANCH  18  22
HETATM   22  O   UNL     1     -19.468 -10.275  -6.092  1.00  0.00    -0.391 OA
HETATM   23  H   UNL     1     -19.695  -9.891  -6.963  1.00  0.00     0.210 HD
ENDBRANCH  18  22
ENDBRANCH   1  18
BRANCH   1  24
HETATM   24  C   UNL     1     -21.038  -7.862  -4.874  1.00  0.00     0.189 C 
BRANCH  24  25
HETATM   25  C   UNL     1     -21.123  -6.393  -4.405  1.00  0.00     0.246 C 
BRANCH  25  26
HETATM   26  C   UNL     1     -21.300  -5.423  -5.569  1.00  0.00     0.172 C 
HETATM   27  O   UNL     1     -22.370  -5.147  -6.092  1.00  0.00    -0.648 OA
BRANCH  26  28
HETATM   28  O   UNL     1     -20.134  -4.827  -5.917  1.00  0.00    -0.774 OA
HETATM   29  H   UNL     1     -19.943  -5.000  -6.867  1.00  0.00     0.167 HD
ENDBRANCH  26  28
ENDBRANCH  25  26
BRANCH  25  30
HETATM   30  O   UNL     1     -22.278  -6.199  -3.563  1.00  0.00    -0.382 OA
HETATM   31  H   UNL     1     -22.741  -7.064  -3.542  1.00  0.00     0.210 HD
ENDBRANCH  25  30
ENDBRANCH  24  25
BRANCH  24  32
HETATM   32  O   UNL     1     -21.066  -7.869  -6.307  1.00  0.00    -0.390 OA
HETATM   33  H   UNL     1     -20.252  -8.312  -6.626  1.00  0.00     0.210 HD
ENDBRANCH  24  32
ENDBRANCH   1  24
TORSDOF 17
ENDMDL
MODEL 7
REMARK VINA RESULT:      -5.4      7.800     10.966
REMARK  17 active torsions:
REMARK  status: ('A' for Active; 'I' for Inactive)
REMARK    1  A    between atoms: C_1  and  C_2 
REMARK    2  A    between atoms: C_1  and  O_24 
REMARK    3  A    between atoms: C_3  and  O_23 
REMARK    4  A    between atoms: C_4  and  O_22 
REMARK    5  A    between atoms: C_5  and  O_21 
REMARK    6  A    between atoms: C_6  and  O_8 
REMARK    7  A    between atoms: O_8  and  C_9 
REMARK    8  A    between atoms: C_9  and  C_10 
REMARK    9  A    between atoms: C_9  and  C_14 
REMARK   10  A    between atoms: C_10  and  C_11 
REMARK   11  A    between atoms: C_10  and  O_13 
REMARK   12  A    between atoms: C_11  and  O_12 
REMARK   13  A    between atoms: C_14  and  C_15 
REMARK   14  A    between atoms: C_14  and  O_20 
REMARK   15  A    between atoms: C_15  and  C_16 
REMARK   16  A    between atoms: C_15  and  O_19 
REMARK   17  A    between atoms: C_16  and  O_18 
ROOT
HETATM    1  C   UNL     1     -20.454  -9.286  -3.670  1.00  0.00     0.187 C 
ENDROOT
BRANCH   1   2
HETATM    2  O   UNL     1     -21.318 -10.417  -3.385  1.00  0.00    -0.348 OA
BRANCH   2   3
HETATM    3  C   UNL     1     -20.921 -11.316  -2.330  1.00  0.00     0.292 C 
HETATM    4  C   UNL     1     -22.134 -11.409  -1.379  1.00  0.00     0.204 C 
HETATM    5  C   UNL     1     -21.789 -12.268  -0.163  1.00  0.00     0.183 C 
HETATM    6  C   UNL     1     -20.541 -11.716   0.548  1.00  0.00     0.180 C 
HETATM    7  C   UNL     1     -19.382 -11.558  -0.461  1.00  0.00     0.179 C 
HETATM    8  O   UNL     1     -19.782 -10.810  -1.640  1.00  0.00    -0.348 OA
BRANCH   4   9
HETATM    9  O   UNL     1     -22.505 -10.089  -0.916  1.00  0.00    -0.388 OA
HETATM   10  H   UNL     1     -23.032 -10.247  -0.108  1.00  0.00     0.210 HD
ENDBRANCH   4   9
BRANCH   5  11
HETATM   11  O   UNL     1     -22.908 -12.309   0.726  1.00  0.00    -0.390 OA
HETATM   12  H   UNL     1     -22.527 -12.300   1.628  1.00  0.00     0.210 HD
ENDBRANCH   5  11
BRANCH   6  13
HETATM   13  O   UNL     1     -20.824 -10.445   1.154  1.00  0.00    -0.390 OA
HETATM   14  H   UNL     1     -21.328 -10.618   1.968  1.00  0.00     0.210 HD
ENDBRANCH   6  13
BRANCH   7  15
HETATM   15  C   UNL     1     -18.771 -12.928  -0.810  1.00  0.00     0.198 C 
BRANCH  15  16
HETATM   16  O   UNL     1     -18.544 -13.698   0.366  1.00  0.00    -0.398 OA
HETATM   17  H   UNL     1     -19.412 -14.029   0.659  1.00  0.00     0.209 HD
ENDBRANCH  15  16
ENDBRANCH   7  15
ENDBRANCH   2   3
ENDBRANCH   1   2
BRANCH   1  18
HETATM   18  C   UNL     1     -19.857  -9.344  -5.113  1.00  0.00     0.173 C 
BRANCH  18  19
HETATM   19  C   UNL     1     -18.581 -10.181  -5.294  1.00  0.00     0.198 C 
BRANCH  19  20
HETATM   20  O   UNL     1     -18.186 -10.727  -4.031  1.00  0.00    -0.398 OA
HETATM   21  H   UNL     1     -18.249 -11.697  -4.128  1.00  0.00     0.209 HD
ENDBRANCH  19  20
ENDBRANCH  18  19
BRANCH  18  22
HETATM   22  O   UNL     1     -20.825  -9.940  -6.024  1.00  0.00    -0.391 OA
HETATM   23  H   UNL     1     -21.220  -9.197  -6.525  1.00  0.00     0.210 HD
ENDBRANCH  18  22
ENDBRANCH   1  18
BRANCH   1  24
HETATM   24  C   UNL     1     -21.332  -8.018  -3.413  1.00  0.00     0.189 C 
BRANCH  24  25
HETATM   25  C   UNL     1     -21.004  -7.278  -2.097  1.00  0.00     0.246 C 
BRANCH  25  26
HETATM   26  C   UNL     1     -22.245  -6.675  -1.446  1.00  0.00     0.172 C 
HETATM   27  O   UNL     1     -22.743  -7.062  -0.399  1.00  0.00    -0.648 OA
BRANCH  26  28
HETATM   28  O   UNL     1     -22.700  -5.594  -2.124  1.00  0.00    -0.774 OA
HETATM   29  H   UNL     1     -23.017  -4.912  -1.489  1.00  0.00     0.167 HD
ENDBRANCH  26  28
ENDBRANCH  25  26
BRANCH  25  30
HETATM   30  O   UNL     1     -20.468  -8.198  -1.122  1.00  0.00    -0.382 OA
HETATM   31  H   UNL     1     -20.502  -7.725  -0.263  1.00  0.00     0.210 HD
ENDBRANCH  25  30
ENDBRANCH  24  25
BRANCH  24  32
HETATM   32  O   UNL     1     -21.297  -7.058  -4.477  1.00  0.00    -0.390 OA
HETATM   33  H   UNL     1     -20.741  -6.304  -4.188  1.00  0.00     0.210 HD
ENDBRANCH  24  32
ENDBRANCH   1  24
TORSDOF 17
ENDMDL
MODEL 8
REMARK VINA RESULT:      -5.4      6.035      9.091
REMARK  17 active torsions:
REMARK  status: ('A' for Active; 'I' for Inactive)
REMARK    1  A    between atoms: C_1  and  C_2 
REMARK    2  A    between atoms: C_1  and  O_24 
REMARK    3  A    between atoms: C_3  and  O_23 
REMARK    4  A    between atoms: C_4  and  O_22 
REMARK    5  A    between atoms: C_5  and  O_21 
REMARK    6  A    between atoms: C_6  and  O_8 
REMARK    7  A    between atoms: O_8  and  C_9 
REMARK    8  A    between atoms: C_9  and  C_10 
REMARK    9  A    between atoms: C_9  and  C_14 
REMARK   10  A    between atoms: C_10  and  C_11 
REMARK   11  A    between atoms: C_10  and  O_13 
REMARK   12  A    between atoms: C_11  and  O_12 
REMARK   13  A    between atoms: C_14  and  C_15 
REMARK   14  A    between atoms: C_14  and  O_20 
REMARK   15  A    between atoms: C_15  and  C_16 
REMARK   16  A    between atoms: C_15  and  O_19 
REMARK   17  A    between atoms: C_16  and  O_18 
ROOT
HETATM    1  C   UNL     1     -21.434  -8.316  -2.318  1.00  0.00     0.187 C 
ENDROOT
BRANCH   1   2
HETATM    2  O   UNL     1     -20.031  -8.685  -2.283  1.00  0.00    -0.348 OA
BRANCH   2   3
HETATM    3  C   UNL     1     -19.661  -9.973  -2.814  1.00  0.00     0.292 C 
HETATM    4  C   UNL     1     -18.507  -9.702  -3.804  1.00  0.00     0.204 C 
HETATM    5  C   UNL     1     -18.097 -10.998  -4.505  1.00  0.00     0.183 C 
HETATM    6  C   UNL     1     -19.311 -11.642  -5.197  1.00  0.00     0.180 C 
HETATM    7  C   UNL     1     -20.469 -11.811  -4.189  1.00  0.00     0.179 C 
HETATM    8  O   UNL     1     -20.764 -10.576  -3.485  1.00  0.00    -0.348 OA
BRANCH   4   9
HETATM    9  O   UNL     1     -18.929  -8.752  -4.810  1.00  0.00    -0.388 OA
HETATM   10  H   UNL     1     -19.843  -9.017  -5.036  1.00  0.00     0.210 HD
ENDBRANCH   4   9
BRANCH   5  11
HETATM   11  O   UNL     1     -17.057 -10.722  -5.447  1.00  0.00    -0.390 OA
HETATM   12  H   UNL     1     -16.910 -11.561  -5.929  1.00  0.00     0.210 HD
ENDBRANCH   5  11
BRANCH   6  13
HETATM   13  O   UNL     1     -19.751 -10.834  -6.300  1.00  0.00    -0.390 OA
HETATM   14  H   UNL     1     -19.033 -10.211  -6.508  1.00  0.00     0.210 HD
ENDBRANCH   6  13
BRANCH   7  15
HETATM   15  C   UNL     1     -20.192 -12.985  -3.231  1.00  0.00     0.198 C 
BRANCH  15  16
HETATM   16  O   UNL     1     -21.240 -13.121  -2.277  1.00  0.00    -0.398 OA
HETATM   17  H   UNL     1     -21.142 -14.004  -1.875  1.00  0.00     0.209 HD
ENDBRANCH  15  16
ENDBRANCH   7  15
ENDBRANCH   2   3
ENDBRANCH   1   2
BRANCH   1  18
HETATM   18  C   UNL     1     -22.066  -8.247  -0.891  1.00  0.00     0.173 C 
BRANCH  18  19
HETATM   19  C   UNL     1     -22.861  -9.479  -0.432  1.00  0.00     0.198 C 
BRANCH  19  20
HETATM   20  O   UNL     1     -22.308 -10.654  -1.035  1.00  0.00    -0.398 OA
HETATM   21  H   UNL     1     -21.340 -10.524  -1.032  1.00  0.00     0.209 HD
ENDBRANCH  19  20
ENDBRANCH  18  19
BRANCH  18  22
HETATM   22  O   UNL     1     -21.016  -8.089   0.107  1.00  0.00    -0.391 OA
HETATM   23  H   UNL     1     -20.289  -8.684  -0.167  1.00  0.00     0.210 HD
ENDBRANCH  18  22
ENDBRANCH   1  18
BRANCH   1  24
HETATM   24  C   UNL     1     -21.487  -6.956  -3.086  1.00  0.00     0.189 C 
BRANCH  24  25
HETATM   25  C   UNL     1     -21.873  -7.085  -4.577  1.00  0.00     0.246 C 
BRANCH  25  26
HETATM   26  C   UNL     1     -21.034  -6.182  -5.474  1.00  0.00     0.172 C 
HETATM   27  O   UNL     1     -20.701  -5.038  -5.200  1.00  0.00    -0.648 OA
BRANCH  26  28
HETATM   28  O   UNL     1     -20.622  -6.820  -6.596  1.00  0.00    -0.774 OA
HETATM   29  H   UNL     1     -19.676  -7.075  -6.505  1.00  0.00     0.167 HD
ENDBRANCH  26  28
ENDBRANCH  25  26
BRANCH  25  30
HETATM   30  O   UNL     1     -21.628  -8.427  -5.046  1.00  0.00    -0.382 OA
HETATM   31  H   UNL     1     -20.767  -8.393  -5.516  1.00  0.00     0.210 HD
ENDBRANCH  25  30
ENDBRANCH  24  25
BRANCH  24  32
HETATM   32  O   UNL     1     -22.354  -5.982  -2.491  1.00  0.00    -0.390 OA
HETATM   33  H   UNL     1     -21.804  -5.373  -1.953  1.00  0.00     0.210 HD
ENDBRANCH  24  32
ENDBRANCH   1  24
TORSDOF 17
ENDMDL
MODEL 9
REMARK VINA RESULT:      -5.3      5.519      9.190
REMARK  17 active torsions:
REMARK  status: ('A' for Active; 'I' for Inactive)
REMARK    1  A    between atoms: C_1  and  C_2 
REMARK    2  A    between atoms: C_1  and  O_24 
REMARK    3  A    between atoms: C_3  and  O_23 
REMARK    4  A    between atoms: C_4  and  O_22 
REMARK    5  A    between atoms: C_5  and  O_21 
REMARK    6  A    between atoms: C_6  and  O_8 
REMARK    7  A    between atoms: O_8  and  C_9 
REMARK    8  A    between atoms: C_9  and  C_10 
REMARK    9  A    between atoms: C_9  and  C_14 
REMARK   10  A    between atoms: C_10  and  C_11 
REMARK   11  A    between atoms: C_10  and  O_13 
REMARK   12  A    between atoms: C_11  and  O_12 
REMARK   13  A    between atoms: C_14  and  C_15 
REMARK   14  A    between atoms: C_14  and  O_20 
REMARK   15  A    between atoms: C_15  and  C_16 
REMARK   16  A    between atoms: C_15  and  O_19 
REMARK   17  A    between atoms: C_16  and  O_18 
ROOT
HETATM    1  C   UNL     1     -20.430  -7.424  -5.019  1.00  0.00     0.187 C 
ENDROOT
BRANCH   1   2
HETATM    2  O   UNL     1     -20.547  -8.765  -5.561  1.00  0.00    -0.348 OA
BRANCH   2   3
HETATM    3  C   UNL     1     -19.532  -9.725  -5.204  1.00  0.00     0.292 C 
HETATM    4  C   UNL     1     -20.290 -10.955  -4.660  1.00  0.00     0.204 C 
HETATM    5  C   UNL     1     -19.300 -12.006  -4.158  1.00  0.00     0.183 C 
HETATM    6  C   UNL     1     -18.359 -11.398  -3.103  1.00  0.00     0.180 C 
HETATM    7  C   UNL     1     -17.691 -10.122  -3.662  1.00  0.00     0.179 C 
HETATM    8  O   UNL     1     -18.664  -9.191  -4.207  1.00  0.00    -0.348 OA
BRANCH   4   9
HETATM    9  O   UNL     1     -21.143 -10.566  -3.557  1.00  0.00    -0.388 OA
HETATM   10  H   UNL     1     -20.625  -9.895  -3.067  1.00  0.00     0.210 HD
ENDBRANCH   4   9
BRANCH   5  11
HETATM   11  O   UNL     1     -20.019 -13.119  -3.620  1.00  0.00    -0.390 OA
HETATM   12  H   UNL     1     -20.281 -13.661  -4.392  1.00  0.00     0.210 HD
ENDBRANCH   5  11
BRANCH   6  13
HETATM   13  O   UNL     1     -19.082 -11.075  -1.905  1.00  0.00    -0.390 OA
HETATM   14  H   UNL     1     -19.675 -11.823  -1.714  1.00  0.00     0.210 HD
ENDBRANCH   6  13
BRANCH   7  15
HETATM   15  C   UNL     1     -16.586 -10.481  -4.673  1.00  0.00     0.198 C 
BRANCH  15  16
HETATM   16  O   UNL     1     -15.625  -9.435  -4.767  1.00  0.00    -0.398 OA
HETATM   17  H   UNL     1     -14.830  -9.820  -5.180  1.00  0.00     0.209 HD
ENDBRANCH  15  16
ENDBRANCH   7  15
ENDBRANCH   2   3
ENDBRANCH   1   2
BRANCH   1  18
HETATM   18  C   UNL     1     -20.548  -6.326  -6.124  1.00  0.00     0.173 C 
BRANCH  18  19
HETATM   19  C   UNL     1     -20.115  -4.905  -5.728  1.00  0.00     0.198 C 
BRANCH  19  20
HETATM   20  O   UNL     1     -20.759  -3.955  -6.585  1.00  0.00    -0.398 OA
HETATM   21  H   UNL     1     -20.041  -3.502  -7.067  1.00  0.00     0.209 HD
ENDBRANCH  19  20
ENDBRANCH  18  19
BRANCH  18  22
HETATM   22  O   UNL     1     -19.699  -6.671  -7.256  1.00  0.00    -0.391 OA
HETATM   23  H   UNL     1     -19.166  -7.441  -6.971  1.00  0.00     0.210 HD
ENDBRANCH  18  22
ENDBRANCH   1  18
BRANCH   1  24
HETATM   24  C   UNL     1     -21.539  -7.322  -3.922  1.00  0.00     0.189 C 
BRANCH  24  25
HETATM   25  C   UNL     1     -20.995  -7.130  -2.489  1.00  0.00     0.246 C 
BRANCH  25  26
HETATM   26  C   UNL     1     -22.098  -6.791  -1.491  1.00  0.00     0.172 C 
HETATM   27  O   UNL     1     -22.548  -7.563  -0.657  1.00  0.00    -0.648 OA
BRANCH  26  28
HETATM   28  O   UNL     1     -22.479  -5.494  -1.576  1.00  0.00    -0.774 OA
HETATM   29  H   UNL     1     -23.448  -5.421  -1.413  1.00  0.00     0.167 HD
ENDBRANCH  26  28
ENDBRANCH  25  26
BRANCH  25  30
HETATM   30  O   UNL     1     -20.403  -8.354  -2.006  1.00  0.00    -0.382 OA
HETATM   31  H   UNL     1     -21.155  -8.929  -1.744  1.00  0.00     0.210 HD
ENDBRANCH  25  30
ENDBRANCH  24  25
BRANCH  24  32
HETATM   32  O   UNL     1     -22.508  -6.294  -4.165  1.00  0.00    -0.390 OA
HETATM   33  H   UNL     1     -22.098  -5.620  -4.748  1.00  0.00     0.210 HD
ENDBRANCH  24  32
ENDBRANCH   1  24
TORSDOF 17
ENDMDL
