MODEL 1
REMARK VINA RESULT:      -6.3      0.000      0.000
REMARK WARNING: 32 MAX_TORS EXCEEDED!!!
REMARK  35 active torsions:
REMARK  status: ('A' for Active; 'I' for Inactive)
REMARK    1  A    between atoms: C_2  and  C_3 
REMARK    2  A    between atoms: C_3  and  C_4 
REMARK    3  A    between atoms: C_4  and  C_5 
REMARK    4  A    between atoms: C_5  and  C_6 
REMARK    5  A    between atoms: C_6  and  C_7 
REMARK    6  A    between atoms: C_7  and  C_8 
REMARK    7  A    between atoms: C_8  and  C_9 
REMARK    8  A    between atoms: C_9  and  C_10 
REMARK    9  A    between atoms: C_10  and  C_11 
REMARK   10  A    between atoms: C_11  and  C_12 
REMARK   11  A    between atoms: C_12  and  C_13 
REMARK   12  A    between atoms: C_13  and  C_14 
REMARK   13  A    between atoms: C_14  and  C_15 
REMARK   14  A    between atoms: C_15  and  C_16 
REMARK   15  A    between atoms: C_16  and  C_17 
REMARK   16  A    between atoms: C_17  and  C_18 
REMARK       I    between atoms: C_18  and  N_20 
REMARK   17  A    between atoms: N_20  and  C_21 
REMARK   18  A    between atoms: C_21  and  C_22 
REMARK   19  A    between atoms: C_21  and  C_24 
REMARK   20  A    between atoms: C_22  and  O_23 
REMARK   21  A    between atoms: C_24  and  C_25 
REMARK   22  A    between atoms: C_24  and  O_40 
REMARK   23  A    between atoms: C_25  and  C_26 
REMARK   24  A    between atoms: C_26  and  C_27 
REMARK   25  A    between atoms: C_27  and  C_28 
REMARK   26  A    between atoms: C_28  and  C_29 
REMARK   27  A    between atoms: C_29  and  C_30 
REMARK   28  A    between atoms: C_30  and  C_31 
REMARK   29  A    between atoms: C_31  and  C_32 
REMARK   30  A    between atoms: C_32  and  C_33 
REMARK   31  A    between atoms: C_33  and  C_34 
REMARK   32  A    between atoms: C_34  and  C_35 
REMARK   33  A    between atoms: C_35  and  C_36 
REMARK   34  A    between atoms: C_36  and  C_37 
REMARK   35  A    between atoms: C_37  and  C_38 
ROOT
HETATM    1  C   UNK A   1     -22.196  -8.165  -1.117  1.00  0.00     0.136 C 
ENDROOT
BRANCH   1   2
HETATM    2  N   UNK A   1     -21.350  -9.362  -1.237  1.00  0.00    -0.352 N 
HETATM    3  C   UNK A   0     -21.880 -10.647  -1.228  1.00  0.00     0.218 C 
HETATM    4  O   UNK A   0     -23.060 -10.913  -1.163  1.00  0.00    -0.274 OA
HETATM    5  H   UNK A   1     -20.344  -9.231  -1.294  1.00  0.00     0.163 HD
BRANCH   3   6
HETATM    6  C   UNK A   0     -20.855 -11.763  -1.345  1.00  0.00     0.103 C 
BRANCH   6   7
HETATM    7  C   UNK A   0     -20.732 -12.486  -0.019  1.00  0.00     0.009 C 
BRANCH   7   8
HETATM    8  C   UNK A   0     -19.342 -13.054   0.172  1.00  0.00     0.000 C 
BRANCH   8   9
HETATM    9  C   UNK A   0     -18.312 -12.122  -0.445  1.00  0.00     0.000 C 
BRANCH   9  10
HETATM   10  C   UNK A   0     -16.991 -12.261   0.286  1.00  0.00     0.000 C 
BRANCH  10  11
HETATM   11  C   UNK A   0     -15.844 -11.927  -0.650  1.00  0.00     0.000 C 
BRANCH  11  12
HETATM   12  C   UNK A   0     -16.345 -11.058  -1.786  1.00  0.00     0.000 C 
BRANCH  12  13
HETATM   13  C   UNK A   0     -15.317 -11.021  -2.899  1.00  0.00     0.000 C 
BRANCH  13  14
HETATM   14  C   UNK A   0     -15.730 -11.964  -4.013  1.00  0.00     0.000 C 
BRANCH  14  15
HETATM   15  C   UNK A   0     -15.411 -11.342  -5.359  1.00  0.00     0.000 C 
BRANCH  15  16
HETATM   16  C   UNK A   0     -15.923  -9.915  -5.400  1.00  0.00     0.000 C 
BRANCH  16  17
HETATM   17  C   UNK A   0     -17.422  -9.912  -5.637  1.00  0.00     0.000 C 
BRANCH  17  18
HETATM   18  C   UNK A   0     -18.140  -9.420  -4.394  1.00  0.00     0.000 C 
BRANCH  18  19
HETATM   19  C   UNK A   0     -19.436 -10.189  -4.208  1.00  0.00     0.000 C 
BRANCH  19  20
HETATM   20  C   UNK A   0     -19.721 -11.033  -5.438  1.00  0.00    -0.000 C 
BRANCH  20  21
HETATM   21  C   UNK A   0     -21.173 -10.874  -5.862  1.00  0.00    -0.005 C 
HETATM   22  C   UNK A   0     -21.755 -12.218  -6.245  1.00  0.00     0.005 C 
ENDBRANCH  20  21
ENDBRANCH  19  20
ENDBRANCH  18  19
ENDBRANCH  17  18
ENDBRANCH  16  17
ENDBRANCH  15  16
ENDBRANCH  14  15
ENDBRANCH  13  14
ENDBRANCH  12  13
ENDBRANCH  11  12
ENDBRANCH  10  11
ENDBRANCH   9  10
ENDBRANCH   8   9
ENDBRANCH   7   8
ENDBRANCH   6   7
ENDBRANCH   3   6
ENDBRANCH   1   2
BRANCH   1  23
HETATM   23  C   UNK A   1     -22.377  -7.823   0.366  1.00  0.00     0.191 C 
BRANCH  23  24
HETATM   24  O   UNK A   1     -23.753  -7.582   0.625  1.00  0.00    -0.399 OA
HETATM   25  H   UNK A   1     -24.069  -6.948  -0.045  1.00  0.00     0.209 HD
ENDBRANCH  23  24
ENDBRANCH   1  23
BRANCH   1  26
HETATM   26  C   UNK A   1     -21.599  -6.950  -1.846  1.00  0.00     0.143 C 
BRANCH  26  27
HETATM   27  C   UNK A   1     -21.112  -7.269  -3.252  1.00  0.00     0.034 C 
BRANCH  27  28
HETATM   28  C   UNK A   1     -22.160  -6.860  -4.293  1.00  0.00     0.002 C 
BRANCH  28  29
HETATM   29  C   UNK A   1     -21.662  -6.984  -5.712  1.00  0.00     0.000 C 
BRANCH  29  30
HETATM   30  C   UNK A   1     -20.154  -6.877  -5.747  1.00  0.00     0.000 C 
BRANCH  30  31
HETATM   31  C   UNK A   1     -19.774  -5.781  -6.704  1.00  0.00     0.000 C 
BRANCH  31  32
HETATM   32  C   UNK A   1     -20.415  -4.483  -6.271  1.00  0.00     0.000 C 
BRANCH  32  33
HETATM   33  C   UNK A   1     -20.770  -3.670  -7.499  1.00  0.00     0.000 C 
BRANCH  33  34
HETATM   34  C   UNK A   1     -22.171  -4.022  -7.958  1.00  0.00     0.000 C 
BRANCH  34  35
HETATM   35  C   UNK A   1     -22.137  -4.489  -9.400  1.00  0.00     0.000 C 
BRANCH  35  36
HETATM   36  C   UNK A   1     -20.726  -4.380  -9.943  1.00  0.00     0.000 C 
BRANCH  36  37
HETATM   37  C   UNK A   1     -20.761  -3.890 -11.378  1.00  0.00     0.000 C 
BRANCH  37  38
HETATM   38  C   UNK A   1     -21.894  -2.895 -11.557  1.00  0.00     0.000 C 
BRANCH  38  39
HETATM   39  C   UNK A   1     -22.532  -3.075 -12.923  1.00  0.00    -0.000 C 
BRANCH  39  40
HETATM   40  C   UNK A   1     -24.043  -2.946 -12.819  1.00  0.00    -0.005 C 
HETATM   41  C   UNK A   1     -24.496  -3.225 -11.400  1.00  0.00     0.005 C 
ENDBRANCH  39  40
ENDBRANCH  38  39
ENDBRANCH  37  38
ENDBRANCH  36  37
ENDBRANCH  35  36
ENDBRANCH  34  35
ENDBRANCH  33  34
ENDBRANCH  32  33
ENDBRANCH  31  32
ENDBRANCH  30  31
ENDBRANCH  29  30
ENDBRANCH  28  29
ENDBRANCH  27  28
ENDBRANCH  26  27
BRANCH  26  42
HETATM   42  O   UNK A   1     -22.594  -5.932  -1.905  1.00  0.00    -0.393 OA
HETATM   43  H   UNK A   1     -23.431  -6.236  -1.510  1.00  0.00     0.210 HD
ENDBRANCH  26  42
ENDBRANCH   1  26
TORSDOF 35
ENDMDL
MODEL 2
REMARK VINA RESULT:      -6.2      2.597      5.892
REMARK WARNING: 32 MAX_TORS EXCEEDED!!!
REMARK  35 active torsions:
REMARK  status: ('A' for Active; 'I' for Inactive)
REMARK    1  A    between atoms: C_2  and  C_3 
REMARK    2  A    between atoms: C_3  and  C_4 
REMARK    3  A    between atoms: C_4  and  C_5 
REMARK    4  A    between atoms: C_5  and  C_6 
REMARK    5  A    between atoms: C_6  and  C_7 
REMARK    6  A    between atoms: C_7  and  C_8 
REMARK    7  A    between atoms: C_8  and  C_9 
REMARK    8  A    between atoms: C_9  and  C_10 
REMARK    9  A    between atoms: C_10  and  C_11 
REMARK   10  A    between atoms: C_11  and  C_12 
REMARK   11  A    between atoms: C_12  and  C_13 
REMARK   12  A    between atoms: C_13  and  C_14 
REMARK   13  A    between atoms: C_14  and  C_15 
REMARK   14  A    between atoms: C_15  and  C_16 
REMARK   15  A    between atoms: C_16  and  C_17 
REMARK   16  A    between atoms: C_17  and  C_18 
REMARK       I    between atoms: C_18  and  N_20 
REMARK   17  A    between atoms: N_20  and  C_21 
REMARK   18  A    between atoms: C_21  and  C_22 
REMARK   19  A    between atoms: C_21  and  C_24 
REMARK   20  A    between atoms: C_22  and  O_23 
REMARK   21  A    between atoms: C_24  and  C_25 
REMARK   22  A    between atoms: C_24  and  O_40 
REMARK   23  A    between atoms: C_25  and  C_26 
REMARK   24  A    between atoms: C_26  and  C_27 
REMARK   25  A    between atoms: C_27  and  C_28 
REMARK   26  A    between atoms: C_28  and  C_29 
REMARK   27  A    between atoms: C_29  and  C_30 
REMARK   28  A    between atoms: C_30  and  C_31 
REMARK   29  A    between atoms: C_31  and  C_32 
REMARK   30  A    between atoms: C_32  and  C_33 
REMARK   31  A    between atoms: C_33  and  C_34 
REMARK   32  A    between atoms: C_34  and  C_35 
REMARK   33  A    between atoms: C_35  and  C_36 
REMARK   34  A    between atoms: C_36  and  C_37 
REMARK   35  A    between atoms: C_37  and  C_38 
ROOT
HETATM    1  C   UNK A   1     -19.002 -11.741  -7.018  1.00  0.00     0.136 C 
ENDROOT
BRANCH   1   2
HETATM    2  N   UNK A   1     -17.887 -11.396  -6.124  1.00  0.00    -0.352 N 
HETATM    3  C   UNK A   0     -17.427 -10.092  -5.986  1.00  0.00     0.218 C 
HETATM    4  O   UNK A   0     -17.901  -9.123  -6.537  1.00  0.00    -0.274 OA
HETATM    5  H   UNK A   1     -17.428 -12.150  -5.623  1.00  0.00     0.163 HD
BRANCH   3   6
HETATM    6  C   UNK A   0     -16.255  -9.925  -5.031  1.00  0.00     0.103 C 
BRANCH   6   7
HETATM    7  C   UNK A   0     -16.766  -9.808  -3.610  1.00  0.00     0.009 C 
BRANCH   7   8
HETATM    8  C   UNK A   0     -15.727 -10.273  -2.611  1.00  0.00     0.000 C 
BRANCH   8   9
HETATM    9  C   UNK A   0     -16.388 -11.113  -1.531  1.00  0.00     0.000 C 
BRANCH   9  10
HETATM   10  C   UNK A   0     -17.493 -11.954  -2.139  1.00  0.00     0.000 C 
BRANCH  10  11
HETATM   11  C   UNK A   0     -18.113 -12.842  -1.076  1.00  0.00     0.000 C 
BRANCH  11  12
HETATM   12  C   UNK A   0     -18.640 -11.989   0.061  1.00  0.00     0.000 C 
BRANCH  12  13
HETATM   13  C   UNK A   0     -20.084 -11.611  -0.205  1.00  0.00     0.000 C 
BRANCH  13  14
HETATM   14  C   UNK A   0     -21.008 -12.654   0.394  1.00  0.00     0.000 C 
BRANCH  14  15
HETATM   15  C   UNK A   0     -22.308 -12.697  -0.385  1.00  0.00     0.000 C 
BRANCH  15  16
HETATM   16  C   UNK A   0     -23.441 -12.170   0.474  1.00  0.00     0.000 C 
BRANCH  16  17
HETATM   17  C   UNK A   0     -24.210 -11.103  -0.284  1.00  0.00     0.000 C 
BRANCH  17  18
HETATM   18  C   UNK A   0     -23.310  -9.913  -0.555  1.00  0.00     0.000 C 
BRANCH  18  19
HETATM   19  C   UNK A   0     -23.376  -8.939   0.608  1.00  0.00     0.000 C 
BRANCH  19  20
HETATM   20  C   UNK A   0     -22.074  -8.164   0.712  1.00  0.00    -0.000 C 
BRANCH  20  21
HETATM   21  C   UNK A   0     -21.537  -7.845  -0.675  1.00  0.00    -0.005 C 
HETATM   22  C   UNK A   0     -22.198  -6.594  -1.215  1.00  0.00     0.005 C 
ENDBRANCH  20  21
ENDBRANCH  19  20
ENDBRANCH  18  19
ENDBRANCH  17  18
ENDBRANCH  16  17
ENDBRANCH  15  16
ENDBRANCH  14  15
ENDBRANCH  13  14
ENDBRANCH  12  13
ENDBRANCH  11  12
ENDBRANCH  10  11
ENDBRANCH   9  10
ENDBRANCH   8   9
ENDBRANCH   7   8
ENDBRANCH   6   7
ENDBRANCH   3   6
ENDBRANCH   1   2
BRANCH   1  23
HETATM   23  C   UNK A   1     -18.571 -12.888  -7.940  1.00  0.00     0.191 C 
BRANCH  23  24
HETATM   24  O   UNK A   1     -19.688 -13.731  -8.190  1.00  0.00    -0.399 OA
HETATM   25  H   UNK A   1     -20.099 -13.933  -7.328  1.00  0.00     0.209 HD
ENDBRANCH  23  24
ENDBRANCH   1  23
BRANCH   1  26
HETATM   26  C   UNK A   1     -20.264 -12.161  -6.247  1.00  0.00     0.143 C 
BRANCH  26  27
HETATM   27  C   UNK A   1     -20.223 -11.785  -4.772  1.00  0.00     0.034 C 
BRANCH  27  28
HETATM   28  C   UNK A   1     -21.594 -11.285  -4.303  1.00  0.00     0.002 C 
BRANCH  28  29
HETATM   29  C   UNK A   1     -21.528  -9.946  -3.610  1.00  0.00     0.000 C 
BRANCH  29  30
HETATM   30  C   UNK A   1     -20.512  -9.056  -4.290  1.00  0.00     0.000 C 
BRANCH  30  31
HETATM   31  C   UNK A   1     -21.086  -7.670  -4.396  1.00  0.00     0.000 C 
BRANCH  31  32
HETATM   32  C   UNK A   1     -20.675  -7.048  -5.711  1.00  0.00     0.000 C 
BRANCH  32  33
HETATM   33  C   UNK A   1     -21.009  -5.571  -5.688  1.00  0.00     0.000 C 
BRANCH  33  34
HETATM   34  C   UNK A   1     -20.078  -4.822  -6.620  1.00  0.00     0.000 C 
BRANCH  34  35
HETATM   35  C   UNK A   1     -20.859  -3.781  -7.399  1.00  0.00     0.000 C 
BRANCH  35  36
HETATM   36  C   UNK A   1     -22.306  -4.214  -7.528  1.00  0.00     0.000 C 
BRANCH  36  37
HETATM   37  C   UNK A   1     -22.887  -3.693  -8.829  1.00  0.00     0.000 C 
BRANCH  37  38
HETATM   38  C   UNK A   1     -23.043  -4.833  -9.819  1.00  0.00     0.000 C 
BRANCH  38  39
HETATM   39  C   UNK A   1     -22.749  -4.342 -11.225  1.00  0.00    -0.000 C 
BRANCH  39  40
HETATM   40  C   UNK A   1     -21.589  -3.359 -11.208  1.00  0.00    -0.005 C 
HETATM   41  C   UNK A   1     -20.273  -4.105 -11.121  1.00  0.00     0.005 C 
ENDBRANCH  39  40
ENDBRANCH  38  39
ENDBRANCH  37  38
ENDBRANCH  36  37
ENDBRANCH  35  36
ENDBRANCH  34  35
ENDBRANCH  33  34
ENDBRANCH  32  33
ENDBRANCH  31  32
ENDBRANCH  30  31
ENDBRANCH  29  30
ENDBRANCH  28  29
ENDBRANCH  27  28
ENDBRANCH  26  27
BRANCH  26  42
HETATM   42  O   UNK A   1     -21.390 -11.544  -6.865  1.00  0.00    -0.393 OA
HETATM   43  H   UNK A   1     -21.245 -10.589  -6.986  1.00  0.00     0.210 HD
ENDBRANCH  26  42
ENDBRANCH   1  26
TORSDOF 35
ENDMDL
MODEL 3
REMARK VINA RESULT:      -6.2      2.118      7.689
REMARK WARNING: 32 MAX_TORS EXCEEDED!!!
REMARK  35 active torsions:
REMARK  status: ('A' for Active; 'I' for Inactive)
REMARK    1  A    between atoms: C_2  and  C_3 
REMARK    2  A    between atoms: C_3  and  C_4 
REMARK    3  A    between atoms: C_4  and  C_5 
REMARK    4  A    between atoms: C_5  and  C_6 
REMARK    5  A    between atoms: C_6  and  C_7 
REMARK    6  A    between atoms: C_7  and  C_8 
REMARK    7  A    between atoms: C_8  and  C_9 
REMARK    8  A    between atoms: C_9  and  C_10 
REMARK    9  A    between atoms: C_10  and  C_11 
REMARK   10  A    between atoms: C_11  and  C_12 
REMARK   11  A    between atoms: C_12  and  C_13 
REMARK   12  A    between atoms: C_13  and  C_14 
REMARK   13  A    between atoms: C_14  and  C_15 
REMARK   14  A    between atoms: C_15  and  C_16 
REMARK   15  A    between atoms: C_16  and  C_17 
REMARK   16  A    between atoms: C_17  and  C_18 
REMARK       I    between atoms: C_18  and  N_20 
REMARK   17  A    between atoms: N_20  and  C_21 
REMARK   18  A    between atoms: C_21  and  C_22 
REMARK   19  A    between atoms: C_21  and  C_24 
REMARK   20  A    between atoms: C_22  and  O_23 
REMARK   21  A    between atoms: C_24  and  C_25 
REMARK   22  A    between atoms: C_24  and  O_40 
REMARK   23  A    between atoms: C_25  and  C_26 
REMARK   24  A    between atoms: C_26  and  C_27 
REMARK   25  A    between atoms: C_27  and  C_28 
REMARK   26  A    between atoms: C_28  and  C_29 
REMARK   27  A    between atoms: C_29  and  C_30 
REMARK   28  A    between atoms: C_30  and  C_31 
REMARK   29  A    between atoms: C_31  and  C_32 
REMARK   30  A    between atoms: C_32  and  C_33 
REMARK   31  A    between atoms: C_33  and  C_34 
REMARK   32  A    between atoms: C_34  and  C_35 
REMARK   33  A    between atoms: C_35  and  C_36 
REMARK   34  A    between atoms: C_36  and  C_37 
REMARK   35  A    between atoms: C_37  and  C_38 
ROOT
HETATM    1  C   UNK A   1     -22.334 -12.238  -0.476  1.00  0.00     0.136 C 
ENDROOT
BRANCH   1   2
HETATM    2  N   UNK A   1     -22.121 -10.974   0.245  1.00  0.00    -0.352 N 
HETATM    3  C   UNK A   0     -20.860 -10.560   0.657  1.00  0.00     0.218 C 
HETATM    4  O   UNK A   0     -19.826 -11.154   0.440  1.00  0.00    -0.274 OA
HETATM    5  H   UNK A   1     -22.936 -10.412   0.472  1.00  0.00     0.163 HD
BRANCH   3   6
HETATM    6  C   UNK A   0     -20.833  -9.236   1.404  1.00  0.00     0.103 C 
BRANCH   6   7
HETATM    7  C   UNK A   0     -21.752  -8.244   0.722  1.00  0.00     0.009 C 
BRANCH   7   8
HETATM    8  C   UNK A   0     -21.195  -7.809  -0.617  1.00  0.00     0.000 C 
BRANCH   8   9
HETATM    9  C   UNK A   0     -22.266  -7.079  -1.411  1.00  0.00     0.000 C 
BRANCH   9  10
HETATM   10  C   UNK A   0     -21.617  -6.225  -2.483  1.00  0.00     0.000 C 
BRANCH  10  11
HETATM   11  C   UNK A   0     -21.986  -6.752  -3.857  1.00  0.00     0.000 C 
BRANCH  11  12
HETATM   12  C   UNK A   0     -21.311  -5.916  -4.927  1.00  0.00     0.000 C 
BRANCH  12  13
HETATM   13  C   UNK A   0     -20.308  -6.762  -5.685  1.00  0.00     0.000 C 
BRANCH  13  14
HETATM   14  C   UNK A   0     -20.013  -6.128  -7.031  1.00  0.00     0.000 C 
BRANCH  14  15
HETATM   15  C   UNK A   0     -21.063  -5.079  -7.347  1.00  0.00     0.000 C 
BRANCH  15  16
HETATM   16  C   UNK A   0     -20.463  -3.999  -8.226  1.00  0.00     0.000 C 
BRANCH  16  17
HETATM   17  C   UNK A   0     -20.052  -4.590  -9.562  1.00  0.00     0.000 C 
BRANCH  17  18
HETATM   18  C   UNK A   0     -20.575  -3.725 -10.693  1.00  0.00     0.000 C 
BRANCH  18  19
HETATM   19  C   UNK A   0     -21.717  -4.433 -11.399  1.00  0.00     0.000 C 
BRANCH  19  20
HETATM   20  C   UNK A   0     -22.815  -3.439 -11.738  1.00  0.00    -0.000 C 
BRANCH  20  21
HETATM   21  C   UNK A   0     -23.819  -3.355 -10.599  1.00  0.00    -0.005 C 
HETATM   22  C   UNK A   0     -24.091  -4.736 -10.039  1.00  0.00     0.005 C 
ENDBRANCH  20  21
ENDBRANCH  19  20
ENDBRANCH  18  19
ENDBRANCH  17  18
ENDBRANCH  16  17
ENDBRANCH  15  16
ENDBRANCH  14  15
ENDBRANCH  13  14
ENDBRANCH  12  13
ENDBRANCH  11  12
ENDBRANCH  10  11
ENDBRANCH   9  10
ENDBRANCH   8   9
ENDBRANCH   7   8
ENDBRANCH   6   7
ENDBRANCH   3   6
ENDBRANCH   1   2
BRANCH   1  23
HETATM   23  C   UNK A   1     -23.208 -13.164   0.378  1.00  0.00     0.191 C 
BRANCH  23  24
HETATM   24  O   UNK A   1     -22.660 -13.246   1.687  1.00  0.00    -0.399 OA
HETATM   25  H   UNK A   1     -22.497 -14.189   1.876  1.00  0.00     0.209 HD
ENDBRANCH  23  24
ENDBRANCH   1  23
BRANCH   1  26
HETATM   26  C   UNK A   1     -23.007 -12.027  -1.842  1.00  0.00     0.143 C 
BRANCH  26  27
HETATM   27  C   UNK A   1     -22.681 -10.680  -2.474  1.00  0.00     0.034 C 
BRANCH  27  28
HETATM   28  C   UNK A   1     -22.258 -10.858  -3.937  1.00  0.00     0.002 C 
BRANCH  28  29
HETATM   29  C   UNK A   1     -20.911 -10.248  -4.239  1.00  0.00     0.000 C 
BRANCH  29  30
HETATM   30  C   UNK A   1     -20.034 -10.283  -3.008  1.00  0.00     0.000 C 
BRANCH  30  31
HETATM   31  C   UNK A   1     -18.834  -9.411  -3.251  1.00  0.00     0.000 C 
BRANCH  31  32
HETATM   32  C   UNK A   1     -17.628  -9.999  -2.555  1.00  0.00     0.000 C 
BRANCH  32  33
HETATM   33  C   UNK A   1     -16.369  -9.463  -3.204  1.00  0.00     0.000 C 
BRANCH  33  34
HETATM   34  C   UNK A   1     -15.730 -10.545  -4.051  1.00  0.00     0.000 C 
BRANCH  34  35
HETATM   35  C   UNK A   1     -15.978 -10.261  -5.520  1.00  0.00     0.000 C 
BRANCH  35  36
HETATM   36  C   UNK A   1     -16.398 -11.535  -6.225  1.00  0.00     0.000 C 
BRANCH  36  37
HETATM   37  C   UNK A   1     -17.749 -11.991  -5.708  1.00  0.00     0.000 C 
BRANCH  37  38
HETATM   38  C   UNK A   1     -18.464 -12.802  -6.774  1.00  0.00     0.000 C 
BRANCH  38  39
HETATM   39  C   UNK A   1     -19.777 -12.133  -7.140  1.00  0.00    -0.000 C 
BRANCH  39  40
HETATM   40  C   UNK A   1     -20.822 -13.181  -7.491  1.00  0.00    -0.005 C 
HETATM   41  C   UNK A   1     -21.458 -13.728  -6.230  1.00  0.00     0.005 C 
ENDBRANCH  39  40
ENDBRANCH  38  39
ENDBRANCH  37  38
ENDBRANCH  36  37
ENDBRANCH  35  36
ENDBRANCH  34  35
ENDBRANCH  33  34
ENDBRANCH  32  33
ENDBRANCH  31  32
ENDBRANCH  30  31
ENDBRANCH  29  30
ENDBRANCH  28  29
ENDBRANCH  27  28
ENDBRANCH  26  27
BRANCH  26  42
HETATM   42  O   UNK A   1     -22.590 -13.075  -2.712  1.00  0.00    -0.393 OA
HETATM   43  H   UNK A   1     -22.099 -13.761  -2.224  1.00  0.00     0.210 HD
ENDBRANCH  26  42
ENDBRANCH   1  26
TORSDOF 35
ENDMDL
MODEL 4
REMARK VINA RESULT:      -6.2      1.556      3.660
REMARK WARNING: 32 MAX_TORS EXCEEDED!!!
REMARK  35 active torsions:
REMARK  status: ('A' for Active; 'I' for Inactive)
REMARK    1  A    between atoms: C_2  and  C_3 
REMARK    2  A    between atoms: C_3  and  C_4 
REMARK    3  A    between atoms: C_4  and  C_5 
REMARK    4  A    between atoms: C_5  and  C_6 
REMARK    5  A    between atoms: C_6  and  C_7 
REMARK    6  A    between atoms: C_7  and  C_8 
REMARK    7  A    between atoms: C_8  and  C_9 
REMARK    8  A    between atoms: C_9  and  C_10 
REMARK    9  A    between atoms: C_10  and  C_11 
REMARK   10  A    between atoms: C_11  and  C_12 
REMARK   11  A    between atoms: C_12  and  C_13 
REMARK   12  A    between atoms: C_13  and  C_14 
REMARK   13  A    between atoms: C_14  and  C_15 
REMARK   14  A    between atoms: C_15  and  C_16 
REMARK   15  A    between atoms: C_16  and  C_17 
REMARK   16  A    between atoms: C_17  and  C_18 
REMARK       I    between atoms: C_18  and  N_20 
REMARK   17  A    between atoms: N_20  and  C_21 
REMARK   18  A    between atoms: C_21  and  C_22 
REMARK   19  A    between atoms: C_21  and  C_24 
REMARK   20  A    between atoms: C_22  and  O_23 
REMARK   21  A    between atoms: C_24  and  C_25 
REMARK   22  A    between atoms: C_24  and  O_40 
REMARK   23  A    between atoms: C_25  and  C_26 
REMARK   24  A    between atoms: C_26  and  C_27 
REMARK   25  A    between atoms: C_27  and  C_28 
REMARK   26  A    between atoms: C_28  and  C_29 
REMARK   27  A    between atoms: C_29  and  C_30 
REMARK   28  A    between atoms: C_30  and  C_31 
REMARK   29  A    between atoms: C_31  and  C_32 
REMARK   30  A    between atoms: C_32  and  C_33 
REMARK   31  A    between atoms: C_33  and  C_34 
REMARK   32  A    between atoms: C_34  and  C_35 
REMARK   33  A    between atoms: C_35  and  C_36 
REMARK   34  A    between atoms: C_36  and  C_37 
REMARK   35  A    between atoms: C_37  and  C_38 
ROOT
HETATM    1  C   UNK A   1     -21.804  -9.990  -0.009  1.00  0.00     0.136 C 
ENDROOT
BRANCH   1   2
HETATM    2  N   UNK A   1     -21.829 -10.354  -1.434  1.00  0.00    -0.352 N 
HETATM    3  C   UNK A   0     -22.891 -11.049  -2.001  1.00  0.00     0.218 C 
HETATM    4  O   UNK A   0     -23.896 -11.386  -1.415  1.00  0.00    -0.274 OA
HETATM    5  H   UNK A   1     -21.023 -10.111  -2.002  1.00  0.00     0.163 HD
BRANCH   3   6
HETATM    6  C   UNK A   0     -22.737 -11.353  -3.483  1.00  0.00     0.103 C 
BRANCH   6   7
HETATM    7  C   UNK A   0     -21.385 -10.873  -3.967  1.00  0.00     0.009 C 
BRANCH   7   8
HETATM    8  C   UNK A   0     -21.188 -11.172  -5.438  1.00  0.00     0.000 C 
BRANCH   8   9
HETATM    9  C   UNK A   0     -19.750 -10.883  -5.837  1.00  0.00     0.000 C 
BRANCH   9  10
HETATM   10  C   UNK A   0     -19.112 -12.138  -6.400  1.00  0.00     0.000 C 
BRANCH  10  11
HETATM   11  C   UNK A   0     -17.615 -12.113  -6.151  1.00  0.00     0.000 C 
BRANCH  11  12
HETATM   12  C   UNK A   0     -17.110 -10.685  -6.204  1.00  0.00     0.000 C 
BRANCH  12  13
HETATM   13  C   UNK A   0     -15.594 -10.675  -6.212  1.00  0.00     0.000 C 
BRANCH  13  14
HETATM   14  C   UNK A   0     -15.073 -11.986  -6.769  1.00  0.00     0.000 C 
BRANCH  14  15
HETATM   15  C   UNK A   0     -13.772 -12.356  -6.083  1.00  0.00     0.000 C 
BRANCH  15  16
HETATM   16  C   UNK A   0     -14.049 -13.298  -4.928  1.00  0.00     0.000 C 
BRANCH  16  17
HETATM   17  C   UNK A   0     -13.862 -12.567  -3.611  1.00  0.00     0.000 C 
BRANCH  17  18
HETATM   18  C   UNK A   0     -14.919 -13.013  -2.618  1.00  0.00     0.000 C 
BRANCH  18  19
HETATM   19  C   UNK A   0     -16.111 -12.076  -2.678  1.00  0.00     0.000 C 
BRANCH  19  20
HETATM   20  C   UNK A   0     -15.779 -10.767  -1.981  1.00  0.00    -0.000 C 
BRANCH  20  21
HETATM   21  C   UNK A   0     -16.185  -9.588  -2.852  1.00  0.00    -0.005 C 
HETATM   22  C   UNK A   0     -17.690  -9.415  -2.828  1.00  0.00     0.005 C 
ENDBRANCH  20  21
ENDBRANCH  19  20
ENDBRANCH  18  19
ENDBRANCH  17  18
ENDBRANCH  16  17
ENDBRANCH  15  16
ENDBRANCH  14  15
ENDBRANCH  13  14
ENDBRANCH  12  13
ENDBRANCH  11  12
ENDBRANCH  10  11
ENDBRANCH   9  10
ENDBRANCH   8   9
ENDBRANCH   7   8
ENDBRANCH   6   7
ENDBRANCH   3   6
ENDBRANCH   1   2
BRANCH   1  23
HETATM   23  C   UNK A   1     -20.947 -11.006   0.754  1.00  0.00     0.191 C 
BRANCH  23  24
HETATM   24  O   UNK A   1     -21.658 -12.232   0.859  1.00  0.00    -0.399 OA
HETATM   25  H   UNK A   1     -21.924 -12.492  -0.043  1.00  0.00     0.209 HD
ENDBRANCH  23  24
ENDBRANCH   1  23
BRANCH   1  26
HETATM   26  C   UNK A   1     -21.242  -8.578   0.225  1.00  0.00     0.143 C 
BRANCH  26  27
HETATM   27  C   UNK A   1     -20.833  -7.870  -1.059  1.00  0.00     0.034 C 
BRANCH  27  28
HETATM   28  C   UNK A   1     -21.915  -6.876  -1.496  1.00  0.00     0.002 C 
BRANCH  28  29
HETATM   29  C   UNK A   1     -21.613  -6.220  -2.821  1.00  0.00     0.000 C 
BRANCH  29  30
HETATM   30  C   UNK A   1     -21.749  -7.224  -3.943  1.00  0.00     0.000 C 
BRANCH  30  31
HETATM   31  C   UNK A   1     -20.575  -7.067  -4.870  1.00  0.00     0.000 C 
BRANCH  31  32
HETATM   32  C   UNK A   1     -20.991  -6.271  -6.086  1.00  0.00     0.000 C 
BRANCH  32  33
HETATM   33  C   UNK A   1     -20.285  -4.932  -6.069  1.00  0.00     0.000 C 
BRANCH  33  34
HETATM   34  C   UNK A   1     -20.721  -4.108  -7.264  1.00  0.00     0.000 C 
BRANCH  34  35
HETATM   35  C   UNK A   1     -20.954  -5.015  -8.456  1.00  0.00     0.000 C 
BRANCH  35  36
HETATM   36  C   UNK A   1     -20.062  -4.592  -9.606  1.00  0.00     0.000 C 
BRANCH  36  37
HETATM   37  C   UNK A   1     -20.812  -3.641 -10.519  1.00  0.00     0.000 C 
BRANCH  37  38
HETATM   38  C   UNK A   1     -21.665  -4.428 -11.498  1.00  0.00     0.000 C 
BRANCH  38  39
HETATM   39  C   UNK A   1     -23.072  -3.859 -11.534  1.00  0.00    -0.000 C 
BRANCH  39  40
HETATM   40  C   UNK A   1     -23.924  -4.492 -10.445  1.00  0.00    -0.005 C 
HETATM   41  C   UNK A   1     -24.534  -3.418  -9.567  1.00  0.00     0.005 C 
ENDBRANCH  39  40
ENDBRANCH  38  39
ENDBRANCH  37  38
ENDBRANCH  36  37
ENDBRANCH  35  36
ENDBRANCH  34  35
ENDBRANCH  33  34
ENDBRANCH  32  33
ENDBRANCH  31  32
ENDBRANCH  30  31
ENDBRANCH  29  30
ENDBRANCH  28  29
ENDBRANCH  27  28
ENDBRANCH  26  27
BRANCH  26  42
HETATM   42  O   UNK A   1     -22.234  -7.809   0.899  1.00  0.00    -0.393 OA
HETATM   43  H   UNK A   1     -22.697  -7.215   0.280  1.00  0.00     0.210 HD
ENDBRANCH  26  42
ENDBRANCH   1  26
TORSDOF 35
ENDMDL
MODEL 5
REMARK VINA RESULT:      -6.1      1.555      3.698
REMARK WARNING: 32 MAX_TORS EXCEEDED!!!
REMARK  35 active torsions:
REMARK  status: ('A' for Active; 'I' for Inactive)
REMARK    1  A    between atoms: C_2  and  C_3 
REMARK    2  A    between atoms: C_3  and  C_4 
REMARK    3  A    between atoms: C_4  and  C_5 
REMARK    4  A    between atoms: C_5  and  C_6 
REMARK    5  A    between atoms: C_6  and  C_7 
REMARK    6  A    between atoms: C_7  and  C_8 
REMARK    7  A    between atoms: C_8  and  C_9 
REMARK    8  A    between atoms: C_9  and  C_10 
REMARK    9  A    between atoms: C_10  and  C_11 
REMARK   10  A    between atoms: C_11  and  C_12 
REMARK   11  A    between atoms: C_12  and  C_13 
REMARK   12  A    between atoms: C_13  and  C_14 
REMARK   13  A    between atoms: C_14  and  C_15 
REMARK   14  A    between atoms: C_15  and  C_16 
REMARK   15  A    between atoms: C_16  and  C_17 
REMARK   16  A    between atoms: C_17  and  C_18 
REMARK       I    between atoms: C_18  and  N_20 
REMARK   17  A    between atoms: N_20  and  C_21 
REMARK   18  A    between atoms: C_21  and  C_22 
REMARK   19  A    between atoms: C_21  and  C_24 
REMARK   20  A    between atoms: C_22  and  O_23 
REMARK   21  A    between atoms: C_24  and  C_25 
REMARK   22  A    between atoms: C_24  and  O_40 
REMARK   23  A    between atoms: C_25  and  C_26 
REMARK   24  A    between atoms: C_26  and  C_27 
REMARK   25  A    between atoms: C_27  and  C_28 
REMARK   26  A    between atoms: C_28  and  C_29 
REMARK   27  A    between atoms: C_29  and  C_30 
REMARK   28  A    between atoms: C_30  and  C_31 
REMARK   29  A    between atoms: C_31  and  C_32 
REMARK   30  A    between atoms: C_32  and  C_33 
REMARK   31  A    between atoms: C_33  and  C_34 
REMARK   32  A    between atoms: C_34  and  C_35 
REMARK   33  A    between atoms: C_35  and  C_36 
REMARK   34  A    between atoms: C_36  and  C_37 
REMARK   35  A    between atoms: C_37  and  C_38 
ROOT
HETATM    1  C   UNK A   1     -23.065 -10.027  -0.866  1.00  0.00     0.136 C 
ENDROOT
BRANCH   1   2
HETATM    2  N   UNK A   1     -21.969 -10.633  -1.637  1.00  0.00    -0.352 N 
HETATM    3  C   UNK A   0     -22.134 -11.057  -2.950  1.00  0.00     0.218 C 
HETATM    4  O   UNK A   0     -23.153 -10.943  -3.597  1.00  0.00    -0.274 OA
HETATM    5  H   UNK A   1     -21.077 -10.768  -1.170  1.00  0.00     0.163 HD
BRANCH   3   6
HETATM    6  C   UNK A   0     -20.898 -11.675  -3.583  1.00  0.00     0.103 C 
BRANCH   6   7
HETATM    7  C   UNK A   0     -19.894 -12.029  -2.506  1.00  0.00     0.009 C 
BRANCH   7   8
HETATM    8  C   UNK A   0     -18.492 -11.614  -2.901  1.00  0.00     0.000 C 
BRANCH   8   9
HETATM    9  C   UNK A   0     -18.258 -10.160  -2.526  1.00  0.00     0.000 C 
BRANCH   9  10
HETATM   10  C   UNK A   0     -17.818  -9.379  -3.750  1.00  0.00     0.000 C 
BRANCH  10  11
HETATM   11  C   UNK A   0     -16.414  -9.792  -4.149  1.00  0.00     0.000 C 
BRANCH  11  12
HETATM   12  C   UNK A   0     -16.284  -9.775  -5.659  1.00  0.00     0.000 C 
BRANCH  12  13
HETATM   13  C   UNK A   0     -17.354 -10.652  -6.278  1.00  0.00     0.000 C 
BRANCH  13  14
HETATM   14  C   UNK A   0     -16.893 -12.096  -6.292  1.00  0.00     0.000 C 
BRANCH  14  15
HETATM   15  C   UNK A   0     -15.482 -12.181  -6.841  1.00  0.00     0.000 C 
BRANCH  15  16
HETATM   16  C   UNK A   0     -14.639 -13.078  -5.955  1.00  0.00     0.000 C 
BRANCH  16  17
HETATM   17  C   UNK A   0     -13.590 -12.252  -5.235  1.00  0.00     0.000 C 
BRANCH  17  18
HETATM   18  C   UNK A   0     -13.456 -12.724  -3.800  1.00  0.00     0.000 C 
BRANCH  18  19
HETATM   19  C   UNK A   0     -14.829 -13.001  -3.216  1.00  0.00     0.000 C 
BRANCH  19  20
HETATM   20  C   UNK A   0     -14.986 -12.278  -1.890  1.00  0.00    -0.000 C 
BRANCH  20  21
HETATM   21  C   UNK A   0     -15.782 -13.131  -0.915  1.00  0.00    -0.005 C 
HETATM   22  C   UNK A   0     -16.462 -12.251   0.114  1.00  0.00     0.005 C 
ENDBRANCH  20  21
ENDBRANCH  19  20
ENDBRANCH  18  19
ENDBRANCH  17  18
ENDBRANCH  16  17
ENDBRANCH  15  16
ENDBRANCH  14  15
ENDBRANCH  13  14
ENDBRANCH  12  13
ENDBRANCH  11  12
ENDBRANCH  10  11
ENDBRANCH   9  10
ENDBRANCH   8   9
ENDBRANCH   7   8
ENDBRANCH   6   7
ENDBRANCH   3   6
ENDBRANCH   1   2
BRANCH   1  23
HETATM   23  C   UNK A   1     -23.796 -11.124  -0.084  1.00  0.00     0.191 C 
BRANCH  23  24
HETATM   24  O   UNK A   1     -22.841 -12.018   0.470  1.00  0.00    -0.399 OA
HETATM   25  H   UNK A   1     -22.907 -12.857  -0.024  1.00  0.00     0.209 HD
ENDBRANCH  23  24
ENDBRANCH   1  23
BRANCH   1  26
HETATM   26  C   UNK A   1     -22.568  -8.953   0.115  1.00  0.00     0.143 C 
BRANCH  26  27
HETATM   27  C   UNK A   1     -21.590  -7.969  -0.512  1.00  0.00     0.034 C 
BRANCH  27  28
HETATM   28  C   UNK A   1     -22.334  -6.755  -1.081  1.00  0.00     0.002 C 
BRANCH  28  29
HETATM   29  C   UNK A   1     -21.800  -6.310  -2.420  1.00  0.00     0.000 C 
BRANCH  29  30
HETATM   30  C   UNK A   1     -20.878  -7.364  -2.990  1.00  0.00     0.000 C 
BRANCH  30  31
HETATM   31  C   UNK A   1     -21.370  -7.740  -4.361  1.00  0.00     0.000 C 
BRANCH  31  32
HETATM   32  C   UNK A   1     -22.073  -6.559  -4.990  1.00  0.00     0.000 C 
BRANCH  32  33
HETATM   33  C   UNK A   1     -21.351  -6.173  -6.264  1.00  0.00     0.000 C 
BRANCH  33  34
HETATM   34  C   UNK A   1     -20.511  -4.935  -6.022  1.00  0.00     0.000 C 
BRANCH  34  35
HETATM   35  C   UNK A   1     -20.105  -4.322  -7.348  1.00  0.00     0.000 C 
BRANCH  35  36
HETATM   36  C   UNK A   1     -20.789  -5.056  -8.485  1.00  0.00     0.000 C 
BRANCH  36  37
HETATM   37  C   UNK A   1     -21.747  -4.123  -9.200  1.00  0.00     0.000 C 
BRANCH  37  38
HETATM   38  C   UNK A   1     -21.642  -4.324 -10.701  1.00  0.00     0.000 C 
BRANCH  38  39
HETATM   39  C   UNK A   1     -21.531  -2.979 -11.397  1.00  0.00    -0.000 C 
BRANCH  39  40
HETATM   40  C   UNK A   1     -22.573  -2.869 -12.499  1.00  0.00    -0.005 C 
HETATM   41  C   UNK A   1     -23.962  -3.064 -11.926  1.00  0.00     0.005 C 
ENDBRANCH  39  40
ENDBRANCH  38  39
ENDBRANCH  37  38
ENDBRANCH  36  37
ENDBRANCH  35  36
ENDBRANCH  34  35
ENDBRANCH  33  34
ENDBRANCH  32  33
ENDBRANCH  31  32
ENDBRANCH  30  31
ENDBRANCH  29  30
ENDBRANCH  28  29
ENDBRANCH  27  28
ENDBRANCH  26  27
BRANCH  26  42
HETATM   42  O   UNK A   1     -23.700  -8.246   0.615  1.00  0.00    -0.393 OA
HETATM   43  H   UNK A   1     -24.338  -8.058  -0.096  1.00  0.00     0.210 HD
ENDBRANCH  26  42
ENDBRANCH   1  26
TORSDOF 35
ENDMDL
MODEL 6
REMARK VINA RESULT:      -6.1      2.413      5.402
REMARK WARNING: 32 MAX_TORS EXCEEDED!!!
REMARK  35 active torsions:
REMARK  status: ('A' for Active; 'I' for Inactive)
REMARK    1  A    between atoms: C_2  and  C_3 
REMARK    2  A    between atoms: C_3  and  C_4 
REMARK    3  A    between atoms: C_4  and  C_5 
REMARK    4  A    between atoms: C_5  and  C_6 
REMARK    5  A    between atoms: C_6  and  C_7 
REMARK    6  A    between atoms: C_7  and  C_8 
REMARK    7  A    between atoms: C_8  and  C_9 
REMARK    8  A    between atoms: C_9  and  C_10 
REMARK    9  A    between atoms: C_10  and  C_11 
REMARK   10  A    between atoms: C_11  and  C_12 
REMARK   11  A    between atoms: C_12  and  C_13 
REMARK   12  A    between atoms: C_13  and  C_14 
REMARK   13  A    between atoms: C_14  and  C_15 
REMARK   14  A    between atoms: C_15  and  C_16 
REMARK   15  A    between atoms: C_16  and  C_17 
REMARK   16  A    between atoms: C_17  and  C_18 
REMARK       I    between atoms: C_18  and  N_20 
REMARK   17  A    between atoms: N_20  and  C_21 
REMARK   18  A    between atoms: C_21  and  C_22 
REMARK   19  A    between atoms: C_21  and  C_24 
REMARK   20  A    between atoms: C_22  and  O_23 
REMARK   21  A    between atoms: C_24  and  C_25 
REMARK   22  A    between atoms: C_24  and  O_40 
REMARK   23  A    between atoms: C_25  and  C_26 
REMARK   24  A    between atoms: C_26  and  C_27 
REMARK   25  A    between atoms: C_27  and  C_28 
REMARK   26  A    between atoms: C_28  and  C_29 
REMARK   27  A    between atoms: C_29  and  C_30 
REMARK   28  A    between atoms: C_30  and  C_31 
REMARK   29  A    between atoms: C_31  and  C_32 
REMARK   30  A    between atoms: C_32  and  C_33 
REMARK   31  A    between atoms: C_33  and  C_34 
REMARK   32  A    between atoms: C_34  and  C_35 
REMARK   33  A    between atoms: C_35  and  C_36 
REMARK   34  A    between atoms: C_36  and  C_37 
REMARK   35  A    between atoms: C_37  and  C_38 
ROOT
HETATM    1  C   UNK A   1     -19.739 -11.561  -6.299  1.00  0.00     0.136 C 
ENDROOT
BRANCH   1   2
HETATM    2  N   UNK A   1     -18.298 -11.367  -6.076  1.00  0.00    -0.352 N 
HETATM    3  C   UNK A   0     -17.701 -10.114  -6.139  1.00  0.00     0.218 C 
HETATM    4  O   UNK A   0     -18.287  -9.072  -6.339  1.00  0.00    -0.274 OA
HETATM    5  H   UNK A   1     -17.729 -12.191  -5.903  1.00  0.00     0.163 HD
BRANCH   3   6
HETATM    6  C   UNK A   0     -16.200 -10.107  -5.899  1.00  0.00     0.103 C 
BRANCH   6   7
HETATM    7  C   UNK A   0     -15.902 -10.619  -4.505  1.00  0.00     0.009 C 
BRANCH   7   8
HETATM    8  C   UNK A   0     -16.304  -9.610  -3.450  1.00  0.00     0.000 C 
BRANCH   8   9
HETATM    9  C   UNK A   0     -15.757 -10.031  -2.096  1.00  0.00     0.000 C 
BRANCH   9  10
HETATM   10  C   UNK A   0     -15.880 -11.535  -1.939  1.00  0.00     0.000 C 
BRANCH  10  11
HETATM   11  C   UNK A   0     -16.638 -11.862  -0.666  1.00  0.00     0.000 C 
BRANCH  11  12
HETATM   12  C   UNK A   0     -18.130 -11.797  -0.926  1.00  0.00     0.000 C 
BRANCH  12  13
HETATM   13  C   UNK A   0     -18.859 -12.735   0.016  1.00  0.00     0.000 C 
BRANCH  13  14
HETATM   14  C   UNK A   0     -20.189 -12.128   0.420  1.00  0.00     0.000 C 
BRANCH  14  15
HETATM   15  C   UNK A   0     -20.169 -10.632   0.171  1.00  0.00     0.000 C 
BRANCH  15  16
HETATM   16  C   UNK A   0     -20.475  -9.892   1.459  1.00  0.00     0.000 C 
BRANCH  16  17
HETATM   17  C   UNK A   0     -21.492  -8.797   1.195  1.00  0.00     0.000 C 
BRANCH  17  18
HETATM   18  C   UNK A   0     -22.223  -9.073  -0.104  1.00  0.00     0.000 C 
BRANCH  18  19
HETATM   19  C   UNK A   0     -23.658  -9.474   0.185  1.00  0.00     0.000 C 
BRANCH  19  20
HETATM   20  C   UNK A   0     -23.857 -10.950  -0.114  1.00  0.00    -0.000 C 
BRANCH  20  21
HETATM   21  C   UNK A   0     -23.652 -11.219  -1.597  1.00  0.00    -0.005 C 
HETATM   22  C   UNK A   0     -23.150 -12.632  -1.807  1.00  0.00     0.005 C 
ENDBRANCH  20  21
ENDBRANCH  19  20
ENDBRANCH  18  19
ENDBRANCH  17  18
ENDBRANCH  16  17
ENDBRANCH  15  16
ENDBRANCH  14  15
ENDBRANCH  13  14
ENDBRANCH  12  13
ENDBRANCH  11  12
ENDBRANCH  10  11
ENDBRANCH   9  10
ENDBRANCH   8   9
ENDBRANCH   7   8
ENDBRANCH   6   7
ENDBRANCH   3   6
ENDBRANCH   1   2
BRANCH   1  23
HETATM   23  C   UNK A   1     -19.942 -12.612  -7.395  1.00  0.00     0.191 C 
BRANCH  23  24
HETATM   24  O   UNK A   1     -19.294 -13.817  -7.012  1.00  0.00    -0.399 OA
HETATM   25  H   UNK A   1     -19.985 -14.496  -6.895  1.00  0.00     0.209 HD
ENDBRANCH  23  24
ENDBRANCH   1  23
BRANCH   1  26
HETATM   26  C   UNK A   1     -20.474 -12.011  -5.026  1.00  0.00     0.143 C 
BRANCH  26  27
HETATM   27  C   UNK A   1     -19.952 -11.344  -3.760  1.00  0.00     0.034 C 
BRANCH  27  28
HETATM   28  C   UNK A   1     -20.692 -10.028  -3.497  1.00  0.00     0.002 C 
BRANCH  28  29
HETATM   29  C   UNK A   1     -19.779  -8.918  -3.038  1.00  0.00     0.000 C 
BRANCH  29  30
HETATM   30  C   UNK A   1     -20.580  -7.670  -2.746  1.00  0.00     0.000 C 
BRANCH  30  31
HETATM   31  C   UNK A   1     -21.366  -7.309  -3.977  1.00  0.00     0.000 C 
BRANCH  31  32
HETATM   32  C   UNK A   1     -21.084  -5.874  -4.357  1.00  0.00     0.000 C 
BRANCH  32  33
HETATM   33  C   UNK A   1     -21.446  -5.665  -5.812  1.00  0.00     0.000 C 
BRANCH  33  34
HETATM   34  C   UNK A   1     -20.315  -6.151  -6.696  1.00  0.00     0.000 C 
BRANCH  34  35
HETATM   35  C   UNK A   1     -19.632  -4.968  -7.354  1.00  0.00     0.000 C 
BRANCH  35  36
HETATM   36  C   UNK A   1     -20.663  -4.100  -8.049  1.00  0.00     0.000 C 
BRANCH  36  37
HETATM   37  C   UNK A   1     -20.384  -4.059  -9.539  1.00  0.00     0.000 C 
BRANCH  37  38
HETATM   38  C   UNK A   1     -21.683  -4.192 -10.313  1.00  0.00     0.000 C 
BRANCH  38  39
HETATM   39  C   UNK A   1     -22.826  -4.490  -9.359  1.00  0.00    -0.000 C 
BRANCH  39  40
HETATM   40  C   UNK A   1     -23.963  -3.503  -9.576  1.00  0.00    -0.005 C 
HETATM   41  C   UNK A   1     -24.194  -3.288 -11.058  1.00  0.00     0.005 C 
ENDBRANCH  39  40
ENDBRANCH  38  39
ENDBRANCH  37  38
ENDBRANCH  36  37
ENDBRANCH  35  36
ENDBRANCH  34  35
ENDBRANCH  33  34
ENDBRANCH  32  33
ENDBRANCH  31  32
ENDBRANCH  30  31
ENDBRANCH  29  30
ENDBRANCH  28  29
ENDBRANCH  27  28
ENDBRANCH  26  27
BRANCH  26  42
HETATM   42  O   UNK A   1     -21.859 -11.716  -5.183  1.00  0.00    -0.393 OA
HETATM   43  H   UNK A   1     -22.370 -12.003  -4.404  1.00  0.00     0.210 HD
ENDBRANCH  26  42
ENDBRANCH   1  26
TORSDOF 35
ENDMDL
MODEL 7
REMARK VINA RESULT:      -6.1      1.692      8.924
REMARK WARNING: 32 MAX_TORS EXCEEDED!!!
REMARK  35 active torsions:
REMARK  status: ('A' for Active; 'I' for Inactive)
REMARK    1  A    between atoms: C_2  and  C_3 
REMARK    2  A    between atoms: C_3  and  C_4 
REMARK    3  A    between atoms: C_4  and  C_5 
REMARK    4  A    between atoms: C_5  and  C_6 
REMARK    5  A    between atoms: C_6  and  C_7 
REMARK    6  A    between atoms: C_7  and  C_8 
REMARK    7  A    between atoms: C_8  and  C_9 
REMARK    8  A    between atoms: C_9  and  C_10 
REMARK    9  A    between atoms: C_10  and  C_11 
REMARK   10  A    between atoms: C_11  and  C_12 
REMARK   11  A    between atoms: C_12  and  C_13 
REMARK   12  A    between atoms: C_13  and  C_14 
REMARK   13  A    between atoms: C_14  and  C_15 
REMARK   14  A    between atoms: C_15  and  C_16 
REMARK   15  A    between atoms: C_16  and  C_17 
REMARK   16  A    between atoms: C_17  and  C_18 
REMARK       I    between atoms: C_18  and  N_20 
REMARK   17  A    between atoms: N_20  and  C_21 
REMARK   18  A    between atoms: C_21  and  C_22 
REMARK   19  A    between atoms: C_21  and  C_24 
REMARK   20  A    between atoms: C_22  and  O_23 
REMARK   21  A    between atoms: C_24  and  C_25 
REMARK   22  A    between atoms: C_24  and  O_40 
REMARK   23  A    between atoms: C_25  and  C_26 
REMARK   24  A    between atoms: C_26  and  C_27 
REMARK   25  A    between atoms: C_27  and  C_28 
REMARK   26  A    between atoms: C_28  and  C_29 
REMARK   27  A    between atoms: C_29  and  C_30 
REMARK   28  A    between atoms: C_30  and  C_31 
REMARK   29  A    between atoms: C_31  and  C_32 
REMARK   30  A    between atoms: C_32  and  C_33 
REMARK   31  A    between atoms: C_33  and  C_34 
REMARK   32  A    between atoms: C_34  and  C_35 
REMARK   33  A    between atoms: C_35  and  C_36 
REMARK   34  A    between atoms: C_36  and  C_37 
REMARK   35  A    between atoms: C_37  and  C_38 
ROOT
HETATM    1  C   UNK A   1     -21.944 -11.505   0.251  1.00  0.00     0.136 C 
ENDROOT
BRANCH   1   2
HETATM    2  N   UNK A   1     -22.256 -10.115  -0.113  1.00  0.00    -0.352 N 
HETATM    3  C   UNK A   0     -21.708  -9.032   0.564  1.00  0.00     0.218 C 
HETATM    4  O   UNK A   0     -20.909  -9.109   1.472  1.00  0.00    -0.274 OA
HETATM    5  H   UNK A   1     -22.920  -9.957  -0.865  1.00  0.00     0.163 HD
BRANCH   3   6
HETATM    6  C   UNK A   0     -22.156  -7.669   0.061  1.00  0.00     0.103 C 
BRANCH   6   7
HETATM    7  C   UNK A   0     -21.924  -7.573  -1.433  1.00  0.00     0.009 C 
BRANCH   7   8
HETATM    8  C   UNK A   0     -22.141  -6.161  -1.934  1.00  0.00     0.000 C 
BRANCH   8   9
HETATM    9  C   UNK A   0     -21.397  -5.957  -3.244  1.00  0.00     0.000 C 
BRANCH   9  10
HETATM   10  C   UNK A   0     -22.231  -6.487  -4.394  1.00  0.00     0.000 C 
BRANCH  10  11
HETATM   11  C   UNK A   0     -21.550  -6.173  -5.714  1.00  0.00     0.000 C 
BRANCH  11  12
HETATM   12  C   UNK A   0     -20.283  -5.381  -5.462  1.00  0.00     0.000 C 
BRANCH  12  13
HETATM   13  C   UNK A   0     -19.935  -4.561  -6.688  1.00  0.00     0.000 C 
BRANCH  13  14
HETATM   14  C   UNK A   0     -21.160  -3.806  -7.167  1.00  0.00     0.000 C 
BRANCH  14  15
HETATM   15  C   UNK A   0     -21.447  -4.155  -8.614  1.00  0.00     0.000 C 
BRANCH  15  16
HETATM   16  C   UNK A   0     -20.149  -4.461  -9.337  1.00  0.00     0.000 C 
BRANCH  16  17
HETATM   17  C   UNK A   0     -20.399  -4.549 -10.831  1.00  0.00     0.000 C 
BRANCH  17  18
HETATM   18  C   UNK A   0     -20.822  -3.194 -11.365  1.00  0.00     0.000 C 
BRANCH  18  19
HETATM   19  C   UNK A   0     -21.978  -3.358 -12.334  1.00  0.00     0.000 C 
BRANCH  19  20
HETATM   20  C   UNK A   0     -23.200  -2.621 -11.814  1.00  0.00    -0.000 C 
BRANCH  20  21
HETATM   21  C   UNK A   0     -24.272  -3.612 -11.387  1.00  0.00    -0.005 C 
HETATM   22  C   UNK A   0     -24.612  -3.416  -9.924  1.00  0.00     0.005 C 
ENDBRANCH  20  21
ENDBRANCH  19  20
ENDBRANCH  18  19
ENDBRANCH  17  18
ENDBRANCH  16  17
ENDBRANCH  15  16
ENDBRANCH  14  15
ENDBRANCH  13  14
ENDBRANCH  12  13
ENDBRANCH  11  12
ENDBRANCH  10  11
ENDBRANCH   9  10
ENDBRANCH   8   9
ENDBRANCH   7   8
ENDBRANCH   6   7
ENDBRANCH   3   6
ENDBRANCH   1   2
BRANCH   1  23
HETATM   23  C   UNK A   1     -23.250 -12.299   0.372  1.00  0.00     0.191 C 
BRANCH  23  24
HETATM   24  O   UNK A   1     -23.237 -13.366  -0.567  1.00  0.00    -0.399 OA
HETATM   25  H   UNK A   1     -22.342 -13.402  -0.953  1.00  0.00     0.209 HD
ENDBRANCH  23  24
ENDBRANCH   1  23
BRANCH   1  26
HETATM   26  C   UNK A   1     -21.031 -12.190  -0.779  1.00  0.00     0.143 C 
BRANCH  26  27
HETATM   27  C   UNK A   1     -20.650 -11.287  -1.944  1.00  0.00     0.034 C 
BRANCH  27  28
HETATM   28  C   UNK A   1     -21.594 -11.510  -3.131  1.00  0.00     0.002 C 
BRANCH  28  29
HETATM   29  C   UNK A   1     -21.885 -10.244  -3.899  1.00  0.00     0.000 C 
BRANCH  29  30
HETATM   30  C   UNK A   1     -20.859 -10.052  -4.994  1.00  0.00     0.000 C 
BRANCH  30  31
HETATM   31  C   UNK A   1     -19.833  -9.061  -4.518  1.00  0.00     0.000 C 
BRANCH  31  32
HETATM   32  C   UNK A   1     -18.529  -9.289  -5.248  1.00  0.00     0.000 C 
BRANCH  32  33
HETATM   33  C   UNK A   1     -18.201 -10.767  -5.229  1.00  0.00     0.000 C 
BRANCH  33  34
HETATM   34  C   UNK A   1     -16.810 -10.976  -4.666  1.00  0.00     0.000 C 
BRANCH  34  35
HETATM   35  C   UNK A   1     -16.834 -10.803  -3.160  1.00  0.00     0.000 C 
BRANCH  35  36
HETATM   36  C   UNK A   1     -15.548 -11.335  -2.560  1.00  0.00     0.000 C 
BRANCH  36  37
HETATM   37  C   UNK A   1     -15.403 -12.811  -2.874  1.00  0.00     0.000 C 
BRANCH  37  38
HETATM   38  C   UNK A   1     -13.938 -13.208  -2.830  1.00  0.00     0.000 C 
BRANCH  38  39
HETATM   39  C   UNK A   1     -13.235 -12.741  -4.092  1.00  0.00    -0.000 C 
BRANCH  39  40
HETATM   40  C   UNK A   1     -13.836 -13.423  -5.312  1.00  0.00    -0.005 C 
HETATM   41  C   UNK A   1     -13.955 -12.437  -6.456  1.00  0.00     0.005 C 
ENDBRANCH  39  40
ENDBRANCH  38  39
ENDBRANCH  37  38
ENDBRANCH  36  37
ENDBRANCH  35  36
ENDBRANCH  34  35
ENDBRANCH  33  34
ENDBRANCH  32  33
ENDBRANCH  31  32
ENDBRANCH  30  31
ENDBRANCH  29  30
ENDBRANCH  28  29
ENDBRANCH  27  28
ENDBRANCH  26  27
BRANCH  26  42
HETATM   42  O   UNK A   1     -19.851 -12.626  -0.109  1.00  0.00    -0.393 OA
HETATM   43  H   UNK A   1     -19.150 -12.855  -0.745  1.00  0.00     0.210 HD
ENDBRANCH  26  42
ENDBRANCH   1  26
TORSDOF 35
ENDMDL
MODEL 8
REMARK VINA RESULT:      -5.9      1.475      3.756
REMARK WARNING: 32 MAX_TORS EXCEEDED!!!
REMARK  35 active torsions:
REMARK  status: ('A' for Active; 'I' for Inactive)
REMARK    1  A    between atoms: C_2  and  C_3 
REMARK    2  A    between atoms: C_3  and  C_4 
REMARK    3  A    between atoms: C_4  and  C_5 
REMARK    4  A    between atoms: C_5  and  C_6 
REMARK    5  A    between atoms: C_6  and  C_7 
REMARK    6  A    between atoms: C_7  and  C_8 
REMARK    7  A    between atoms: C_8  and  C_9 
REMARK    8  A    between atoms: C_9  and  C_10 
REMARK    9  A    between atoms: C_10  and  C_11 
REMARK   10  A    between atoms: C_11  and  C_12 
REMARK   11  A    between atoms: C_12  and  C_13 
REMARK   12  A    between atoms: C_13  and  C_14 
REMARK   13  A    between atoms: C_14  and  C_15 
REMARK   14  A    between atoms: C_15  and  C_16 
REMARK   15  A    between atoms: C_16  and  C_17 
REMARK   16  A    between atoms: C_17  and  C_18 
REMARK       I    between atoms: C_18  and  N_20 
REMARK   17  A    between atoms: N_20  and  C_21 
REMARK   18  A    between atoms: C_21  and  C_22 
REMARK   19  A    between atoms: C_21  and  C_24 
REMARK   20  A    between atoms: C_22  and  O_23 
REMARK   21  A    between atoms: C_24  and  C_25 
REMARK   22  A    between atoms: C_24  and  O_40 
REMARK   23  A    between atoms: C_25  and  C_26 
REMARK   24  A    between atoms: C_26  and  C_27 
REMARK   25  A    between atoms: C_27  and  C_28 
REMARK   26  A    between atoms: C_28  and  C_29 
REMARK   27  A    between atoms: C_29  and  C_30 
REMARK   28  A    between atoms: C_30  and  C_31 
REMARK   29  A    between atoms: C_31  and  C_32 
REMARK   30  A    between atoms: C_32  and  C_33 
REMARK   31  A    between atoms: C_33  and  C_34 
REMARK   32  A    between atoms: C_34  and  C_35 
REMARK   33  A    between atoms: C_35  and  C_36 
REMARK   34  A    between atoms: C_36  and  C_37 
REMARK   35  A    between atoms: C_37  and  C_38 
ROOT
HETATM    1  C   UNK A   1     -21.809  -9.670  -0.223  1.00  0.00     0.136 C 
ENDROOT
BRANCH   1   2
HETATM    2  N   UNK A   1     -21.852 -10.050  -1.644  1.00  0.00    -0.352 N 
HETATM    3  C   UNK A   0     -22.857 -10.856  -2.165  1.00  0.00     0.218 C 
HETATM    4  O   UNK A   0     -23.800 -11.287  -1.537  1.00  0.00    -0.274 OA
HETATM    5  H   UNK A   1     -21.097  -9.732  -2.244  1.00  0.00     0.163 HD
BRANCH   3   6
HETATM    6  C   UNK A   0     -22.730 -11.159  -3.649  1.00  0.00     0.103 C 
BRANCH   6   7
HETATM    7  C   UNK A   0     -21.284 -11.013  -4.079  1.00  0.00     0.009 C 
BRANCH   7   8
HETATM    8  C   UNK A   0     -20.769 -12.286  -4.717  1.00  0.00     0.000 C 
BRANCH   8   9
HETATM    9  C   UNK A   0     -19.617 -12.845  -3.898  1.00  0.00     0.000 C 
BRANCH   9  10
HETATM   10  C   UNK A   0     -18.402 -13.036  -4.787  1.00  0.00     0.000 C 
BRANCH  10  11
HETATM   11  C   UNK A   0     -18.749 -12.681  -6.221  1.00  0.00     0.000 C 
BRANCH  11  12
HETATM   12  C   UNK A   0     -17.687 -11.764  -6.794  1.00  0.00     0.000 C 
BRANCH  12  13
HETATM   13  C   UNK A   0     -17.822 -10.379  -6.193  1.00  0.00     0.000 C 
BRANCH  13  14
HETATM   14  C   UNK A   0     -16.448  -9.772  -5.985  1.00  0.00     0.000 C 
BRANCH  14  15
HETATM   15  C   UNK A   0     -16.094  -9.793  -4.511  1.00  0.00     0.000 C 
BRANCH  15  16
HETATM   16  C   UNK A   0     -17.344  -9.587  -3.678  1.00  0.00     0.000 C 
BRANCH  16  17
HETATM   17  C   UNK A   0     -17.244 -10.385  -2.392  1.00  0.00     0.000 C 
BRANCH  17  18
HETATM   18  C   UNK A   0     -16.054 -11.323  -2.457  1.00  0.00     0.000 C 
BRANCH  18  19
HETATM   19  C   UNK A   0     -16.262 -12.489  -1.507  1.00  0.00     0.000 C 
BRANCH  19  20
HETATM   20  C   UNK A   0     -17.263 -12.109  -0.429  1.00  0.00    -0.000 C 
BRANCH  20  21
HETATM   21  C   UNK A   0     -17.043 -12.954   0.816  1.00  0.00    -0.005 C 
HETATM   22  C   UNK A   0     -15.744 -12.562   1.490  1.00  0.00     0.005 C 
ENDBRANCH  20  21
ENDBRANCH  19  20
ENDBRANCH  18  19
ENDBRANCH  17  18
ENDBRANCH  16  17
ENDBRANCH  15  16
ENDBRANCH  14  15
ENDBRANCH  13  14
ENDBRANCH  12  13
ENDBRANCH  11  12
ENDBRANCH  10  11
ENDBRANCH   9  10
ENDBRANCH   8   9
ENDBRANCH   7   8
ENDBRANCH   6   7
ENDBRANCH   3   6
ENDBRANCH   1   2
BRANCH   1  23
HETATM   23  C   UNK A   1     -20.685 -10.447   0.472  1.00  0.00     0.191 C 
BRANCH  23  24
HETATM   24  O   UNK A   1     -21.215 -11.648   1.015  1.00  0.00    -0.399 OA
HETATM   25  H   UNK A   1     -21.427 -12.238   0.268  1.00  0.00     0.209 HD
ENDBRANCH  23  24
ENDBRANCH   1  23
BRANCH   1  26
HETATM   26  C   UNK A   1     -21.578  -8.163  -0.026  1.00  0.00     0.143 C 
BRANCH  26  27
HETATM   27  C   UNK A   1     -22.382  -7.298  -0.988  1.00  0.00     0.034 C 
BRANCH  27  28
HETATM   28  C   UNK A   1     -21.449  -6.463  -1.872  1.00  0.00     0.002 C 
BRANCH  28  29
HETATM   29  C   UNK A   1     -21.640  -6.727  -3.346  1.00  0.00     0.000 C 
BRANCH  29  30
HETATM   30  C   UNK A   1     -20.532  -7.616  -3.864  1.00  0.00     0.000 C 
BRANCH  30  31
HETATM   31  C   UNK A   1     -20.285  -7.279  -5.309  1.00  0.00     0.000 C 
BRANCH  31  32
HETATM   32  C   UNK A   1     -21.532  -6.673  -5.910  1.00  0.00     0.000 C 
BRANCH  32  33
HETATM   33  C   UNK A   1     -21.168  -5.381  -6.611  1.00  0.00     0.000 C 
BRANCH  33  34
HETATM   34  C   UNK A   1     -19.951  -5.599  -7.488  1.00  0.00     0.000 C 
BRANCH  34  35
HETATM   35  C   UNK A   1     -19.701  -4.368  -8.336  1.00  0.00     0.000 C 
BRANCH  35  36
HETATM   36  C   UNK A   1     -20.884  -4.124  -9.252  1.00  0.00     0.000 C 
BRANCH  36  37
HETATM   37  C   UNK A   1     -20.460  -4.286 -10.699  1.00  0.00     0.000 C 
BRANCH  37  38
HETATM   38  C   UNK A   1     -21.591  -3.867 -11.620  1.00  0.00     0.000 C 
BRANCH  38  39
HETATM   39  C   UNK A   1     -22.890  -4.516 -11.174  1.00  0.00    -0.000 C 
BRANCH  39  40
HETATM   40  C   UNK A   1     -24.004  -3.482 -11.122  1.00  0.00    -0.005 C 
HETATM   41  C   UNK A   1     -24.563  -3.387  -9.716  1.00  0.00     0.005 C 
ENDBRANCH  39  40
ENDBRANCH  38  39
ENDBRANCH  37  38
ENDBRANCH  36  37
ENDBRANCH  35  36
ENDBRANCH  34  35
ENDBRANCH  33  34
ENDBRANCH  32  33
ENDBRANCH  31  32
ENDBRANCH  30  31
ENDBRANCH  29  30
ENDBRANCH  28  29
ENDBRANCH  27  28
ENDBRANCH  26  27
BRANCH  26  42
HETATM   42  O   UNK A   1     -21.923  -7.831   1.316  1.00  0.00    -0.393 OA
HETATM   43  H   UNK A   1     -22.215  -6.904   1.384  1.00  0.00     0.210 HD
ENDBRANCH  26  42
ENDBRANCH   1  26
TORSDOF 35
ENDMDL
MODEL 9
REMARK VINA RESULT:      -5.9      1.835      9.248
REMARK WARNING: 32 MAX_TORS EXCEEDED!!!
REMARK  35 active torsions:
REMARK  status: ('A' for Active; 'I' for Inactive)
REMARK    1  A    between atoms: C_2  and  C_3 
REMARK    2  A    between atoms: C_3  and  C_4 
REMARK    3  A    between atoms: C_4  and  C_5 
REMARK    4  A    between atoms: C_5  and  C_6 
REMARK    5  A    between atoms: C_6  and  C_7 
REMARK    6  A    between atoms: C_7  and  C_8 
REMARK    7  A    between atoms: C_8  and  C_9 
REMARK    8  A    between atoms: C_9  and  C_10 
REMARK    9  A    between atoms: C_10  and  C_11 
REMARK   10  A    between atoms: C_11  and  C_12 
REMARK   11  A    between atoms: C_12  and  C_13 
REMARK   12  A    between atoms: C_13  and  C_14 
REMARK   13  A    between atoms: C_14  and  C_15 
REMARK   14  A    between atoms: C_15  and  C_16 
REMARK   15  A    between atoms: C_16  and  C_17 
REMARK   16  A    between atoms: C_17  and  C_18 
REMARK       I    between atoms: C_18  and  N_20 
REMARK   17  A    between atoms: N_20  and  C_21 
REMARK   18  A    between atoms: C_21  and  C_22 
REMARK   19  A    between atoms: C_21  and  C_24 
REMARK   20  A    between atoms: C_22  and  O_23 
REMARK   21  A    between atoms: C_24  and  C_25 
REMARK   22  A    between atoms: C_24  and  O_40 
REMARK   23  A    between atoms: C_25  and  C_26 
REMARK   24  A    between atoms: C_26  and  C_27 
REMARK   25  A    between atoms: C_27  and  C_28 
REMARK   26  A    between atoms: C_28  and  C_29 
REMARK   27  A    between atoms: C_29  and  C_30 
REMARK   28  A    between atoms: C_30  and  C_31 
REMARK   29  A    between atoms: C_31  and  C_32 
REMARK   30  A    between atoms: C_32  and  C_33 
REMARK   31  A    between atoms: C_33  and  C_34 
REMARK   32  A    between atoms: C_34  and  C_35 
REMARK   33  A    between atoms: C_35  and  C_36 
REMARK   34  A    between atoms: C_36  and  C_37 
REMARK   35  A    between atoms: C_37  and  C_38 
ROOT
HETATM    1  C   UNK A   1     -22.435 -11.857  -0.614  1.00  0.00     0.136 C 
ENDROOT
BRANCH   1   2
HETATM    2  N   UNK A   1     -22.372 -10.436  -0.242  1.00  0.00    -0.352 N 
HETATM    3  C   UNK A   0     -21.393  -9.937   0.609  1.00  0.00     0.218 C 
HETATM    4  O   UNK A   0     -20.490 -10.587   1.091  1.00  0.00    -0.274 OA
HETATM    5  H   UNK A   1     -23.093  -9.817  -0.600  1.00  0.00     0.163 HD
BRANCH   3   6
HETATM    6  C   UNK A   0     -21.494  -8.447   0.897  1.00  0.00     0.103 C 
BRANCH   6   7
HETATM    7  C   UNK A   0     -22.728  -7.879   0.227  1.00  0.00     0.009 C 
BRANCH   7   8
HETATM    8  C   UNK A   0     -22.362  -6.854  -0.825  1.00  0.00     0.000 C 
BRANCH   8   9
HETATM    9  C   UNK A   0     -21.125  -7.310  -1.583  1.00  0.00     0.000 C 
BRANCH   9  10
HETATM   10  C   UNK A   0     -21.477  -7.553  -3.037  1.00  0.00     0.000 C 
BRANCH  10  11
HETATM   11  C   UNK A   0     -21.470  -6.241  -3.798  1.00  0.00     0.000 C 
BRANCH  11  12
HETATM   12  C   UNK A   0     -21.863  -6.482  -5.242  1.00  0.00     0.000 C 
BRANCH  12  13
HETATM   13  C   UNK A   0     -20.655  -6.312  -6.142  1.00  0.00     0.000 C 
BRANCH  13  14
HETATM   14  C   UNK A   0     -20.083  -4.917  -5.978  1.00  0.00     0.000 C 
BRANCH  14  15
HETATM   15  C   UNK A   0     -20.569  -4.027  -7.106  1.00  0.00     0.000 C 
BRANCH  15  16
HETATM   16  C   UNK A   0     -19.899  -4.429  -8.405  1.00  0.00     0.000 C 
BRANCH  16  17
HETATM   17  C   UNK A   0     -20.829  -4.156  -9.572  1.00  0.00     0.000 C 
BRANCH  17  18
HETATM   18  C   UNK A   0     -22.250  -4.533  -9.199  1.00  0.00     0.000 C 
BRANCH  18  19
HETATM   19  C   UNK A   0     -23.087  -4.700 -10.454  1.00  0.00     0.000 C 
BRANCH  19  20
HETATM   20  C   UNK A   0     -24.073  -3.550 -10.578  1.00  0.00    -0.000 C 
BRANCH  20  21
HETATM   21  C   UNK A   0     -24.074  -3.007 -11.998  1.00  0.00    -0.005 C 
HETATM   22  C   UNK A   0     -22.701  -3.162 -12.618  1.00  0.00     0.005 C 
ENDBRANCH  20  21
ENDBRANCH  19  20
ENDBRANCH  18  19
ENDBRANCH  17  18
ENDBRANCH  16  17
ENDBRANCH  15  16
ENDBRANCH  14  15
ENDBRANCH  13  14
ENDBRANCH  12  13
ENDBRANCH  11  12
ENDBRANCH  10  11
ENDBRANCH   9  10
ENDBRANCH   8   9
ENDBRANCH   7   8
ENDBRANCH   6   7
ENDBRANCH   3   6
ENDBRANCH   1   2
BRANCH   1  23
HETATM   23  C   UNK A   1     -23.181 -12.631   0.478  1.00  0.00     0.191 C 
BRANCH  23  24
HETATM   24  O   UNK A   1     -22.242 -13.134   1.418  1.00  0.00    -0.399 OA
HETATM   25  H   UNK A   1     -21.493 -13.502   0.913  1.00  0.00     0.209 HD
ENDBRANCH  23  24
ENDBRANCH   1  23
BRANCH   1  26
HETATM   26  C   UNK A   1     -23.141 -12.079  -1.962  1.00  0.00     0.143 C 
BRANCH  26  27
HETATM   27  C   UNK A   1     -22.528 -11.280  -3.104  1.00  0.00     0.034 C 
BRANCH  27  28
HETATM   28  C   UNK A   1     -22.039 -12.214  -4.216  1.00  0.00     0.002 C 
BRANCH  28  29
HETATM   29  C   UNK A   1     -20.740 -11.763  -4.838  1.00  0.00     0.000 C 
BRANCH  29  30
HETATM   30  C   UNK A   1     -20.901 -10.384  -5.436  1.00  0.00     0.000 C 
BRANCH  30  31
HETATM   31  C   UNK A   1     -19.644  -9.600  -5.176  1.00  0.00     0.000 C 
BRANCH  31  32
HETATM   32  C   UNK A   1     -18.764 -10.356  -4.207  1.00  0.00     0.000 C 
BRANCH  32  33
HETATM   33  C   UNK A   1     -17.991  -9.367  -3.361  1.00  0.00     0.000 C 
BRANCH  33  34
HETATM   34  C   UNK A   1     -16.684  -9.989  -2.911  1.00  0.00     0.000 C 
BRANCH  34  35
HETATM   35  C   UNK A   1     -16.690 -11.474  -3.218  1.00  0.00     0.000 C 
BRANCH  35  36
HETATM   36  C   UNK A   1     -16.902 -12.262  -1.940  1.00  0.00     0.000 C 
BRANCH  36  37
HETATM   37  C   UNK A   1     -15.581 -12.434  -1.215  1.00  0.00     0.000 C 
BRANCH  37  38
HETATM   38  C   UNK A   1     -15.675 -11.838   0.178  1.00  0.00     0.000 C 
BRANCH  38  39
HETATM   39  C   UNK A   1     -16.595 -12.682   1.043  1.00  0.00    -0.000 C 
BRANCH  39  40
HETATM   40  C   UNK A   1     -15.842 -13.208   2.255  1.00  0.00    -0.005 C 
HETATM   41  C   UNK A   1     -14.790 -14.209   1.823  1.00  0.00     0.005 C 
ENDBRANCH  39  40
ENDBRANCH  38  39
ENDBRANCH  37  38
ENDBRANCH  36  37
ENDBRANCH  35  36
ENDBRANCH  34  35
ENDBRANCH  33  34
ENDBRANCH  32  33
ENDBRANCH  31  32
ENDBRANCH  30  31
ENDBRANCH  29  30
ENDBRANCH  28  29
ENDBRANCH  27  28
ENDBRANCH  26  27
BRANCH  26  42
HETATM   42  O   UNK A   1     -23.087 -13.469  -2.270  1.00  0.00    -0.393 OA
HETATM   43  H   UNK A   1     -22.728 -13.981  -1.524  1.00  0.00     0.210 HD
ENDBRANCH  26  42
ENDBRANCH   1  26
TORSDOF 35
ENDMDL
