MODEL 1
REMARK VINA RESULT:      -4.5      0.000      0.000
REMARK  5 active torsions:
REMARK  status: ('A' for Active; 'I' for Inactive)
REMARK    1  A    between atoms: C_2  and  C_3 
REMARK    2  A    between atoms: C_3  and  S_4 
REMARK    3  A    between atoms: S_4  and  S_5 
REMARK    4  A    between atoms: S_5  and  C_7 
REMARK    5  A    between atoms: C_7  and  C_8 
ROOT
HETATM    1  S   UNL     1     -23.980  -3.237  -9.877  1.00  0.00     0.081 S 
HETATM    2  O   UNL     1     -25.476  -3.313  -9.966  1.00  0.00    -0.246 OA
ENDROOT
BRANCH   1   3
HETATM    3  S   UNL     1     -23.493  -4.419 -11.452  1.00  0.00    -0.062 SA
BRANCH   3   4
HETATM    4  C   UNL     1     -22.215  -3.418 -12.263  1.00  0.00     0.114 C 
BRANCH   4   5
HETATM    5  C   UNL     1     -21.012  -3.325 -11.370  1.00  0.00    -0.026 C 
HETATM    6  C   UNL     1     -20.350  -4.381 -10.875  1.00  0.00     0.007 C 
ENDBRANCH   4   5
ENDBRANCH   3   4
ENDBRANCH   1   3
BRANCH   1   7
HETATM    7  C   UNL     1     -23.429  -4.264  -8.473  1.00  0.00     0.147 C 
BRANCH   7   8
HETATM    8  C   UNL     1     -22.174  -3.707  -7.866  1.00  0.00    -0.024 C 
HETATM    9  C   UNL     1     -21.375  -4.378  -7.024  1.00  0.00     0.008 C 
ENDBRANCH   7   8
ENDBRANCH   1   7
TORSDOF 5
ENDMDL
MODEL 2
REMARK VINA RESULT:      -4.4     11.845     12.773
REMARK  5 active torsions:
REMARK  status: ('A' for Active; 'I' for Inactive)
REMARK    1  A    between atoms: C_2  and  C_3 
REMARK    2  A    between atoms: C_3  and  S_4 
REMARK    3  A    between atoms: S_4  and  S_5 
REMARK    4  A    between atoms: S_5  and  C_7 
REMARK    5  A    between atoms: C_7  and  C_8 
ROOT
HETATM    1  S   UNL     1     -35.373  -1.910 -10.848  1.00  0.00     0.081 S 
HETATM    2  O   UNL     1     -36.224  -3.138 -10.981  1.00  0.00    -0.246 OA
ENDROOT
BRANCH   1   3
HETATM    3  S   UNL     1     -35.218  -1.401 -12.806  1.00  0.00    -0.062 SA
BRANCH   3   4
HETATM    4  C   UNL     1     -35.067   0.404 -12.691  1.00  0.00     0.114 C 
BRANCH   4   5
HETATM    5  C   UNL     1     -34.703   0.960 -14.037  1.00  0.00    -0.026 C 
HETATM    6  C   UNL     1     -35.495   0.913 -15.118  1.00  0.00     0.007 C 
ENDBRANCH   4   5
ENDBRANCH   3   4
ENDBRANCH   1   3
BRANCH   1   7
HETATM    7  C   UNL     1     -33.663  -2.426 -10.475  1.00  0.00     0.147 C 
BRANCH   7   8
HETATM    8  C   UNL     1     -33.132  -3.328 -11.552  1.00  0.00    -0.024 C 
HETATM    9  C   UNL     1     -33.075  -4.664 -11.464  1.00  0.00     0.008 C 
ENDBRANCH   7   8
ENDBRANCH   1   7
TORSDOF 5
ENDMDL
MODEL 3
REMARK VINA RESULT:      -4.3     11.586     12.762
REMARK  5 active torsions:
REMARK  status: ('A' for Active; 'I' for Inactive)
REMARK    1  A    between atoms: C_2  and  C_3 
REMARK    2  A    between atoms: C_3  and  S_4 
REMARK    3  A    between atoms: S_4  and  S_5 
REMARK    4  A    between atoms: S_5  and  C_7 
REMARK    5  A    between atoms: C_7  and  C_8 
ROOT
HETATM    1  S   UNL     1     -35.197  -1.998 -11.525  1.00  0.00     0.081 S 
HETATM    2  O   UNL     1     -33.998  -1.368 -10.880  1.00  0.00    -0.246 OA
ENDROOT
BRANCH   1   3
HETATM    3  S   UNL     1     -34.264  -3.365 -12.698  1.00  0.00    -0.062 SA
BRANCH   3   4
HETATM    4  C   UNL     1     -33.177  -4.180 -11.495  1.00  0.00     0.114 C 
BRANCH   4   5
HETATM    5  C   UNL     1     -34.010  -4.944 -10.507  1.00  0.00    -0.026 C 
HETATM    6  C   UNL     1     -34.299  -6.249 -10.606  1.00  0.00     0.007 C 
ENDBRANCH   4   5
ENDBRANCH   3   4
ENDBRANCH   1   3
BRANCH   1   7
HETATM    7  C   UNL     1     -35.858  -0.844 -12.774  1.00  0.00     0.147 C 
BRANCH   7   8
HETATM    8  C   UNL     1     -35.001   0.385 -12.870  1.00  0.00    -0.024 C 
HETATM    9  C   UNL     1     -34.750   1.049 -14.007  1.00  0.00     0.008 C 
ENDBRANCH   7   8
ENDBRANCH   1   7
TORSDOF 5
ENDMDL
MODEL 4
REMARK VINA RESULT:      -4.3      1.556      4.003
REMARK  5 active torsions:
REMARK  status: ('A' for Active; 'I' for Inactive)
REMARK    1  A    between atoms: C_2  and  C_3 
REMARK    2  A    between atoms: C_3  and  S_4 
REMARK    3  A    between atoms: S_4  and  S_5 
REMARK    4  A    between atoms: S_5  and  C_7 
REMARK    5  A    between atoms: C_7  and  C_8 
ROOT
HETATM    1  S   UNL     1     -23.943  -3.866 -11.084  1.00  0.00     0.081 S 
HETATM    2  O   UNL     1     -25.156  -3.166 -10.546  1.00  0.00    -0.246 OA
ENDROOT
BRANCH   1   3
HETATM    3  S   UNL     1     -22.829  -3.949  -9.390  1.00  0.00    -0.062 SA
BRANCH   3   4
HETATM    4  C   UNL     1     -21.150  -4.019 -10.074  1.00  0.00     0.114 C 
BRANCH   4   5
HETATM    5  C   UNL     1     -20.194  -4.465  -9.005  1.00  0.00    -0.026 C 
HETATM    6  C   UNL     1     -20.247  -4.068  -7.725  1.00  0.00     0.007 C 
ENDBRANCH   4   5
ENDBRANCH   3   4
ENDBRANCH   1   3
BRANCH   1   7
HETATM    7  C   UNL     1     -22.984  -2.681 -12.087  1.00  0.00     0.147 C 
BRANCH   7   8
HETATM    8  C   UNL     1     -23.594  -2.519 -13.448  1.00  0.00    -0.024 C 
HETATM    9  C   UNL     1     -22.924  -2.656 -14.601  1.00  0.00     0.008 C 
ENDBRANCH   7   8
ENDBRANCH   1   7
TORSDOF 5
ENDMDL
MODEL 5
REMARK VINA RESULT:      -4.2     12.639     13.615
REMARK  5 active torsions:
REMARK  status: ('A' for Active; 'I' for Inactive)
REMARK    1  A    between atoms: C_2  and  C_3 
REMARK    2  A    between atoms: C_3  and  S_4 
REMARK    3  A    between atoms: S_4  and  S_5 
REMARK    4  A    between atoms: S_5  and  C_7 
REMARK    5  A    between atoms: C_7  and  C_8 
ROOT
HETATM    1  S   UNL     1     -36.820  -0.133 -11.360  1.00  0.00     0.081 S 
HETATM    2  O   UNL     1     -38.075  -0.782 -11.864  1.00  0.00    -0.246 OA
ENDROOT
BRANCH   1   3
HETATM    3  S   UNL     1     -35.446  -1.282 -12.314  1.00  0.00    -0.062 SA
BRANCH   3   4
HETATM    4  C   UNL     1     -35.062  -2.509 -11.034  1.00  0.00     0.114 C 
BRANCH   4   5
HETATM    5  C   UNL     1     -33.573  -2.676 -10.934  1.00  0.00    -0.026 C 
HETATM    6  C   UNL     1     -32.874  -3.641 -11.548  1.00  0.00     0.007 C 
ENDBRANCH   4   5
ENDBRANCH   3   4
ENDBRANCH   1   3
BRANCH   1   7
HETATM    7  C   UNL     1     -36.563  -0.633  -9.624  1.00  0.00     0.147 C 
BRANCH   7   8
HETATM    8  C   UNL     1     -37.128   0.394  -8.686  1.00  0.00    -0.024 C 
HETATM    9  C   UNL     1     -36.591   0.716  -7.501  1.00  0.00     0.008 C 
ENDBRANCH   7   8
ENDBRANCH   1   7
TORSDOF 5
ENDMDL
MODEL 6
REMARK VINA RESULT:      -4.1      1.059      3.229
REMARK  5 active torsions:
REMARK  status: ('A' for Active; 'I' for Inactive)
REMARK    1  A    between atoms: C_2  and  C_3 
REMARK    2  A    between atoms: C_3  and  S_4 
REMARK    3  A    between atoms: S_4  and  S_5 
REMARK    4  A    between atoms: S_5  and  C_7 
REMARK    5  A    between atoms: C_7  and  C_8 
ROOT
HETATM    1  S   UNL     1     -24.107  -3.789 -11.736  1.00  0.00     0.081 S 
HETATM    2  O   UNL     1     -25.122  -2.961 -11.005  1.00  0.00    -0.246 OA
ENDROOT
BRANCH   1   3
HETATM    3  S   UNL     1     -23.558  -5.042 -10.238  1.00  0.00    -0.062 SA
BRANCH   3   4
HETATM    4  C   UNL     1     -23.620  -3.929  -8.806  1.00  0.00     0.114 C 
BRANCH   4   5
HETATM    5  C   UNL     1     -22.354  -4.068  -8.010  1.00  0.00    -0.026 C 
HETATM    6  C   UNL     1     -21.505  -5.101  -8.109  1.00  0.00     0.007 C 
ENDBRANCH   4   5
ENDBRANCH   3   4
ENDBRANCH   1   3
BRANCH   1   7
HETATM    7  C   UNL     1     -22.590  -2.796 -11.948  1.00  0.00     0.147 C 
BRANCH   7   8
HETATM    8  C   UNL     1     -21.367  -3.652 -11.795  1.00  0.00    -0.024 C 
HETATM    9  C   UNL     1     -20.301  -3.326 -11.051  1.00  0.00     0.008 C 
ENDBRANCH   7   8
ENDBRANCH   1   7
TORSDOF 5
ENDMDL
MODEL 7
REMARK VINA RESULT:      -4.0      1.492      2.046
REMARK  5 active torsions:
REMARK  status: ('A' for Active; 'I' for Inactive)
REMARK    1  A    between atoms: C_2  and  C_3 
REMARK    2  A    between atoms: C_3  and  S_4 
REMARK    3  A    between atoms: S_4  and  S_5 
REMARK    4  A    between atoms: S_5  and  C_7 
REMARK    5  A    between atoms: C_7  and  C_8 
ROOT
HETATM    1  S   UNL     1     -23.561  -3.230  -9.731  1.00  0.00     0.081 S 
HETATM    2  O   UNL     1     -25.044  -3.017  -9.655  1.00  0.00    -0.246 OA
ENDROOT
BRANCH   1   3
HETATM    3  S   UNL     1     -23.495  -4.573 -11.250  1.00  0.00    -0.062 SA
BRANCH   3   4
HETATM    4  C   UNL     1     -24.115  -3.574 -12.632  1.00  0.00     0.114 C 
BRANCH   4   5
HETATM    5  C   UNL     1     -22.959  -2.924 -13.336  1.00  0.00    -0.026 C 
HETATM    6  C   UNL     1     -22.882  -2.742 -14.662  1.00  0.00     0.007 C 
ENDBRANCH   4   5
ENDBRANCH   3   4
ENDBRANCH   1   3
BRANCH   1   7
HETATM    7  C   UNL     1     -23.048  -4.262  -8.316  1.00  0.00     0.147 C 
BRANCH   7   8
HETATM    8  C   UNL     1     -21.758  -3.765  -7.733  1.00  0.00    -0.024 C 
HETATM    9  C   UNL     1     -20.552  -4.280  -8.010  1.00  0.00     0.008 C 
ENDBRANCH   7   8
ENDBRANCH   1   7
TORSDOF 5
ENDMDL
MODEL 8
REMARK VINA RESULT:      -3.9      6.586      7.777
REMARK  5 active torsions:
REMARK  status: ('A' for Active; 'I' for Inactive)
REMARK    1  A    between atoms: C_2  and  C_3 
REMARK    2  A    between atoms: C_3  and  S_4 
REMARK    3  A    between atoms: S_4  and  S_5 
REMARK    4  A    between atoms: S_5  and  C_7 
REMARK    5  A    between atoms: C_7  and  C_8 
ROOT
HETATM    1  S   UNL     1     -21.347  -6.849  -2.609  1.00  0.00     0.081 S 
HETATM    2  O   UNL     1     -22.528  -5.933  -2.475  1.00  0.00    -0.246 OA
ENDROOT
BRANCH   1   3
HETATM    3  S   UNL     1     -21.701  -7.578  -4.469  1.00  0.00    -0.062 SA
BRANCH   3   4
HETATM    4  C   UNL     1     -20.374  -6.784  -5.418  1.00  0.00     0.114 C 
BRANCH   4   5
HETATM    5  C   UNL     1     -20.567  -5.296  -5.396  1.00  0.00    -0.026 C 
HETATM    6  C   UNL     1     -20.392  -4.491  -6.455  1.00  0.00     0.007 C 
ENDBRANCH   4   5
ENDBRANCH   3   4
ENDBRANCH   1   3
BRANCH   1   7
HETATM    7  C   UNL     1     -21.641  -8.329  -1.581  1.00  0.00     0.147 C 
BRANCH   7   8
HETATM    8  C   UNL     1     -21.920  -7.942  -0.158  1.00  0.00    -0.024 C 
HETATM    9  C   UNL     1     -23.111  -8.070   0.443  1.00  0.00     0.008 C 
ENDBRANCH   7   8
ENDBRANCH   1   7
TORSDOF 5
ENDMDL
MODEL 9
REMARK VINA RESULT:      -3.9      2.653      4.647
REMARK  5 active torsions:
REMARK  status: ('A' for Active; 'I' for Inactive)
REMARK    1  A    between atoms: C_2  and  C_3 
REMARK    2  A    between atoms: C_3  and  S_4 
REMARK    3  A    between atoms: S_4  and  S_5 
REMARK    4  A    between atoms: S_5  and  C_7 
REMARK    5  A    between atoms: C_7  and  C_8 
ROOT
HETATM    1  S   UNL     1     -20.944  -3.736 -10.605  1.00  0.00     0.081 S 
HETATM    2  O   UNL     1     -19.960  -4.869 -10.589  1.00  0.00    -0.246 OA
ENDROOT
BRANCH   1   3
HETATM    3  S   UNL     1     -22.177  -4.345  -9.113  1.00  0.00    -0.062 SA
BRANCH   3   4
HETATM    4  C   UNL     1     -21.012  -5.210  -8.023  1.00  0.00     0.114 C 
BRANCH   4   5
HETATM    5  C   UNL     1     -20.581  -4.288  -6.920  1.00  0.00    -0.026 C 
HETATM    6  C   UNL     1     -20.109  -4.692  -5.732  1.00  0.00     0.007 C 
ENDBRANCH   4   5
ENDBRANCH   3   4
ENDBRANCH   1   3
BRANCH   1   7
HETATM    7  C   UNL     1     -22.025  -3.926 -12.064  1.00  0.00     0.147 C 
BRANCH   7   8
HETATM    8  C   UNL     1     -23.028  -2.812 -12.132  1.00  0.00    -0.024 C 
HETATM    9  C   UNL     1     -24.339  -2.983 -12.351  1.00  0.00     0.008 C 
ENDBRANCH   7   8
ENDBRANCH   1   7
TORSDOF 5
ENDMDL
