MODEL 1
REMARK VINA RESULT:      -9.7      0.000      0.000
REMARK  4 active torsions:
REMARK  status: ('A' for Active; 'I' for Inactive)
REMARK    1  A    between atoms: O_2  and  C_3 
REMARK    2  A    between atoms: C_7  and  N_8 
REMARK       I    between atoms: N_8  and  C_9 
REMARK    3  A    between atoms: C_9  and  C_11 
REMARK    4  A    between atoms: C_12  and  C_13 
ROOT
HETATM    1  N   UNL     1     -21.512  -4.419  -7.342  1.00  0.00    -0.324 N 
HETATM    2  C   UNL     1     -20.831  -5.481  -6.789  1.00  0.00     0.245 C 
HETATM    3  O   UNL     1     -20.218  -6.352  -7.400  1.00  0.00    -0.268 OA
HETATM    4  H   UNL     1     -21.960  -3.759  -6.723  1.00  0.00     0.169 HD
ENDROOT
BRANCH   2   5
HETATM    5  C   UNL     1     -20.868  -5.525  -5.298  1.00  0.00     0.075 C 
HETATM    6  C   UNL     1     -21.168  -6.708  -4.730  1.00  0.00     0.017 C 
BRANCH   6   7
HETATM    7  C   UNL     1     -21.288  -6.997  -3.296  1.00  0.00    -0.036 A 
HETATM    8  C   UNL     1     -22.111  -6.255  -2.444  1.00  0.00     0.013 A 
HETATM    9  C   UNL     1     -22.253  -6.622  -1.101  1.00  0.00     0.024 A 
HETATM   10  C   UNL     1     -21.579  -7.738  -0.610  1.00  0.00     0.034 A 
HETATM   11 CL   UNL     1     -21.767  -8.193   1.039  1.00  0.00    -0.084 Cl
HETATM   12  C   UNL     1     -20.764  -8.492  -1.446  1.00  0.00     0.024 A 
HETATM   13  C   UNL     1     -20.623  -8.124  -2.787  1.00  0.00     0.013 A 
ENDBRANCH   6   7
ENDBRANCH   2   5
BRANCH   1  14
HETATM   14  C   UNL     1     -21.598  -4.130  -8.732  1.00  0.00     0.037 A 
HETATM   15  C   UNL     1     -20.497  -4.174  -9.590  1.00  0.00     0.029 A 
HETATM   16  C   UNL     1     -20.617  -3.834 -10.936  1.00  0.00     0.005 A 
HETATM   17  C   UNL     1     -21.848  -3.451 -11.453  1.00  0.00     0.037 A 
HETATM   18  C   UNL     1     -22.969  -3.415 -10.622  1.00  0.00     0.070 A 
HETATM   19  C   UNL     1     -22.842  -3.764  -9.267  1.00  0.00     0.066 A 
BRANCH  18  20
HETATM   20  O   UNL     1     -24.229  -3.049 -11.019  1.00  0.00    -0.356 OA
HETATM   21  C   UNL     1     -24.467  -3.028 -12.424  1.00  0.00     0.210 C 
ENDBRANCH  18  20
ENDBRANCH   1  14
TORSDOF 4
ENDMDL
MODEL 2
REMARK VINA RESULT:      -8.9      4.022      8.732
REMARK  4 active torsions:
REMARK  status: ('A' for Active; 'I' for Inactive)
REMARK    1  A    between atoms: O_2  and  C_3 
REMARK    2  A    between atoms: C_7  and  N_8 
REMARK       I    between atoms: N_8  and  C_9 
REMARK    3  A    between atoms: C_9  and  C_11 
REMARK    4  A    between atoms: C_12  and  C_13 
ROOT
HETATM    1  N   UNL     1     -21.569  -5.697  -5.479  1.00  0.00    -0.324 N 
HETATM    2  C   UNL     1     -20.692  -4.733  -5.930  1.00  0.00     0.245 C 
HETATM    3  O   UNL     1     -19.607  -4.444  -5.433  1.00  0.00    -0.268 OA
HETATM    4  H   UNL     1     -22.423  -5.849  -5.994  1.00  0.00     0.169 HD
ENDROOT
BRANCH   2   5
HETATM    5  C   UNL     1     -21.154  -4.006  -7.149  1.00  0.00     0.075 C 
HETATM    6  C   UNL     1     -21.896  -4.702  -8.029  1.00  0.00     0.017 C 
BRANCH   6   7
HETATM    7  C   UNL     1     -22.444  -4.220  -9.303  1.00  0.00    -0.036 A 
HETATM    8  C   UNL     1     -23.789  -3.871  -9.462  1.00  0.00     0.013 A 
HETATM    9  C   UNL     1     -24.243  -3.339 -10.674  1.00  0.00     0.024 A 
HETATM   10  C   UNL     1     -23.351  -3.146 -11.727  1.00  0.00     0.034 A 
HETATM   11 CL   UNL     1     -23.912  -2.480 -13.210  1.00  0.00    -0.084 Cl
HETATM   12  C   UNL     1     -22.009  -3.478 -11.582  1.00  0.00     0.024 A 
HETATM   13  C   UNL     1     -21.557  -4.010 -10.371  1.00  0.00     0.013 A 
ENDBRANCH   6   7
ENDBRANCH   2   5
BRANCH   1  14
HETATM   14  C   UNL     1     -21.350  -6.551  -4.364  1.00  0.00     0.037 A 
HETATM   15  C   UNL     1     -20.564  -7.704  -4.429  1.00  0.00     0.029 A 
HETATM   16  C   UNL     1     -20.417  -8.540  -3.323  1.00  0.00     0.005 A 
HETATM   17  C   UNL     1     -21.050  -8.232  -2.126  1.00  0.00     0.037 A 
HETATM   18  C   UNL     1     -21.827  -7.077  -2.027  1.00  0.00     0.070 A 
HETATM   19  C   UNL     1     -21.966  -6.236  -3.144  1.00  0.00     0.066 A 
BRANCH  18  20
HETATM   20  O   UNL     1     -22.500  -6.677  -0.902  1.00  0.00    -0.356 OA
HETATM   21  C   UNL     1     -22.730  -7.678   0.086  1.00  0.00     0.210 C 
ENDBRANCH  18  20
ENDBRANCH   1  14
TORSDOF 4
ENDMDL
MODEL 3
REMARK VINA RESULT:      -8.7      3.993      8.975
REMARK  4 active torsions:
REMARK  status: ('A' for Active; 'I' for Inactive)
REMARK    1  A    between atoms: O_2  and  C_3 
REMARK    2  A    between atoms: C_7  and  N_8 
REMARK       I    between atoms: N_8  and  C_9 
REMARK    3  A    between atoms: C_9  and  C_11 
REMARK    4  A    between atoms: C_12  and  C_13 
ROOT
HETATM    1  N   UNL     1     -22.152  -6.053  -4.934  1.00  0.00    -0.324 N 
HETATM    2  C   UNL     1     -21.331  -5.214  -5.656  1.00  0.00     0.245 C 
HETATM    3  O   UNL     1     -20.193  -4.868  -5.351  1.00  0.00    -0.268 OA
HETATM    4  H   UNL     1     -23.063  -6.274  -5.308  1.00  0.00     0.169 HD
ENDROOT
BRANCH   2   5
HETATM    5  C   UNL     1     -21.931  -4.711  -6.926  1.00  0.00     0.075 C 
HETATM    6  C   UNL     1     -21.121  -4.647  -7.999  1.00  0.00     0.017 C 
BRANCH   6   7
HETATM    7  C   UNL     1     -21.467  -4.169  -9.343  1.00  0.00    -0.036 A 
HETATM    8  C   UNL     1     -20.540  -4.122 -10.389  1.00  0.00     0.013 A 
HETATM    9  C   UNL     1     -20.941  -3.736 -11.673  1.00  0.00     0.024 A 
HETATM   10  C   UNL     1     -22.272  -3.405 -11.916  1.00  0.00     0.034 A 
HETATM   11 CL   UNL     1     -22.762  -2.943 -13.499  1.00  0.00    -0.084 Cl
HETATM   12  C   UNL     1     -23.208  -3.455 -10.890  1.00  0.00     0.024 A 
HETATM   13  C   UNL     1     -22.806  -3.841  -9.607  1.00  0.00     0.013 A 
ENDBRANCH   6   7
ENDBRANCH   2   5
BRANCH   1  14
HETATM   14  C   UNL     1     -21.806  -6.693  -3.712  1.00  0.00     0.037 A 
HETATM   15  C   UNL     1     -22.205  -6.216  -2.462  1.00  0.00     0.029 A 
HETATM   16  C   UNL     1     -21.801  -6.847  -1.287  1.00  0.00     0.005 A 
HETATM   17  C   UNL     1     -20.993  -7.976  -1.342  1.00  0.00     0.037 A 
HETATM   18  C   UNL     1     -20.595  -8.485  -2.579  1.00  0.00     0.070 A 
HETATM   19  C   UNL     1     -21.010  -7.847  -3.759  1.00  0.00     0.066 A 
BRANCH  18  20
HETATM   20  O   UNL     1     -19.797  -9.586  -2.754  1.00  0.00    -0.356 OA
HETATM   21  C   UNL     1     -18.402  -9.337  -2.905  1.00  0.00     0.210 C 
ENDBRANCH  18  20
ENDBRANCH   1  14
TORSDOF 4
ENDMDL
MODEL 4
REMARK VINA RESULT:      -8.6      1.035      1.916
REMARK  4 active torsions:
REMARK  status: ('A' for Active; 'I' for Inactive)
REMARK    1  A    between atoms: O_2  and  C_3 
REMARK    2  A    between atoms: C_7  and  N_8 
REMARK       I    between atoms: N_8  and  C_9 
REMARK    3  A    between atoms: C_9  and  C_11 
REMARK    4  A    between atoms: C_12  and  C_13 
ROOT
HETATM    1  N   UNL     1     -22.451  -4.504  -6.952  1.00  0.00    -0.324 N 
HETATM    2  C   UNL     1     -21.555  -5.513  -6.671  1.00  0.00     0.245 C 
HETATM    3  O   UNL     1     -21.016  -6.258  -7.484  1.00  0.00    -0.268 OA
HETATM    4  H   UNL     1     -22.807  -3.949  -6.188  1.00  0.00     0.169 HD
ENDROOT
BRANCH   2   5
HETATM    5  C   UNL     1     -21.238  -5.665  -5.220  1.00  0.00     0.075 C 
HETATM    6  C   UNL     1     -21.791  -6.714  -4.583  1.00  0.00     0.017 C 
BRANCH   6   7
HETATM    7  C   UNL     1     -21.650  -7.062  -3.164  1.00  0.00    -0.036 A 
HETATM    8  C   UNL     1     -22.302  -6.358  -2.146  1.00  0.00     0.013 A 
HETATM    9  C   UNL     1     -22.200  -6.781  -0.816  1.00  0.00     0.024 A 
HETATM   10  C   UNL     1     -21.453  -7.914  -0.502  1.00  0.00     0.034 A 
HETATM   11 CL   UNL     1     -21.341  -8.437   1.133  1.00  0.00    -0.084 Cl
HETATM   12  C   UNL     1     -20.806  -8.630  -1.502  1.00  0.00     0.024 A 
HETATM   13  C   UNL     1     -20.909  -8.207  -2.831  1.00  0.00     0.013 A 
ENDBRANCH   6   7
ENDBRANCH   2   5
BRANCH   1  14
HETATM   14  C   UNL     1     -22.888  -4.131  -8.253  1.00  0.00     0.037 A 
HETATM   15  C   UNL     1     -24.236  -4.035  -8.606  1.00  0.00     0.029 A 
HETATM   16  C   UNL     1     -24.620  -3.715  -9.907  1.00  0.00     0.005 A 
HETATM   17  C   UNL     1     -23.658  -3.474 -10.880  1.00  0.00     0.037 A 
HETATM   18  C   UNL     1     -22.304  -3.545 -10.550  1.00  0.00     0.070 A 
HETATM   19  C   UNL     1     -21.924  -3.864  -9.236  1.00  0.00     0.066 A 
BRANCH  18  20
HETATM   20  O   UNL     1     -21.271  -3.333 -11.426  1.00  0.00    -0.356 OA
HETATM   21  C   UNL     1     -20.072  -4.064 -11.178  1.00  0.00     0.210 C 
ENDBRANCH  18  20
ENDBRANCH   1  14
TORSDOF 4
ENDMDL
MODEL 5
REMARK VINA RESULT:      -8.4      3.973      9.109
REMARK  4 active torsions:
REMARK  status: ('A' for Active; 'I' for Inactive)
REMARK    1  A    between atoms: O_2  and  C_3 
REMARK    2  A    between atoms: C_7  and  N_8 
REMARK       I    between atoms: N_8  and  C_9 
REMARK    3  A    between atoms: C_9  and  C_11 
REMARK    4  A    between atoms: C_12  and  C_13 
ROOT
HETATM    1  N   UNL     1     -21.745  -6.781  -4.988  1.00  0.00    -0.324 N 
HETATM    2  C   UNL     1     -21.019  -5.731  -5.508  1.00  0.00     0.245 C 
HETATM    3  O   UNL     1     -20.325  -4.941  -4.875  1.00  0.00    -0.268 OA
HETATM    4  H   UNL     1     -22.261  -7.371  -5.623  1.00  0.00     0.169 HD
ENDROOT
BRANCH   2   5
HETATM    5  C   UNL     1     -21.116  -5.593  -6.991  1.00  0.00     0.075 C 
HETATM    6  C   UNL     1     -21.485  -4.390  -7.467  1.00  0.00     0.017 C 
BRANCH   6   7
HETATM    7  C   UNL     1     -21.672  -4.013  -8.874  1.00  0.00    -0.036 A 
HETATM    8  C   UNL     1     -20.638  -4.070  -9.813  1.00  0.00     0.013 A 
HETATM    9  C   UNL     1     -20.889  -3.779 -11.159  1.00  0.00     0.024 A 
HETATM   10  C   UNL     1     -22.175  -3.439 -11.569  1.00  0.00     0.034 A 
HETATM   11 CL   UNL     1     -22.481  -3.096 -13.227  1.00  0.00    -0.084 Cl
HETATM   12  C   UNL     1     -23.217  -3.388 -10.650  1.00  0.00     0.024 A 
HETATM   13  C   UNL     1     -22.965  -3.679  -9.306  1.00  0.00     0.013 A 
ENDBRANCH   6   7
ENDBRANCH   2   5
BRANCH   1  14
HETATM   14  C   UNL     1     -21.791  -7.150  -3.615  1.00  0.00     0.037 A 
HETATM   15  C   UNL     1     -22.128  -6.256  -2.596  1.00  0.00     0.029 A 
HETATM   16  C   UNL     1     -22.112  -6.648  -1.259  1.00  0.00     0.005 A 
HETATM   17  C   UNL     1     -21.766  -7.949  -0.916  1.00  0.00     0.037 A 
HETATM   18  C   UNL     1     -21.444  -8.868  -1.915  1.00  0.00     0.070 A 
HETATM   19  C   UNL     1     -21.466  -8.468  -3.261  1.00  0.00     0.066 A 
BRANCH  18  20
HETATM   20  O   UNL     1     -21.084 -10.172  -1.695  1.00  0.00    -0.356 OA
HETATM   21  C   UNL     1     -20.415 -10.444  -0.466  1.00  0.00     0.210 C 
ENDBRANCH  18  20
ENDBRANCH   1  14
TORSDOF 4
ENDMDL
MODEL 6
REMARK VINA RESULT:      -8.2      1.711      2.379
REMARK  4 active torsions:
REMARK  status: ('A' for Active; 'I' for Inactive)
REMARK    1  A    between atoms: O_2  and  C_3 
REMARK    2  A    between atoms: C_7  and  N_8 
REMARK       I    between atoms: N_8  and  C_9 
REMARK    3  A    between atoms: C_9  and  C_11 
REMARK    4  A    between atoms: C_12  and  C_13 
ROOT
HETATM    1  N   UNL     1     -21.934  -5.058  -8.387  1.00  0.00    -0.324 N 
HETATM    2  C   UNL     1     -21.302  -4.471  -7.313  1.00  0.00     0.245 C 
HETATM    3  O   UNL     1     -21.278  -3.273  -7.045  1.00  0.00    -0.268 OA
HETATM    4  H   UNL     1     -21.893  -6.062  -8.481  1.00  0.00     0.169 HD
ENDROOT
BRANCH   2   5
HETATM    5  C   UNL     1     -20.599  -5.433  -6.414  1.00  0.00     0.075 C 
HETATM    6  C   UNL     1     -21.337  -6.025  -5.458  1.00  0.00     0.017 C 
BRANCH   6   7
HETATM    7  C   UNL     1     -20.874  -6.982  -4.446  1.00  0.00    -0.036 A 
HETATM    8  C   UNL     1     -21.317  -6.952  -3.120  1.00  0.00     0.013 A 
HETATM    9  C   UNL     1     -20.907  -7.937  -2.214  1.00  0.00     0.024 A 
HETATM   10  C   UNL     1     -20.060  -8.960  -2.635  1.00  0.00     0.034 A 
HETATM   11 CL   UNL     1     -19.570 -10.176  -1.521  1.00  0.00    -0.084 Cl
HETATM   12  C   UNL     1     -19.618  -9.011  -3.952  1.00  0.00     0.024 A 
HETATM   13  C   UNL     1     -20.029  -8.026  -4.856  1.00  0.00     0.013 A 
ENDBRANCH   6   7
ENDBRANCH   2   5
BRANCH   1  14
HETATM   14  C   UNL     1     -22.702  -4.370  -9.367  1.00  0.00     0.037 A 
HETATM   15  C   UNL     1     -24.024  -3.969  -9.157  1.00  0.00     0.029 A 
HETATM   16  C   UNL     1     -24.755  -3.341 -10.163  1.00  0.00     0.005 A 
HETATM   17  C   UNL     1     -24.173  -3.094 -11.400  1.00  0.00     0.037 A 
HETATM   18  C   UNL     1     -22.848  -3.467 -11.631  1.00  0.00     0.070 A 
HETATM   19  C   UNL     1     -22.115  -4.095 -10.611  1.00  0.00     0.066 A 
BRANCH  18  20
HETATM   20  O   UNL     1     -22.174  -3.279 -12.810  1.00  0.00    -0.356 OA
HETATM   21  C   UNL     1     -22.950  -2.826 -13.916  1.00  0.00     0.210 C 
ENDBRANCH  18  20
ENDBRANCH   1  14
TORSDOF 4
ENDMDL
MODEL 7
REMARK VINA RESULT:      -8.1      4.144      9.364
REMARK  4 active torsions:
REMARK  status: ('A' for Active; 'I' for Inactive)
REMARK    1  A    between atoms: O_2  and  C_3 
REMARK    2  A    between atoms: C_7  and  N_8 
REMARK       I    between atoms: N_8  and  C_9 
REMARK    3  A    between atoms: C_9  and  C_11 
REMARK    4  A    between atoms: C_12  and  C_13 
ROOT
HETATM    1  N   UNL     1     -21.634  -7.885  -3.105  1.00  0.00    -0.324 N 
HETATM    2  C   UNL     1     -21.465  -6.604  -3.585  1.00  0.00     0.245 C 
HETATM    3  O   UNL     1     -21.301  -5.589  -2.914  1.00  0.00    -0.268 OA
HETATM    4  H   UNL     1     -21.740  -8.638  -3.768  1.00  0.00     0.169 HD
ENDROOT
BRANCH   2   5
HETATM    5  C   UNL     1     -21.485  -6.499  -5.074  1.00  0.00     0.075 C 
HETATM    6  C   UNL     1     -21.265  -5.281  -5.602  1.00  0.00     0.017 C 
BRANCH   6   7
HETATM    7  C   UNL     1     -21.257  -4.921  -7.025  1.00  0.00    -0.036 A 
HETATM    8  C   UNL     1     -22.325  -4.262  -7.642  1.00  0.00     0.013 A 
HETATM    9  C   UNL     1     -22.235  -3.868  -8.981  1.00  0.00     0.024 A 
HETATM   10  C   UNL     1     -21.072  -4.125  -9.705  1.00  0.00     0.034 A 
HETATM   11 CL   UNL     1     -20.961  -3.627 -11.348  1.00  0.00    -0.084 Cl
HETATM   12  C   UNL     1     -19.997  -4.770  -9.104  1.00  0.00     0.024 A 
HETATM   13  C   UNL     1     -20.089  -5.163  -7.765  1.00  0.00     0.013 A 
ENDBRANCH   6   7
ENDBRANCH   2   5
BRANCH   1  14
HETATM   14  C   UNL     1     -21.617  -8.258  -1.733  1.00  0.00     0.037 A 
HETATM   15  C   UNL     1     -22.270  -7.529  -0.736  1.00  0.00     0.029 A 
HETATM   16  C   UNL     1     -22.185  -7.903   0.604  1.00  0.00     0.005 A 
HETATM   17  C   UNL     1     -21.450  -9.024   0.971  1.00  0.00     0.037 A 
HETATM   18  C   UNL     1     -20.804  -9.781  -0.006  1.00  0.00     0.070 A 
HETATM   19  C   UNL     1     -20.897  -9.401  -1.355  1.00  0.00     0.066 A 
BRANCH  18  20
HETATM   20  O   UNL     1     -20.049 -10.899   0.239  1.00  0.00    -0.356 OA
HETATM   21  C   UNL     1     -19.431 -11.505  -0.893  1.00  0.00     0.210 C 
ENDBRANCH  18  20
ENDBRANCH   1  14
TORSDOF 4
ENDMDL
MODEL 8
REMARK VINA RESULT:      -7.4      4.673      9.668
REMARK  4 active torsions:
REMARK  status: ('A' for Active; 'I' for Inactive)
REMARK    1  A    between atoms: O_2  and  C_3 
REMARK    2  A    between atoms: C_7  and  N_8 
REMARK       I    between atoms: N_8  and  C_9 
REMARK    3  A    between atoms: C_9  and  C_11 
REMARK    4  A    between atoms: C_12  and  C_13 
ROOT
HETATM    1  N   UNL     1     -21.619  -8.546  -2.213  1.00  0.00    -0.324 N 
HETATM    2  C   UNL     1     -21.901  -7.230  -1.913  1.00  0.00     0.245 C 
HETATM    3  O   UNL     1     -22.270  -6.793  -0.827  1.00  0.00    -0.268 OA
HETATM    4  H   UNL     1     -21.304  -8.770  -3.145  1.00  0.00     0.169 HD
ENDROOT
BRANCH   2   5
HETATM    5  C   UNL     1     -21.716  -6.287  -3.055  1.00  0.00     0.075 C 
HETATM    6  C   UNL     1     -21.453  -6.831  -4.257  1.00  0.00     0.017 C 
BRANCH   6   7
HETATM    7  C   UNL     1     -21.211  -6.118  -5.518  1.00  0.00    -0.036 A 
HETATM    8  C   UNL     1     -20.016  -6.238  -6.234  1.00  0.00     0.013 A 
HETATM    9  C   UNL     1     -19.866  -5.601  -7.471  1.00  0.00     0.024 A 
HETATM   10  C   UNL     1     -20.915  -4.851  -7.999  1.00  0.00     0.034 A 
HETATM   11 CL   UNL     1     -20.731  -4.081  -9.527  1.00  0.00    -0.084 Cl
HETATM   12  C   UNL     1     -22.113  -4.729  -7.304  1.00  0.00     0.024 A 
HETATM   13  C   UNL     1     -22.261  -5.366  -6.068  1.00  0.00     0.013 A 
ENDBRANCH   6   7
ENDBRANCH   2   5
BRANCH   1  14
HETATM   14  C   UNL     1     -21.680  -9.631  -1.296  1.00  0.00     0.037 A 
HETATM   15  C   UNL     1     -22.882 -10.169  -0.830  1.00  0.00     0.029 A 
HETATM   16  C   UNL     1     -22.895 -11.199   0.108  1.00  0.00     0.005 A 
HETATM   17  C   UNL     1     -21.702 -11.719   0.593  1.00  0.00     0.037 A 
HETATM   18  C   UNL     1     -20.486 -11.212   0.131  1.00  0.00     0.070 A 
HETATM   19  C   UNL     1     -20.480 -10.177  -0.818  1.00  0.00     0.066 A 
BRANCH  18  20
HETATM   20  O   UNL     1     -19.250 -11.642   0.540  1.00  0.00    -0.356 OA
HETATM   21  C   UNL     1     -18.657 -12.685  -0.228  1.00  0.00     0.210 C 
ENDBRANCH  18  20
ENDBRANCH   1  14
TORSDOF 4
ENDMDL
MODEL 9
REMARK VINA RESULT:      -7.2      2.353      3.074
REMARK  4 active torsions:
REMARK  status: ('A' for Active; 'I' for Inactive)
REMARK    1  A    between atoms: O_2  and  C_3 
REMARK    2  A    between atoms: C_7  and  N_8 
REMARK       I    between atoms: N_8  and  C_9 
REMARK    3  A    between atoms: C_9  and  C_11 
REMARK    4  A    between atoms: C_12  and  C_13 
ROOT
HETATM    1  N   UNL     1     -21.402  -6.026  -5.505  1.00  0.00    -0.324 N 
HETATM    2  C   UNL     1     -21.069  -7.343  -5.271  1.00  0.00     0.245 C 
HETATM    3  O   UNL     1     -20.444  -8.082  -6.027  1.00  0.00    -0.268 OA
HETATM    4  H   UNL     1     -21.904  -5.522  -4.789  1.00  0.00     0.169 HD
ENDROOT
BRANCH   2   5
HETATM    5  C   UNL     1     -21.531  -7.868  -3.953  1.00  0.00     0.075 C 
HETATM    6  C   UNL     1     -21.612  -9.205  -3.825  1.00  0.00     0.017 C 
BRANCH   6   7
HETATM    7  C   UNL     1     -22.058  -9.956  -2.645  1.00  0.00    -0.036 A 
HETATM    8  C   UNL     1     -21.935  -9.459  -1.344  1.00  0.00     0.013 A 
HETATM    9  C   UNL     1     -22.450 -10.179  -0.260  1.00  0.00     0.024 A 
HETATM   10  C   UNL     1     -23.097 -11.393  -0.476  1.00  0.00     0.034 A 
HETATM   11 CL   UNL     1     -23.740 -12.268   0.859  1.00  0.00    -0.084 Cl
HETATM   12  C   UNL     1     -23.237 -11.897  -1.764  1.00  0.00     0.024 A 
HETATM   13  C   UNL     1     -22.722 -11.177  -2.846  1.00  0.00     0.013 A 
ENDBRANCH   6   7
ENDBRANCH   2   5
BRANCH   1  14
HETATM   14  C   UNL     1     -21.050  -5.281  -6.664  1.00  0.00     0.037 A 
HETATM   15  C   UNL     1     -19.733  -4.937  -6.978  1.00  0.00     0.029 A 
HETATM   16  C   UNL     1     -19.438  -4.162  -8.098  1.00  0.00     0.005 A 
HETATM   17  C   UNL     1     -20.458  -3.723  -8.933  1.00  0.00     0.037 A 
HETATM   18  C   UNL     1     -21.781  -4.068  -8.653  1.00  0.00     0.070 A 
HETATM   19  C   UNL     1     -22.071  -4.853  -7.525  1.00  0.00     0.066 A 
BRANCH  18  20
HETATM   20  O   UNL     1     -22.865  -3.688  -9.401  1.00  0.00    -0.356 OA
HETATM   21  C   UNL     1     -23.204  -4.534 -10.497  1.00  0.00     0.210 C 
ENDBRANCH  18  20
ENDBRANCH   1  14
TORSDOF 4
ENDMDL
