REMARK  4 active torsions:
REMARK  status: ('A' for Active; 'I' for Inactive)
REMARK    1  A    between atoms: O_2  and  C_3 
REMARK    2  A    between atoms: C_7  and  N_8 
REMARK       I    between atoms: N_8  and  C_9 
REMARK    3  A    between atoms: C_9  and  C_11 
REMARK    4  A    between atoms: C_12  and  C_13 
ROOT
HETATM    1  N   UNL     1       6.434   2.925   0.425  1.00  0.00    -0.324 N 
HETATM    2  C   UNL     1       7.315   3.671   1.178  1.00  0.00     0.245 C 
HETATM    3  O   UNL     1       7.090   4.179   2.273  1.00  0.00    -0.268 OA
HETATM    4  H   UNL     1       6.753   2.546  -0.454  1.00  0.00     0.169 HD
ENDROOT
BRANCH   2   5
HETATM    5  C   UNL     1       8.662   3.840   0.558  1.00  0.00     0.075 C 
HETATM    6  C   UNL     1       9.568   4.551   1.254  1.00  0.00     0.017 C 
BRANCH   6   7
HETATM    7  C   UNL     1      10.942   4.873   0.849  1.00  0.00    -0.036 A 
HETATM    8  C   UNL     1      11.317   5.028  -0.489  1.00  0.00     0.013 A 
HETATM    9  C   UNL     1      12.621   5.415  -0.818  1.00  0.00     0.024 A 
HETATM   10  C   UNL     1      13.550   5.657   0.191  1.00  0.00     0.034 A 
HETATM   11 CL   UNL     1      15.148   6.146  -0.218  1.00  0.00    -0.084 Cl
HETATM   12  C   UNL     1      13.191   5.517   1.527  1.00  0.00     0.024 A 
HETATM   13  C   UNL     1      11.888   5.130   1.854  1.00  0.00     0.013 A 
ENDBRANCH   6   7
ENDBRANCH   2   5
BRANCH   1  14
HETATM   14  C   UNL     1       5.106   2.588   0.806  1.00  0.00     0.037 A 
HETATM   15  C   UNL     1       4.516   3.034   1.991  1.00  0.00     0.029 A 
HETATM   16  C   UNL     1       3.229   2.638   2.349  1.00  0.00     0.005 A 
HETATM   17  C   UNL     1       2.502   1.792   1.521  1.00  0.00     0.037 A 
HETATM   18  C   UNL     1       3.060   1.346   0.322  1.00  0.00     0.070 A 
HETATM   19  C   UNL     1       4.356   1.753  -0.035  1.00  0.00     0.066 A 
BRANCH  18  20
HETATM   20  O   UNL     1       2.440   0.508  -0.568  1.00  0.00    -0.356 OA
HETATM   21  C   UNL     1       1.146   0.039  -0.198  1.00  0.00     0.210 C 
ENDBRANCH  18  20
ENDBRANCH   1  14
TORSDOF 4
