MODEL 1
REMARK VINA RESULT:      -9.1      0.000      0.000
REMARK  4 active torsions:
REMARK  status: ('A' for Active; 'I' for Inactive)
REMARK       I    between atoms: C_2  and  N_3 
REMARK       I    between atoms: C_2  and  N_11 
REMARK    1  A    between atoms: N_3  and  C_4 
REMARK    2  A    between atoms: N_11  and  C_12 
REMARK    3  A    between atoms: N_15  and  C_16 
REMARK    4  A    between atoms: C_19  and  C_20 
ROOT
HETATM    1  C   UNL     1     -22.387  -7.169  -4.629  1.00  0.00     0.105 C 
HETATM    2  C   UNL     1     -21.057  -7.758  -5.090  1.00  0.00     0.046 C 
HETATM    3  C   UNL     1     -20.326  -6.548  -5.675  1.00  0.00     0.126 C 
HETATM    4  N   UNL     1     -21.392  -5.747  -6.268  1.00  0.00    -0.365 N 
HETATM    5  C   UNL     1     -22.711  -6.205  -5.799  1.00  0.00     0.149 C 
ENDROOT
BRANCH   1   6
HETATM    6  N   UNL     1     -22.237  -6.442  -3.369  1.00  0.00    -0.337 N 
HETATM    7  C   UNL     1     -21.869  -6.812  -2.120  1.00  0.00     0.321 C 
HETATM    8  O   UNL     1     -21.899  -5.930  -1.270  1.00  0.00    -0.247 OA
HETATM    9  N   UNL     1     -21.487  -8.108  -1.929  1.00  0.00    -0.308 N 
HETATM   10  H   UNL     1     -21.190  -8.626  -2.741  1.00  0.00     0.170 HD
HETATM   11  H   UNL     1     -22.465  -5.454  -3.397  1.00  0.00     0.164 HD
BRANCH   9  12
HETATM   12  C   UNL     1     -21.177  -8.697  -0.667  1.00  0.00     0.053 A 
HETATM   13  C   UNL     1     -21.366  -8.011   0.540  1.00  0.00     0.031 A 
HETATM   14  C   UNL     1     -21.042  -8.595   1.770  1.00  0.00     0.002 A 
HETATM   15  C   UNL     1     -20.536  -9.887   1.818  1.00  0.00     0.002 A 
HETATM   16  C   UNL     1     -20.360 -10.601   0.633  1.00  0.00     0.021 A 
HETATM   17  C   UNL     1     -20.682 -10.014  -0.600  1.00  0.00     0.037 A 
HETATM   18 BR   UNL     1     -20.384 -11.042  -2.171  1.00  0.00    -0.049 Br
ENDBRANCH   9  12
ENDBRANCH   1   6
BRANCH   4  19
HETATM   19  C   UNL     1     -21.301  -5.168  -7.517  1.00  0.00     0.102 A 
HETATM   20  C   UNL     1     -20.123  -5.192  -8.263  1.00  0.00     0.049 A 
HETATM   21  C   UNL     1     -20.058  -4.560  -9.509  1.00  0.00     0.021 A 
HETATM   22  C   UNL     1     -21.173  -3.887  -9.998  1.00  0.00     0.063 A 
HETATM   23  C   UNL     1     -22.309  -3.912  -9.210  1.00  0.00     0.106 A 
HETATM   24  N   UNL     1     -22.387  -4.527  -8.004  1.00  0.00    -0.352 N 
ATOM     25  HN  UNL     1     -23.256  -4.506  -7.470  1.00  0.00     0.166 HD
BRANCH  22  26
HETATM   26  C   UNL     1     -21.176  -3.137 -11.292  1.00  0.00     0.418 C 
HETATM   27  F   UNL     1     -20.011  -2.475 -11.540  1.00  0.00    -0.166 F 
HETATM   28  F   UNL     1     -21.383  -3.942 -12.369  1.00  0.00    -0.166 F 
HETATM   29  F   UNL     1     -22.155  -2.190 -11.342  1.00  0.00    -0.166 F 
ENDBRANCH  22  26
ENDBRANCH   4  19
TORSDOF 4
ENDMDL
MODEL 2
REMARK VINA RESULT:      -8.8      1.860      2.578
REMARK  4 active torsions:
REMARK  status: ('A' for Active; 'I' for Inactive)
REMARK       I    between atoms: C_2  and  N_3 
REMARK       I    between atoms: C_2  and  N_11 
REMARK    1  A    between atoms: N_3  and  C_4 
REMARK    2  A    between atoms: N_11  and  C_12 
REMARK    3  A    between atoms: N_15  and  C_16 
REMARK    4  A    between atoms: C_19  and  C_20 
ROOT
HETATM    1  C   UNL     1     -20.462  -7.367  -4.603  1.00  0.00     0.105 C 
HETATM    2  C   UNL     1     -21.328  -6.207  -4.121  1.00  0.00     0.046 C 
HETATM    3  C   UNL     1     -22.249  -5.943  -5.314  1.00  0.00     0.126 C 
HETATM    4  N   UNL     1     -21.412  -6.229  -6.474  1.00  0.00    -0.365 N 
HETATM    5  C   UNL     1     -20.193  -6.953  -6.072  1.00  0.00     0.149 C 
ENDROOT
BRANCH   1   6
HETATM    6  N   UNL     1     -21.189  -8.635  -4.534  1.00  0.00    -0.337 N 
HETATM    7  C   UNL     1     -21.262  -9.616  -3.605  1.00  0.00     0.321 C 
HETATM    8  O   UNL     1     -21.948 -10.587  -3.903  1.00  0.00    -0.247 OA
HETATM    9  N   UNL     1     -20.589  -9.430  -2.431  1.00  0.00    -0.308 N 
HETATM   10  H   UNL     1     -20.353  -8.483  -2.181  1.00  0.00     0.170 HD
HETATM   11  H   UNL     1     -21.753  -8.867  -5.345  1.00  0.00     0.164 HD
BRANCH   9  12
HETATM   12  C   UNL     1     -20.464 -10.399  -1.392  1.00  0.00     0.053 A 
HETATM   13  C   UNL     1     -19.512 -11.426  -1.444  1.00  0.00     0.031 A 
HETATM   14  C   UNL     1     -19.410 -12.380  -0.424  1.00  0.00     0.002 A 
HETATM   15  C   UNL     1     -20.253 -12.315   0.678  1.00  0.00     0.002 A 
HETATM   16  C   UNL     1     -21.194 -11.290   0.766  1.00  0.00     0.021 A 
HETATM   17  C   UNL     1     -21.297 -10.336  -0.258  1.00  0.00     0.037 A 
HETATM   18 BR   UNL     1     -22.626  -8.989  -0.078  1.00  0.00    -0.049 Br
ENDBRANCH   9  12
ENDBRANCH   1   6
BRANCH   4  19
HETATM   19  C   UNL     1     -21.360  -5.421  -7.590  1.00  0.00     0.102 A 
HETATM   20  C   UNL     1     -22.421  -4.594  -7.959  1.00  0.00     0.049 A 
HETATM   21  C   UNL     1     -22.347  -3.818  -9.120  1.00  0.00     0.021 A 
HETATM   22  C   UNL     1     -21.212  -3.885  -9.921  1.00  0.00     0.063 A 
HETATM   23  C   UNL     1     -20.195  -4.718  -9.491  1.00  0.00     0.106 A 
HETATM   24  N   UNL     1     -20.252  -5.470  -8.364  1.00  0.00    -0.352 N 
ATOM     25  HN  UNL     1     -19.467  -6.067  -8.103  1.00  0.00     0.166 HD
BRANCH  22  26
HETATM   26  C   UNL     1     -21.069  -3.134 -11.207  1.00  0.00     0.418 C 
HETATM   27  F   UNL     1     -22.064  -2.228 -11.421  1.00  0.00    -0.166 F 
HETATM   28  F   UNL     1     -19.906  -2.433 -11.284  1.00  0.00    -0.166 F 
HETATM   29  F   UNL     1     -21.081  -3.957 -12.294  1.00  0.00    -0.166 F 
ENDBRANCH  22  26
ENDBRANCH   4  19
TORSDOF 4
ENDMDL
MODEL 3
REMARK VINA RESULT:      -8.7      2.792      3.854
REMARK  4 active torsions:
REMARK  status: ('A' for Active; 'I' for Inactive)
REMARK       I    between atoms: C_2  and  N_3 
REMARK       I    between atoms: C_2  and  N_11 
REMARK    1  A    between atoms: N_3  and  C_4 
REMARK    2  A    between atoms: N_11  and  C_12 
REMARK    3  A    between atoms: N_15  and  C_16 
REMARK    4  A    between atoms: C_19  and  C_20 
ROOT
HETATM    1  C   UNL     1     -19.720 -11.135  -4.858  1.00  0.00     0.105 C 
HETATM    2  C   UNL     1     -18.464 -10.621  -5.556  1.00  0.00     0.046 C 
HETATM    3  C   UNL     1     -18.426  -9.144  -5.159  1.00  0.00     0.126 C 
HETATM    4  N   UNL     1     -19.833  -8.762  -5.094  1.00  0.00    -0.365 N 
HETATM    5  C   UNL     1     -20.698  -9.954  -5.091  1.00  0.00     0.149 C 
ENDROOT
BRANCH   1   6
HETATM    6  N   UNL     1     -19.482 -11.353  -3.431  1.00  0.00    -0.337 N 
HETATM    7  C   UNL     1     -20.081 -10.892  -2.308  1.00  0.00     0.321 C 
HETATM    8  O   UNL     1     -19.579 -11.251  -1.249  1.00  0.00    -0.247 OA
HETATM    9  N   UNL     1     -21.180 -10.097  -2.455  1.00  0.00    -0.308 N 
HETATM   10  H   UNL     1     -21.675 -10.152  -3.331  1.00  0.00     0.170 HD
HETATM   11  H   UNL     1     -18.702 -11.958  -3.199  1.00  0.00     0.164 HD
BRANCH   9  12
HETATM   12  C   UNL     1     -21.866  -9.435  -1.393  1.00  0.00     0.053 A 
HETATM   13  C   UNL     1     -21.491  -8.162  -0.945  1.00  0.00     0.031 A 
HETATM   14  C   UNL     1     -22.162  -7.531   0.109  1.00  0.00     0.002 A 
HETATM   15  C   UNL     1     -23.235  -8.158   0.727  1.00  0.00     0.002 A 
HETATM   16  C   UNL     1     -23.644  -9.416   0.287  1.00  0.00     0.021 A 
HETATM   17  C   UNL     1     -22.969 -10.049  -0.768  1.00  0.00     0.037 A 
HETATM   18 BR   UNL     1     -23.568 -11.776  -1.289  1.00  0.00    -0.049 Br
ENDBRANCH   9  12
ENDBRANCH   1   6
BRANCH   4  19
HETATM   19  C   UNL     1     -20.328  -7.592  -5.631  1.00  0.00     0.102 A 
HETATM   20  C   UNL     1     -21.526  -7.024  -5.199  1.00  0.00     0.049 A 
HETATM   21  C   UNL     1     -22.015  -5.857  -5.796  1.00  0.00     0.021 A 
HETATM   22  C   UNL     1     -21.309  -5.270  -6.840  1.00  0.00     0.063 A 
HETATM   23  C   UNL     1     -20.125  -5.881  -7.211  1.00  0.00     0.106 A 
HETATM   24  N   UNL     1     -19.636  -7.008  -6.636  1.00  0.00    -0.352 N 
ATOM     25  HN  UNL     1     -18.756  -7.411  -6.959  1.00  0.00     0.166 HD
BRANCH  22  26
HETATM   26  C   UNL     1     -21.785  -4.056  -7.573  1.00  0.00     0.418 C 
HETATM   27  F   UNL     1     -23.138  -4.011  -7.729  1.00  0.00    -0.166 F 
HETATM   28  F   UNL     1     -21.445  -2.895  -6.950  1.00  0.00    -0.166 F 
HETATM   29  F   UNL     1     -21.265  -3.970  -8.830  1.00  0.00    -0.166 F 
ENDBRANCH  22  26
ENDBRANCH   4  19
TORSDOF 4
ENDMDL
MODEL 4
REMARK VINA RESULT:      -8.5      1.646      2.156
REMARK  4 active torsions:
REMARK  status: ('A' for Active; 'I' for Inactive)
REMARK       I    between atoms: C_2  and  N_3 
REMARK       I    between atoms: C_2  and  N_11 
REMARK    1  A    between atoms: N_3  and  C_4 
REMARK    2  A    between atoms: N_11  and  C_12 
REMARK    3  A    between atoms: N_15  and  C_16 
REMARK    4  A    between atoms: C_19  and  C_20 
ROOT
HETATM    1  C   UNL     1     -21.186  -8.321  -4.980  1.00  0.00     0.105 C 
HETATM    2  C   UNL     1     -19.713  -8.161  -5.347  1.00  0.00     0.046 C 
HETATM    3  C   UNL     1     -19.591  -6.665  -5.645  1.00  0.00     0.126 C 
HETATM    4  N   UNL     1     -20.876  -6.321  -6.246  1.00  0.00    -0.365 N 
HETATM    5  C   UNL     1     -21.859  -7.395  -6.026  1.00  0.00     0.149 C 
ENDROOT
BRANCH   1   6
HETATM    6  N   UNL     1     -21.447  -7.859  -3.617  1.00  0.00    -0.337 N 
HETATM    7  C   UNL     1     -21.742  -8.495  -2.459  1.00  0.00     0.321 C 
HETATM    8  O   UNL     1     -21.951  -7.774  -1.490  1.00  0.00    -0.247 OA
HETATM    9  N   UNL     1     -21.762  -9.860  -2.473  1.00  0.00    -0.308 N 
HETATM   10  H   UNL     1     -21.260 -10.321  -3.215  1.00  0.00     0.170 HD
HETATM   11  H   UNL     1     -21.427  -6.854  -3.478  1.00  0.00     0.164 HD
BRANCH   9  12
HETATM   12  C   UNL     1     -22.160 -10.688  -1.381  1.00  0.00     0.053 A 
HETATM   13  C   UNL     1     -23.501 -10.816  -0.995  1.00  0.00     0.031 A 
HETATM   14  C   UNL     1     -23.876 -11.619   0.088  1.00  0.00     0.002 A 
HETATM   15  C   UNL     1     -22.914 -12.325   0.799  1.00  0.00     0.002 A 
HETATM   16  C   UNL     1     -21.575 -12.234   0.422  1.00  0.00     0.021 A 
HETATM   17  C   UNL     1     -21.200 -11.426  -0.663  1.00  0.00     0.037 A 
HETATM   18 BR   UNL     1     -19.351 -11.332  -1.094  1.00  0.00    -0.049 Br
ENDBRANCH   9  12
ENDBRANCH   1   6
BRANCH   4  19
HETATM   19  C   UNL     1     -21.000  -5.535  -7.372  1.00  0.00     0.102 A 
HETATM   20  C   UNL     1     -22.159  -4.808  -7.646  1.00  0.00     0.049 A 
HETATM   21  C   UNL     1     -22.262  -4.053  -8.819  1.00  0.00     0.021 A 
HETATM   22  C   UNL     1     -21.209  -4.042  -9.727  1.00  0.00     0.063 A 
HETATM   23  C   UNL     1     -20.088  -4.779  -9.387  1.00  0.00     0.106 A 
HETATM   24  N   UNL     1     -19.972  -5.509  -8.250  1.00  0.00    -0.352 N 
ATOM     25  HN  UNL     1     -19.118  -6.033  -8.059  1.00  0.00     0.166 HD
BRANCH  22  26
HETATM   26  C   UNL     1     -21.255  -3.310 -11.030  1.00  0.00     0.418 C 
HETATM   27  F   UNL     1     -22.305  -2.448 -11.132  1.00  0.00    -0.166 F 
HETATM   28  F   UNL     1     -20.139  -2.565 -11.258  1.00  0.00    -0.166 F 
HETATM   29  F   UNL     1     -21.364  -4.152 -12.096  1.00  0.00    -0.166 F 
ENDBRANCH  22  26
ENDBRANCH   4  19
TORSDOF 4
ENDMDL
MODEL 5
REMARK VINA RESULT:      -8.4      3.386      4.541
REMARK  4 active torsions:
REMARK  status: ('A' for Active; 'I' for Inactive)
REMARK       I    between atoms: C_2  and  N_3 
REMARK       I    between atoms: C_2  and  N_11 
REMARK    1  A    between atoms: N_3  and  C_4 
REMARK    2  A    between atoms: N_11  and  C_12 
REMARK    3  A    between atoms: N_15  and  C_16 
REMARK    4  A    between atoms: C_19  and  C_20 
ROOT
HETATM    1  C   UNL     1     -21.365  -9.530  -1.544  1.00  0.00     0.105 C 
HETATM    2  C   UNL     1     -20.722  -8.241  -1.040  1.00  0.00     0.046 C 
HETATM    3  C   UNL     1     -21.445  -7.156  -1.840  1.00  0.00     0.126 C 
HETATM    4  N   UNL     1     -21.690  -7.781  -3.136  1.00  0.00    -0.365 N 
HETATM    5  C   UNL     1     -21.476  -9.236  -3.063  1.00  0.00     0.149 C 
ENDROOT
BRANCH   1   6
HETATM    6  N   UNL     1     -22.684  -9.734  -0.946  1.00  0.00    -0.337 N 
HETATM    7  C   UNL     1     -23.273 -10.786  -0.331  1.00  0.00     0.321 C 
HETATM    8  O   UNL     1     -24.437 -10.621   0.015  1.00  0.00    -0.247 OA
HETATM    9  N   UNL     1     -22.523 -11.911  -0.139  1.00  0.00    -0.308 N 
HETATM   10  H   UNL     1     -21.521 -11.806  -0.160  1.00  0.00     0.170 HD
HETATM   11  H   UNL     1     -23.322  -8.948  -1.000  1.00  0.00     0.164 HD
BRANCH   9  12
HETATM   12  C   UNL     1     -23.010 -13.144   0.386  1.00  0.00     0.053 A 
HETATM   13  C   UNL     1     -23.167 -13.356   1.763  1.00  0.00     0.031 A 
HETATM   14  C   UNL     1     -23.631 -14.577   2.266  1.00  0.00     0.002 A 
HETATM   15  C   UNL     1     -23.962 -15.609   1.398  1.00  0.00     0.002 A 
HETATM   16  C   UNL     1     -23.836 -15.418   0.022  1.00  0.00     0.021 A 
HETATM   17  C   UNL     1     -23.369 -14.194  -0.481  1.00  0.00     0.037 A 
HETATM   18 BR   UNL     1     -23.198 -14.024  -2.367  1.00  0.00    -0.049 Br
ENDBRANCH   9  12
ENDBRANCH   1   6
BRANCH   4  19
HETATM   19  C   UNL     1     -21.471  -7.143  -4.339  1.00  0.00     0.102 A 
HETATM   20  C   UNL     1     -20.323  -7.365  -5.100  1.00  0.00     0.049 A 
HETATM   21  C   UNL     1     -20.118  -6.669  -6.296  1.00  0.00     0.021 A 
HETATM   22  C   UNL     1     -21.058  -5.736  -6.720  1.00  0.00     0.063 A 
HETATM   23  C   UNL     1     -22.176  -5.574  -5.921  1.00  0.00     0.106 A 
HETATM   24  N   UNL     1     -22.390  -6.246  -4.764  1.00  0.00    -0.352 N 
ATOM     25  HN  UNL     1     -23.236  -6.078  -4.219  1.00  0.00     0.166 HD
BRANCH  22  26
HETATM   26  C   UNL     1     -20.894  -4.908  -7.954  1.00  0.00     0.418 C 
HETATM   27  F   UNL     1     -19.747  -5.175  -8.640  1.00  0.00    -0.166 F 
HETATM   28  F   UNL     1     -21.908  -5.079  -8.845  1.00  0.00    -0.166 F 
HETATM   29  F   UNL     1     -20.858  -3.573  -7.683  1.00  0.00    -0.166 F 
ENDBRANCH  22  26
ENDBRANCH   4  19
TORSDOF 4
ENDMDL
MODEL 6
REMARK VINA RESULT:      -8.3      3.258      4.432
REMARK  4 active torsions:
REMARK  status: ('A' for Active; 'I' for Inactive)
REMARK       I    between atoms: C_2  and  N_3 
REMARK       I    between atoms: C_2  and  N_11 
REMARK    1  A    between atoms: N_3  and  C_4 
REMARK    2  A    between atoms: N_11  and  C_12 
REMARK    3  A    between atoms: N_15  and  C_16 
REMARK    4  A    between atoms: C_19  and  C_20 
ROOT
HETATM    1  C   UNL     1     -20.208 -10.936  -3.726  1.00  0.00     0.105 C 
HETATM    2  C   UNL     1     -19.101 -10.774  -4.764  1.00  0.00     0.046 C 
HETATM    3  C   UNL     1     -18.819  -9.271  -4.739  1.00  0.00     0.126 C 
HETATM    4  N   UNL     1     -20.125  -8.673  -4.483  1.00  0.00    -0.365 N 
HETATM    5  C   UNL     1     -21.084  -9.692  -4.025  1.00  0.00     0.149 C 
ENDROOT
BRANCH   1   6
HETATM    6  N   UNL     1     -19.670 -10.890  -2.366  1.00  0.00    -0.337 N 
HETATM    7  C   UNL     1     -20.023 -11.491  -1.206  1.00  0.00     0.321 C 
HETATM    8  O   UNL     1     -19.365 -11.180  -0.220  1.00  0.00    -0.247 OA
HETATM    9  N   UNL     1     -21.052 -12.388  -1.243  1.00  0.00    -0.308 N 
HETATM   10  H   UNL     1     -21.276 -12.795  -2.137  1.00  0.00     0.170 HD
HETATM   11  H   UNL     1     -18.876 -10.275  -2.223  1.00  0.00     0.164 HD
BRANCH   9  12
HETATM   12  C   UNL     1     -21.627 -13.028  -0.105  1.00  0.00     0.053 A 
HETATM   13  C   UNL     1     -20.988 -14.086   0.555  1.00  0.00     0.031 A 
HETATM   14  C   UNL     1     -21.571 -14.715   1.661  1.00  0.00     0.002 A 
HETATM   15  C   UNL     1     -22.802 -14.287   2.138  1.00  0.00     0.002 A 
HETATM   16  C   UNL     1     -23.450 -13.222   1.514  1.00  0.00     0.021 A 
HETATM   17  C   UNL     1     -22.866 -12.593   0.404  1.00  0.00     0.037 A 
HETATM   18 BR   UNL     1     -23.826 -11.168  -0.409  1.00  0.00    -0.049 Br
ENDBRANCH   9  12
ENDBRANCH   1   6
BRANCH   4  19
HETATM   19  C   UNL     1     -20.606  -7.576  -5.167  1.00  0.00     0.102 A 
HETATM   20  C   UNL     1     -21.856  -7.020  -4.895  1.00  0.00     0.049 A 
HETATM   21  C   UNL     1     -22.325  -5.932  -5.638  1.00  0.00     0.021 A 
HETATM   22  C   UNL     1     -21.547  -5.413  -6.667  1.00  0.00     0.063 A 
HETATM   23  C   UNL     1     -20.316  -6.008  -6.876  1.00  0.00     0.106 A 
HETATM   24  N   UNL     1     -19.845  -7.059  -6.159  1.00  0.00    -0.352 N 
ATOM     25  HN  UNL     1     -18.928  -7.454  -6.365  1.00  0.00     0.166 HD
BRANCH  22  26
HETATM   26  C   UNL     1     -21.993  -4.290  -7.548  1.00  0.00     0.418 C 
HETATM   27  F   UNL     1     -21.532  -3.071  -7.150  1.00  0.00    -0.166 F 
HETATM   28  F   UNL     1     -21.588  -4.437  -8.839  1.00  0.00    -0.166 F 
HETATM   29  F   UNL     1     -23.350  -4.173  -7.596  1.00  0.00    -0.166 F 
ENDBRANCH  22  26
ENDBRANCH   4  19
TORSDOF 4
ENDMDL
MODEL 7
REMARK VINA RESULT:      -8.2     17.793     19.388
REMARK  4 active torsions:
REMARK  status: ('A' for Active; 'I' for Inactive)
REMARK       I    between atoms: C_2  and  N_3 
REMARK       I    between atoms: C_2  and  N_11 
REMARK    1  A    between atoms: N_3  and  C_4 
REMARK    2  A    between atoms: N_11  and  C_12 
REMARK    3  A    between atoms: N_15  and  C_16 
REMARK    4  A    between atoms: C_19  and  C_20 
ROOT
HETATM    1  C   UNL     1     -21.179   8.890   3.478  1.00  0.00     0.105 C 
HETATM    2  C   UNL     1     -21.286   9.619   4.815  1.00  0.00     0.046 C 
HETATM    3  C   UNL     1     -20.023  10.483   4.841  1.00  0.00     0.126 C 
HETATM    4  N   UNL     1     -19.026   9.667   4.156  1.00  0.00    -0.365 N 
HETATM    5  C   UNL     1     -19.667   8.551   3.440  1.00  0.00     0.149 C 
ENDROOT
BRANCH   1   6
HETATM    6  N   UNL     1     -21.553   9.765   2.367  1.00  0.00    -0.337 N 
HETATM    7  C   UNL     1     -22.303   9.585   1.254  1.00  0.00     0.321 C 
HETATM    8  O   UNL     1     -22.370  10.544   0.493  1.00  0.00    -0.247 OA
HETATM    9  N   UNL     1     -22.921   8.378   1.093  1.00  0.00    -0.308 N 
HETATM   10  H   UNL     1     -23.060   7.818   1.919  1.00  0.00     0.170 HD
HETATM   11  H   UNL     1     -21.175  10.706   2.395  1.00  0.00     0.164 HD
BRANCH   9  12
HETATM   12  C   UNL     1     -23.653   7.977  -0.064  1.00  0.00     0.053 A 
HETATM   13  C   UNL     1     -23.051   7.284  -1.122  1.00  0.00     0.031 A 
HETATM   14  C   UNL     1     -23.777   6.910  -2.258  1.00  0.00     0.002 A 
HETATM   15  C   UNL     1     -25.130   7.210  -2.351  1.00  0.00     0.002 A 
HETATM   16  C   UNL     1     -25.760   7.879  -1.302  1.00  0.00     0.021 A 
HETATM   17  C   UNL     1     -25.030   8.255  -0.165  1.00  0.00     0.037 A 
HETATM   18 BR   UNL     1     -25.956   9.191   1.207  1.00  0.00    -0.049 Br
ENDBRANCH   9  12
ENDBRANCH   1   6
BRANCH   4  19
HETATM   19  C   UNL     1     -17.736   9.501   4.616  1.00  0.00     0.102 A 
HETATM   20  C   UNL     1     -17.429   9.481   5.976  1.00  0.00     0.049 A 
HETATM   21  C   UNL     1     -16.104   9.350   6.403  1.00  0.00     0.021 A 
HETATM   22  C   UNL     1     -15.083   9.257   5.463  1.00  0.00     0.063 A 
HETATM   23  C   UNL     1     -15.461   9.274   4.132  1.00  0.00     0.106 A 
HETATM   24  N   UNL     1     -16.742   9.394   3.705  1.00  0.00    -0.352 N 
ATOM     25  HN  UNL     1     -16.954   9.403   2.707  1.00  0.00     0.166 HD
BRANCH  22  26
HETATM   26  C   UNL     1     -13.636   9.171   5.828  1.00  0.00     0.418 C 
HETATM   27  F   UNL     1     -13.312   8.032   6.504  1.00  0.00    -0.166 F 
HETATM   28  F   UNL     1     -12.814   9.205   4.744  1.00  0.00    -0.166 F 
HETATM   29  F   UNL     1     -13.239  10.200   6.629  1.00  0.00    -0.166 F 
ENDBRANCH  22  26
ENDBRANCH   4  19
TORSDOF 4
ENDMDL
MODEL 8
REMARK VINA RESULT:      -8.1      4.709      5.816
REMARK  4 active torsions:
REMARK  status: ('A' for Active; 'I' for Inactive)
REMARK       I    between atoms: C_2  and  N_3 
REMARK       I    between atoms: C_2  and  N_11 
REMARK    1  A    between atoms: N_3  and  C_4 
REMARK    2  A    between atoms: N_11  and  C_12 
REMARK    3  A    between atoms: N_15  and  C_16 
REMARK    4  A    between atoms: C_19  and  C_20 
ROOT
HETATM    1  C   UNL     1     -19.705  -9.914  -2.612  1.00  0.00     0.105 C 
HETATM    2  C   UNL     1     -21.199  -9.674  -2.415  1.00  0.00     0.046 C 
HETATM    3  C   UNL     1     -21.691  -9.367  -3.831  1.00  0.00     0.126 C 
HETATM    4  N   UNL     1     -20.575  -8.652  -4.443  1.00  0.00    -0.365 N 
HETATM    5  C   UNL     1     -19.354  -8.802  -3.634  1.00  0.00     0.149 C 
ENDROOT
BRANCH   1   6
HETATM    6  N   UNL     1     -19.450 -11.243  -3.168  1.00  0.00    -0.337 N 
HETATM    7  C   UNL     1     -18.320 -11.929  -3.457  1.00  0.00     0.321 C 
HETATM    8  O   UNL     1     -18.479 -13.030  -3.972  1.00  0.00    -0.247 OA
HETATM    9  N   UNL     1     -17.126 -11.348  -3.139  1.00  0.00    -0.308 N 
HETATM   10  H   UNL     1     -17.138 -10.623  -2.439  1.00  0.00     0.170 HD
HETATM   11  H   UNL     1     -20.271 -11.785  -3.415  1.00  0.00     0.164 HD
BRANCH   9  12
HETATM   12  C   UNL     1     -15.842 -11.873  -3.471  1.00  0.00     0.053 A 
HETATM   13  C   UNL     1     -15.186 -12.804  -2.655  1.00  0.00     0.031 A 
HETATM   14  C   UNL     1     -13.919 -13.299  -2.984  1.00  0.00     0.002 A 
HETATM   15  C   UNL     1     -13.287 -12.881  -4.148  1.00  0.00     0.002 A 
HETATM   16  C   UNL     1     -13.927 -11.972  -4.990  1.00  0.00     0.021 A 
HETATM   17  C   UNL     1     -15.196 -11.475  -4.658  1.00  0.00     0.037 A 
HETATM   18 BR   UNL     1     -15.988 -10.216  -5.842  1.00  0.00    -0.049 Br
ENDBRANCH   9  12
ENDBRANCH   1   6
BRANCH   4  19
HETATM   19  C   UNL     1     -20.729  -7.509  -5.198  1.00  0.00     0.102 A 
HETATM   20  C   UNL     1     -21.880  -6.722  -5.130  1.00  0.00     0.049 A 
HETATM   21  C   UNL     1     -22.016  -5.591  -5.941  1.00  0.00     0.021 A 
HETATM   22  C   UNL     1     -21.004  -5.259  -6.835  1.00  0.00     0.063 A 
HETATM   23  C   UNL     1     -19.889  -6.078  -6.844  1.00  0.00     0.106 A 
HETATM   24  N   UNL     1     -19.741  -7.173  -6.058  1.00  0.00    -0.352 N 
ATOM     25  HN  UNL     1     -18.893  -7.737  -6.115  1.00  0.00     0.166 HD
BRANCH  22  26
HETATM   26  C   UNL     1     -21.089  -4.102  -7.778  1.00  0.00     0.418 C 
HETATM   27  F   UNL     1     -21.906  -4.329  -8.845  1.00  0.00    -0.166 F 
HETATM   28  F   UNL     1     -21.558  -2.970  -7.187  1.00  0.00    -0.166 F 
HETATM   29  F   UNL     1     -19.877  -3.771  -8.307  1.00  0.00    -0.166 F 
ENDBRANCH  22  26
ENDBRANCH   4  19
TORSDOF 4
ENDMDL
MODEL 9
REMARK VINA RESULT:      -7.7     17.225     18.692
REMARK  4 active torsions:
REMARK  status: ('A' for Active; 'I' for Inactive)
REMARK       I    between atoms: C_2  and  N_3 
REMARK       I    between atoms: C_2  and  N_11 
REMARK    1  A    between atoms: N_3  and  C_4 
REMARK    2  A    between atoms: N_11  and  C_12 
REMARK    3  A    between atoms: N_15  and  C_16 
REMARK    4  A    between atoms: C_19  and  C_20 
ROOT
HETATM    1  C   UNL     1     -22.189   9.555   3.419  1.00  0.00     0.105 C 
HETATM    2  C   UNL     1     -21.730  10.481   4.542  1.00  0.00     0.046 C 
HETATM    3  C   UNL     1     -20.431  11.075   3.992  1.00  0.00     0.126 C 
HETATM    4  N   UNL     1     -19.850   9.987   3.212  1.00  0.00    -0.365 N 
HETATM    5  C   UNL     1     -20.842   8.924   2.979  1.00  0.00     0.149 C 
ENDROOT
BRANCH   1   6
HETATM    6  N   UNL     1     -22.802  10.310   2.326  1.00  0.00    -0.337 N 
HETATM    7  C   UNL     1     -23.399   9.949   1.166  1.00  0.00     0.321 C 
HETATM    8  O   UNL     1     -23.766  10.869   0.444  1.00  0.00    -0.247 OA
HETATM    9  N   UNL     1     -23.550   8.615   0.919  1.00  0.00    -0.308 N 
HETATM   10  H   UNL     1     -23.517   7.993   1.711  1.00  0.00     0.170 HD
HETATM   11  H   UNL     1     -22.777  11.320   2.417  1.00  0.00     0.164 HD
BRANCH   9  12
HETATM   12  C   UNL     1     -24.051   8.055  -0.293  1.00  0.00     0.053 A 
HETATM   13  C   UNL     1     -23.201   7.550  -1.287  1.00  0.00     0.031 A 
HETATM   14  C   UNL     1     -23.706   7.018  -2.479  1.00  0.00     0.002 A 
HETATM   15  C   UNL     1     -25.077   6.965  -2.694  1.00  0.00     0.002 A 
HETATM   16  C   UNL     1     -25.946   7.439  -1.712  1.00  0.00     0.021 A 
HETATM   17  C   UNL     1     -25.439   7.975  -0.519  1.00  0.00     0.037 A 
HETATM   18 BR   UNL     1     -26.689   8.628   0.756  1.00  0.00    -0.049 Br
ENDBRANCH   9  12
ENDBRANCH   1   6
BRANCH   4  19
HETATM   19  C   UNL     1     -18.516   9.642   3.268  1.00  0.00     0.102 A 
HETATM   20  C   UNL     1     -17.767   9.384   2.120  1.00  0.00     0.049 A 
HETATM   21  C   UNL     1     -16.426   8.998   2.218  1.00  0.00     0.021 A 
HETATM   22  C   UNL     1     -15.842   8.854   3.472  1.00  0.00     0.063 A 
HETATM   23  C   UNL     1     -16.640   9.135   4.566  1.00  0.00     0.106 A 
HETATM   24  N   UNL     1     -17.939   9.516   4.484  1.00  0.00    -0.352 N 
ATOM     25  HN  UNL     1     -18.474   9.706   5.331  1.00  0.00     0.166 HD
BRANCH  22  26
HETATM   26  C   UNL     1     -14.434   8.392   3.673  1.00  0.00     0.418 C 
HETATM   27  F   UNL     1     -14.155   8.042   4.961  1.00  0.00    -0.166 F 
HETATM   28  F   UNL     1     -14.121   7.305   2.917  1.00  0.00    -0.166 F 
HETATM   29  F   UNL     1     -13.520   9.349   3.345  1.00  0.00    -0.166 F 
ENDBRANCH  22  26
ENDBRANCH   4  19
TORSDOF 4
ENDMDL
