REMARK  4 active torsions:
REMARK  status: ('A' for Active; 'I' for Inactive)
REMARK       I    between atoms: C_2  and  N_3 
REMARK       I    between atoms: C_2  and  N_11 
REMARK    1  A    between atoms: N_3  and  C_4 
REMARK    2  A    between atoms: N_11  and  C_12 
REMARK    3  A    between atoms: N_15  and  C_16 
REMARK    4  A    between atoms: C_19  and  C_20 
ROOT
HETATM    1  C   UNL     1       4.607  -1.291  -0.055  1.00  0.00     0.105 C 
HETATM    2  C   UNL     1       5.407  -0.007  -0.258  1.00  0.00     0.046 C 
HETATM    3  C   UNL     1       5.470   0.125  -1.781  1.00  0.00     0.126 C 
HETATM    4  N   UNL     1       5.545  -1.255  -2.250  1.00  0.00    -0.365 N 
HETATM    5  C   UNL     1       5.198  -2.193  -1.169  1.00  0.00     0.149 C 
ENDROOT
BRANCH   1   6
HETATM    6  N   UNL     1       3.177  -1.063  -0.261  1.00  0.00    -0.337 N 
HETATM    7  C   UNL     1       2.173  -0.659   0.552  1.00  0.00     0.321 C 
HETATM    8  O   UNL     1       1.057  -0.622   0.047  1.00  0.00    -0.247 OA
HETATM    9  N   UNL     1       2.493  -0.319   1.835  1.00  0.00    -0.308 N 
HETATM   10  H   UNL     1       3.453  -0.075   2.021  1.00  0.00     0.170 HD
HETATM   11  H   UNL     1       2.827  -1.254  -1.194  1.00  0.00     0.164 HD
BRANCH   9  12
HETATM   12  C   UNL     1       1.555   0.019   2.855  1.00  0.00     0.053 A 
HETATM   13  C   UNL     1       0.200  -0.326   2.763  1.00  0.00     0.031 A 
HETATM   14  C   UNL     1      -0.713   0.026   3.764  1.00  0.00     0.002 A 
HETATM   15  C   UNL     1      -0.283   0.719   4.888  1.00  0.00     0.002 A 
HETATM   16  C   UNL     1       1.064   1.055   5.016  1.00  0.00     0.021 A 
HETATM   17  C   UNL     1       1.978   0.704   4.011  1.00  0.00     0.037 A 
HETATM   18 BR   UNL     1       3.791   1.225   4.246  1.00  0.00    -0.049 Br
ENDBRANCH   9  12
ENDBRANCH   1   6
BRANCH   4  19
HETATM   19  C   UNL     1       6.416  -1.676  -3.233  1.00  0.00     0.102 A 
HETATM   20  C   UNL     1       6.903  -0.812  -4.214  1.00  0.00     0.049 A 
HETATM   21  C   UNL     1       7.754  -1.285  -5.218  1.00  0.00     0.021 A 
HETATM   22  C   UNL     1       8.102  -2.631  -5.248  1.00  0.00     0.063 A 
HETATM   23  C   UNL     1       7.590  -3.428  -4.240  1.00  0.00     0.106 A 
HETATM   24  N   UNL     1       6.770  -2.981  -3.257  1.00  0.00    -0.352 N 
ATOM     25  HN  UNL     1       6.424  -3.622  -2.543  1.00  0.00     0.166 HD
BRANCH  22  26
HETATM   26  C   UNL     1       8.959  -3.234  -6.315  1.00  0.00     0.418 C 
HETATM   27  F   UNL     1       9.362  -2.338  -7.260  1.00  0.00    -0.166 F 
HETATM   28  F   UNL     1      10.098  -3.794  -5.825  1.00  0.00    -0.166 F 
HETATM   29  F   UNL     1       8.320  -4.226  -6.997  1.00  0.00    -0.166 F 
ENDBRANCH  22  26
ENDBRANCH   4  19
TORSDOF 4
