MODEL 1
REMARK VINA RESULT:      -7.3      0.000      0.000
REMARK  16 active torsions:
REMARK  status: ('A' for Active; 'I' for Inactive)
REMARK    1  A    between atoms: C_2  and  C_3 
REMARK    2  A    between atoms: C_3  and  C_4 
REMARK    3  A    between atoms: C_4  and  C_5 
REMARK    4  A    between atoms: C_5  and  C_6 
REMARK    5  A    between atoms: C_6  and  C_7 
REMARK    6  A    between atoms: C_7  and  C_8 
REMARK    7  A    between atoms: C_8  and  C_9 
REMARK    8  A    between atoms: C_9  and  C_10 
REMARK    9  A    between atoms: C_10  and  C_11 
REMARK   10  A    between atoms: C_11  and  C_12 
REMARK       I    between atoms: C_12  and  N_14 
REMARK   11  A    between atoms: N_14  and  C_15 
REMARK   12  A    between atoms: N_14  and  C_19 
REMARK   13  A    between atoms: C_15  and  C_16 
REMARK   14  A    between atoms: C_16  and  O_18 
REMARK   15  A    between atoms: C_19  and  C_20 
REMARK   16  A    between atoms: C_20  and  O_22 
ROOT
HETATM    1  C   UNL     1     -24.262  -3.709 -10.819  1.00  0.00     0.219 C 
HETATM    2  O   UNL     1     -25.362  -3.149 -10.788  1.00  0.00    -0.273 OA
HETATM    3  N   UNL     1     -23.349  -3.464 -11.839  1.00  0.00    -0.347 N 
ENDROOT
BRANCH   1   4
HETATM    4  C   UNL     1     -23.885  -4.646  -9.693  1.00  0.00     0.103 C 
BRANCH   4   5
HETATM    5  C   UNL     1     -23.499  -3.891  -8.425  1.00  0.00     0.009 C 
BRANCH   5   6
HETATM    6  C   UNL     1     -22.448  -4.685  -7.643  1.00  0.00     0.000 C 
BRANCH   6   7
HETATM    7  C   UNL     1     -21.264  -3.843  -7.174  1.00  0.00     0.000 C 
BRANCH   7   8
HETATM    8  C   UNL     1     -20.372  -4.574  -6.171  1.00  0.00     0.000 C 
BRANCH   8   9
HETATM    9  C   UNL     1     -20.268  -6.052  -6.529  1.00  0.00     0.000 C 
BRANCH   9  10
HETATM   10  C   UNL     1     -20.491  -6.930  -5.303  1.00  0.00     0.000 C 
BRANCH  10  11
HETATM   11  C   UNL     1     -21.436  -6.242  -4.324  1.00  0.00     0.000 C 
BRANCH  11  12
HETATM   12  C   UNL     1     -21.140  -6.663  -2.889  1.00  0.00    -0.000 C 
BRANCH  12  13
HETATM   13  C   UNL     1     -22.223  -6.163  -1.938  1.00  0.00    -0.005 C 
HETATM   14  C   UNL     1     -22.371  -7.089  -0.745  1.00  0.00     0.005 C 
ENDBRANCH  12  13
ENDBRANCH  11  12
ENDBRANCH  10  11
ENDBRANCH   9  10
ENDBRANCH   8   9
ENDBRANCH   7   8
ENDBRANCH   6   7
ENDBRANCH   5   6
ENDBRANCH   4   5
ENDBRANCH   1   4
BRANCH   3  15
HETATM   15  C   UNL     1     -22.032  -4.106 -11.988  1.00  0.00     0.157 C 
BRANCH  15  16
HETATM   16  C   UNL     1     -20.937  -3.678 -10.985  1.00  0.00     0.132 C 
HETATM   17  C   UNL     1     -19.977  -4.779 -10.554  1.00  0.00     0.041 C 
BRANCH  16  18
HETATM   18  O   UNL     1     -20.162  -2.627 -11.580  1.00  0.00    -0.394 OA
HETATM   19  H   UNL     1     -19.524  -3.027 -12.198  1.00  0.00     0.210 HD
ENDBRANCH  16  18
ENDBRANCH  15  16
ENDBRANCH   3  15
BRANCH   3  20
HETATM   20  C   UNL     1     -23.727  -2.462 -12.833  1.00  0.00     0.157 C 
BRANCH  20  21
HETATM   21  C   UNL     1     -23.870  -2.997 -14.280  1.00  0.00     0.132 C 
HETATM   22  C   UNL     1     -24.830  -4.176 -14.405  1.00  0.00     0.041 C 
BRANCH  21  23
HETATM   23  O   UNL     1     -24.337  -1.944 -15.128  1.00  0.00    -0.394 OA
HETATM   24  H   UNL     1     -23.601  -1.329 -15.289  1.00  0.00     0.210 HD
ENDBRANCH  21  23
ENDBRANCH  20  21
ENDBRANCH   3  20
TORSDOF 16
BEGIN_RES ARG D 557
REMARK  4 active torsions:
REMARK  status: ('A' for Active; 'I' for Inactive)
REMARK    1  A    between atoms: CA   and  CB  
REMARK    2  A    between atoms: CB   and  CG  
REMARK    3  A    between atoms: CG   and  CD  
REMARK    4  A    between atoms: CD   and  NE  
REMARK       I    between atoms: NE   and  CZ  
REMARK       I    between atoms: CZ   and  NH1 
REMARK       I    between atoms: CZ   and  NH2 
ROOT
ATOM      1  CA  ARG D 557     -26.217   2.705 -17.014  1.00 35.49     0.159 C 
ENDROOT
BRANCH   1   2
ATOM      2  CB  ARG D 557     -26.789   1.319 -17.183  1.00 35.49     0.034 C 
BRANCH   2   3
ATOM      3  CG  ARG D 557     -28.234   1.226 -17.426  1.00 35.49     0.027 C 
BRANCH   3   4
ATOM      4  CD  ARG D 557     -28.903   0.288 -16.495  1.00 35.49     0.116 C 
BRANCH   4   5
ATOM      5  NE  ARG D 557     -29.201  -0.974 -17.119  1.00 35.49    -0.212 N 
ATOM      6  CZ  ARG D 557     -28.507  -2.082 -16.981  1.00 35.49     0.666 C 
ATOM      7  NH1 ARG D 557     -27.416  -2.148 -16.240  1.00 35.49    -0.235 N 
ATOM      8  NH2 ARG D 557     -28.936  -3.141 -17.604  1.00 35.49    -0.235 N 
ATOM      9  HH  ARG D 557     -27.117  -1.464 -15.819  1.00 35.49     0.174 HD
ATOM     10  HH  ARG D 557     -27.006  -2.898 -16.185  1.00 35.49     0.174 HD
ATOM     11  HH  ARG D 557     -29.647  -3.071 -18.070  1.00 35.49     0.174 HD
ATOM     12  HH  ARG D 557     -28.517  -3.875 -17.536  1.00 35.49     0.174 HD
ATOM     13  HE  ARG D 557     -29.846  -1.004 -17.672  1.00 35.49     0.178 HD
ENDBRANCH   4   5
ENDBRANCH   3   4
ENDBRANCH   2   3
ENDBRANCH   1   2
END_RES ARG D 557
BEGIN_RES GLU D 570
REMARK  3 active torsions:
REMARK  status: ('A' for Active; 'I' for Inactive)
REMARK    5  A    between atoms: CA   and  CB  
REMARK    6  A    between atoms: CB   and  CG  
REMARK    7  A    between atoms: CG   and  CD  
ROOT
ATOM     14  CA  GLU D 570     -18.033  -6.348 -13.375  1.00 32.92     0.160 C 
ENDROOT
BRANCH  14  15
ATOM     15  CB  GLU D 570     -19.500  -6.345 -13.794  1.00 32.92     0.043 C 
BRANCH  15  16
ATOM     16  CG  GLU D 570     -19.816  -5.902 -15.176  1.00 32.92     0.100 C 
BRANCH  16  17
ATOM     17  CD  GLU D 570     -21.297  -5.719 -15.412  1.00 32.92     0.185 C 
ATOM     18  OE1 GLU D 570     -22.104  -6.418 -14.769  1.00 32.92    -0.647 OA
ATOM     19  OE2 GLU D 570     -21.655  -4.879 -16.262  1.00 32.92    -0.647 OA
ENDBRANCH  16  17
ENDBRANCH  15  16
ENDBRANCH  14  15
END_RES GLU D 570
ENDMDL
MODEL 2
REMARK VINA RESULT:      -7.1      1.553      2.121
REMARK  16 active torsions:
REMARK  status: ('A' for Active; 'I' for Inactive)
REMARK    1  A    between atoms: C_2  and  C_3 
REMARK    2  A    between atoms: C_3  and  C_4 
REMARK    3  A    between atoms: C_4  and  C_5 
REMARK    4  A    between atoms: C_5  and  C_6 
REMARK    5  A    between atoms: C_6  and  C_7 
REMARK    6  A    between atoms: C_7  and  C_8 
REMARK    7  A    between atoms: C_8  and  C_9 
REMARK    8  A    between atoms: C_9  and  C_10 
REMARK    9  A    between atoms: C_10  and  C_11 
REMARK   10  A    between atoms: C_11  and  C_12 
REMARK       I    between atoms: C_12  and  N_14 
REMARK   11  A    between atoms: N_14  and  C_15 
REMARK   12  A    between atoms: N_14  and  C_19 
REMARK   13  A    between atoms: C_15  and  C_16 
REMARK   14  A    between atoms: C_16  and  O_18 
REMARK   15  A    between atoms: C_19  and  C_20 
REMARK   16  A    between atoms: C_20  and  O_22 
ROOT
HETATM    1  C   UNL     1     -24.004  -3.186 -11.423  1.00  0.00     0.219 C 
HETATM    2  O   UNL     1     -24.978  -3.248 -10.668  1.00  0.00    -0.273 OA
HETATM    3  N   UNL     1     -24.152  -2.923 -12.782  1.00  0.00    -0.347 N 
ENDROOT
BRANCH   1   4
HETATM    4  C   UNL     1     -22.617  -3.353 -10.845  1.00  0.00     0.103 C 
BRANCH   4   5
HETATM    5  C   UNL     1     -22.572  -4.429  -9.764  1.00  0.00     0.009 C 
BRANCH   5   6
HETATM    6  C   UNL     1     -21.635  -3.996  -8.633  1.00  0.00     0.000 C 
BRANCH   6   7
HETATM    7  C   UNL     1     -20.219  -4.553  -8.760  1.00  0.00     0.000 C 
BRANCH   7   8
HETATM    8  C   UNL     1     -19.861  -5.534  -7.644  1.00  0.00     0.000 C 
BRANCH   8   9
HETATM    9  C   UNL     1     -19.462  -4.780  -6.380  1.00  0.00     0.000 C 
BRANCH   9  10
HETATM   10  C   UNL     1     -20.445  -5.050  -5.247  1.00  0.00     0.000 C 
BRANCH  10  11
HETATM   11  C   UNL     1     -21.305  -6.267  -5.571  1.00  0.00     0.000 C 
BRANCH  11  12
HETATM   12  C   UNL     1     -22.065  -6.743  -4.338  1.00  0.00    -0.000 C 
BRANCH  12  13
HETATM   13  C   UNL     1     -21.298  -6.414  -3.061  1.00  0.00    -0.005 C 
HETATM   14  C   UNL     1     -22.245  -6.204  -1.895  1.00  0.00     0.005 C 
ENDBRANCH  12  13
ENDBRANCH  11  12
ENDBRANCH  10  11
ENDBRANCH   9  10
ENDBRANCH   8   9
ENDBRANCH   7   8
ENDBRANCH   6   7
ENDBRANCH   5   6
ENDBRANCH   4   5
ENDBRANCH   1   4
BRANCH   3  15
HETATM   15  C   UNL     1     -23.062  -2.865 -13.770  1.00  0.00     0.157 C 
BRANCH  15  16
HETATM   16  C   UNL     1     -22.368  -4.203 -14.113  1.00  0.00     0.132 C 
HETATM   17  C   UNL     1     -23.244  -5.444 -13.997  1.00  0.00     0.041 C 
BRANCH  16  18
HETATM   18  O   UNL     1     -21.886  -4.130 -15.464  1.00  0.00    -0.394 OA
HETATM   19  H   UNL     1     -20.935  -3.924 -15.440  1.00  0.00     0.210 HD
ENDBRANCH  16  18
ENDBRANCH  15  16
ENDBRANCH   3  15
BRANCH   3  20
HETATM   20  C   UNL     1     -25.508  -2.657 -13.256  1.00  0.00     0.157 C 
BRANCH  20  21
HETATM   21  C   UNL     1     -25.691  -2.737 -14.792  1.00  0.00     0.132 C 
HETATM   22  C   UNL     1     -26.340  -4.035 -15.264  1.00  0.00     0.041 C 
BRANCH  21  23
HETATM   23  O   UNL     1     -26.504  -1.644 -15.227  1.00  0.00    -0.394 OA
HETATM   24  H   UNL     1     -26.833  -1.841 -16.121  1.00  0.00     0.210 HD
ENDBRANCH  21  23
ENDBRANCH  20  21
ENDBRANCH   3  20
TORSDOF 16
BEGIN_RES ARG D 557
REMARK  4 active torsions:
REMARK  status: ('A' for Active; 'I' for Inactive)
REMARK    1  A    between atoms: CA   and  CB  
REMARK    2  A    between atoms: CB   and  CG  
REMARK    3  A    between atoms: CG   and  CD  
REMARK    4  A    between atoms: CD   and  NE  
REMARK       I    between atoms: NE   and  CZ  
REMARK       I    between atoms: CZ   and  NH1 
REMARK       I    between atoms: CZ   and  NH2 
ROOT
ATOM      1  CA  ARG D 557     -26.217   2.705 -17.014  1.00 35.49     0.159 C 
ENDROOT
BRANCH   1   2
ATOM      2  CB  ARG D 557     -26.789   1.319 -17.183  1.00 35.49     0.034 C 
BRANCH   2   3
ATOM      3  CG  ARG D 557     -28.137   1.091 -16.649  1.00 35.49     0.027 C 
BRANCH   3   4
ATOM      4  CD  ARG D 557     -28.897   0.098 -17.442  1.00 35.49     0.116 C 
BRANCH   4   5
ATOM      5  NE  ARG D 557     -28.421  -1.244 -17.230  1.00 35.49    -0.212 N 
ATOM      6  CZ  ARG D 557     -29.150  -2.336 -17.287  1.00 35.49     0.666 C 
ATOM      7  NH1 ARG D 557     -30.446  -2.311 -17.540  1.00 35.49    -0.235 N 
ATOM      8  NH2 ARG D 557     -28.546  -3.472 -17.090  1.00 35.49    -0.235 N 
ATOM      9  HH  ARG D 557     -30.863  -1.575 -17.675  1.00 35.49     0.174 HD
ATOM     10  HH  ARG D 557     -30.869  -3.056 -17.567  1.00 35.49     0.174 HD
ATOM     11  HH  ARG D 557     -27.707  -3.458 -16.936  1.00 35.49     0.174 HD
ATOM     12  HH  ARG D 557     -28.983  -4.198 -17.122  1.00 35.49     0.174 HD
ATOM     13  HE  ARG D 557     -27.612  -1.347 -16.990  1.00 35.49     0.178 HD
ENDBRANCH   4   5
ENDBRANCH   3   4
ENDBRANCH   2   3
ENDBRANCH   1   2
END_RES ARG D 557
BEGIN_RES GLU D 570
REMARK  3 active torsions:
REMARK  status: ('A' for Active; 'I' for Inactive)
REMARK    5  A    between atoms: CA   and  CB  
REMARK    6  A    between atoms: CB   and  CG  
REMARK    7  A    between atoms: CG   and  CD  
ROOT
ATOM     14  CA  GLU D 570     -18.033  -6.348 -13.375  1.00 32.92     0.160 C 
ENDROOT
BRANCH  14  15
ATOM     15  CB  GLU D 570     -19.500  -6.345 -13.794  1.00 32.92     0.043 C 
BRANCH  15  16
ATOM     16  CG  GLU D 570     -20.091  -7.637 -14.228  1.00 32.92     0.100 C 
BRANCH  16  17
ATOM     17  CD  GLU D 570     -20.665  -7.584 -15.624  1.00 32.92     0.185 C 
ATOM     18  OE1 GLU D 570     -21.214  -8.600 -16.092  1.00 32.92    -0.647 OA
ATOM     19  OE2 GLU D 570     -20.549  -6.520 -16.264  1.00 32.92    -0.647 OA
ENDBRANCH  16  17
ENDBRANCH  15  16
ENDBRANCH  14  15
END_RES GLU D 570
ENDMDL
MODEL 3
REMARK VINA RESULT:      -7.1      0.835      2.243
REMARK  16 active torsions:
REMARK  status: ('A' for Active; 'I' for Inactive)
REMARK    1  A    between atoms: C_2  and  C_3 
REMARK    2  A    between atoms: C_3  and  C_4 
REMARK    3  A    between atoms: C_4  and  C_5 
REMARK    4  A    between atoms: C_5  and  C_6 
REMARK    5  A    between atoms: C_6  and  C_7 
REMARK    6  A    between atoms: C_7  and  C_8 
REMARK    7  A    between atoms: C_8  and  C_9 
REMARK    8  A    between atoms: C_9  and  C_10 
REMARK    9  A    between atoms: C_10  and  C_11 
REMARK   10  A    between atoms: C_11  and  C_12 
REMARK       I    between atoms: C_12  and  N_14 
REMARK   11  A    between atoms: N_14  and  C_15 
REMARK   12  A    between atoms: N_14  and  C_19 
REMARK   13  A    between atoms: C_15  and  C_16 
REMARK   14  A    between atoms: C_16  and  O_18 
REMARK   15  A    between atoms: C_19  and  C_20 
REMARK   16  A    between atoms: C_20  and  O_22 
ROOT
HETATM    1  C   UNL     1     -21.102  -3.629 -10.911  1.00  0.00     0.219 C 
HETATM    2  O   UNL     1     -20.299  -2.734 -11.189  1.00  0.00    -0.273 OA
HETATM    3  N   UNL     1     -22.374  -3.667 -11.475  1.00  0.00    -0.347 N 
ENDROOT
BRANCH   1   4
HETATM    4  C   UNL     1     -20.672  -4.734  -9.973  1.00  0.00     0.103 C 
BRANCH   4   5
HETATM    5  C   UNL     1     -19.682  -4.241  -8.922  1.00  0.00     0.009 C 
BRANCH   5   6
HETATM    6  C   UNL     1     -20.401  -4.027  -7.586  1.00  0.00     0.000 C 
BRANCH   6   7
HETATM    7  C   UNL     1     -19.993  -5.020  -6.502  1.00  0.00     0.000 C 
BRANCH   7   8
HETATM    8  C   UNL     1     -20.941  -6.213  -6.397  1.00  0.00     0.000 C 
BRANCH   8   9
HETATM    9  C   UNL     1     -20.707  -6.967  -5.092  1.00  0.00     0.000 C 
BRANCH   9  10
HETATM   10  C   UNL     1     -21.872  -6.770  -4.130  1.00  0.00     0.000 C 
BRANCH  10  11
HETATM   11  C   UNL     1     -21.410  -6.022  -2.883  1.00  0.00     0.000 C 
BRANCH  11  12
HETATM   12  C   UNL     1     -22.305  -6.340  -1.691  1.00  0.00    -0.000 C 
BRANCH  12  13
HETATM   13  C   UNL     1     -21.989  -7.720  -1.123  1.00  0.00    -0.005 C 
HETATM   14  C   UNL     1     -22.717  -7.950   0.188  1.00  0.00     0.005 C 
ENDBRANCH  12  13
ENDBRANCH  11  12
ENDBRANCH  10  11
ENDBRANCH   9  10
ENDBRANCH   8   9
ENDBRANCH   7   8
ENDBRANCH   6   7
ENDBRANCH   5   6
ENDBRANCH   4   5
ENDBRANCH   1   4
BRANCH   3  15
HETATM   15  C   UNL     1     -23.414  -4.666 -11.183  1.00  0.00     0.157 C 
BRANCH  15  16
HETATM   16  C   UNL     1     -24.417  -4.313 -10.062  1.00  0.00     0.132 C 
HETATM   17  C   UNL     1     -23.796  -3.877  -8.741  1.00  0.00     0.041 C 
BRANCH  16  18
HETATM   18  O   UNL     1     -25.259  -3.247 -10.524  1.00  0.00    -0.394 OA
HETATM   19  H   UNL     1     -25.915  -3.618 -11.142  1.00  0.00     0.210 HD
ENDBRANCH  16  18
ENDBRANCH  15  16
ENDBRANCH   3  15
BRANCH   3  20
HETATM   20  C   UNL     1     -22.686  -2.636 -12.461  1.00  0.00     0.157 C 
BRANCH  20  21
HETATM   21  C   UNL     1     -23.375  -3.150 -13.750  1.00  0.00     0.132 C 
HETATM   22  C   UNL     1     -24.783  -2.598 -13.953  1.00  0.00     0.041 C 
BRANCH  21  23
HETATM   23  O   UNL     1     -22.582  -2.789 -14.884  1.00  0.00    -0.394 OA
HETATM   24  H   UNL     1     -22.021  -3.546 -15.122  1.00  0.00     0.210 HD
ENDBRANCH  21  23
ENDBRANCH  20  21
ENDBRANCH   3  20
TORSDOF 16
BEGIN_RES ARG D 557
REMARK  4 active torsions:
REMARK  status: ('A' for Active; 'I' for Inactive)
REMARK    1  A    between atoms: CA   and  CB  
REMARK    2  A    between atoms: CB   and  CG  
REMARK    3  A    between atoms: CG   and  CD  
REMARK    4  A    between atoms: CD   and  NE  
REMARK       I    between atoms: NE   and  CZ  
REMARK       I    between atoms: CZ   and  NH1 
REMARK       I    between atoms: CZ   and  NH2 
ROOT
ATOM      1  CA  ARG D 557     -26.217   2.705 -17.014  1.00 35.49     0.159 C 
ENDROOT
BRANCH   1   2
ATOM      2  CB  ARG D 557     -26.789   1.319 -17.183  1.00 35.49     0.034 C 
BRANCH   2   3
ATOM      3  CG  ARG D 557     -28.239   1.223 -17.389  1.00 35.49     0.027 C 
BRANCH   3   4
ATOM      4  CD  ARG D 557     -28.882   0.279 -16.447  1.00 35.49     0.116 C 
BRANCH   4   5
ATOM      5  NE  ARG D 557     -29.305  -0.933 -17.099  1.00 35.49    -0.212 N 
ATOM      6  CZ  ARG D 557     -28.694  -2.094 -17.032  1.00 35.49     0.666 C 
ATOM      7  NH1 ARG D 557     -27.579  -2.271 -16.347  1.00 35.49    -0.235 N 
ATOM      8  NH2 ARG D 557     -29.232  -3.093 -17.670  1.00 35.49    -0.235 N 
ATOM      9  HH  ARG D 557     -27.209  -1.628 -15.918  1.00 35.49     0.174 HD
ATOM     10  HH  ARG D 557     -27.227  -3.052 -16.337  1.00 35.49     0.174 HD
ATOM     11  HH  ARG D 557     -29.955  -2.951 -18.098  1.00 35.49     0.174 HD
ATOM     12  HH  ARG D 557     -28.868  -3.859 -17.647  1.00 35.49     0.174 HD
ATOM     13  HE  ARG D 557     -29.975  -0.893 -17.621  1.00 35.49     0.178 HD
ENDBRANCH   4   5
ENDBRANCH   3   4
ENDBRANCH   2   3
ENDBRANCH   1   2
END_RES ARG D 557
BEGIN_RES GLU D 570
REMARK  3 active torsions:
REMARK  status: ('A' for Active; 'I' for Inactive)
REMARK    5  A    between atoms: CA   and  CB  
REMARK    6  A    between atoms: CB   and  CG  
REMARK    7  A    between atoms: CG   and  CD  
ROOT
ATOM     14  CA  GLU D 570     -18.033  -6.348 -13.375  1.00 32.92     0.160 C 
ENDROOT
BRANCH  14  15
ATOM     15  CB  GLU D 570     -19.500  -6.345 -13.794  1.00 32.92     0.043 C 
BRANCH  15  16
ATOM     16  CG  GLU D 570     -19.806  -6.021 -15.211  1.00 32.92     0.100 C 
BRANCH  16  17
ATOM     17  CD  GLU D 570     -21.283  -5.824 -15.465  1.00 32.92     0.185 C 
ATOM     18  OE1 GLU D 570     -22.106  -6.369 -14.705  1.00 32.92    -0.647 OA
ATOM     19  OE2 GLU D 570     -21.620  -5.130 -16.444  1.00 32.92    -0.647 OA
ENDBRANCH  16  17
ENDBRANCH  15  16
ENDBRANCH  14  15
END_RES GLU D 570
ENDMDL
MODEL 4
REMARK VINA RESULT:      -6.4      1.636      2.990
REMARK  16 active torsions:
REMARK  status: ('A' for Active; 'I' for Inactive)
REMARK    1  A    between atoms: C_2  and  C_3 
REMARK    2  A    between atoms: C_3  and  C_4 
REMARK    3  A    between atoms: C_4  and  C_5 
REMARK    4  A    between atoms: C_5  and  C_6 
REMARK    5  A    between atoms: C_6  and  C_7 
REMARK    6  A    between atoms: C_7  and  C_8 
REMARK    7  A    between atoms: C_8  and  C_9 
REMARK    8  A    between atoms: C_9  and  C_10 
REMARK    9  A    between atoms: C_10  and  C_11 
REMARK   10  A    between atoms: C_11  and  C_12 
REMARK       I    between atoms: C_12  and  N_14 
REMARK   11  A    between atoms: N_14  and  C_15 
REMARK   12  A    between atoms: N_14  and  C_19 
REMARK   13  A    between atoms: C_15  and  C_16 
REMARK   14  A    between atoms: C_16  and  O_18 
REMARK   15  A    between atoms: C_19  and  C_20 
REMARK   16  A    between atoms: C_20  and  O_22 
ROOT
HETATM    1  C   UNL     1     -23.465  -4.645 -12.672  1.00  0.00     0.219 C 
HETATM    2  O   UNL     1     -22.615  -5.527 -12.518  1.00  0.00    -0.273 OA
HETATM    3  N   UNL     1     -24.092  -4.445 -13.898  1.00  0.00    -0.347 N 
ENDROOT
BRANCH   1   4
HETATM    4  C   UNL     1     -23.863  -3.796 -11.486  1.00  0.00     0.103 C 
BRANCH   4   5
HETATM    5  C   UNL     1     -23.551  -4.483 -10.159  1.00  0.00     0.009 C 
BRANCH   5   6
HETATM    6  C   UNL     1     -22.469  -3.702  -9.407  1.00  0.00     0.000 C 
BRANCH   6   7
HETATM    7  C   UNL     1     -21.078  -4.321  -9.512  1.00  0.00     0.000 C 
BRANCH   7   8
HETATM    8  C   UNL     1     -20.208  -4.047  -8.285  1.00  0.00     0.000 C 
BRANCH   8   9
HETATM    9  C   UNL     1     -21.061  -4.027  -7.021  1.00  0.00     0.000 C 
BRANCH   9  10
HETATM   10  C   UNL     1     -20.510  -4.988  -5.974  1.00  0.00     0.000 C 
BRANCH  10  11
HETATM   11  C   UNL     1     -21.628  -5.862  -5.416  1.00  0.00     0.000 C 
BRANCH  11  12
HETATM   12  C   UNL     1     -21.137  -6.694  -4.237  1.00  0.00    -0.000 C 
BRANCH  12  13
HETATM   13  C   UNL     1     -21.843  -6.285  -2.948  1.00  0.00    -0.005 C 
HETATM   14  C   UNL     1     -21.528  -7.253  -1.823  1.00  0.00     0.005 C 
ENDBRANCH  12  13
ENDBRANCH  11  12
ENDBRANCH  10  11
ENDBRANCH   9  10
ENDBRANCH   8   9
ENDBRANCH   7   8
ENDBRANCH   6   7
ENDBRANCH   5   6
ENDBRANCH   4   5
ENDBRANCH   1   4
BRANCH   3  15
HETATM   15  C   UNL     1     -25.086  -3.401 -14.195  1.00  0.00     0.157 C 
BRANCH  15  16
HETATM   16  C   UNL     1     -24.547  -1.965 -14.382  1.00  0.00     0.132 C 
HETATM   17  C   UNL     1     -23.169  -1.862 -15.024  1.00  0.00     0.041 C 
BRANCH  16  18
HETATM   18  O   UNL     1     -25.470  -1.236 -15.205  1.00  0.00    -0.394 OA
HETATM   19  H   UNL     1     -25.176  -1.302 -16.130  1.00  0.00     0.210 HD
ENDBRANCH  16  18
ENDBRANCH  15  16
ENDBRANCH   3  15
BRANCH   3  20
HETATM   20  C   UNL     1     -23.747  -5.373 -14.972  1.00  0.00     0.157 C 
BRANCH  20  21
HETATM   21  C   UNL     1     -24.720  -6.565 -15.144  1.00  0.00     0.132 C 
HETATM   22  C   UNL     1     -25.976  -6.220 -15.941  1.00  0.00     0.041 C 
BRANCH  21  23
HETATM   23  O   UNL     1     -24.044  -7.634 -15.811  1.00  0.00    -0.394 OA
HETATM   24  H   UNL     1     -24.565  -8.447 -15.698  1.00  0.00     0.210 HD
ENDBRANCH  21  23
ENDBRANCH  20  21
ENDBRANCH   3  20
TORSDOF 16
BEGIN_RES ARG D 557
REMARK  4 active torsions:
REMARK  status: ('A' for Active; 'I' for Inactive)
REMARK    1  A    between atoms: CA   and  CB  
REMARK    2  A    between atoms: CB   and  CG  
REMARK    3  A    between atoms: CG   and  CD  
REMARK    4  A    between atoms: CD   and  NE  
REMARK       I    between atoms: NE   and  CZ  
REMARK       I    between atoms: CZ   and  NH1 
REMARK       I    between atoms: CZ   and  NH2 
ROOT
ATOM      1  CA  ARG D 557     -26.217   2.705 -17.014  1.00 35.49     0.159 C 
ENDROOT
BRANCH   1   2
ATOM      2  CB  ARG D 557     -26.789   1.319 -17.183  1.00 35.49     0.034 C 
BRANCH   2   3
ATOM      3  CG  ARG D 557     -28.231   1.226 -17.442  1.00 35.49     0.027 C 
BRANCH   3   4
ATOM      4  CD  ARG D 557     -28.917   0.316 -16.496  1.00 35.49     0.116 C 
BRANCH   4   5
ATOM      5  NE  ARG D 557     -28.190  -0.910 -16.301  1.00 35.49    -0.212 N 
ATOM      6  CZ  ARG D 557     -28.519  -2.084 -16.792  1.00 35.49     0.666 C 
ATOM      7  NH1 ARG D 557     -29.598  -2.267 -17.531  1.00 35.49    -0.235 N 
ATOM      8  NH2 ARG D 557     -27.731  -3.086 -16.530  1.00 35.49    -0.235 N 
ATOM      9  HH  ARG D 557     -30.129  -1.621 -17.717  1.00 35.49     0.174 HD
ATOM     10  HH  ARG D 557     -29.760  -3.055 -17.826  1.00 35.49     0.174 HD
ATOM     11  HH  ARG D 557     -27.037  -2.937 -16.057  1.00 35.49     0.174 HD
ATOM     12  HH  ARG D 557     -27.908  -3.858 -16.833  1.00 35.49     0.174 HD
ATOM     13  HE  ARG D 557     -27.521  -0.899 -15.777  1.00 35.49     0.178 HD
ENDBRANCH   4   5
ENDBRANCH   3   4
ENDBRANCH   2   3
ENDBRANCH   1   2
END_RES ARG D 557
BEGIN_RES GLU D 570
REMARK  3 active torsions:
REMARK  status: ('A' for Active; 'I' for Inactive)
REMARK    5  A    between atoms: CA   and  CB  
REMARK    6  A    between atoms: CB   and  CG  
REMARK    7  A    between atoms: CG   and  CD  
ROOT
ATOM     14  CA  GLU D 570     -18.033  -6.348 -13.375  1.00 32.92     0.160 C 
ENDROOT
BRANCH  14  15
ATOM     15  CB  GLU D 570     -19.500  -6.345 -13.794  1.00 32.92     0.043 C 
BRANCH  15  16
ATOM     16  CG  GLU D 570     -20.088  -7.635 -14.238  1.00 32.92     0.100 C 
BRANCH  16  17
ATOM     17  CD  GLU D 570     -20.676  -7.568 -15.628  1.00 32.92     0.185 C 
ATOM     18  OE1 GLU D 570     -21.221  -8.582 -16.104  1.00 32.92    -0.647 OA
ATOM     19  OE2 GLU D 570     -20.576  -6.494 -16.254  1.00 32.92    -0.647 OA
ENDBRANCH  16  17
ENDBRANCH  15  16
ENDBRANCH  14  15
END_RES GLU D 570
ENDMDL
MODEL 5
REMARK VINA RESULT:      -6.1      3.961      7.944
REMARK  16 active torsions:
REMARK  status: ('A' for Active; 'I' for Inactive)
REMARK    1  A    between atoms: C_2  and  C_3 
REMARK    2  A    between atoms: C_3  and  C_4 
REMARK    3  A    between atoms: C_4  and  C_5 
REMARK    4  A    between atoms: C_5  and  C_6 
REMARK    5  A    between atoms: C_6  and  C_7 
REMARK    6  A    between atoms: C_7  and  C_8 
REMARK    7  A    between atoms: C_8  and  C_9 
REMARK    8  A    between atoms: C_9  and  C_10 
REMARK    9  A    between atoms: C_10  and  C_11 
REMARK   10  A    between atoms: C_11  and  C_12 
REMARK       I    between atoms: C_12  and  N_14 
REMARK   11  A    between atoms: N_14  and  C_15 
REMARK   12  A    between atoms: N_14  and  C_19 
REMARK   13  A    between atoms: C_15  and  C_16 
REMARK   14  A    between atoms: C_16  and  O_18 
REMARK   15  A    between atoms: C_19  and  C_20 
REMARK   16  A    between atoms: C_20  and  O_22 
ROOT
HETATM    1  C   UNL     1     -21.106  -7.789  -4.817  1.00  0.00     0.219 C 
HETATM    2  O   UNL     1     -21.208  -8.526  -5.802  1.00  0.00    -0.273 OA
HETATM    3  N   UNL     1     -20.977  -8.306  -3.532  1.00  0.00    -0.347 N 
ENDROOT
BRANCH   1   4
HETATM    4  C   UNL     1     -21.073  -6.291  -5.022  1.00  0.00     0.103 C 
BRANCH   4   5
HETATM    5  C   UNL     1     -20.598  -5.915  -6.423  1.00  0.00     0.009 C 
BRANCH   5   6
HETATM    6  C   UNL     1     -21.671  -5.084  -7.134  1.00  0.00     0.000 C 
BRANCH   6   7
HETATM    7  C   UNL     1     -21.146  -3.780  -7.728  1.00  0.00     0.000 C 
BRANCH   7   8
HETATM    8  C   UNL     1     -19.864  -3.966  -8.538  1.00  0.00     0.000 C 
BRANCH   8   9
HETATM    9  C   UNL     1     -20.165  -4.668  -9.858  1.00  0.00     0.000 C 
BRANCH   9  10
HETATM   10  C   UNL     1     -20.572  -3.665 -10.931  1.00  0.00     0.000 C 
BRANCH  10  11
HETATM   11  C   UNL     1     -21.925  -4.043 -11.524  1.00  0.00     0.000 C 
BRANCH  11  12
HETATM   12  C   UNL     1     -22.716  -2.801 -11.920  1.00  0.00    -0.000 C 
BRANCH  12  13
HETATM   13  C   UNL     1     -24.213  -3.092 -11.946  1.00  0.00    -0.005 C 
HETATM   14  C   UNL     1     -24.769  -2.970 -13.353  1.00  0.00     0.005 C 
ENDBRANCH  12  13
ENDBRANCH  11  12
ENDBRANCH  10  11
ENDBRANCH   9  10
ENDBRANCH   8   9
ENDBRANCH   7   8
ENDBRANCH   6   7
ENDBRANCH   5   6
ENDBRANCH   4   5
ENDBRANCH   1   4
BRANCH   3  15
HETATM   15  C   UNL     1     -20.887  -7.517  -2.292  1.00  0.00     0.157 C 
BRANCH  15  16
HETATM   16  C   UNL     1     -22.223  -7.131  -1.619  1.00  0.00     0.132 C 
HETATM   17  C   UNL     1     -22.305  -7.406  -0.123  1.00  0.00     0.041 C 
BRANCH  16  18
HETATM   18  O   UNL     1     -22.445  -5.727  -1.820  1.00  0.00    -0.394 OA
HETATM   19  H   UNL     1     -21.671  -5.242  -1.485  1.00  0.00     0.210 HD
ENDBRANCH  16  18
ENDBRANCH  15  16
ENDBRANCH   3  15
BRANCH   3  20
HETATM   20  C   UNL     1     -20.899  -9.759  -3.413  1.00  0.00     0.157 C 
BRANCH  20  21
HETATM   21  C   UNL     1     -22.253 -10.469  -3.160  1.00  0.00     0.132 C 
HETATM   22  C   UNL     1     -22.432 -11.750  -3.970  1.00  0.00     0.041 C 
BRANCH  21  23
HETATM   23  O   UNL     1     -22.362 -10.795  -1.772  1.00  0.00    -0.394 OA
HETATM   24  H   UNL     1     -21.485 -10.703  -1.364  1.00  0.00     0.210 HD
ENDBRANCH  21  23
ENDBRANCH  20  21
ENDBRANCH   3  20
TORSDOF 16
BEGIN_RES ARG D 557
REMARK  4 active torsions:
REMARK  status: ('A' for Active; 'I' for Inactive)
REMARK    1  A    between atoms: CA   and  CB  
REMARK    2  A    between atoms: CB   and  CG  
REMARK    3  A    between atoms: CG   and  CD  
REMARK    4  A    between atoms: CD   and  NE  
REMARK       I    between atoms: NE   and  CZ  
REMARK       I    between atoms: CZ   and  NH1 
REMARK       I    between atoms: CZ   and  NH2 
ROOT
ATOM      1  CA  ARG D 557     -26.217   2.705 -17.014  1.00 35.49     0.159 C 
ENDROOT
BRANCH   1   2
ATOM      2  CB  ARG D 557     -26.789   1.319 -17.183  1.00 35.49     0.034 C 
BRANCH   2   3
ATOM      3  CG  ARG D 557     -28.230   1.227 -17.448  1.00 35.49     0.027 C 
BRANCH   3   4
ATOM      4  CD  ARG D 557     -28.918   0.309 -16.511  1.00 35.49     0.116 C 
BRANCH   4   5
ATOM      5  NE  ARG D 557     -29.317  -0.918 -17.148  1.00 35.49    -0.212 N 
ATOM      6  CZ  ARG D 557     -28.706  -2.076 -17.034  1.00 35.49     0.666 C 
ATOM      7  NH1 ARG D 557     -27.615  -2.234 -16.308  1.00 35.49    -0.235 N 
ATOM      8  NH2 ARG D 557     -29.220  -3.090 -17.667  1.00 35.49    -0.235 N 
ATOM      9  HH  ARG D 557     -27.261  -1.581 -15.881  1.00 35.49     0.174 HD
ATOM     10  HH  ARG D 557     -27.261  -3.013 -16.268  1.00 35.49     0.174 HD
ATOM     11  HH  ARG D 557     -29.929  -2.960 -18.122  1.00 35.49     0.174 HD
ATOM     12  HH  ARG D 557     -28.856  -3.855 -17.614  1.00 35.49     0.174 HD
ATOM     13  HE  ARG D 557     -29.969  -0.891 -17.693  1.00 35.49     0.178 HD
ENDBRANCH   4   5
ENDBRANCH   3   4
ENDBRANCH   2   3
ENDBRANCH   1   2
END_RES ARG D 557
BEGIN_RES GLU D 570
REMARK  3 active torsions:
REMARK  status: ('A' for Active; 'I' for Inactive)
REMARK    5  A    between atoms: CA   and  CB  
REMARK    6  A    between atoms: CB   and  CG  
REMARK    7  A    between atoms: CG   and  CD  
ROOT
ATOM     14  CA  GLU D 570     -18.033  -6.348 -13.375  1.00 32.92     0.160 C 
ENDROOT
BRANCH  14  15
ATOM     15  CB  GLU D 570     -19.500  -6.345 -13.794  1.00 32.92     0.043 C 
BRANCH  15  16
ATOM     16  CG  GLU D 570     -20.099  -7.643 -14.198  1.00 32.92     0.100 C 
BRANCH  16  17
ATOM     17  CD  GLU D 570     -20.622  -7.635 -15.616  1.00 32.92     0.185 C 
ATOM     18  OE1 GLU D 570     -21.016  -8.703 -16.122  1.00 32.92    -0.647 OA
ATOM     19  OE2 GLU D 570     -20.623  -6.551 -16.232  1.00 32.92    -0.647 OA
ENDBRANCH  16  17
ENDBRANCH  15  16
ENDBRANCH  14  15
END_RES GLU D 570
ENDMDL
MODEL 6
REMARK VINA RESULT:      -5.9      3.917      6.988
REMARK  16 active torsions:
REMARK  status: ('A' for Active; 'I' for Inactive)
REMARK    1  A    between atoms: C_2  and  C_3 
REMARK    2  A    between atoms: C_3  and  C_4 
REMARK    3  A    between atoms: C_4  and  C_5 
REMARK    4  A    between atoms: C_5  and  C_6 
REMARK    5  A    between atoms: C_6  and  C_7 
REMARK    6  A    between atoms: C_7  and  C_8 
REMARK    7  A    between atoms: C_8  and  C_9 
REMARK    8  A    between atoms: C_9  and  C_10 
REMARK    9  A    between atoms: C_10  and  C_11 
REMARK   10  A    between atoms: C_11  and  C_12 
REMARK       I    between atoms: C_12  and  N_14 
REMARK   11  A    between atoms: N_14  and  C_15 
REMARK   12  A    between atoms: N_14  and  C_19 
REMARK   13  A    between atoms: C_15  and  C_16 
REMARK   14  A    between atoms: C_16  and  O_18 
REMARK   15  A    between atoms: C_19  and  C_20 
REMARK   16  A    between atoms: C_20  and  O_22 
ROOT
HETATM    1  C   UNL     1     -21.643  -6.732  -2.630  1.00  0.00     0.219 C 
HETATM    2  O   UNL     1     -21.933  -5.578  -2.304  1.00  0.00    -0.273 OA
HETATM    3  N   UNL     1     -21.148  -7.028  -3.897  1.00  0.00    -0.347 N 
ENDROOT
BRANCH   1   4
HETATM    4  C   UNL     1     -21.786  -7.840  -1.611  1.00  0.00     0.103 C 
BRANCH   4   5
HETATM    5  C   UNL     1     -22.581  -7.392  -0.387  1.00  0.00     0.009 C 
BRANCH   5   6
HETATM    6  C   UNL     1     -22.272  -8.309   0.801  1.00  0.00     0.000 C 
BRANCH   6   7
HETATM    7  C   UNL     1     -20.858  -8.882   0.785  1.00  0.00     0.000 C 
BRANCH   7   8
HETATM    8  C   UNL     1     -20.812 -10.369   1.136  1.00  0.00     0.000 C 
BRANCH   8   9
HETATM    9  C   UNL     1     -19.662 -11.053   0.405  1.00  0.00     0.000 C 
BRANCH   9  10
HETATM   10  C   UNL     1     -20.167 -11.836  -0.800  1.00  0.00     0.000 C 
BRANCH  10  11
HETATM   11  C   UNL     1     -21.673 -12.057  -0.696  1.00  0.00     0.000 C 
BRANCH  11  12
HETATM   12  C   UNL     1     -22.395 -11.498  -1.916  1.00  0.00    -0.000 C 
BRANCH  12  13
HETATM   13  C   UNL     1     -23.867 -11.242  -1.610  1.00  0.00    -0.005 C 
HETATM   14  C   UNL     1     -24.117 -11.214  -0.114  1.00  0.00     0.005 C 
ENDBRANCH  12  13
ENDBRANCH  11  12
ENDBRANCH  10  11
ENDBRANCH   9  10
ENDBRANCH   8   9
ENDBRANCH   7   8
ENDBRANCH   6   7
ENDBRANCH   5   6
ENDBRANCH   4   5
ENDBRANCH   1   4
BRANCH   3  15
HETATM   15  C   UNL     1     -20.809  -8.371  -4.395  1.00  0.00     0.157 C 
BRANCH  15  16
HETATM   16  C   UNL     1     -19.306  -8.716  -4.486  1.00  0.00     0.132 C 
HETATM   17  C   UNL     1     -18.859  -9.917  -3.661  1.00  0.00     0.041 C 
BRANCH  16  18
HETATM   18  O   UNL     1     -18.983  -8.983  -5.860  1.00  0.00    -0.394 OA
HETATM   19  H   UNL     1     -18.022  -9.125  -5.928  1.00  0.00     0.210 HD
ENDBRANCH  16  18
ENDBRANCH  15  16
ENDBRANCH   3  15
BRANCH   3  20
HETATM   20  C   UNL     1     -20.924  -5.899  -4.795  1.00  0.00     0.157 C 
BRANCH  20  21
HETATM   21  C   UNL     1     -21.353  -6.136  -6.265  1.00  0.00     0.132 C 
HETATM   22  C   UNL     1     -22.047  -4.935  -6.901  1.00  0.00     0.041 C 
BRANCH  21  23
HETATM   23  O   UNL     1     -20.200  -6.457  -7.047  1.00  0.00    -0.394 OA
HETATM   24  H   UNL     1     -20.098  -5.779  -7.737  1.00  0.00     0.210 HD
ENDBRANCH  21  23
ENDBRANCH  20  21
ENDBRANCH   3  20
TORSDOF 16
BEGIN_RES ARG D 557
REMARK  4 active torsions:
REMARK  status: ('A' for Active; 'I' for Inactive)
REMARK    1  A    between atoms: CA   and  CB  
REMARK    2  A    between atoms: CB   and  CG  
REMARK    3  A    between atoms: CG   and  CD  
REMARK    4  A    between atoms: CD   and  NE  
REMARK       I    between atoms: NE   and  CZ  
REMARK       I    between atoms: CZ   and  NH1 
REMARK       I    between atoms: CZ   and  NH2 
ROOT
ATOM      1  CA  ARG D 557     -26.217   2.705 -17.014  1.00 35.49     0.159 C 
ENDROOT
BRANCH   1   2
ATOM      2  CB  ARG D 557     -26.789   1.319 -17.183  1.00 35.49     0.034 C 
BRANCH   2   3
ATOM      3  CG  ARG D 557     -28.223   1.228 -17.481  1.00 35.49     0.027 C 
BRANCH   3   4
ATOM      4  CD  ARG D 557     -28.939   0.330 -16.546  1.00 35.49     0.116 C 
BRANCH   4   5
ATOM      5  NE  ARG D 557     -29.294  -0.921 -17.160  1.00 35.49    -0.212 N 
ATOM      6  CZ  ARG D 557     -28.646  -2.056 -17.023  1.00 35.49     0.666 C 
ATOM      7  NH1 ARG D 557     -27.553  -2.164 -16.290  1.00 35.49    -0.235 N 
ATOM      8  NH2 ARG D 557     -29.124  -3.099 -17.637  1.00 35.49    -0.235 N 
ATOM      9  HH  ARG D 557     -27.222  -1.491 -15.876  1.00 35.49     0.174 HD
ATOM     10  HH  ARG D 557     -27.174  -2.931 -16.235  1.00 35.49     0.174 HD
ATOM     11  HH  ARG D 557     -29.835  -3.001 -18.097  1.00 35.49     0.174 HD
ATOM     12  HH  ARG D 557     -28.735  -3.850 -17.569  1.00 35.49     0.174 HD
ATOM     13  HE  ARG D 557     -29.945  -0.927 -17.708  1.00 35.49     0.178 HD
ENDBRANCH   4   5
ENDBRANCH   3   4
ENDBRANCH   2   3
ENDBRANCH   1   2
END_RES ARG D 557
BEGIN_RES GLU D 570
REMARK  3 active torsions:
REMARK  status: ('A' for Active; 'I' for Inactive)
REMARK    5  A    between atoms: CA   and  CB  
REMARK    6  A    between atoms: CB   and  CG  
REMARK    7  A    between atoms: CG   and  CD  
ROOT
ATOM     14  CA  GLU D 570     -18.033  -6.348 -13.375  1.00 32.92     0.160 C 
ENDROOT
BRANCH  14  15
ATOM     15  CB  GLU D 570     -19.500  -6.345 -13.794  1.00 32.92     0.043 C 
BRANCH  15  16
ATOM     16  CG  GLU D 570     -20.449  -5.563 -12.960  1.00 32.92     0.100 C 
BRANCH  16  17
ATOM     17  CD  GLU D 570     -21.705  -5.174 -13.703  1.00 32.92     0.185 C 
ATOM     18  OE1 GLU D 570     -21.730  -5.278 -14.945  1.00 32.92    -0.647 OA
ATOM     19  OE2 GLU D 570     -22.669  -4.745 -13.039  1.00 32.92    -0.647 OA
ENDBRANCH  16  17
ENDBRANCH  15  16
ENDBRANCH  14  15
END_RES GLU D 570
ENDMDL
MODEL 7
REMARK VINA RESULT:      -5.9      4.400      8.422
REMARK  16 active torsions:
REMARK  status: ('A' for Active; 'I' for Inactive)
REMARK    1  A    between atoms: C_2  and  C_3 
REMARK    2  A    between atoms: C_3  and  C_4 
REMARK    3  A    between atoms: C_4  and  C_5 
REMARK    4  A    between atoms: C_5  and  C_6 
REMARK    5  A    between atoms: C_6  and  C_7 
REMARK    6  A    between atoms: C_7  and  C_8 
REMARK    7  A    between atoms: C_8  and  C_9 
REMARK    8  A    between atoms: C_9  and  C_10 
REMARK    9  A    between atoms: C_10  and  C_11 
REMARK   10  A    between atoms: C_11  and  C_12 
REMARK       I    between atoms: C_12  and  N_14 
REMARK   11  A    between atoms: N_14  and  C_15 
REMARK   12  A    between atoms: N_14  and  C_19 
REMARK   13  A    between atoms: C_15  and  C_16 
REMARK   14  A    between atoms: C_16  and  O_18 
REMARK   15  A    between atoms: C_19  and  C_20 
REMARK   16  A    between atoms: C_20  and  O_22 
ROOT
HETATM    1  C   UNL     1     -21.518  -7.099  -1.947  1.00  0.00     0.219 C 
HETATM    2  O   UNL     1     -22.146  -6.488  -1.078  1.00  0.00    -0.273 OA
HETATM    3  N   UNL     1     -21.134  -8.425  -1.772  1.00  0.00    -0.347 N 
ENDROOT
BRANCH   1   4
HETATM    4  C   UNL     1     -21.202  -6.400  -3.251  1.00  0.00     0.103 C 
BRANCH   4   5
HETATM    5  C   UNL     1     -22.246  -6.693  -4.325  1.00  0.00     0.009 C 
BRANCH   5   6
HETATM    6  C   UNL     1     -21.926  -5.900  -5.596  1.00  0.00     0.000 C 
BRANCH   6   7
HETATM    7  C   UNL     1     -20.590  -5.164  -5.542  1.00  0.00     0.000 C 
BRANCH   7   8
HETATM    8  C   UNL     1     -20.257  -4.435  -6.843  1.00  0.00     0.000 C 
BRANCH   8   9
HETATM    9  C   UNL     1     -21.482  -3.694  -7.367  1.00  0.00     0.000 C 
BRANCH   9  10
HETATM   10  C   UNL     1     -21.757  -4.053  -8.823  1.00  0.00     0.000 C 
BRANCH  10  11
HETATM   11  C   UNL     1     -20.455  -4.091  -9.615  1.00  0.00     0.000 C 
BRANCH  11  12
HETATM   12  C   UNL     1     -20.726  -4.099 -11.115  1.00  0.00    -0.000 C 
BRANCH  12  13
HETATM   13  C   UNL     1     -22.219  -3.977 -11.401  1.00  0.00    -0.005 C 
HETATM   14  C   UNL     1     -22.542  -2.645 -12.054  1.00  0.00     0.005 C 
ENDBRANCH  12  13
ENDBRANCH  11  12
ENDBRANCH  10  11
ENDBRANCH   9  10
ENDBRANCH   8   9
ENDBRANCH   7   8
ENDBRANCH   6   7
ENDBRANCH   5   6
ENDBRANCH   4   5
ENDBRANCH   1   4
BRANCH   3  15
HETATM   15  C   UNL     1     -20.354  -9.228  -2.727  1.00  0.00     0.157 C 
BRANCH  15  16
HETATM   16  C   UNL     1     -18.910  -9.590  -2.310  1.00  0.00     0.132 C 
HETATM   17  C   UNL     1     -18.676 -11.056  -1.970  1.00  0.00     0.041 C 
BRANCH  16  18
HETATM   18  O   UNL     1     -18.026  -9.242  -3.386  1.00  0.00    -0.394 OA
HETATM   19  H   UNL     1     -18.196  -8.317  -3.637  1.00  0.00     0.210 HD
ENDBRANCH  16  18
ENDBRANCH  15  16
ENDBRANCH   3  15
BRANCH   3  20
HETATM   20  C   UNL     1     -21.570  -9.077  -0.540  1.00  0.00     0.157 C 
BRANCH  20  21
HETATM   21  C   UNL     1     -23.061  -9.498  -0.514  1.00  0.00     0.132 C 
HETATM   22  C   UNL     1     -23.277 -10.959  -0.130  1.00  0.00     0.041 C 
BRANCH  21  23
HETATM   23  O   UNL     1     -23.766  -8.678   0.421  1.00  0.00    -0.394 OA
HETATM   24  H   UNL     1     -24.610  -9.110   0.635  1.00  0.00     0.210 HD
ENDBRANCH  21  23
ENDBRANCH  20  21
ENDBRANCH   3  20
TORSDOF 16
BEGIN_RES ARG D 557
REMARK  4 active torsions:
REMARK  status: ('A' for Active; 'I' for Inactive)
REMARK    1  A    between atoms: CA   and  CB  
REMARK    2  A    between atoms: CB   and  CG  
REMARK    3  A    between atoms: CG   and  CD  
REMARK    4  A    between atoms: CD   and  NE  
REMARK       I    between atoms: NE   and  CZ  
REMARK       I    between atoms: CZ   and  NH1 
REMARK       I    between atoms: CZ   and  NH2 
ROOT
ATOM      1  CA  ARG D 557     -26.217   2.705 -17.014  1.00 35.49     0.159 C 
ENDROOT
BRANCH   1   2
ATOM      2  CB  ARG D 557     -26.789   1.319 -17.183  1.00 35.49     0.034 C 
BRANCH   2   3
ATOM      3  CG  ARG D 557     -28.230   1.166 -16.949  1.00 35.49     0.027 C 
BRANCH   3   4
ATOM      4  CD  ARG D 557     -28.602  -0.226 -16.607  1.00 35.49     0.116 C 
BRANCH   4   5
ATOM      5  NE  ARG D 557     -27.555  -0.906 -15.891  1.00 35.49    -0.212 N 
ATOM      6  CZ  ARG D 557     -27.288  -2.191 -15.957  1.00 35.49     0.666 C 
ATOM      7  NH1 ARG D 557     -27.989  -3.023 -16.705  1.00 35.49    -0.235 N 
ATOM      8  NH2 ARG D 557     -26.287  -2.634 -15.254  1.00 35.49    -0.235 N 
ATOM      9  HH  ARG D 557     -28.651  -2.753 -17.178  1.00 35.49     0.174 HD
ATOM     10  HH  ARG D 557     -27.767  -3.851 -16.711  1.00 35.49     0.174 HD
ATOM     11  HH  ARG D 557     -25.847  -2.072 -14.786  1.00 35.49     0.174 HD
ATOM     12  HH  ARG D 557     -26.082  -3.456 -15.274  1.00 35.49     0.174 HD
ATOM     13  HE  ARG D 557     -27.100  -0.459 -15.329  1.00 35.49     0.178 HD
ENDBRANCH   4   5
ENDBRANCH   3   4
ENDBRANCH   2   3
ENDBRANCH   1   2
END_RES ARG D 557
BEGIN_RES GLU D 570
REMARK  3 active torsions:
REMARK  status: ('A' for Active; 'I' for Inactive)
REMARK    5  A    between atoms: CA   and  CB  
REMARK    6  A    between atoms: CB   and  CG  
REMARK    7  A    between atoms: CG   and  CD  
ROOT
ATOM     14  CA  GLU D 570     -18.033  -6.348 -13.375  1.00 32.92     0.160 C 
ENDROOT
BRANCH  14  15
ATOM     15  CB  GLU D 570     -19.500  -6.345 -13.794  1.00 32.92     0.043 C 
BRANCH  15  16
ATOM     16  CG  GLU D 570     -19.796  -6.333 -15.250  1.00 32.92     0.100 C 
BRANCH  16  17
ATOM     17  CD  GLU D 570     -20.984  -5.468 -15.603  1.00 32.92     0.185 C 
ATOM     18  OE1 GLU D 570     -21.649  -4.950 -14.685  1.00 32.92    -0.647 OA
ATOM     19  OE2 GLU D 570     -21.263  -5.322 -16.809  1.00 32.92    -0.647 OA
ENDBRANCH  16  17
ENDBRANCH  15  16
ENDBRANCH  14  15
END_RES GLU D 570
ENDMDL
MODEL 8
REMARK VINA RESULT:      -5.9      2.014      4.303
REMARK  16 active torsions:
REMARK  status: ('A' for Active; 'I' for Inactive)
REMARK    1  A    between atoms: C_2  and  C_3 
REMARK    2  A    between atoms: C_3  and  C_4 
REMARK    3  A    between atoms: C_4  and  C_5 
REMARK    4  A    between atoms: C_5  and  C_6 
REMARK    5  A    between atoms: C_6  and  C_7 
REMARK    6  A    between atoms: C_7  and  C_8 
REMARK    7  A    between atoms: C_8  and  C_9 
REMARK    8  A    between atoms: C_9  and  C_10 
REMARK    9  A    between atoms: C_10  and  C_11 
REMARK   10  A    between atoms: C_11  and  C_12 
REMARK       I    between atoms: C_12  and  N_14 
REMARK   11  A    between atoms: N_14  and  C_15 
REMARK   12  A    between atoms: N_14  and  C_19 
REMARK   13  A    between atoms: C_15  and  C_16 
REMARK   14  A    between atoms: C_16  and  O_18 
REMARK   15  A    between atoms: C_19  and  C_20 
REMARK   16  A    between atoms: C_20  and  O_22 
ROOT
HETATM    1  C   UNL     1     -20.560  -4.459  -7.441  1.00  0.00     0.219 C 
HETATM    2  O   UNL     1     -19.351  -4.364  -7.672  1.00  0.00    -0.273 OA
HETATM    3  N   UNL     1     -21.512  -3.978  -8.335  1.00  0.00    -0.347 N 
ENDROOT
BRANCH   1   4
HETATM    4  C   UNL     1     -21.012  -5.156  -6.178  1.00  0.00     0.103 C 
BRANCH   4   5
HETATM    5  C   UNL     1     -20.609  -6.628  -6.162  1.00  0.00     0.009 C 
BRANCH   5   6
HETATM    6  C   UNL     1     -20.703  -7.181  -4.736  1.00  0.00     0.000 C 
BRANCH   6   7
HETATM    7  C   UNL     1     -21.177  -6.156  -3.709  1.00  0.00     0.000 C 
BRANCH   7   8
HETATM    8  C   UNL     1     -22.314  -6.675  -2.829  1.00  0.00     0.000 C 
BRANCH   8   9
HETATM    9  C   UNL     1     -22.148  -6.178  -1.397  1.00  0.00     0.000 C 
BRANCH   9  10
HETATM   10  C   UNL     1     -22.298  -7.320  -0.399  1.00  0.00     0.000 C 
BRANCH  10  11
HETATM   11  C   UNL     1     -21.234  -8.384  -0.647  1.00  0.00     0.000 C 
BRANCH  11  12
HETATM   12  C   UNL     1     -21.861  -9.769  -0.762  1.00  0.00    -0.000 C 
BRANCH  12  13
HETATM   13  C   UNL     1     -23.243  -9.799  -0.116  1.00  0.00    -0.005 C 
HETATM   14  C   UNL     1     -23.983 -11.075  -0.472  1.00  0.00     0.005 C 
ENDBRANCH  12  13
ENDBRANCH  11  12
ENDBRANCH  10  11
ENDBRANCH   9  10
ENDBRANCH   8   9
ENDBRANCH   7   8
ENDBRANCH   6   7
ENDBRANCH   5   6
ENDBRANCH   4   5
ENDBRANCH   1   4
BRANCH   3  15
HETATM   15  C   UNL     1     -22.970  -4.008  -8.137  1.00  0.00     0.157 C 
BRANCH  15  16
HETATM   16  C   UNL     1     -23.843  -3.687  -9.371  1.00  0.00     0.132 C 
HETATM   17  C   UNL     1     -24.401  -4.897 -10.110  1.00  0.00     0.041 C 
BRANCH  16  18
HETATM   18  O   UNL     1     -24.953  -2.882  -8.946  1.00  0.00    -0.394 OA
HETATM   19  H   UNL     1     -25.564  -2.779  -9.697  1.00  0.00     0.210 HD
ENDBRANCH  16  18
ENDBRANCH  15  16
ENDBRANCH   3  15
BRANCH   3  20
HETATM   20  C   UNL     1     -21.013  -3.419  -9.589  1.00  0.00     0.157 C 
BRANCH  20  21
HETATM   21  C   UNL     1     -20.873  -4.436 -10.749  1.00  0.00     0.132 C 
HETATM   22  C   UNL     1     -21.335  -3.893 -12.098  1.00  0.00     0.041 C 
BRANCH  21  23
HETATM   23  O   UNL     1     -19.504  -4.831 -10.867  1.00  0.00    -0.394 OA
HETATM   24  H   UNL     1     -18.943  -4.083 -10.600  1.00  0.00     0.210 HD
ENDBRANCH  21  23
ENDBRANCH  20  21
ENDBRANCH   3  20
TORSDOF 16
BEGIN_RES ARG D 557
REMARK  4 active torsions:
REMARK  status: ('A' for Active; 'I' for Inactive)
REMARK    1  A    between atoms: CA   and  CB  
REMARK    2  A    between atoms: CB   and  CG  
REMARK    3  A    between atoms: CG   and  CD  
REMARK    4  A    between atoms: CD   and  NE  
REMARK       I    between atoms: NE   and  CZ  
REMARK       I    between atoms: CZ   and  NH1 
REMARK       I    between atoms: CZ   and  NH2 
ROOT
ATOM      1  CA  ARG D 557     -26.217   2.705 -17.014  1.00 35.49     0.159 C 
ENDROOT
BRANCH   1   2
ATOM      2  CB  ARG D 557     -26.789   1.319 -17.183  1.00 35.49     0.034 C 
BRANCH   2   3
ATOM      3  CG  ARG D 557     -26.028   0.213 -16.588  1.00 35.49     0.027 C 
BRANCH   3   4
ATOM      4  CD  ARG D 557     -26.906  -0.862 -16.072  1.00 35.49     0.116 C 
BRANCH   4   5
ATOM      5  NE  ARG D 557     -26.154  -1.962 -15.528  1.00 35.49    -0.212 N 
ATOM      6  CZ  ARG D 557     -25.075  -1.862 -14.784  1.00 35.49     0.666 C 
ATOM      7  NH1 ARG D 557     -24.544  -0.698 -14.459  1.00 35.49    -0.235 N 
ATOM      8  NH2 ARG D 557     -24.534  -2.967 -14.360  1.00 35.49    -0.235 N 
ATOM      9  HH  ARG D 557     -24.885   0.042 -14.725  1.00 35.49     0.174 HD
ATOM     10  HH  ARG D 557     -23.841  -0.694 -13.968  1.00 35.49     0.174 HD
ATOM     11  HH  ARG D 557     -24.903  -3.703 -14.580  1.00 35.49     0.174 HD
ATOM     12  HH  ARG D 557     -23.839  -2.942 -13.874  1.00 35.49     0.174 HD
ATOM     13  HE  ARG D 557     -26.384  -2.750 -15.749  1.00 35.49     0.178 HD
ENDBRANCH   4   5
ENDBRANCH   3   4
ENDBRANCH   2   3
ENDBRANCH   1   2
END_RES ARG D 557
BEGIN_RES GLU D 570
REMARK  3 active torsions:
REMARK  status: ('A' for Active; 'I' for Inactive)
REMARK    5  A    between atoms: CA   and  CB  
REMARK    6  A    between atoms: CB   and  CG  
REMARK    7  A    between atoms: CG   and  CD  
ROOT
ATOM     14  CA  GLU D 570     -18.033  -6.348 -13.375  1.00 32.92     0.160 C 
ENDROOT
BRANCH  14  15
ATOM     15  CB  GLU D 570     -19.500  -6.345 -13.794  1.00 32.92     0.043 C 
BRANCH  15  16
ATOM     16  CG  GLU D 570     -19.809  -5.988 -15.203  1.00 32.92     0.100 C 
BRANCH  16  17
ATOM     17  CD  GLU D 570     -21.271  -5.678 -15.425  1.00 32.92     0.185 C 
ATOM     18  OE1 GLU D 570     -21.590  -4.879 -16.327  1.00 32.92    -0.647 OA
ATOM     19  OE2 GLU D 570     -22.105  -6.226 -14.678  1.00 32.92    -0.647 OA
ENDBRANCH  16  17
ENDBRANCH  15  16
ENDBRANCH  14  15
END_RES GLU D 570
ENDMDL
MODEL 9
REMARK VINA RESULT:      -5.8      4.816      8.814
REMARK  16 active torsions:
REMARK  status: ('A' for Active; 'I' for Inactive)
REMARK    1  A    between atoms: C_2  and  C_3 
REMARK    2  A    between atoms: C_3  and  C_4 
REMARK    3  A    between atoms: C_4  and  C_5 
REMARK    4  A    between atoms: C_5  and  C_6 
REMARK    5  A    between atoms: C_6  and  C_7 
REMARK    6  A    between atoms: C_7  and  C_8 
REMARK    7  A    between atoms: C_8  and  C_9 
REMARK    8  A    between atoms: C_9  and  C_10 
REMARK    9  A    between atoms: C_10  and  C_11 
REMARK   10  A    between atoms: C_11  and  C_12 
REMARK       I    between atoms: C_12  and  N_14 
REMARK   11  A    between atoms: N_14  and  C_15 
REMARK   12  A    between atoms: N_14  and  C_19 
REMARK   13  A    between atoms: C_15  and  C_16 
REMARK   14  A    between atoms: C_16  and  O_18 
REMARK   15  A    between atoms: C_19  and  C_20 
REMARK   16  A    between atoms: C_20  and  O_22 
ROOT
HETATM    1  C   UNL     1     -20.247  -9.887  -2.464  1.00  0.00     0.219 C 
HETATM    2  O   UNL     1     -19.634 -10.917  -2.759  1.00  0.00    -0.273 OA
HETATM    3  N   UNL     1     -21.324  -9.908  -1.584  1.00  0.00    -0.347 N 
ENDROOT
BRANCH   1   4
HETATM    4  C   UNL     1     -19.782  -8.568  -3.039  1.00  0.00     0.103 C 
BRANCH   4   5
HETATM    5  C   UNL     1     -19.925  -8.523  -4.557  1.00  0.00     0.009 C 
BRANCH   5   6
HETATM    6  C   UNL     1     -21.369  -8.181  -4.937  1.00  0.00     0.000 C 
BRANCH   6   7
HETATM    7  C   UNL     1     -21.553  -6.748  -5.432  1.00  0.00     0.000 C 
BRANCH   7   8
HETATM    8  C   UNL     1     -20.366  -6.242  -6.250  1.00  0.00     0.000 C 
BRANCH   8   9
HETATM    9  C   UNL     1     -20.152  -4.751  -6.013  1.00  0.00     0.000 C 
BRANCH   9  10
HETATM   10  C   UNL     1     -20.839  -3.921  -7.091  1.00  0.00     0.000 C 
BRANCH  10  11
HETATM   11  C   UNL     1     -20.295  -4.288  -8.468  1.00  0.00     0.000 C 
BRANCH  11  12
HETATM   12  C   UNL     1     -21.400  -4.258  -9.519  1.00  0.00    -0.000 C 
BRANCH  12  13
HETATM   13  C   UNL     1     -22.773  -4.148  -8.864  1.00  0.00    -0.005 C 
HETATM   14  C   UNL     1     -23.870  -4.570  -9.824  1.00  0.00     0.005 C 
ENDBRANCH  12  13
ENDBRANCH  11  12
ENDBRANCH  10  11
ENDBRANCH   9  10
ENDBRANCH   8   9
ENDBRANCH   7   8
ENDBRANCH   6   7
ENDBRANCH   5   6
ENDBRANCH   4   5
ENDBRANCH   1   4
BRANCH   3  15
HETATM   15  C   UNL     1     -22.142  -8.747  -1.198  1.00  0.00     0.157 C 
BRANCH  15  16
HETATM   16  C   UNL     1     -22.556  -8.656   0.288  1.00  0.00     0.132 C 
HETATM   17  C   UNL     1     -21.455  -8.225   1.249  1.00  0.00     0.041 C 
BRANCH  16  18
HETATM   18  O   UNL     1     -23.633  -7.713   0.402  1.00  0.00    -0.394 OA
HETATM   19  H   UNL     1     -23.861  -7.620   1.344  1.00  0.00     0.210 HD
ENDBRANCH  16  18
ENDBRANCH  15  16
ENDBRANCH   3  15
BRANCH   3  20
HETATM   20  C   UNL     1     -21.649 -11.195  -0.974  1.00  0.00     0.157 C 
BRANCH  20  21
HETATM   21  C   UNL     1     -22.799 -11.974  -1.662  1.00  0.00     0.132 C 
HETATM   22  C   UNL     1     -24.172 -11.700  -1.055  1.00  0.00     0.041 C 
BRANCH  21  23
HETATM   23  O   UNL     1     -22.841 -11.626  -3.048  1.00  0.00    -0.394 OA
HETATM   24  H   UNL     1     -22.376 -10.780  -3.168  1.00  0.00     0.210 HD
ENDBRANCH  21  23
ENDBRANCH  20  21
ENDBRANCH   3  20
TORSDOF 16
BEGIN_RES ARG D 557
REMARK  4 active torsions:
REMARK  status: ('A' for Active; 'I' for Inactive)
REMARK    1  A    between atoms: CA   and  CB  
REMARK    2  A    between atoms: CB   and  CG  
REMARK    3  A    between atoms: CG   and  CD  
REMARK    4  A    between atoms: CD   and  NE  
REMARK       I    between atoms: NE   and  CZ  
REMARK       I    between atoms: CZ   and  NH1 
REMARK       I    between atoms: CZ   and  NH2 
ROOT
ATOM      1  CA  ARG D 557     -26.217   2.705 -17.014  1.00 35.49     0.159 C 
ENDROOT
BRANCH   1   2
ATOM      2  CB  ARG D 557     -26.789   1.319 -17.183  1.00 35.49     0.034 C 
BRANCH   2   3
ATOM      3  CG  ARG D 557     -25.936   0.197 -16.771  1.00 35.49     0.027 C 
BRANCH   3   4
ATOM      4  CD  ARG D 557     -26.693  -0.854 -16.054  1.00 35.49     0.116 C 
BRANCH   4   5
ATOM      5  NE  ARG D 557     -25.938  -1.421 -14.968  1.00 35.49    -0.212 N 
ATOM      6  CZ  ARG D 557     -25.913  -2.691 -14.631  1.00 35.49     0.666 C 
ATOM      7  NH1 ARG D 557     -26.616  -3.608 -15.269  1.00 35.49    -0.235 N 
ATOM      8  NH2 ARG D 557     -25.154  -3.031 -13.630  1.00 35.49    -0.235 N 
ATOM      9  HH  ARG D 557     -27.121  -3.407 -15.931  1.00 35.49     0.174 HD
ATOM     10  HH  ARG D 557     -26.559  -4.421 -15.006  1.00 35.49     0.174 HD
ATOM     11  HH  ARG D 557     -24.705  -2.419 -13.241  1.00 35.49     0.174 HD
ATOM     12  HH  ARG D 557     -25.109  -3.842 -13.386  1.00 35.49     0.174 HD
ATOM     13  HE  ARG D 557     -25.512  -0.890 -14.458  1.00 35.49     0.178 HD
ENDBRANCH   4   5
ENDBRANCH   3   4
ENDBRANCH   2   3
ENDBRANCH   1   2
END_RES ARG D 557
BEGIN_RES GLU D 570
REMARK  3 active torsions:
REMARK  status: ('A' for Active; 'I' for Inactive)
REMARK    5  A    between atoms: CA   and  CB  
REMARK    6  A    between atoms: CB   and  CG  
REMARK    7  A    between atoms: CG   and  CD  
ROOT
ATOM     14  CA  GLU D 570     -18.033  -6.348 -13.375  1.00 32.92     0.160 C 
ENDROOT
BRANCH  14  15
ATOM     15  CB  GLU D 570     -19.500  -6.345 -13.794  1.00 32.92     0.043 C 
BRANCH  15  16
ATOM     16  CG  GLU D 570     -20.447  -5.555 -12.965  1.00 32.92     0.100 C 
BRANCH  16  17
ATOM     17  CD  GLU D 570     -21.676  -5.120 -13.728  1.00 32.92     0.185 C 
ATOM     18  OE1 GLU D 570     -21.747  -5.358 -14.949  1.00 32.92    -0.647 OA
ATOM     19  OE2 GLU D 570     -22.571  -4.519 -13.102  1.00 32.92    -0.647 OA
ENDBRANCH  16  17
ENDBRANCH  15  16
ENDBRANCH  14  15
END_RES GLU D 570
ENDMDL
