MODEL 1
REMARK VINA RESULT:      -8.7      0.000      0.000
REMARK  18 active torsions:
REMARK  status: ('A' for Active; 'I' for Inactive)
REMARK    1  A    between atoms: CB_2  and  CA_4 
REMARK    2  A    between atoms: CA_4  and  C_5 
REMARK    3  A    between atoms: CA_4  and  N_19 
REMARK       I    between atoms: C_5  and  N_7 
REMARK    4  A    between atoms: N_7  and  CA_8 
REMARK    5  A    between atoms: CA_8  and  CB_9 
REMARK    6  A    between atoms: CA_8  and  C_16 
REMARK    7  A    between atoms: CB_9  and  CG_10 
REMARK    8  A    between atoms: C_16  and  OXT_18 
REMARK       I    between atoms: N_19  and  C_20 
REMARK    9  A    between atoms: C_20  and  CA_22 
REMARK   10  A    between atoms: CA_22  and  CB_23 
REMARK   11  A    between atoms: CA_22  and  N_27 
REMARK   12  A    between atoms: CB_23  and  CG_24 
REMARK   13  A    between atoms: CG_24  and  OD2_26 
REMARK       I    between atoms: N_27  and  C_28 
REMARK   14  A    between atoms: C_28  and  CA_30 
REMARK   15  A    between atoms: CA_30  and  CB_31 
REMARK   16  A    between atoms: CA_30  and  N_36 
REMARK   17  A    between atoms: CB_31  and  CG_32 
REMARK   18  A    between atoms: CG_32  and  CD_33 
REMARK       I    between atoms: CD_33  and  NE2_35 
REMARK       I    between atoms: N_36  and  C_46 
ROOT
ATOM      1  N   GLN A   1     -27.634  -5.434 -16.526  1.00  0.00    -0.346 N 
ATOM      2  C   GLN A   1     -28.925  -5.560 -16.071  1.00  0.00     0.241 C 
ATOM      3  O   GLN A   1     -29.163  -5.932 -14.919  1.00  0.00    -0.271 OA
ATOM      4  H   GLN A   1     -27.517  -5.325 -17.531  1.00  0.00     0.163 HD
ENDROOT
BRANCH   2   5
ATOM      5  CA  GLN A   1     -30.058  -5.192 -17.062  1.00  0.00     0.186 C 
BRANCH   5   6
ATOM      6  CB  GLN A   1     -30.033  -5.992 -18.372  1.00  0.00     0.144 C 
BRANCH   6   7
ATOM      7  CG  GLN A   1     -30.234  -7.469 -18.171  1.00  0.00     0.141 C 
ATOM      8  OD1 GLN A   1     -31.027  -8.140 -18.813  1.00  0.00    -0.650 OA
BRANCH   7   9
ATOM      9  OD2 GLN A   1     -29.498  -7.997 -17.172  1.00  0.00    -0.776 OA
ATOM     10  HD2 GLN A   1     -30.019  -8.393 -16.438  1.00  0.00     0.167 HD
ENDBRANCH   7   9
ENDBRANCH   6   7
ENDBRANCH   5   6
BRANCH   5  11
ATOM     11  N   GLN A   1     -31.353  -5.217 -16.390  1.00  0.00    -0.346 N 
ATOM     12  C   GLN A   1     -32.321  -4.263 -16.630  1.00  0.00     0.241 C 
ATOM     13  O   GLN A   1     -32.172  -3.361 -17.451  1.00  0.00    -0.271 OA
ATOM     14  H   GLN A   1     -31.632  -6.070 -15.911  1.00  0.00     0.163 HD
BRANCH  12  15
ATOM     15  CA  GLN A   1     -33.655  -4.528 -15.907  1.00  0.00     0.177 C 
BRANCH  15  16
ATOM     16  CB  GLN A   1     -34.250  -5.889 -16.298  1.00  0.00     0.044 C 
BRANCH  16  17
ATOM     17  CG  GLN A   1     -35.393  -6.325 -15.376  1.00  0.00     0.105 C 
BRANCH  17  18
ATOM     18  CD  GLN A   1     -36.242  -7.415 -15.991  1.00  0.00     0.215 C 
ATOM     19  OE1 GLN A   1     -37.125  -8.014 -15.386  1.00  0.00    -0.274 OA
ATOM     20  NE2 GLN A   1     -35.994  -7.661 -17.311  1.00  0.00    -0.370 N 
ATOM     21 1HE2 GLN A   1     -35.086  -7.452 -17.704  1.00  0.00     0.159 HD
ATOM     22 2HE2 GLN A   1     -36.464  -8.472 -17.692  1.00  0.00     0.159 HD
ENDBRANCH  17  18
ENDBRANCH  16  17
ENDBRANCH  15  16
BRANCH  15  23
ATOM     23  N   GLN A   1     -33.375  -4.491 -14.473  1.00  0.00    -0.348 N 
HETATM   24  C   UNK A   0     -33.985  -3.595 -13.631  1.00  0.00     0.214 C 
HETATM   25  O   UNK A   0     -34.804  -2.765 -14.009  1.00  0.00    -0.274 OA
HETATM   26  C   UNK A   0     -33.630  -3.756 -12.178  1.00  0.00     0.117 C 
ATOM     27  H   GLN A   1     -32.681  -5.138 -14.115  1.00  0.00     0.163 HD
ENDBRANCH  15  23
ENDBRANCH  12  15
ENDBRANCH   5  11
ENDBRANCH   2   5
BRANCH   1  28
ATOM     28  CA  GLN A   1     -26.417  -5.836 -15.784  1.00  0.00     0.180 C 
BRANCH  28  29
ATOM     29  CB  GLN A   1     -25.334  -6.394 -16.761  1.00  0.00     0.009 C 
ATOM     30  CG1 GLN A   1     -24.706  -7.708 -16.265  1.00  0.00     0.012 C 
ATOM     31  CG2 GLN A   1     -25.877  -6.659 -18.174  1.00  0.00     0.012 C 
ENDBRANCH  28  29
BRANCH  28  32
ATOM     32  C   GLN A   1     -25.848  -4.618 -14.984  1.00  0.00     0.241 C 
ATOM     33  O   GLN A   1     -26.490  -3.601 -14.742  1.00  0.00    -0.271 OA
ATOM     34  N   GLN A   1     -24.529  -4.738 -14.593  1.00  0.00    -0.344 N 
ATOM     35  H   GLN A   1     -24.211  -5.703 -14.496  1.00  0.00     0.163 HD
BRANCH  34  36
ATOM     36  CA  GLN A   1     -23.861  -3.706 -13.788  1.00  0.00     0.188 C 
BRANCH  36  37
ATOM     37  CB  GLN A   1     -22.963  -4.235 -12.653  1.00  0.00     0.094 C 
BRANCH  37  38
ATOM     38  CG  GLN A   1     -23.541  -4.068 -11.291  1.00  0.00     0.028 A 
ATOM     39  CD2 GLN A   1     -23.184  -4.602 -10.075  1.00  0.00     0.114 A 
ATOM     40  NE2 GLN A   1     -24.044  -4.198  -9.086  1.00  0.00    -0.360 N 
ATOM     41  CE1 GLN A   1     -24.940  -3.451  -9.700  1.00  0.00     0.180 A 
ATOM     42  HE2 GLN A   1     -24.001  -4.426  -8.093  1.00  0.00     0.166 HD
ATOM     43  ND1 GLN A   1     -24.661  -3.319 -11.034  1.00  0.00    -0.354 N 
ATOM     44  HD1 GLN A   1     -25.195  -2.784 -11.711  1.00  0.00     0.166 HD
ENDBRANCH  37  38
ENDBRANCH  36  37
BRANCH  36  45
ATOM     45  C   GLN A   1     -23.070  -2.734 -14.679  1.00  0.00     0.163 C 
ATOM     46  O   GLN A   1     -23.373  -1.560 -14.856  1.00  0.00    -0.648 OA
BRANCH  45  47
ATOM     47  OXT GLN A   1     -22.031  -3.304 -15.335  1.00  0.00    -0.775 OA
ATOM     48  HXT GLN A   1     -22.297  -3.732 -16.175  1.00  0.00     0.167 HD
ENDBRANCH  45  47
ENDBRANCH  36  45
ENDBRANCH  34  36
ENDBRANCH  28  32
ENDBRANCH   1  28
TORSDOF 18
BEGIN_RES ARG D 557
REMARK  4 active torsions:
REMARK  status: ('A' for Active; 'I' for Inactive)
REMARK    1  A    between atoms: CA   and  CB  
REMARK    2  A    between atoms: CB   and  CG  
REMARK    3  A    between atoms: CG   and  CD  
REMARK    4  A    between atoms: CD   and  NE  
REMARK       I    between atoms: NE   and  CZ  
REMARK       I    between atoms: CZ   and  NH1 
REMARK       I    between atoms: CZ   and  NH2 
ROOT
ATOM      1  CA  ARG D 557     -26.217   2.705 -17.014  1.00 35.49     0.159 C 
ENDROOT
BRANCH   1   2
ATOM      2  CB  ARG D 557     -26.789   1.319 -17.183  1.00 35.49     0.034 C 
BRANCH   2   3
ATOM      3  CG  ARG D 557     -25.966   0.202 -16.705  1.00 35.49     0.027 C 
BRANCH   3   4
ATOM      4  CD  ARG D 557     -26.722  -0.722 -15.829  1.00 35.49     0.116 C 
BRANCH   4   5
ATOM      5  NE  ARG D 557     -27.597  -1.585 -16.578  1.00 35.49    -0.212 N 
ATOM      6  CZ  ARG D 557     -28.850  -1.330 -16.884  1.00 35.49     0.666 C 
ATOM      7  NH1 ARG D 557     -29.460  -0.222 -16.508  1.00 35.49    -0.235 N 
ATOM      8  NH2 ARG D 557     -29.488  -2.218 -17.589  1.00 35.49    -0.235 N 
ATOM      9  HH  ARG D 557     -29.059   0.377 -16.045  1.00 35.49     0.174 HD
ATOM     10  HH  ARG D 557     -30.278  -0.109 -16.738  1.00 35.49     0.174 HD
ATOM     11  HH  ARG D 557     -29.066  -2.921 -17.824  1.00 35.49     0.174 HD
ATOM     12  HH  ARG D 557     -30.297  -2.088 -17.809  1.00 35.49     0.174 HD
ATOM     13  HE  ARG D 557     -27.308  -2.354 -16.799  1.00 35.49     0.178 HD
ENDBRANCH   4   5
ENDBRANCH   3   4
ENDBRANCH   2   3
ENDBRANCH   1   2
END_RES ARG D 557
BEGIN_RES GLU D 570
REMARK  3 active torsions:
REMARK  status: ('A' for Active; 'I' for Inactive)
REMARK    5  A    between atoms: CA   and  CB  
REMARK    6  A    between atoms: CB   and  CG  
REMARK    7  A    between atoms: CG   and  CD  
ROOT
ATOM     14  CA  GLU D 570     -18.033  -6.348 -13.375  1.00 32.92     0.160 C 
ENDROOT
BRANCH  14  15
ATOM     15  CB  GLU D 570     -19.500  -6.345 -13.794  1.00 32.92     0.043 C 
BRANCH  15  16
ATOM     16  CG  GLU D 570     -20.053  -7.603 -14.359  1.00 32.92     0.100 C 
BRANCH  16  17
ATOM     17  CD  GLU D 570     -21.106  -7.361 -15.416  1.00 32.92     0.185 C 
ATOM     18  OE1 GLU D 570     -21.225  -8.179 -16.349  1.00 32.92    -0.647 OA
ATOM     19  OE2 GLU D 570     -21.807  -6.335 -15.319  1.00 32.92    -0.647 OA
ENDBRANCH  16  17
ENDBRANCH  15  16
ENDBRANCH  14  15
END_RES GLU D 570
ENDMDL
MODEL 2
REMARK VINA RESULT:      -8.3      3.489      7.057
REMARK  18 active torsions:
REMARK  status: ('A' for Active; 'I' for Inactive)
REMARK    1  A    between atoms: CB_2  and  CA_4 
REMARK    2  A    between atoms: CA_4  and  C_5 
REMARK    3  A    between atoms: CA_4  and  N_19 
REMARK       I    between atoms: C_5  and  N_7 
REMARK    4  A    between atoms: N_7  and  CA_8 
REMARK    5  A    between atoms: CA_8  and  CB_9 
REMARK    6  A    between atoms: CA_8  and  C_16 
REMARK    7  A    between atoms: CB_9  and  CG_10 
REMARK    8  A    between atoms: C_16  and  OXT_18 
REMARK       I    between atoms: N_19  and  C_20 
REMARK    9  A    between atoms: C_20  and  CA_22 
REMARK   10  A    between atoms: CA_22  and  CB_23 
REMARK   11  A    between atoms: CA_22  and  N_27 
REMARK   12  A    between atoms: CB_23  and  CG_24 
REMARK   13  A    between atoms: CG_24  and  OD2_26 
REMARK       I    between atoms: N_27  and  C_28 
REMARK   14  A    between atoms: C_28  and  CA_30 
REMARK   15  A    between atoms: CA_30  and  CB_31 
REMARK   16  A    between atoms: CA_30  and  N_36 
REMARK   17  A    between atoms: CB_31  and  CG_32 
REMARK   18  A    between atoms: CG_32  and  CD_33 
REMARK       I    between atoms: CD_33  and  NE2_35 
REMARK       I    between atoms: N_36  and  C_46 
ROOT
ATOM      1  N   GLN A   1     -23.876  -4.476 -12.403  1.00  0.00    -0.346 N 
ATOM      2  C   GLN A   1     -24.123  -4.792 -13.718  1.00  0.00     0.241 C 
ATOM      3  O   GLN A   1     -23.294  -5.410 -14.392  1.00  0.00    -0.271 OA
ATOM      4  H   GLN A   1     -24.503  -3.796 -11.976  1.00  0.00     0.163 HD
ENDROOT
BRANCH   2   5
ATOM      5  CA  GLN A   1     -25.490  -4.357 -14.301  1.00  0.00     0.186 C 
BRANCH   5   6
ATOM      6  CB  GLN A   1     -25.728  -2.839 -14.284  1.00  0.00     0.144 C 
BRANCH   6   7
ATOM      7  CG  GLN A   1     -24.523  -2.044 -14.708  1.00  0.00     0.141 C 
ATOM      8  OD1 GLN A   1     -23.480  -2.548 -15.094  1.00  0.00    -0.650 OA
BRANCH   7   9
ATOM      9  OD2 GLN A   1     -24.666  -0.711 -14.576  1.00  0.00    -0.776 OA
ATOM     10  HD2 GLN A   1     -25.591  -0.403 -14.453  1.00  0.00     0.167 HD
ENDBRANCH   7   9
ENDBRANCH   6   7
ENDBRANCH   5   6
BRANCH   5  11
ATOM     11  N   GLN A   1     -25.704  -4.963 -15.611  1.00  0.00    -0.346 N 
ATOM     12  C   GLN A   1     -26.963  -5.297 -16.066  1.00  0.00     0.241 C 
ATOM     13  O   GLN A   1     -27.983  -5.068 -15.420  1.00  0.00    -0.271 OA
ATOM     14  H   GLN A   1     -24.945  -4.933 -16.286  1.00  0.00     0.163 HD
BRANCH  12  15
ATOM     15  CA  GLN A   1     -26.987  -5.824 -17.514  1.00  0.00     0.177 C 
BRANCH  15  16
ATOM     16  CB  GLN A   1     -25.651  -6.475 -17.901  1.00  0.00     0.044 C 
BRANCH  16  17
ATOM     17  CG  GLN A   1     -25.531  -6.736 -19.406  1.00  0.00     0.105 C 
BRANCH  17  18
ATOM     18  CD  GLN A   1     -24.259  -7.474 -19.760  1.00  0.00     0.215 C 
ATOM     19  OE1 GLN A   1     -24.080  -8.045 -20.830  1.00  0.00    -0.274 OA
ATOM     20  NE2 GLN A   1     -23.279  -7.417 -18.812  1.00  0.00    -0.370 N 
ATOM     21 1HE2 GLN A   1     -23.520  -7.275 -17.841  1.00  0.00     0.159 HD
ATOM     22 2HE2 GLN A   1     -22.480  -8.013 -18.986  1.00  0.00     0.159 HD
ENDBRANCH  17  18
ENDBRANCH  16  17
ENDBRANCH  15  16
BRANCH  15  23
ATOM     23  N   GLN A   1     -28.069  -6.803 -17.591  1.00  0.00    -0.348 N 
HETATM   24  C   UNK A   0     -29.238  -6.550 -18.264  1.00  0.00     0.214 C 
HETATM   25  O   UNK A   0     -29.466  -5.496 -18.847  1.00  0.00    -0.274 OA
HETATM   26  C   UNK A   0     -30.204  -7.703 -18.300  1.00  0.00     0.117 C 
ATOM     27  H   GLN A   1     -27.942  -7.680 -17.098  1.00  0.00     0.163 HD
ENDBRANCH  15  23
ENDBRANCH  12  15
ENDBRANCH   5  11
ENDBRANCH   2   5
BRANCH   1  28
ATOM     28  CA  GLN A   1     -22.599  -4.699 -11.688  1.00  0.00     0.180 C 
BRANCH  28  29
ATOM     29  CB  GLN A   1     -21.594  -3.539 -11.977  1.00  0.00     0.009 C 
ATOM     30  CG1 GLN A   1     -22.211  -2.148 -11.752  1.00  0.00     0.012 C 
ATOM     31  CG2 GLN A   1     -20.325  -3.614 -11.114  1.00  0.00     0.012 C 
ENDBRANCH  28  29
BRANCH  28  32
ATOM     32  C   GLN A   1     -22.858  -4.820 -10.149  1.00  0.00     0.241 C 
ATOM     33  O   GLN A   1     -23.939  -4.583  -9.619  1.00  0.00    -0.271 OA
ATOM     34  N   GLN A   1     -21.758  -5.174  -9.395  1.00  0.00    -0.344 N 
ATOM     35  H   GLN A   1     -21.051  -5.698  -9.913  1.00  0.00     0.163 HD
BRANCH  34  36
ATOM     36  CA  GLN A   1     -21.844  -5.381  -7.943  1.00  0.00     0.188 C 
BRANCH  36  37
ATOM     37  CB  GLN A   1     -20.557  -5.899  -7.274  1.00  0.00     0.094 C 
BRANCH  37  38
ATOM     38  CG  GLN A   1     -20.786  -6.632  -5.998  1.00  0.00     0.028 A 
ATOM     39  CD2 GLN A   1     -20.985  -6.187  -4.712  1.00  0.00     0.114 A 
ATOM     40  NE2 GLN A   1     -21.106  -7.239  -3.839  1.00  0.00    -0.360 N 
ATOM     41  CE1 GLN A   1     -20.947  -8.317  -4.582  1.00  0.00     0.180 A 
ATOM     42  HE2 GLN A   1     -21.281  -7.197  -2.835  1.00  0.00     0.166 HD
ATOM     43  ND1 GLN A   1     -20.778  -8.000  -5.904  1.00  0.00    -0.354 N 
ATOM     44  HD1 GLN A   1     -20.650  -8.655  -6.667  1.00  0.00     0.166 HD
ENDBRANCH  37  38
ENDBRANCH  36  37
BRANCH  36  45
ATOM     45  C   GLN A   1     -22.338  -4.112  -7.230  1.00  0.00     0.163 C 
ATOM     46  O   GLN A   1     -21.633  -3.141  -6.986  1.00  0.00    -0.648 OA
BRANCH  45  47
ATOM     47  OXT GLN A   1     -23.624  -4.177  -6.810  1.00  0.00    -0.775 OA
ATOM     48  HXT GLN A   1     -24.076  -3.308  -6.825  1.00  0.00     0.167 HD
ENDBRANCH  45  47
ENDBRANCH  36  45
ENDBRANCH  34  36
ENDBRANCH  28  32
ENDBRANCH   1  28
TORSDOF 18
BEGIN_RES ARG D 557
REMARK  4 active torsions:
REMARK  status: ('A' for Active; 'I' for Inactive)
REMARK    1  A    between atoms: CA   and  CB  
REMARK    2  A    between atoms: CB   and  CG  
REMARK    3  A    between atoms: CG   and  CD  
REMARK    4  A    between atoms: CD   and  NE  
REMARK       I    between atoms: NE   and  CZ  
REMARK       I    between atoms: CZ   and  NH1 
REMARK       I    between atoms: CZ   and  NH2 
ROOT
ATOM      1  CA  ARG D 557     -26.217   2.705 -17.014  1.00 35.49     0.159 C 
ENDROOT
BRANCH   1   2
ATOM      2  CB  ARG D 557     -26.789   1.319 -17.183  1.00 35.49     0.034 C 
BRANCH   2   3
ATOM      3  CG  ARG D 557     -28.202   1.230 -17.570  1.00 35.49     0.027 C 
BRANCH   3   4
ATOM      4  CD  ARG D 557     -29.005   0.452 -16.599  1.00 35.49     0.116 C 
BRANCH   4   5
ATOM      5  NE  ARG D 557     -29.449  -0.804 -17.146  1.00 35.49    -0.212 N 
ATOM      6  CZ  ARG D 557     -28.805  -1.947 -17.067  1.00 35.49     0.666 C 
ATOM      7  NH1 ARG D 557     -27.634  -2.061 -16.467  1.00 35.49    -0.235 N 
ATOM      8  NH2 ARG D 557     -29.367  -2.991 -17.602  1.00 35.49    -0.235 N 
ATOM      9  HH  ARG D 557     -27.247  -1.387 -16.106  1.00 35.49     0.174 HD
ATOM     10  HH  ARG D 557     -27.262  -2.832 -16.444  1.00 35.49     0.174 HD
ATOM     11  HH  ARG D 557     -30.127  -2.889 -17.976  1.00 35.49     0.174 HD
ATOM     12  HH  ARG D 557     -28.984  -3.746 -17.568  1.00 35.49     0.174 HD
ATOM     13  HE  ARG D 557     -30.160  -0.807 -17.612  1.00 35.49     0.178 HD
ENDBRANCH   4   5
ENDBRANCH   3   4
ENDBRANCH   2   3
ENDBRANCH   1   2
END_RES ARG D 557
BEGIN_RES GLU D 570
REMARK  3 active torsions:
REMARK  status: ('A' for Active; 'I' for Inactive)
REMARK    5  A    between atoms: CA   and  CB  
REMARK    6  A    between atoms: CB   and  CG  
REMARK    7  A    between atoms: CG   and  CD  
ROOT
ATOM     14  CA  GLU D 570     -18.033  -6.348 -13.375  1.00 32.92     0.160 C 
ENDROOT
BRANCH  14  15
ATOM     15  CB  GLU D 570     -19.500  -6.345 -13.794  1.00 32.92     0.043 C 
BRANCH  15  16
ATOM     16  CG  GLU D 570     -19.797  -6.232 -15.245  1.00 32.92     0.100 C 
BRANCH  16  17
ATOM     17  CD  GLU D 570     -20.686  -7.343 -15.753  1.00 32.92     0.185 C 
ATOM     18  OE1 GLU D 570     -20.567  -8.484 -15.267  1.00 32.92    -0.647 OA
ATOM     19  OE2 GLU D 570     -21.499  -7.074 -16.659  1.00 32.92    -0.647 OA
ENDBRANCH  16  17
ENDBRANCH  15  16
ENDBRANCH  14  15
END_RES GLU D 570
ENDMDL
MODEL 3
REMARK VINA RESULT:      -8.2      7.322     13.099
REMARK  18 active torsions:
REMARK  status: ('A' for Active; 'I' for Inactive)
REMARK    1  A    between atoms: CB_2  and  CA_4 
REMARK    2  A    between atoms: CA_4  and  C_5 
REMARK    3  A    between atoms: CA_4  and  N_19 
REMARK       I    between atoms: C_5  and  N_7 
REMARK    4  A    between atoms: N_7  and  CA_8 
REMARK    5  A    between atoms: CA_8  and  CB_9 
REMARK    6  A    between atoms: CA_8  and  C_16 
REMARK    7  A    between atoms: CB_9  and  CG_10 
REMARK    8  A    between atoms: C_16  and  OXT_18 
REMARK       I    between atoms: N_19  and  C_20 
REMARK    9  A    between atoms: C_20  and  CA_22 
REMARK   10  A    between atoms: CA_22  and  CB_23 
REMARK   11  A    between atoms: CA_22  and  N_27 
REMARK   12  A    between atoms: CB_23  and  CG_24 
REMARK   13  A    between atoms: CG_24  and  OD2_26 
REMARK       I    between atoms: N_27  and  C_28 
REMARK   14  A    between atoms: C_28  and  CA_30 
REMARK   15  A    between atoms: CA_30  and  CB_31 
REMARK   16  A    between atoms: CA_30  and  N_36 
REMARK   17  A    between atoms: CB_31  and  CG_32 
REMARK   18  A    between atoms: CG_32  and  CD_33 
REMARK       I    between atoms: CD_33  and  NE2_35 
REMARK       I    between atoms: N_36  and  C_46 
ROOT
ATOM      1  N   GLN A   1     -21.577  -6.398  -6.034  1.00  0.00    -0.346 N 
ATOM      2  C   GLN A   1     -21.983  -6.928  -4.832  1.00  0.00     0.241 C 
ATOM      3  O   GLN A   1     -22.579  -6.238  -4.000  1.00  0.00    -0.271 OA
ATOM      4  H   GLN A   1     -20.920  -6.957  -6.575  1.00  0.00     0.163 HD
ENDROOT
BRANCH   2   5
ATOM      5  CA  GLN A   1     -21.679  -8.426  -4.585  1.00  0.00     0.186 C 
BRANCH   5   6
ATOM      6  CB  GLN A   1     -21.035  -9.144  -5.781  1.00  0.00     0.144 C 
BRANCH   6   7
ATOM      7  CG  GLN A   1     -19.897 -10.046  -5.389  1.00  0.00     0.141 C 
ATOM      8  OD1 GLN A   1     -20.037 -11.221  -5.088  1.00  0.00    -0.650 OA
BRANCH   7   9
ATOM      9  OD2 GLN A   1     -18.697  -9.435  -5.343  1.00  0.00    -0.776 OA
ATOM     10  HD2 GLN A   1     -18.105  -9.625  -6.105  1.00  0.00     0.167 HD
ENDBRANCH   7   9
ENDBRANCH   6   7
ENDBRANCH   5   6
BRANCH   5  11
ATOM     11  N   GLN A   1     -20.942  -8.599  -3.338  1.00  0.00    -0.346 N 
ATOM     12  C   GLN A   1     -21.341  -9.499  -2.371  1.00  0.00     0.241 C 
ATOM     13  O   GLN A   1     -22.312 -10.238  -2.514  1.00  0.00    -0.271 OA
ATOM     14  H   GLN A   1     -20.001  -8.219  -3.276  1.00  0.00     0.163 HD
BRANCH  12  15
ATOM     15  CA  GLN A   1     -20.370  -9.611  -1.180  1.00  0.00     0.177 C 
BRANCH  15  16
ATOM     16  CB  GLN A   1     -21.122  -9.706   0.156  1.00  0.00     0.044 C 
BRANCH  16  17
ATOM     17  CG  GLN A   1     -21.431  -8.333   0.763  1.00  0.00     0.105 C 
BRANCH  17  18
ATOM     18  CD  GLN A   1     -22.663  -7.702   0.154  1.00  0.00     0.215 C 
ATOM     19  OE1 GLN A   1     -22.627  -6.785  -0.659  1.00  0.00    -0.274 OA
ATOM     20  NE2 GLN A   1     -23.846  -8.266   0.536  1.00  0.00    -0.370 N 
ATOM     21 1HE2 GLN A   1     -23.917  -8.745   1.423  1.00  0.00     0.159 HD
ATOM     22 2HE2 GLN A   1     -24.675  -7.768   0.236  1.00  0.00     0.159 HD
ENDBRANCH  17  18
ENDBRANCH  16  17
ENDBRANCH  15  16
BRANCH  15  23
ATOM     23  N   GLN A   1     -19.569 -10.815  -1.397  1.00  0.00    -0.348 N 
HETATM   24  C   UNK A   0     -18.372 -10.785  -2.067  1.00  0.00     0.214 C 
HETATM   25  O   UNK A   0     -17.884  -9.761  -2.532  1.00  0.00    -0.274 OA
HETATM   26  C   UNK A   0     -17.653 -12.106  -2.127  1.00  0.00     0.117 C 
ATOM     27  H   GLN A   1     -19.944 -11.693  -1.059  1.00  0.00     0.163 HD
ENDBRANCH  15  23
ENDBRANCH  12  15
ENDBRANCH   5  11
ENDBRANCH   2   5
BRANCH   1  28
ATOM     28  CA  GLN A   1     -21.668  -4.973  -6.423  1.00  0.00     0.180 C 
BRANCH  28  29
ATOM     29  CB  GLN A   1     -20.305  -4.248  -6.191  1.00  0.00     0.009 C 
ATOM     30  CG1 GLN A   1     -19.748  -4.468  -4.774  1.00  0.00     0.012 C 
ATOM     31  CG2 GLN A   1     -19.214  -4.689  -7.178  1.00  0.00     0.012 C 
ENDBRANCH  28  29
BRANCH  28  32
ATOM     32  C   GLN A   1     -22.098  -4.851  -7.923  1.00  0.00     0.241 C 
ATOM     33  O   GLN A   1     -21.955  -5.747  -8.748  1.00  0.00    -0.271 OA
ATOM     34  N   GLN A   1     -22.621  -3.626  -8.285  1.00  0.00    -0.344 N 
ATOM     35  H   GLN A   1     -23.041  -3.109  -7.512  1.00  0.00     0.163 HD
BRANCH  34  36
ATOM     36  CA  GLN A   1     -23.122  -3.365  -9.642  1.00  0.00     0.188 C 
BRANCH  36  37
ATOM     37  CB  GLN A   1     -22.309  -4.013 -10.779  1.00  0.00     0.094 C 
BRANCH  37  38
ATOM     38  CG  GLN A   1     -22.700  -3.559 -12.143  1.00  0.00     0.028 A 
ATOM     39  CD2 GLN A   1     -22.500  -4.117 -13.384  1.00  0.00     0.114 A 
ATOM     40  NE2 GLN A   1     -23.000  -3.310 -14.374  1.00  0.00    -0.360 N 
ATOM     41  CE1 GLN A   1     -23.470  -2.251 -13.745  1.00  0.00     0.180 A 
ATOM     42  HE2 GLN A   1     -23.007  -3.489 -15.378  1.00  0.00     0.166 HD
ATOM     43  ND1 GLN A   1     -23.337  -2.369 -12.387  1.00  0.00    -0.354 N 
ATOM     44  HD1 GLN A   1     -23.634  -1.692 -11.692  1.00  0.00     0.166 HD
ENDBRANCH  37  38
ENDBRANCH  36  37
BRANCH  36  45
ATOM     45  C   GLN A   1     -24.606  -3.745  -9.768  1.00  0.00     0.163 C 
ATOM     46  O   GLN A   1     -25.517  -2.935  -9.886  1.00  0.00    -0.648 OA
BRANCH  45  47
ATOM     47  OXT GLN A   1     -24.850  -5.073  -9.657  1.00  0.00    -0.775 OA
ATOM     48  HXT GLN A   1     -25.496  -5.286  -8.953  1.00  0.00     0.167 HD
ENDBRANCH  45  47
ENDBRANCH  36  45
ENDBRANCH  34  36
ENDBRANCH  28  32
ENDBRANCH   1  28
TORSDOF 18
BEGIN_RES ARG D 557
REMARK  4 active torsions:
REMARK  status: ('A' for Active; 'I' for Inactive)
REMARK    1  A    between atoms: CA   and  CB  
REMARK    2  A    between atoms: CB   and  CG  
REMARK    3  A    between atoms: CG   and  CD  
REMARK    4  A    between atoms: CD   and  NE  
REMARK       I    between atoms: NE   and  CZ  
REMARK       I    between atoms: CZ   and  NH1 
REMARK       I    between atoms: CZ   and  NH2 
ROOT
ATOM      1  CA  ARG D 557     -26.217   2.705 -17.014  1.00 35.49     0.159 C 
ENDROOT
BRANCH   1   2
ATOM      2  CB  ARG D 557     -26.789   1.319 -17.183  1.00 35.49     0.034 C 
BRANCH   2   3
ATOM      3  CG  ARG D 557     -28.252   1.207 -17.212  1.00 35.49     0.027 C 
BRANCH   3   4
ATOM      4  CD  ARG D 557     -28.728  -0.102 -16.710  1.00 35.49     0.116 C 
BRANCH   4   5
ATOM      5  NE  ARG D 557     -27.683  -0.844 -16.056  1.00 35.49    -0.212 N 
ATOM      6  CZ  ARG D 557     -27.484  -2.140 -16.155  1.00 35.49     0.666 C 
ATOM      7  NH1 ARG D 557     -28.259  -2.923 -16.882  1.00 35.49    -0.235 N 
ATOM      8  NH2 ARG D 557     -26.472  -2.642 -15.509  1.00 35.49    -0.235 N 
ATOM      9  HH  ARG D 557     -28.929  -2.613 -17.317  1.00 35.49     0.174 HD
ATOM     10  HH  ARG D 557     -28.079  -3.760 -16.911  1.00 35.49     0.174 HD
ATOM     11  HH  ARG D 557     -25.984  -2.111 -15.054  1.00 35.49     0.174 HD
ATOM     12  HH  ARG D 557     -26.309  -3.473 -15.552  1.00 35.49     0.174 HD
ATOM     13  HE  ARG D 557     -27.180  -0.430 -15.510  1.00 35.49     0.178 HD
ENDBRANCH   4   5
ENDBRANCH   3   4
ENDBRANCH   2   3
ENDBRANCH   1   2
END_RES ARG D 557
BEGIN_RES GLU D 570
REMARK  3 active torsions:
REMARK  status: ('A' for Active; 'I' for Inactive)
REMARK    5  A    between atoms: CA   and  CB  
REMARK    6  A    between atoms: CB   and  CG  
REMARK    7  A    between atoms: CG   and  CD  
ROOT
ATOM     14  CA  GLU D 570     -18.033  -6.348 -13.375  1.00 32.92     0.160 C 
ENDROOT
BRANCH  14  15
ATOM     15  CB  GLU D 570     -19.500  -6.345 -13.794  1.00 32.92     0.043 C 
BRANCH  15  16
ATOM     16  CG  GLU D 570     -19.796  -6.339 -15.250  1.00 32.92     0.100 C 
BRANCH  16  17
ATOM     17  CD  GLU D 570     -20.913  -7.284 -15.628  1.00 32.92     0.185 C 
ATOM     18  OE1 GLU D 570     -22.037  -6.817 -15.895  1.00 32.92    -0.647 OA
ATOM     19  OE2 GLU D 570     -20.665  -8.506 -15.642  1.00 32.92    -0.647 OA
ENDBRANCH  16  17
ENDBRANCH  15  16
ENDBRANCH  14  15
END_RES GLU D 570
ENDMDL
MODEL 4
REMARK VINA RESULT:      -8.0      8.516     14.588
REMARK  18 active torsions:
REMARK  status: ('A' for Active; 'I' for Inactive)
REMARK    1  A    between atoms: CB_2  and  CA_4 
REMARK    2  A    between atoms: CA_4  and  C_5 
REMARK    3  A    between atoms: CA_4  and  N_19 
REMARK       I    between atoms: C_5  and  N_7 
REMARK    4  A    between atoms: N_7  and  CA_8 
REMARK    5  A    between atoms: CA_8  and  CB_9 
REMARK    6  A    between atoms: CA_8  and  C_16 
REMARK    7  A    between atoms: CB_9  and  CG_10 
REMARK    8  A    between atoms: C_16  and  OXT_18 
REMARK       I    between atoms: N_19  and  C_20 
REMARK    9  A    between atoms: C_20  and  CA_22 
REMARK   10  A    between atoms: CA_22  and  CB_23 
REMARK   11  A    between atoms: CA_22  and  N_27 
REMARK   12  A    between atoms: CB_23  and  CG_24 
REMARK   13  A    between atoms: CG_24  and  OD2_26 
REMARK       I    between atoms: N_27  and  C_28 
REMARK   14  A    between atoms: C_28  and  CA_30 
REMARK   15  A    between atoms: CA_30  and  CB_31 
REMARK   16  A    between atoms: CA_30  and  N_36 
REMARK   17  A    between atoms: CB_31  and  CG_32 
REMARK   18  A    between atoms: CG_32  and  CD_33 
REMARK       I    between atoms: CD_33  and  NE2_35 
REMARK       I    between atoms: N_36  and  C_46 
ROOT
ATOM      1  N   GLN A   1     -21.027  -9.301  -4.032  1.00  0.00    -0.346 N 
ATOM      2  C   GLN A   1     -21.652 -10.502  -3.794  1.00  0.00     0.241 C 
ATOM      3  O   GLN A   1     -22.874 -10.563  -3.629  1.00  0.00    -0.271 OA
ATOM      4  H   GLN A   1     -20.011  -9.296  -3.953  1.00  0.00     0.163 HD
ENDROOT
BRANCH   2   5
ATOM      5  CA  GLN A   1     -20.758 -11.766  -3.765  1.00  0.00     0.186 C 
BRANCH   5   6
ATOM      6  CB  GLN A   1     -20.941 -12.695  -4.974  1.00  0.00     0.144 C 
BRANCH   6   7
ATOM      7  CG  GLN A   1     -20.892 -11.971  -6.292  1.00  0.00     0.141 C 
ATOM      8  OD1 GLN A   1     -21.846 -11.874  -7.048  1.00  0.00    -0.650 OA
BRANCH   7   9
ATOM      9  OD2 GLN A   1     -19.679 -11.475  -6.606  1.00  0.00    -0.776 OA
ATOM     10  HD2 GLN A   1     -19.379 -10.726  -6.045  1.00  0.00     0.167 HD
ENDBRANCH   7   9
ENDBRANCH   6   7
ENDBRANCH   5   6
BRANCH   5  11
ATOM     11  N   GLN A   1     -19.367 -11.403  -3.516  1.00  0.00    -0.346 N 
ATOM     12  C   GLN A   1     -18.777 -11.571  -2.280  1.00  0.00     0.241 C 
ATOM     13  O   GLN A   1     -19.368 -12.071  -1.326  1.00  0.00    -0.271 OA
ATOM     14  H   GLN A   1     -18.762 -11.237  -4.315  1.00  0.00     0.163 HD
BRANCH  12  15
ATOM     15  CA  GLN A   1     -17.274 -11.231  -2.251  1.00  0.00     0.177 C 
BRANCH  15  16
ATOM     16  CB  GLN A   1     -17.012  -9.787  -2.704  1.00  0.00     0.044 C 
BRANCH  16  17
ATOM     17  CG  GLN A   1     -16.029  -9.701  -3.876  1.00  0.00     0.105 C 
BRANCH  17  18
ATOM     18  CD  GLN A   1     -16.684 -10.027  -5.200  1.00  0.00     0.215 C 
ATOM     19  OE1 GLN A   1     -17.810  -9.656  -5.511  1.00  0.00    -0.274 OA
ATOM     20  NE2 GLN A   1     -15.903 -10.734  -6.069  1.00  0.00    -0.370 N 
ATOM     21 1HE2 GLN A   1     -15.161 -11.325  -5.719  1.00  0.00     0.159 HD
ATOM     22 2HE2 GLN A   1     -16.377 -11.065  -6.899  1.00  0.00     0.159 HD
ENDBRANCH  17  18
ENDBRANCH  16  17
ENDBRANCH  15  16
BRANCH  15  23
ATOM     23  N   GLN A   1     -16.823 -11.420  -0.874  1.00  0.00    -0.348 N 
HETATM   24  C   UNK A   0     -15.777 -12.249  -0.554  1.00  0.00     0.214 C 
HETATM   25  O   UNK A   0     -15.146 -12.890  -1.387  1.00  0.00    -0.274 OA
HETATM   26  C   UNK A   0     -15.406 -12.258   0.904  1.00  0.00     0.117 C 
ATOM     27  H   GLN A   1     -17.333 -10.935  -0.144  1.00  0.00     0.163 HD
ENDBRANCH  15  23
ENDBRANCH  12  15
ENDBRANCH   5  11
ENDBRANCH   2   5
BRANCH   1  28
ATOM     28  CA  GLN A   1     -21.673  -7.970  -3.991  1.00  0.00     0.180 C 
BRANCH  28  29
ATOM     29  CB  GLN A   1     -21.082  -7.104  -2.834  1.00  0.00     0.009 C 
ATOM     30  CG1 GLN A   1     -22.166  -6.349  -2.044  1.00  0.00     0.012 C 
ATOM     31  CG2 GLN A   1     -20.275  -7.927  -1.819  1.00  0.00     0.012 C 
ENDBRANCH  28  29
BRANCH  28  32
ATOM     32  C   GLN A   1     -21.487  -7.239  -5.363  1.00  0.00     0.241 C 
ATOM     33  O   GLN A   1     -20.802  -7.677  -6.282  1.00  0.00    -0.271 OA
ATOM     34  N   GLN A   1     -22.120  -6.017  -5.467  1.00  0.00    -0.344 N 
ATOM     35  H   GLN A   1     -22.931  -5.916  -4.854  1.00  0.00     0.163 HD
BRANCH  34  36
ATOM     36  CA  GLN A   1     -22.089  -5.228  -6.706  1.00  0.00     0.188 C 
BRANCH  36  37
ATOM     37  CB  GLN A   1     -23.416  -4.541  -7.083  1.00  0.00     0.094 C 
BRANCH  37  38
ATOM     38  CG  GLN A   1     -23.563  -4.255  -8.537  1.00  0.00     0.028 A 
ATOM     39  CD2 GLN A   1     -22.835  -4.671  -9.628  1.00  0.00     0.114 A 
ATOM     40  NE2 GLN A   1     -23.314  -4.109 -10.784  1.00  0.00    -0.360 N 
ATOM     41  CE1 GLN A   1     -24.305  -3.331 -10.398  1.00  0.00     0.180 A 
ATOM     42  HE2 GLN A   1     -22.978  -4.261 -11.735  1.00  0.00     0.166 HD
ATOM     43  ND1 GLN A   1     -24.513  -3.408  -9.046  1.00  0.00    -0.354 N 
ATOM     44  HD1 GLN A   1     -25.223  -2.913  -8.517  1.00  0.00     0.166 HD
ENDBRANCH  37  38
ENDBRANCH  36  37
BRANCH  36  45
ATOM     45  C   GLN A   1     -20.948  -4.199  -6.680  1.00  0.00     0.163 C 
ATOM     46  O   GLN A   1     -19.781  -4.470  -6.426  1.00  0.00    -0.648 OA
BRANCH  45  47
ATOM     47  OXT GLN A   1     -21.349  -2.921  -6.886  1.00  0.00    -0.775 OA
ATOM     48  HXT GLN A   1     -20.910  -2.501  -7.653  1.00  0.00     0.167 HD
ENDBRANCH  45  47
ENDBRANCH  36  45
ENDBRANCH  34  36
ENDBRANCH  28  32
ENDBRANCH   1  28
TORSDOF 18
BEGIN_RES ARG D 557
REMARK  4 active torsions:
REMARK  status: ('A' for Active; 'I' for Inactive)
REMARK    1  A    between atoms: CA   and  CB  
REMARK    2  A    between atoms: CB   and  CG  
REMARK    3  A    between atoms: CG   and  CD  
REMARK    4  A    between atoms: CD   and  NE  
REMARK       I    between atoms: NE   and  CZ  
REMARK       I    between atoms: CZ   and  NH1 
REMARK       I    between atoms: CZ   and  NH2 
ROOT
ATOM      1  CA  ARG D 557     -26.217   2.705 -17.014  1.00 35.49     0.159 C 
ENDROOT
BRANCH   1   2
ATOM      2  CB  ARG D 557     -26.789   1.319 -17.183  1.00 35.49     0.034 C 
BRANCH   2   3
ATOM      3  CG  ARG D 557     -28.226   1.228 -17.468  1.00 35.49     0.027 C 
BRANCH   3   4
ATOM      4  CD  ARG D 557     -28.861   0.069 -16.799  1.00 35.49     0.116 C 
BRANCH   4   5
ATOM      5  NE  ARG D 557     -27.890  -0.832 -16.236  1.00 35.49    -0.212 N 
ATOM      6  CZ  ARG D 557     -27.822  -2.125 -16.460  1.00 35.49     0.666 C 
ATOM      7  NH1 ARG D 557     -28.678  -2.755 -17.243  1.00 35.49    -0.235 N 
ATOM      8  NH2 ARG D 557     -26.861  -2.784 -15.882  1.00 35.49    -0.235 N 
ATOM      9  HH  ARG D 557     -29.317  -2.341 -17.635  1.00 35.49     0.174 HD
ATOM     10  HH  ARG D 557     -28.583  -3.600 -17.354  1.00 35.49     0.174 HD
ATOM     11  HH  ARG D 557     -26.318  -2.350 -15.388  1.00 35.49     0.174 HD
ATOM     12  HH  ARG D 557     -26.782  -3.620 -16.006  1.00 35.49     0.174 HD
ATOM     13  HE  ARG D 557     -27.344  -0.523 -15.663  1.00 35.49     0.178 HD
ENDBRANCH   4   5
ENDBRANCH   3   4
ENDBRANCH   2   3
ENDBRANCH   1   2
END_RES ARG D 557
BEGIN_RES GLU D 570
REMARK  3 active torsions:
REMARK  status: ('A' for Active; 'I' for Inactive)
REMARK    5  A    between atoms: CA   and  CB  
REMARK    6  A    between atoms: CB   and  CG  
REMARK    7  A    between atoms: CG   and  CD  
ROOT
ATOM     14  CA  GLU D 570     -18.033  -6.348 -13.375  1.00 32.92     0.160 C 
ENDROOT
BRANCH  14  15
ATOM     15  CB  GLU D 570     -19.500  -6.345 -13.794  1.00 32.92     0.043 C 
BRANCH  15  16
ATOM     16  CG  GLU D 570     -20.427  -5.468 -13.033  1.00 32.92     0.100 C 
BRANCH  16  17
ATOM     17  CD  GLU D 570     -21.701  -5.163 -13.787  1.00 32.92     0.185 C 
ATOM     18  OE1 GLU D 570     -22.399  -4.194 -13.429  1.00 32.92    -0.647 OA
ATOM     19  OE2 GLU D 570     -22.013  -5.910 -14.735  1.00 32.92    -0.647 OA
ENDBRANCH  16  17
ENDBRANCH  15  16
ENDBRANCH  14  15
END_RES GLU D 570
ENDMDL
MODEL 5
REMARK VINA RESULT:      -7.8      7.577     13.092
REMARK  18 active torsions:
REMARK  status: ('A' for Active; 'I' for Inactive)
REMARK    1  A    between atoms: CB_2  and  CA_4 
REMARK    2  A    between atoms: CA_4  and  C_5 
REMARK    3  A    between atoms: CA_4  and  N_19 
REMARK       I    between atoms: C_5  and  N_7 
REMARK    4  A    between atoms: N_7  and  CA_8 
REMARK    5  A    between atoms: CA_8  and  CB_9 
REMARK    6  A    between atoms: CA_8  and  C_16 
REMARK    7  A    between atoms: CB_9  and  CG_10 
REMARK    8  A    between atoms: C_16  and  OXT_18 
REMARK       I    between atoms: N_19  and  C_20 
REMARK    9  A    between atoms: C_20  and  CA_22 
REMARK   10  A    between atoms: CA_22  and  CB_23 
REMARK   11  A    between atoms: CA_22  and  N_27 
REMARK   12  A    between atoms: CB_23  and  CG_24 
REMARK   13  A    between atoms: CG_24  and  OD2_26 
REMARK       I    between atoms: N_27  and  C_28 
REMARK   14  A    between atoms: C_28  and  CA_30 
REMARK   15  A    between atoms: CA_30  and  CB_31 
REMARK   16  A    between atoms: CA_30  and  N_36 
REMARK   17  A    between atoms: CB_31  and  CG_32 
REMARK   18  A    between atoms: CG_32  and  CD_33 
REMARK       I    between atoms: CD_33  and  NE2_35 
REMARK       I    between atoms: N_36  and  C_46 
ROOT
ATOM      1  N   GLN A   1     -21.378  -6.457  -6.260  1.00  0.00    -0.346 N 
ATOM      2  C   GLN A   1     -21.689  -7.111  -5.091  1.00  0.00     0.241 C 
ATOM      3  O   GLN A   1     -22.326  -6.549  -4.195  1.00  0.00    -0.271 OA
ATOM      4  H   GLN A   1     -20.684  -6.904  -6.857  1.00  0.00     0.163 HD
ENDROOT
BRANCH   2   5
ATOM      5  CA  GLN A   1     -21.224  -8.583  -4.963  1.00  0.00     0.186 C 
BRANCH   5   6
ATOM      6  CB  GLN A   1     -19.756  -8.816  -5.347  1.00  0.00     0.144 C 
BRANCH   6   7
ATOM      7  CG  GLN A   1     -19.010  -9.666  -4.356  1.00  0.00     0.141 C 
ATOM      8  OD1 GLN A   1     -18.850 -10.870  -4.481  1.00  0.00    -0.650 OA
BRANCH   7   9
ATOM      9  OD2 GLN A   1     -18.571  -8.996  -3.271  1.00  0.00    -0.776 OA
ATOM     10  HD2 GLN A   1     -18.911  -9.332  -2.412  1.00  0.00     0.167 HD
ENDBRANCH   7   9
ENDBRANCH   6   7
ENDBRANCH   5   6
BRANCH   5  11
ATOM     11  N   GLN A   1     -21.574  -9.118  -3.652  1.00  0.00    -0.346 N 
ATOM     12  C   GLN A   1     -22.110 -10.380  -3.495  1.00  0.00     0.241 C 
ATOM     13  O   GLN A   1     -22.287 -11.146  -4.439  1.00  0.00    -0.271 OA
ATOM     14  H   GLN A   1     -21.211  -8.648  -2.827  1.00  0.00     0.163 HD
BRANCH  12  15
ATOM     15  CA  GLN A   1     -22.306 -10.800  -2.025  1.00  0.00     0.177 C 
BRANCH  15  16
ATOM     16  CB  GLN A   1     -21.191 -11.744  -1.553  1.00  0.00     0.044 C 
BRANCH  16  17
ATOM     17  CG  GLN A   1     -20.072 -11.013  -0.803  1.00  0.00     0.105 C 
BRANCH  17  18
ATOM     18  CD  GLN A   1     -18.784 -11.806  -0.781  1.00  0.00     0.215 C 
ATOM     19  OE1 GLN A   1     -18.091 -11.950   0.219  1.00  0.00    -0.274 OA
ATOM     20  NE2 GLN A   1     -18.460 -12.409  -1.962  1.00  0.00    -0.370 N 
ATOM     21 1HE2 GLN A   1     -18.799 -12.029  -2.836  1.00  0.00     0.159 HD
ATOM     22 2HE2 GLN A   1     -17.541 -12.830  -1.991  1.00  0.00     0.159 HD
ENDBRANCH  17  18
ENDBRANCH  16  17
ENDBRANCH  15  16
BRANCH  15  23
ATOM     23  N   GLN A   1     -22.302  -9.573  -1.230  1.00  0.00    -0.348 N 
HETATM   24  C   UNK A   0     -23.181  -9.369  -0.197  1.00  0.00     0.214 C 
HETATM   25  O   UNK A   0     -24.030 -10.187   0.139  1.00  0.00    -0.274 OA
HETATM   26  C   UNK A   0     -22.978  -8.082   0.556  1.00  0.00     0.117 C 
ATOM     27  H   GLN A   1     -21.639  -8.851  -1.488  1.00  0.00     0.163 HD
ENDBRANCH  15  23
ENDBRANCH  12  15
ENDBRANCH   5  11
ENDBRANCH   2   5
BRANCH   1  28
ATOM     28  CA  GLN A   1     -21.628  -5.025  -6.539  1.00  0.00     0.180 C 
BRANCH  28  29
ATOM     29  CB  GLN A   1     -20.351  -4.174  -6.249  1.00  0.00     0.009 C 
ATOM     30  CG1 GLN A   1     -19.768  -4.435  -4.849  1.00  0.00     0.012 C 
ATOM     31  CG2 GLN A   1     -19.222  -4.420  -7.261  1.00  0.00     0.012 C 
ENDBRANCH  28  29
BRANCH  28  32
ATOM     32  C   GLN A   1     -22.077  -4.838  -8.026  1.00  0.00     0.241 C 
ATOM     33  O   GLN A   1     -21.950  -5.699  -8.891  1.00  0.00    -0.271 OA
ATOM     34  N   GLN A   1     -22.598  -3.596  -8.329  1.00  0.00    -0.344 N 
ATOM     35  H   GLN A   1     -23.005  -3.110  -7.528  1.00  0.00     0.163 HD
BRANCH  34  36
ATOM     36  CA  GLN A   1     -23.116  -3.275  -9.666  1.00  0.00     0.188 C 
BRANCH  36  37
ATOM     37  CB  GLN A   1     -22.246  -3.759 -10.842  1.00  0.00     0.094 C 
BRANCH  37  38
ATOM     38  CG  GLN A   1     -22.644  -3.201 -12.165  1.00  0.00     0.028 A 
ATOM     39  CD2 GLN A   1     -23.558  -2.233 -12.510  1.00  0.00     0.114 A 
ATOM     40  NE2 GLN A   1     -23.622  -2.079 -13.872  1.00  0.00    -0.360 N 
ATOM     41  CE1 GLN A   1     -22.780  -2.970 -14.355  1.00  0.00     0.180 A 
ATOM     42  HE2 GLN A   1     -24.197  -1.419 -14.396  1.00  0.00     0.166 HD
ATOM     43  ND1 GLN A   1     -22.140  -3.656 -13.356  1.00  0.00    -0.354 N 
ATOM     44  HD1 GLN A   1     -21.441  -4.381 -13.476  1.00  0.00     0.166 HD
ENDBRANCH  37  38
ENDBRANCH  36  37
BRANCH  36  45
ATOM     45  C   GLN A   1     -24.560  -3.772  -9.836  1.00  0.00     0.163 C 
ATOM     46  O   GLN A   1     -25.551  -3.060  -9.727  1.00  0.00    -0.648 OA
BRANCH  45  47
ATOM     47  OXT GLN A   1     -24.667  -5.107 -10.042  1.00  0.00    -0.775 OA
ATOM     48  HXT GLN A   1     -25.505  -5.360 -10.480  1.00  0.00     0.167 HD
ENDBRANCH  45  47
ENDBRANCH  36  45
ENDBRANCH  34  36
ENDBRANCH  28  32
ENDBRANCH   1  28
TORSDOF 18
BEGIN_RES ARG D 557
REMARK  4 active torsions:
REMARK  status: ('A' for Active; 'I' for Inactive)
REMARK    1  A    between atoms: CA   and  CB  
REMARK    2  A    between atoms: CB   and  CG  
REMARK    3  A    between atoms: CG   and  CD  
REMARK    4  A    between atoms: CD   and  NE  
REMARK       I    between atoms: NE   and  CZ  
REMARK       I    between atoms: CZ   and  NH1 
REMARK       I    between atoms: CZ   and  NH2 
ROOT
ATOM      1  CA  ARG D 557     -26.217   2.705 -17.014  1.00 35.49     0.159 C 
ENDROOT
BRANCH   1   2
ATOM      2  CB  ARG D 557     -26.789   1.319 -17.183  1.00 35.49     0.034 C 
BRANCH   2   3
ATOM      3  CG  ARG D 557     -28.222   1.158 -16.910  1.00 35.49     0.027 C 
BRANCH   3   4
ATOM      4  CD  ARG D 557     -28.623  -0.265 -16.820  1.00 35.49     0.116 C 
BRANCH   4   5
ATOM      5  NE  ARG D 557     -27.654  -1.058 -16.111  1.00 35.49    -0.212 N 
ATOM      6  CZ  ARG D 557     -27.534  -2.365 -16.178  1.00 35.49     0.666 C 
ATOM      7  NH1 ARG D 557     -28.328  -3.113 -16.921  1.00 35.49    -0.235 N 
ATOM      8  NH2 ARG D 557     -26.583  -2.917 -15.482  1.00 35.49    -0.235 N 
ATOM      9  HH  ARG D 557     -28.959  -2.771 -17.389  1.00 35.49     0.174 HD
ATOM     10  HH  ARG D 557     -28.201  -3.960 -16.928  1.00 35.49     0.174 HD
ATOM     11  HH  ARG D 557     -26.080  -2.408 -15.017  1.00 35.49     0.174 HD
ATOM     12  HH  ARG D 557     -26.471  -3.757 -15.503  1.00 35.49     0.174 HD
ATOM     13  HE  ARG D 557     -27.148  -0.664 -15.552  1.00 35.49     0.178 HD
ENDBRANCH   4   5
ENDBRANCH   3   4
ENDBRANCH   2   3
ENDBRANCH   1   2
END_RES ARG D 557
BEGIN_RES GLU D 570
REMARK  3 active torsions:
REMARK  status: ('A' for Active; 'I' for Inactive)
REMARK    5  A    between atoms: CA   and  CB  
REMARK    6  A    between atoms: CB   and  CG  
REMARK    7  A    between atoms: CG   and  CD  
ROOT
ATOM     14  CA  GLU D 570     -18.033  -6.348 -13.375  1.00 32.92     0.160 C 
ENDROOT
BRANCH  14  15
ATOM     15  CB  GLU D 570     -19.500  -6.345 -13.794  1.00 32.92     0.043 C 
BRANCH  15  16
ATOM     16  CG  GLU D 570     -19.797  -6.254 -15.247  1.00 32.92     0.100 C 
BRANCH  16  17
ATOM     17  CD  GLU D 570     -21.269  -6.083 -15.538  1.00 32.92     0.185 C 
ATOM     18  OE1 GLU D 570     -21.617  -5.577 -16.623  1.00 32.92    -0.647 OA
ATOM     19  OE2 GLU D 570     -22.084  -6.442 -14.665  1.00 32.92    -0.647 OA
ENDBRANCH  16  17
ENDBRANCH  15  16
ENDBRANCH  14  15
END_RES GLU D 570
ENDMDL
MODEL 6
REMARK VINA RESULT:      -7.8     10.251     15.477
REMARK  18 active torsions:
REMARK  status: ('A' for Active; 'I' for Inactive)
REMARK    1  A    between atoms: CB_2  and  CA_4 
REMARK    2  A    between atoms: CA_4  and  C_5 
REMARK    3  A    between atoms: CA_4  and  N_19 
REMARK       I    between atoms: C_5  and  N_7 
REMARK    4  A    between atoms: N_7  and  CA_8 
REMARK    5  A    between atoms: CA_8  and  CB_9 
REMARK    6  A    between atoms: CA_8  and  C_16 
REMARK    7  A    between atoms: CB_9  and  CG_10 
REMARK    8  A    between atoms: C_16  and  OXT_18 
REMARK       I    between atoms: N_19  and  C_20 
REMARK    9  A    between atoms: C_20  and  CA_22 
REMARK   10  A    between atoms: CA_22  and  CB_23 
REMARK   11  A    between atoms: CA_22  and  N_27 
REMARK   12  A    between atoms: CB_23  and  CG_24 
REMARK   13  A    between atoms: CG_24  and  OD2_26 
REMARK       I    between atoms: N_27  and  C_28 
REMARK   14  A    between atoms: C_28  and  CA_30 
REMARK   15  A    between atoms: CA_30  and  CB_31 
REMARK   16  A    between atoms: CA_30  and  N_36 
REMARK   17  A    between atoms: CB_31  and  CG_32 
REMARK   18  A    between atoms: CG_32  and  CD_33 
REMARK       I    between atoms: CD_33  and  NE2_35 
REMARK       I    between atoms: N_36  and  C_46 
ROOT
ATOM      1  N   GLN A   1     -18.108 -11.826  -1.793  1.00  0.00    -0.346 N 
ATOM      2  C   GLN A   1     -18.643 -10.760  -2.477  1.00  0.00     0.241 C 
ATOM      3  O   GLN A   1     -17.923  -9.973  -3.097  1.00  0.00    -0.271 OA
ATOM      4  H   GLN A   1     -18.729 -12.305  -1.144  1.00  0.00     0.163 HD
ENDROOT
BRANCH   2   5
ATOM      5  CA  GLN A   1     -20.185 -10.611  -2.451  1.00  0.00     0.186 C 
BRANCH   5   6
ATOM      6  CB  GLN A   1     -20.869 -11.345  -1.288  1.00  0.00     0.144 C 
BRANCH   6   7
ATOM      7  CG  GLN A   1     -22.365 -11.189  -1.285  1.00  0.00     0.141 C 
ATOM      8  OD1 GLN A   1     -23.055 -11.250  -2.290  1.00  0.00    -0.650 OA
BRANCH   7   9
ATOM      9  OD2 GLN A   1     -22.891 -10.916  -0.074  1.00  0.00    -0.776 OA
ATOM     10  HD2 GLN A   1     -22.980 -11.692   0.523  1.00  0.00     0.167 HD
ENDBRANCH   7   9
ENDBRANCH   6   7
ENDBRANCH   5   6
BRANCH   5  11
ATOM     11  N   GLN A   1     -20.565  -9.206  -2.554  1.00  0.00    -0.346 N 
ATOM     12  C   GLN A   1     -21.176  -8.695  -3.681  1.00  0.00     0.241 C 
ATOM     13  O   GLN A   1     -21.475  -9.393  -4.647  1.00  0.00    -0.271 OA
ATOM     14  H   GLN A   1     -20.585  -8.648  -1.705  1.00  0.00     0.163 HD
BRANCH  12  15
ATOM     15  CA  GLN A   1     -21.595  -7.218  -3.551  1.00  0.00     0.177 C 
BRANCH  15  16
ATOM     16  CB  GLN A   1     -21.229  -6.646  -2.173  1.00  0.00     0.044 C 
BRANCH  16  17
ATOM     17  CG  GLN A   1     -22.427  -6.579  -1.220  1.00  0.00     0.105 C 
BRANCH  17  18
ATOM     18  CD  GLN A   1     -22.351  -7.624  -0.130  1.00  0.00     0.215 C 
ATOM     19  OE1 GLN A   1     -21.307  -8.154   0.233  1.00  0.00    -0.274 OA
ATOM     20  NE2 GLN A   1     -23.540  -7.910   0.476  1.00  0.00    -0.370 N 
ATOM     21 1HE2 GLN A   1     -24.409  -7.768  -0.019  1.00  0.00     0.159 HD
ATOM     22 2HE2 GLN A   1     -23.519  -8.697   1.113  1.00  0.00     0.159 HD
ENDBRANCH  17  18
ENDBRANCH  16  17
ENDBRANCH  15  16
BRANCH  15  23
ATOM     23  N   GLN A   1     -20.897  -6.484  -4.606  1.00  0.00    -0.348 N 
HETATM   24  C   UNK A   0     -21.568  -5.758  -5.558  1.00  0.00     0.214 C 
HETATM   25  O   UNK A   0     -22.790  -5.667  -5.600  1.00  0.00    -0.274 OA
HETATM   26  C   UNK A   0     -20.682  -5.009  -6.515  1.00  0.00     0.117 C 
ATOM     27  H   GLN A   1     -19.887  -6.553  -4.633  1.00  0.00     0.163 HD
ENDBRANCH  15  23
ENDBRANCH  12  15
ENDBRANCH   5  11
ENDBRANCH   2   5
BRANCH   1  28
ATOM     28  CA  GLN A   1     -16.663 -12.087  -1.599  1.00  0.00     0.180 C 
BRANCH  28  29
ATOM     29  CB  GLN A   1     -16.415 -12.859  -0.264  1.00  0.00     0.009 C 
ATOM     30  CG1 GLN A   1     -15.595 -12.043   0.750  1.00  0.00     0.012 C 
ATOM     31  CG2 GLN A   1     -17.716 -13.277   0.439  1.00  0.00     0.012 C 
ENDBRANCH  28  29
BRANCH  28  32
ATOM     32  C   GLN A   1     -16.097 -12.902  -2.809  1.00  0.00     0.241 C 
ATOM     33  O   GLN A   1     -15.969 -14.122  -2.809  1.00  0.00    -0.271 OA
ATOM     34  N   GLN A   1     -15.694 -12.143  -3.889  1.00  0.00    -0.344 N 
ATOM     35  H   GLN A   1     -16.164 -11.240  -3.960  1.00  0.00     0.163 HD
BRANCH  34  36
ATOM     36  CA  GLN A   1     -15.189 -12.757  -5.125  1.00  0.00     0.188 C 
BRANCH  36  37
ATOM     37  CB  GLN A   1     -15.787 -12.198  -6.430  1.00  0.00     0.094 C 
BRANCH  37  38
ATOM     38  CG  GLN A   1     -17.206 -11.760  -6.313  1.00  0.00     0.028 A 
ATOM     39  CD2 GLN A   1     -17.776 -10.509  -6.292  1.00  0.00     0.114 A 
ATOM     40  NE2 GLN A   1     -19.135 -10.589  -6.118  1.00  0.00    -0.360 N 
ATOM     41  CE1 GLN A   1     -19.387 -11.877  -6.000  1.00  0.00     0.180 A 
ATOM     42  HE2 GLN A   1     -19.804  -9.820  -6.087  1.00  0.00     0.166 HD
ATOM     43  ND1 GLN A   1     -18.251 -12.630  -6.140  1.00  0.00    -0.354 N 
ATOM     44  HD1 GLN A   1     -18.191 -13.642  -6.101  1.00  0.00     0.166 HD
ENDBRANCH  37  38
ENDBRANCH  36  37
BRANCH  36  45
ATOM     45  C   GLN A   1     -13.654 -12.707  -5.181  1.00  0.00     0.163 C 
ATOM     46  O   GLN A   1     -12.931 -12.621  -4.196  1.00  0.00    -0.648 OA
BRANCH  45  47
ATOM     47  OXT GLN A   1     -13.146 -12.685  -6.437  1.00  0.00    -0.775 OA
ATOM     48  HXT GLN A   1     -12.169 -12.753  -6.455  1.00  0.00     0.167 HD
ENDBRANCH  45  47
ENDBRANCH  36  45
ENDBRANCH  34  36
ENDBRANCH  28  32
ENDBRANCH   1  28
TORSDOF 18
BEGIN_RES ARG D 557
REMARK  4 active torsions:
REMARK  status: ('A' for Active; 'I' for Inactive)
REMARK    1  A    between atoms: CA   and  CB  
REMARK    2  A    between atoms: CB   and  CG  
REMARK    3  A    between atoms: CG   and  CD  
REMARK    4  A    between atoms: CD   and  NE  
REMARK       I    between atoms: NE   and  CZ  
REMARK       I    between atoms: CZ   and  NH1 
REMARK       I    between atoms: CZ   and  NH2 
ROOT
ATOM      1  CA  ARG D 557     -26.217   2.705 -17.014  1.00 35.49     0.159 C 
ENDROOT
BRANCH   1   2
ATOM      2  CB  ARG D 557     -26.789   1.319 -17.183  1.00 35.49     0.034 C 
BRANCH   2   3
ATOM      3  CG  ARG D 557     -25.862   0.195 -17.004  1.00 35.49     0.027 C 
BRANCH   3   4
ATOM      4  CD  ARG D 557     -26.252  -0.685 -15.879  1.00 35.49     0.116 C 
BRANCH   4   5
ATOM      5  NE  ARG D 557     -25.193  -0.839 -14.917  1.00 35.49    -0.212 N 
ATOM      6  CZ  ARG D 557     -24.806  -1.972 -14.376  1.00 35.49     0.666 C 
ATOM      7  NH1 ARG D 557     -25.380  -3.126 -14.659  1.00 35.49    -0.235 N 
ATOM      8  NH2 ARG D 557     -23.812  -1.927 -13.537  1.00 35.49    -0.235 N 
ATOM      9  HH  ARG D 557     -26.034  -3.179 -15.210  1.00 35.49     0.174 HD
ATOM     10  HH  ARG D 557     -25.083  -3.833 -14.277  1.00 35.49     0.174 HD
ATOM     11  HH  ARG D 557     -23.455  -1.169 -13.378  1.00 35.49     0.174 HD
ATOM     12  HH  ARG D 557     -23.531  -2.638 -13.170  1.00 35.49     0.174 HD
ATOM     13  HE  ARG D 557     -24.816  -0.136 -14.623  1.00 35.49     0.178 HD
ENDBRANCH   4   5
ENDBRANCH   3   4
ENDBRANCH   2   3
ENDBRANCH   1   2
END_RES ARG D 557
BEGIN_RES GLU D 570
REMARK  3 active torsions:
REMARK  status: ('A' for Active; 'I' for Inactive)
REMARK    5  A    between atoms: CA   and  CB  
REMARK    6  A    between atoms: CB   and  CG  
REMARK    7  A    between atoms: CG   and  CD  
ROOT
ATOM     14  CA  GLU D 570     -18.033  -6.348 -13.375  1.00 32.92     0.160 C 
ENDROOT
BRANCH  14  15
ATOM     15  CB  GLU D 570     -19.500  -6.345 -13.794  1.00 32.92     0.043 C 
BRANCH  15  16
ATOM     16  CG  GLU D 570     -20.441  -5.525 -12.987  1.00 32.92     0.100 C 
BRANCH  16  17
ATOM     17  CD  GLU D 570     -21.653  -5.079 -13.770  1.00 32.92     0.185 C 
ATOM     18  OE1 GLU D 570     -21.641  -5.174 -15.012  1.00 32.92    -0.647 OA
ATOM     19  OE2 GLU D 570     -22.620  -4.613 -13.135  1.00 32.92    -0.647 OA
ENDBRANCH  16  17
ENDBRANCH  15  16
ENDBRANCH  14  15
END_RES GLU D 570
ENDMDL
MODEL 7
REMARK VINA RESULT:      -7.7      8.265     13.313
REMARK  18 active torsions:
REMARK  status: ('A' for Active; 'I' for Inactive)
REMARK    1  A    between atoms: CB_2  and  CA_4 
REMARK    2  A    between atoms: CA_4  and  C_5 
REMARK    3  A    between atoms: CA_4  and  N_19 
REMARK       I    between atoms: C_5  and  N_7 
REMARK    4  A    between atoms: N_7  and  CA_8 
REMARK    5  A    between atoms: CA_8  and  CB_9 
REMARK    6  A    between atoms: CA_8  and  C_16 
REMARK    7  A    between atoms: CB_9  and  CG_10 
REMARK    8  A    between atoms: C_16  and  OXT_18 
REMARK       I    between atoms: N_19  and  C_20 
REMARK    9  A    between atoms: C_20  and  CA_22 
REMARK   10  A    between atoms: CA_22  and  CB_23 
REMARK   11  A    between atoms: CA_22  and  N_27 
REMARK   12  A    between atoms: CB_23  and  CG_24 
REMARK   13  A    between atoms: CG_24  and  OD2_26 
REMARK       I    between atoms: N_27  and  C_28 
REMARK   14  A    between atoms: C_28  and  CA_30 
REMARK   15  A    between atoms: CA_30  and  CB_31 
REMARK   16  A    between atoms: CA_30  and  N_36 
REMARK   17  A    between atoms: CB_31  and  CG_32 
REMARK   18  A    between atoms: CG_32  and  CD_33 
REMARK       I    between atoms: CD_33  and  NE2_35 
REMARK       I    between atoms: N_36  and  C_46 
ROOT
ATOM      1  N   GLN A   1     -19.819  -8.753  -4.055  1.00  0.00    -0.346 N 
ATOM      2  C   GLN A   1     -20.783  -8.491  -5.000  1.00  0.00     0.241 C 
ATOM      3  O   GLN A   1     -21.095  -9.336  -5.844  1.00  0.00    -0.271 OA
ATOM      4  H   GLN A   1     -19.471  -7.952  -3.531  1.00  0.00     0.163 HD
ENDROOT
BRANCH   2   5
ATOM      5  CA  GLN A   1     -21.469  -7.104  -4.939  1.00  0.00     0.186 C 
BRANCH   5   6
ATOM      6  CB  GLN A   1     -20.996  -6.219  -3.776  1.00  0.00     0.144 C 
BRANCH   6   7
ATOM      7  CG  GLN A   1     -21.667  -6.545  -2.470  1.00  0.00     0.141 C 
ATOM      8  OD1 GLN A   1     -22.647  -5.953  -2.045  1.00  0.00    -0.650 OA
BRANCH   7   9
ATOM      9  OD2 GLN A   1     -21.062  -7.521  -1.765  1.00  0.00    -0.776 OA
ATOM     10  HD2 GLN A   1     -20.470  -8.105  -2.290  1.00  0.00     0.167 HD
ENDBRANCH   7   9
ENDBRANCH   6   7
ENDBRANCH   5   6
BRANCH   5  11
ATOM     11  N   GLN A   1     -21.402  -6.443  -6.238  1.00  0.00    -0.346 N 
ATOM     12  C   GLN A   1     -22.365  -5.545  -6.652  1.00  0.00     0.241 C 
ATOM     13  O   GLN A   1     -23.312  -5.214  -5.942  1.00  0.00    -0.271 OA
ATOM     14  H   GLN A   1     -20.524  -6.471  -6.749  1.00  0.00     0.163 HD
BRANCH  12  15
ATOM     15  CA  GLN A   1     -22.056  -4.875  -8.005  1.00  0.00     0.177 C 
BRANCH  15  16
ATOM     16  CB  GLN A   1     -23.187  -3.932  -8.440  1.00  0.00     0.044 C 
BRANCH  16  17
ATOM     17  CG  GLN A   1     -23.193  -3.669  -9.950  1.00  0.00     0.105 C 
BRANCH  17  18
ATOM     18  CD  GLN A   1     -24.587  -3.418 -10.482  1.00  0.00     0.215 C 
ATOM     19  OE1 GLN A   1     -24.826  -3.118 -11.646  1.00  0.00    -0.274 OA
ATOM     20  NE2 GLN A   1     -25.590  -3.603  -9.575  1.00  0.00    -0.370 N 
ATOM     21 1HE2 GLN A   1     -25.407  -3.498  -8.587  1.00  0.00     0.159 HD
ATOM     22 2HE2 GLN A   1     -26.508  -3.312  -9.887  1.00  0.00     0.159 HD
ENDBRANCH  17  18
ENDBRANCH  16  17
ENDBRANCH  15  16
BRANCH  15  23
ATOM     23  N   GLN A   1     -20.811  -4.127  -7.833  1.00  0.00    -0.348 N 
HETATM   24  C   UNK A   0     -19.580  -4.726  -7.921  1.00  0.00     0.214 C 
HETATM   25  O   UNK A   0     -19.426  -5.921  -8.147  1.00  0.00    -0.274 OA
HETATM   26  C   UNK A   0     -18.413  -3.785  -7.792  1.00  0.00     0.117 C 
ATOM     27  H   GLN A   1     -20.885  -3.140  -7.613  1.00  0.00     0.163 HD
ENDBRANCH  15  23
ENDBRANCH  12  15
ENDBRANCH   5  11
ENDBRANCH   2   5
BRANCH   1  28
ATOM     28  CA  GLN A   1     -18.968  -9.964  -4.004  1.00  0.00     0.180 C 
BRANCH  28  29
ATOM     29  CB  GLN A   1     -17.638  -9.674  -3.239  1.00  0.00     0.009 C 
ATOM     30  CG1 GLN A   1     -17.349 -10.708  -2.137  1.00  0.00     0.012 C 
ATOM     31  CG2 GLN A   1     -16.409  -9.641  -4.161  1.00  0.00     0.012 C 
ENDBRANCH  28  29
BRANCH  28  32
ATOM     32  C   GLN A   1     -19.744 -11.137  -3.317  1.00  0.00     0.241 C 
ATOM     33  O   GLN A   1     -19.728 -12.295  -3.722  1.00  0.00    -0.271 OA
ATOM     34  N   GLN A   1     -20.505 -10.775  -2.223  1.00  0.00    -0.344 N 
ATOM     35  H   GLN A   1     -20.176  -9.933  -1.750  1.00  0.00     0.163 HD
BRANCH  34  36
ATOM     36  CA  GLN A   1     -21.251 -11.764  -1.434  1.00  0.00     0.188 C 
BRANCH  36  37
ATOM     37  CB  GLN A   1     -21.363 -11.457   0.071  1.00  0.00     0.094 C 
BRANCH  37  38
ATOM     38  CG  GLN A   1     -21.796 -10.065   0.379  1.00  0.00     0.028 A 
ATOM     39  CD2 GLN A   1     -21.182  -9.051   1.077  1.00  0.00     0.114 A 
ATOM     40  NE2 GLN A   1     -21.987  -7.942   1.145  1.00  0.00    -0.360 N 
ATOM     41  CE1 GLN A   1     -23.097  -8.289   0.523  1.00  0.00     0.180 A 
ATOM     42  HE2 GLN A   1     -21.774  -7.045   1.581  1.00  0.00     0.166 HD
ATOM     43  ND1 GLN A   1     -23.017  -9.558   0.016  1.00  0.00    -0.354 N 
ATOM     44  HD1 GLN A   1     -23.736 -10.042  -0.511  1.00  0.00     0.166 HD
ENDBRANCH  37  38
ENDBRANCH  36  37
BRANCH  36  45
ATOM     45  C   GLN A   1     -22.646 -12.011  -2.030  1.00  0.00     0.163 C 
ATOM     46  O   GLN A   1     -23.230 -13.087  -1.995  1.00  0.00    -0.648 OA
BRANCH  45  47
ATOM     47  OXT GLN A   1     -23.166 -10.944  -2.684  1.00  0.00    -0.775 OA
ATOM     48  HXT GLN A   1     -22.779 -10.093  -2.396  1.00  0.00     0.167 HD
ENDBRANCH  45  47
ENDBRANCH  36  45
ENDBRANCH  34  36
ENDBRANCH  28  32
ENDBRANCH   1  28
TORSDOF 18
BEGIN_RES ARG D 557
REMARK  4 active torsions:
REMARK  status: ('A' for Active; 'I' for Inactive)
REMARK    1  A    between atoms: CA   and  CB  
REMARK    2  A    between atoms: CB   and  CG  
REMARK    3  A    between atoms: CG   and  CD  
REMARK    4  A    between atoms: CD   and  NE  
REMARK       I    between atoms: NE   and  CZ  
REMARK       I    between atoms: CZ   and  NH1 
REMARK       I    between atoms: CZ   and  NH2 
ROOT
ATOM      1  CA  ARG D 557     -26.217   2.705 -17.014  1.00 35.49     0.159 C 
ENDROOT
BRANCH   1   2
ATOM      2  CB  ARG D 557     -26.789   1.319 -17.183  1.00 35.49     0.034 C 
BRANCH   2   3
ATOM      3  CG  ARG D 557     -28.231   1.226 -17.442  1.00 35.49     0.027 C 
BRANCH   3   4
ATOM      4  CD  ARG D 557     -28.915   0.310 -16.502  1.00 35.49     0.116 C 
BRANCH   4   5
ATOM      5  NE  ARG D 557     -28.140  -0.873 -16.236  1.00 35.49    -0.212 N 
ATOM      6  CZ  ARG D 557     -28.379  -2.072 -16.717  1.00 35.49     0.666 C 
ATOM      7  NH1 ARG D 557     -29.402  -2.327 -17.511  1.00 35.49    -0.235 N 
ATOM      8  NH2 ARG D 557     -27.557  -3.026 -16.387  1.00 35.49    -0.235 N 
ATOM      9  HH  ARG D 557     -29.954  -1.714 -17.743  1.00 35.49     0.174 HD
ATOM     10  HH  ARG D 557     -29.507  -3.128 -17.797  1.00 35.49     0.174 HD
ATOM     11  HH  ARG D 557     -26.901  -2.831 -15.878  1.00 35.49     0.174 HD
ATOM     12  HH  ARG D 557     -27.677  -3.813 -16.681  1.00 35.49     0.174 HD
ATOM     13  HE  ARG D 557     -27.503  -0.816 -15.675  1.00 35.49     0.178 HD
ENDBRANCH   4   5
ENDBRANCH   3   4
ENDBRANCH   2   3
ENDBRANCH   1   2
END_RES ARG D 557
BEGIN_RES GLU D 570
REMARK  3 active torsions:
REMARK  status: ('A' for Active; 'I' for Inactive)
REMARK    5  A    between atoms: CA   and  CB  
REMARK    6  A    between atoms: CB   and  CG  
REMARK    7  A    between atoms: CG   and  CD  
ROOT
ATOM     14  CA  GLU D 570     -18.033  -6.348 -13.375  1.00 32.92     0.160 C 
ENDROOT
BRANCH  14  15
ATOM     15  CB  GLU D 570     -19.500  -6.345 -13.794  1.00 32.92     0.043 C 
BRANCH  15  16
ATOM     16  CG  GLU D 570     -20.444  -5.539 -12.977  1.00 32.92     0.100 C 
BRANCH  16  17
ATOM     17  CD  GLU D 570     -21.737  -5.238 -13.697  1.00 32.92     0.185 C 
ATOM     18  OE1 GLU D 570     -22.281  -4.130 -13.526  1.00 32.92    -0.647 OA
ATOM     19  OE2 GLU D 570     -22.221  -6.126 -14.426  1.00 32.92    -0.647 OA
ENDBRANCH  16  17
ENDBRANCH  15  16
ENDBRANCH  14  15
END_RES GLU D 570
ENDMDL
MODEL 8
REMARK VINA RESULT:      -7.6      9.932     14.770
REMARK  18 active torsions:
REMARK  status: ('A' for Active; 'I' for Inactive)
REMARK    1  A    between atoms: CB_2  and  CA_4 
REMARK    2  A    between atoms: CA_4  and  C_5 
REMARK    3  A    between atoms: CA_4  and  N_19 
REMARK       I    between atoms: C_5  and  N_7 
REMARK    4  A    between atoms: N_7  and  CA_8 
REMARK    5  A    between atoms: CA_8  and  CB_9 
REMARK    6  A    between atoms: CA_8  and  C_16 
REMARK    7  A    between atoms: CB_9  and  CG_10 
REMARK    8  A    between atoms: C_16  and  OXT_18 
REMARK       I    between atoms: N_19  and  C_20 
REMARK    9  A    between atoms: C_20  and  CA_22 
REMARK   10  A    between atoms: CA_22  and  CB_23 
REMARK   11  A    between atoms: CA_22  and  N_27 
REMARK   12  A    between atoms: CB_23  and  CG_24 
REMARK   13  A    between atoms: CG_24  and  OD2_26 
REMARK       I    between atoms: N_27  and  C_28 
REMARK   14  A    between atoms: C_28  and  CA_30 
REMARK   15  A    between atoms: CA_30  and  CB_31 
REMARK   16  A    between atoms: CA_30  and  N_36 
REMARK   17  A    between atoms: CB_31  and  CG_32 
REMARK   18  A    between atoms: CG_32  and  CD_33 
REMARK       I    between atoms: CD_33  and  NE2_35 
REMARK       I    between atoms: N_36  and  C_46 
ROOT
ATOM      1  N   GLN A   1     -20.312 -11.638  -5.506  1.00  0.00    -0.346 N 
ATOM      2  C   GLN A   1     -20.702 -11.637  -4.187  1.00  0.00     0.241 C 
ATOM      3  O   GLN A   1     -19.983 -12.122  -3.309  1.00  0.00    -0.271 OA
ATOM      4  H   GLN A   1     -21.031 -11.414  -6.190  1.00  0.00     0.163 HD
ENDROOT
BRANCH   2   5
ATOM      5  CA  GLN A   1     -22.066 -10.983  -3.858  1.00  0.00     0.186 C 
BRANCH   5   6
ATOM      6  CB  GLN A   1     -22.929 -11.787  -2.875  1.00  0.00     0.144 C 
BRANCH   6   7
ATOM      7  CG  GLN A   1     -22.903 -11.237  -1.475  1.00  0.00     0.141 C 
ATOM      8  OD1 GLN A   1     -23.873 -10.739  -0.924  1.00  0.00    -0.650 OA
BRANCH   7   9
ATOM      9  OD2 GLN A   1     -21.694 -11.286  -0.883  1.00  0.00    -0.776 OA
ATOM     10  HD2 GLN A   1     -20.931 -11.325  -1.502  1.00  0.00     0.167 HD
ENDBRANCH   7   9
ENDBRANCH   6   7
ENDBRANCH   5   6
BRANCH   5  11
ATOM     11  N   GLN A   1     -21.884  -9.589  -3.467  1.00  0.00    -0.346 N 
ATOM     12  C   GLN A   1     -21.571  -8.607  -4.384  1.00  0.00     0.241 C 
ATOM     13  O   GLN A   1     -21.467  -8.832  -5.587  1.00  0.00    -0.271 OA
ATOM     14  H   GLN A   1     -22.211  -9.299  -2.549  1.00  0.00     0.163 HD
BRANCH  12  15
ATOM     15  CA  GLN A   1     -21.530  -7.185  -3.790  1.00  0.00     0.177 C 
BRANCH  15  16
ATOM     16  CB  GLN A   1     -21.059  -7.197  -2.328  1.00  0.00     0.044 C 
BRANCH  16  17
ATOM     17  CG  GLN A   1     -22.179  -6.850  -1.340  1.00  0.00     0.105 C 
BRANCH  17  18
ATOM     18  CD  GLN A   1     -22.231  -7.810  -0.173  1.00  0.00     0.215 C 
ATOM     19  OE1 GLN A   1     -21.261  -8.437   0.236  1.00  0.00    -0.274 OA
ATOM     20  NE2 GLN A   1     -23.445  -7.896   0.446  1.00  0.00    -0.370 N 
ATOM     21 1HE2 GLN A   1     -24.291  -7.684  -0.064  1.00  0.00     0.159 HD
ATOM     22 2HE2 GLN A   1     -23.521  -8.628   1.141  1.00  0.00     0.159 HD
ENDBRANCH  17  18
ENDBRANCH  16  17
ENDBRANCH  15  16
BRANCH  15  23
ATOM     23  N   GLN A   1     -20.605  -6.408  -4.613  1.00  0.00    -0.348 N 
HETATM   24  C   UNK A   0     -21.041  -5.526  -5.569  1.00  0.00     0.214 C 
HETATM   25  O   UNK A   0     -22.226  -5.320  -5.806  1.00  0.00    -0.274 OA
HETATM   26  C   UNK A   0     -19.948  -4.761  -6.263  1.00  0.00     0.117 C 
ATOM     27  H   GLN A   1     -19.613  -6.565  -4.477  1.00  0.00     0.163 HD
ENDBRANCH  15  23
ENDBRANCH  12  15
ENDBRANCH   5  11
ENDBRANCH   2   5
BRANCH   1  28
ATOM     28  CA  GLN A   1     -19.106 -12.305  -6.047  1.00  0.00     0.180 C 
BRANCH  28  29
ATOM     29  CB  GLN A   1     -19.168 -12.380  -7.606  1.00  0.00     0.009 C 
ATOM     30  CG1 GLN A   1     -17.948 -13.091  -8.216  1.00  0.00     0.012 C 
ATOM     31  CG2 GLN A   1     -20.419 -13.107  -8.123  1.00  0.00     0.012 C 
ENDBRANCH  28  29
BRANCH  28  32
ATOM     32  C   GLN A   1     -17.818 -11.539  -5.594  1.00  0.00     0.241 C 
ATOM     33  O   GLN A   1     -17.433 -10.491  -6.103  1.00  0.00    -0.271 OA
ATOM     34  N   GLN A   1     -17.095 -12.151  -4.590  1.00  0.00    -0.344 N 
ATOM     35  H   GLN A   1     -17.651 -12.767  -3.995  1.00  0.00     0.163 HD
BRANCH  34  36
ATOM     36  CA  GLN A   1     -15.891 -11.536  -4.014  1.00  0.00     0.188 C 
BRANCH  36  37
ATOM     37  CB  GLN A   1     -16.140 -10.587  -2.826  1.00  0.00     0.094 C 
BRANCH  37  38
ATOM     38  CG  GLN A   1     -16.477 -11.281  -1.551  1.00  0.00     0.028 A 
ATOM     39  CD2 GLN A   1     -17.678 -11.705  -1.033  1.00  0.00     0.114 A 
ATOM     40  NE2 GLN A   1     -17.509 -12.260   0.210  1.00  0.00    -0.360 N 
ATOM     41  CE1 GLN A   1     -16.221 -12.144   0.463  1.00  0.00     0.180 A 
ATOM     42  HE2 GLN A   1     -18.225 -12.673   0.809  1.00  0.00     0.166 HD
ATOM     43  ND1 GLN A   1     -15.548 -11.581  -0.589  1.00  0.00    -0.354 N 
ATOM     44  HD1 GLN A   1     -14.551 -11.400  -0.638  1.00  0.00     0.166 HD
ENDBRANCH  37  38
ENDBRANCH  36  37
BRANCH  36  45
ATOM     45  C   GLN A   1     -14.854 -12.604  -3.631  1.00  0.00     0.163 C 
ATOM     46  O   GLN A   1     -13.706 -12.355  -3.280  1.00  0.00    -0.648 OA
BRANCH  45  47
ATOM     47  OXT GLN A   1     -15.285 -13.878  -3.788  1.00  0.00    -0.775 OA
ATOM     48  HXT GLN A   1     -14.578 -14.487  -4.086  1.00  0.00     0.167 HD
ENDBRANCH  45  47
ENDBRANCH  36  45
ENDBRANCH  34  36
ENDBRANCH  28  32
ENDBRANCH   1  28
TORSDOF 18
BEGIN_RES ARG D 557
REMARK  4 active torsions:
REMARK  status: ('A' for Active; 'I' for Inactive)
REMARK    1  A    between atoms: CA   and  CB  
REMARK    2  A    between atoms: CB   and  CG  
REMARK    3  A    between atoms: CG   and  CD  
REMARK    4  A    between atoms: CD   and  NE  
REMARK       I    between atoms: NE   and  CZ  
REMARK       I    between atoms: CZ   and  NH1 
REMARK       I    between atoms: CZ   and  NH2 
ROOT
ATOM      1  CA  ARG D 557     -26.217   2.705 -17.014  1.00 35.49     0.159 C 
ENDROOT
BRANCH   1   2
ATOM      2  CB  ARG D 557     -26.789   1.319 -17.183  1.00 35.49     0.034 C 
BRANCH   2   3
ATOM      3  CG  ARG D 557     -25.837   0.202 -17.142  1.00 35.49     0.027 C 
BRANCH   3   4
ATOM      4  CD  ARG D 557     -24.758   0.417 -16.151  1.00 35.49     0.116 C 
BRANCH   4   5
ATOM      5  NE  ARG D 557     -24.886  -0.452 -15.012  1.00 35.49    -0.212 N 
ATOM      6  CZ  ARG D 557     -24.060  -1.422 -14.688  1.00 35.49     0.666 C 
ATOM      7  NH1 ARG D 557     -22.995  -1.716 -15.410  1.00 35.49    -0.235 N 
ATOM      8  NH2 ARG D 557     -24.320  -2.096 -13.606  1.00 35.49    -0.235 N 
ATOM      9  HH  ARG D 557     -22.803  -1.284 -16.125  1.00 35.49     0.174 HD
ATOM     10  HH  ARG D 557     -22.490  -2.358 -15.149  1.00 35.49     0.174 HD
ATOM     11  HH  ARG D 557     -25.011  -1.879 -13.155  1.00 35.49     0.174 HD
ATOM     12  HH  ARG D 557     -23.808  -2.727 -13.363  1.00 35.49     0.174 HD
ATOM     13  HE  ARG D 557     -25.584  -0.380 -14.531  1.00 35.49     0.178 HD
ENDBRANCH   4   5
ENDBRANCH   3   4
ENDBRANCH   2   3
ENDBRANCH   1   2
END_RES ARG D 557
BEGIN_RES GLU D 570
REMARK  3 active torsions:
REMARK  status: ('A' for Active; 'I' for Inactive)
REMARK    5  A    between atoms: CA   and  CB  
REMARK    6  A    between atoms: CB   and  CG  
REMARK    7  A    between atoms: CG   and  CD  
ROOT
ATOM     14  CA  GLU D 570     -18.033  -6.348 -13.375  1.00 32.92     0.160 C 
ENDROOT
BRANCH  14  15
ATOM     15  CB  GLU D 570     -19.500  -6.345 -13.794  1.00 32.92     0.043 C 
BRANCH  15  16
ATOM     16  CG  GLU D 570     -20.437  -5.511 -12.998  1.00 32.92     0.100 C 
BRANCH  16  17
ATOM     17  CD  GLU D 570     -21.690  -5.142 -13.759  1.00 32.92     0.185 C 
ATOM     18  OE1 GLU D 570     -21.583  -4.670 -14.908  1.00 32.92    -0.647 OA
ATOM     19  OE2 GLU D 570     -22.788  -5.311 -13.195  1.00 32.92    -0.647 OA
ENDBRANCH  16  17
ENDBRANCH  15  16
ENDBRANCH  14  15
END_RES GLU D 570
ENDMDL
MODEL 9
REMARK VINA RESULT:      -7.4      9.489     14.828
REMARK  18 active torsions:
REMARK  status: ('A' for Active; 'I' for Inactive)
REMARK    1  A    between atoms: CB_2  and  CA_4 
REMARK    2  A    between atoms: CA_4  and  C_5 
REMARK    3  A    between atoms: CA_4  and  N_19 
REMARK       I    between atoms: C_5  and  N_7 
REMARK    4  A    between atoms: N_7  and  CA_8 
REMARK    5  A    between atoms: CA_8  and  CB_9 
REMARK    6  A    between atoms: CA_8  and  C_16 
REMARK    7  A    between atoms: CB_9  and  CG_10 
REMARK    8  A    between atoms: C_16  and  OXT_18 
REMARK       I    between atoms: N_19  and  C_20 
REMARK    9  A    between atoms: C_20  and  CA_22 
REMARK   10  A    between atoms: CA_22  and  CB_23 
REMARK   11  A    between atoms: CA_22  and  N_27 
REMARK   12  A    between atoms: CB_23  and  CG_24 
REMARK   13  A    between atoms: CG_24  and  OD2_26 
REMARK       I    between atoms: N_27  and  C_28 
REMARK   14  A    between atoms: C_28  and  CA_30 
REMARK   15  A    between atoms: CA_30  and  CB_31 
REMARK   16  A    between atoms: CA_30  and  N_36 
REMARK   17  A    between atoms: CB_31  and  CG_32 
REMARK   18  A    between atoms: CG_32  and  CD_33 
REMARK       I    between atoms: CD_33  and  NE2_35 
REMARK       I    between atoms: N_36  and  C_46 
ROOT
ATOM      1  N   GLN A   1     -19.329  -8.602  -5.724  1.00  0.00    -0.346 N 
ATOM      2  C   GLN A   1     -18.356  -9.357  -5.114  1.00  0.00     0.241 C 
ATOM      3  O   GLN A   1     -18.173  -9.297  -3.895  1.00  0.00    -0.271 OA
ATOM      4  H   GLN A   1     -19.287  -8.545  -6.740  1.00  0.00     0.163 HD
ENDROOT
BRANCH   2   5
ATOM      5  CA  GLN A   1     -17.521 -10.294  -6.021  1.00  0.00     0.186 C 
BRANCH   5   6
ATOM      6  CB  GLN A   1     -16.002 -10.111  -5.890  1.00  0.00     0.144 C 
BRANCH   6   7
ATOM      7  CG  GLN A   1     -15.346 -11.173  -5.052  1.00  0.00     0.141 C 
ATOM      8  OD1 GLN A   1     -14.693 -12.095  -5.516  1.00  0.00    -0.650 OA
BRANCH   7   9
ATOM      9  OD2 GLN A   1     -15.581 -11.060  -3.730  1.00  0.00    -0.776 OA
ATOM     10  HD2 GLN A   1     -16.142 -10.294  -3.472  1.00  0.00     0.167 HD
ENDBRANCH   7   9
ENDBRANCH   6   7
ENDBRANCH   5   6
BRANCH   5  11
ATOM     11  N   GLN A   1     -17.955 -11.679  -5.862  1.00  0.00    -0.346 N 
ATOM     12  C   GLN A   1     -19.158 -12.131  -6.365  1.00  0.00     0.241 C 
ATOM     13  O   GLN A   1     -19.917 -11.413  -7.012  1.00  0.00    -0.271 OA
ATOM     14  H   GLN A   1     -17.267 -12.370  -5.576  1.00  0.00     0.163 HD
BRANCH  12  15
ATOM     15  CA  GLN A   1     -19.381 -13.646  -6.189  1.00  0.00     0.177 C 
BRANCH  15  16
ATOM     16  CB  GLN A   1     -20.756 -13.947  -5.576  1.00  0.00     0.044 C 
BRANCH  16  17
ATOM     17  CG  GLN A   1     -20.911 -13.386  -4.158  1.00  0.00     0.105 C 
BRANCH  17  18
ATOM     18  CD  GLN A   1     -22.329 -13.506  -3.646  1.00  0.00     0.215 C 
ATOM     19  OE1 GLN A   1     -22.819 -12.748  -2.816  1.00  0.00    -0.274 OA
ATOM     20  NE2 GLN A   1     -23.065 -14.503  -4.218  1.00  0.00    -0.370 N 
ATOM     21 1HE2 GLN A   1     -22.604 -15.314  -4.607  1.00  0.00     0.159 HD
ATOM     22 2HE2 GLN A   1     -23.966 -14.671  -3.790  1.00  0.00     0.159 HD
ENDBRANCH  17  18
ENDBRANCH  16  17
ENDBRANCH  15  16
BRANCH  15  23
ATOM     23  N   GLN A   1     -19.275 -14.247  -7.517  1.00  0.00    -0.348 N 
HETATM   24  C   UNK A   0     -18.065 -14.563  -8.082  1.00  0.00     0.214 C 
HETATM   25  O   UNK A   0     -16.990 -14.368  -7.527  1.00  0.00    -0.274 OA
HETATM   26  C   UNK A   0     -18.157 -15.244  -9.420  1.00  0.00     0.117 C 
ATOM     27  H   GLN A   1     -20.135 -14.400  -8.031  1.00  0.00     0.163 HD
ENDBRANCH  15  23
ENDBRANCH  12  15
ENDBRANCH   5  11
ENDBRANCH   2   5
BRANCH   1  28
ATOM     28  CA  GLN A   1     -20.158  -7.567  -5.064  1.00  0.00     0.180 C 
BRANCH  28  29
ATOM     29  CB  GLN A   1     -21.075  -6.848  -6.103  1.00  0.00     0.009 C 
ATOM     30  CG1 GLN A   1     -22.177  -6.004  -5.439  1.00  0.00     0.012 C 
ATOM     31  CG2 GLN A   1     -20.300  -5.915  -7.046  1.00  0.00     0.012 C 
ENDBRANCH  28  29
BRANCH  28  32
ATOM     32  C   GLN A   1     -21.025  -8.214  -3.933  1.00  0.00     0.241 C 
ATOM     33  O   GLN A   1     -21.831  -9.119  -4.124  1.00  0.00    -0.271 OA
ATOM     34  N   GLN A   1     -20.859  -7.660  -2.679  1.00  0.00    -0.344 N 
ATOM     35  H   GLN A   1     -19.952  -7.213  -2.539  1.00  0.00     0.163 HD
BRANCH  34  36
ATOM     36  CA  GLN A   1     -21.559  -8.186  -1.499  1.00  0.00     0.188 C 
BRANCH  36  37
ATOM     37  CB  GLN A   1     -20.652  -8.793  -0.412  1.00  0.00     0.094 C 
BRANCH  37  38
ATOM     38  CG  GLN A   1     -20.726 -10.277  -0.313  1.00  0.00     0.028 A 
ATOM     39  CD2 GLN A   1     -20.155 -11.272  -1.071  1.00  0.00     0.114 A 
ATOM     40  NE2 GLN A   1     -20.547 -12.512  -0.633  1.00  0.00    -0.360 N 
ATOM     41  CE1 GLN A   1     -21.378 -12.274   0.362  1.00  0.00     0.180 A 
ATOM     42  HE2 GLN A   1     -20.258 -13.420  -0.998  1.00  0.00     0.166 HD
ATOM     43  ND1 GLN A   1     -21.497 -10.933   0.612  1.00  0.00    -0.354 N 
ATOM     44  HD1 GLN A   1     -22.066 -10.503   1.333  1.00  0.00     0.166 HD
ENDBRANCH  37  38
ENDBRANCH  36  37
BRANCH  36  45
ATOM     45  C   GLN A   1     -22.485  -7.124  -0.885  1.00  0.00     0.163 C 
ATOM     46  O   GLN A   1     -23.240  -7.330   0.058  1.00  0.00    -0.648 OA
BRANCH  45  47
ATOM     47  OXT GLN A   1     -22.463  -5.931  -1.526  1.00  0.00    -0.775 OA
ATOM     48  HXT GLN A   1     -21.836  -5.912  -2.278  1.00  0.00     0.167 HD
ENDBRANCH  45  47
ENDBRANCH  36  45
ENDBRANCH  34  36
ENDBRANCH  28  32
ENDBRANCH   1  28
TORSDOF 18
BEGIN_RES ARG D 557
REMARK  4 active torsions:
REMARK  status: ('A' for Active; 'I' for Inactive)
REMARK    1  A    between atoms: CA   and  CB  
REMARK    2  A    between atoms: CB   and  CG  
REMARK    3  A    between atoms: CG   and  CD  
REMARK    4  A    between atoms: CD   and  NE  
REMARK       I    between atoms: NE   and  CZ  
REMARK       I    between atoms: CZ   and  NH1 
REMARK       I    between atoms: CZ   and  NH2 
ROOT
ATOM      1  CA  ARG D 557     -26.217   2.705 -17.014  1.00 35.49     0.159 C 
ENDROOT
BRANCH   1   2
ATOM      2  CB  ARG D 557     -26.789   1.319 -17.183  1.00 35.49     0.034 C 
BRANCH   2   3
ATOM      3  CG  ARG D 557     -25.916   0.195 -16.822  1.00 35.49     0.027 C 
BRANCH   3   4
ATOM      4  CD  ARG D 557     -26.647  -0.886 -16.124  1.00 35.49     0.116 C 
BRANCH   4   5
ATOM      5  NE  ARG D 557     -25.860  -1.487 -15.080  1.00 35.49    -0.212 N 
ATOM      6  CZ  ARG D 557     -25.892  -2.752 -14.725  1.00 35.49     0.666 C 
ATOM      7  NH1 ARG D 557     -26.690  -3.630 -15.302  1.00 35.49    -0.235 N 
ATOM      8  NH2 ARG D 557     -25.092  -3.128 -13.769  1.00 35.49    -0.235 N 
ATOM      9  HH  ARG D 557     -27.223  -3.406 -15.934  1.00 35.49     0.174 HD
ATOM     10  HH  ARG D 557     -26.666  -4.443 -15.030  1.00 35.49     0.174 HD
ATOM     11  HH  ARG D 557     -24.582  -2.540 -13.420  1.00 35.49     0.174 HD
ATOM     12  HH  ARG D 557     -25.081  -3.937 -13.516  1.00 35.49     0.174 HD
ATOM     13  HE  ARG D 557     -25.370  -0.978 -14.606  1.00 35.49     0.178 HD
ENDBRANCH   4   5
ENDBRANCH   3   4
ENDBRANCH   2   3
ENDBRANCH   1   2
END_RES ARG D 557
BEGIN_RES GLU D 570
REMARK  3 active torsions:
REMARK  status: ('A' for Active; 'I' for Inactive)
REMARK    5  A    between atoms: CA   and  CB  
REMARK    6  A    between atoms: CB   and  CG  
REMARK    7  A    between atoms: CG   and  CD  
ROOT
ATOM     14  CA  GLU D 570     -18.033  -6.348 -13.375  1.00 32.92     0.160 C 
ENDROOT
BRANCH  14  15
ATOM     15  CB  GLU D 570     -19.500  -6.345 -13.794  1.00 32.92     0.043 C 
BRANCH  15  16
ATOM     16  CG  GLU D 570     -20.448  -5.562 -12.960  1.00 32.92     0.100 C 
BRANCH  16  17
ATOM     17  CD  GLU D 570     -21.695  -5.155 -13.710  1.00 32.92     0.185 C 
ATOM     18  OE1 GLU D 570     -21.656  -5.081 -14.954  1.00 32.92    -0.647 OA
ATOM     19  OE2 GLU D 570     -22.717  -4.890 -13.047  1.00 32.92    -0.647 OA
ENDBRANCH  16  17
ENDBRANCH  15  16
ENDBRANCH  14  15
END_RES GLU D 570
ENDMDL
