MODEL 1
REMARK VINA RESULT:      -7.7      0.000      0.000
REMARK  19 active torsions:
REMARK  status: ('A' for Active; 'I' for Inactive)
REMARK    1  A    between atoms: C_2  and  C_3 
REMARK    2  A    between atoms: C_3  and  C_4 
REMARK    3  A    between atoms: C_4  and  C_5 
REMARK    4  A    between atoms: C_5  and  C_6 
REMARK    5  A    between atoms: C_6  and  C_7 
REMARK    6  A    between atoms: C_7  and  C_8 
REMARK    7  A    between atoms: C_8  and  O_10 
REMARK    8  A    between atoms: O_10  and  C_11 
REMARK    9  A    between atoms: C_11  and  C_12 
REMARK   10  A    between atoms: C_17  and  O_30 
REMARK   11  A    between atoms: C_18  and  C_19 
REMARK   12  A    between atoms: C_19  and  O_20 
REMARK   13  A    between atoms: O_20  and  C_21 
REMARK   14  A    between atoms: C_21  and  C_23 
REMARK   15  A    between atoms: C_23  and  C_24 
REMARK   16  A    between atoms: C_24  and  C_25 
REMARK   17  A    between atoms: C_25  and  C_26 
REMARK   18  A    between atoms: C_26  and  C_27 
REMARK   19  A    between atoms: C_27  and  C_28 
ROOT
HETATM    1  C   UNL     1     -24.795  -6.853 -16.890  1.00  0.00    -0.007 A 
HETATM    2  C   UNL     1     -23.686  -7.307 -17.605  1.00  0.00     0.098 A 
HETATM    3  N   UNL     1     -23.642  -7.468 -18.945  1.00  0.00    -0.367 N 
ATOM      4  HN  UNL     1     -22.799  -7.804 -19.413  1.00  0.00     0.165 HD
HETATM    5  C   UNL     1     -24.759  -7.167 -19.640  1.00  0.00     0.039 A 
HETATM    6  C   UNL     1     -25.924  -6.703 -19.021  1.00  0.00     0.096 A 
HETATM    7  C   UNL     1     -25.959  -6.542 -17.619  1.00  0.00     0.011 A 
HETATM    8  C   UNL     1     -24.686  -7.368 -21.125  1.00  0.00     0.071 C 
ENDROOT
BRANCH   1   9
HETATM    9  C   UNL     1     -24.695  -6.751 -15.387  1.00  0.00     0.219 C 
BRANCH   9  10
HETATM   10  O   UNL     1     -24.551  -5.396 -14.932  1.00  0.00    -0.317 OA
BRANCH  10  11
HETATM   11  C   UNL     1     -23.303  -5.096 -14.481  1.00  0.00     0.259 C 
HETATM   12  O   UNL     1     -22.470  -4.459 -15.113  1.00  0.00    -0.265 OA
BRANCH  11  13
HETATM   13  C   UNL     1     -23.076  -5.656 -13.094  1.00  0.00     0.111 C 
BRANCH  13  14
HETATM   14  C   UNL     1     -22.469  -4.607 -12.158  1.00  0.00     0.010 C 
BRANCH  14  15
HETATM   15  C   UNL     1     -23.258  -4.442 -10.854  1.00  0.00     0.000 C 
BRANCH  15  16
HETATM   16  C   UNL     1     -22.359  -4.685  -9.639  1.00  0.00     0.000 C 
BRANCH  16  17
HETATM   17  C   UNL     1     -20.994  -4.019  -9.809  1.00  0.00    -0.000 C 
BRANCH  17  18
HETATM   18  C   UNL     1     -20.017  -4.462  -8.719  1.00  0.00    -0.005 C 
HETATM   19  C   UNL     1     -20.713  -5.316  -7.671  1.00  0.00     0.005 C 
ENDBRANCH  17  18
ENDBRANCH  16  17
ENDBRANCH  15  16
ENDBRANCH  14  15
ENDBRANCH  13  14
ENDBRANCH  11  13
ENDBRANCH  10  11
ENDBRANCH   9  10
ENDBRANCH   1   9
BRANCH   7  20
HETATM   20  C   UNL     1     -27.206  -6.050 -16.919  1.00  0.00     0.221 C 
BRANCH  20  21
HETATM   21  O   UNL     1     -27.766  -4.879 -17.531  1.00  0.00    -0.317 OA
BRANCH  21  22
HETATM   22  C   UNL     1     -27.822  -3.783 -16.714  1.00  0.00     0.259 C 
HETATM   23  O   UNL     1     -27.062  -3.546 -15.805  1.00  0.00    -0.265 OA
BRANCH  22  24
HETATM   24  C   UNL     1     -28.988  -2.903 -17.131  1.00  0.00     0.111 C 
BRANCH  24  25
HETATM   25  C   UNL     1     -30.012  -3.696 -17.937  1.00  0.00     0.010 C 
BRANCH  25  26
HETATM   26  C   UNL     1     -31.436  -3.548 -17.398  1.00  0.00     0.000 C 
BRANCH  26  27
HETATM   27  C   UNL     1     -31.953  -4.896 -16.899  1.00  0.00     0.000 C 
BRANCH  27  28
HETATM   28  C   UNL     1     -30.850  -5.951 -16.893  1.00  0.00    -0.000 C 
BRANCH  28  29
HETATM   29  C   UNL     1     -31.260  -7.182 -17.699  1.00  0.00    -0.005 C 
HETATM   30  C   UNL     1     -30.074  -7.759 -18.454  1.00  0.00     0.005 C 
ENDBRANCH  28  29
ENDBRANCH  27  28
ENDBRANCH  26  27
ENDBRANCH  25  26
ENDBRANCH  24  25
ENDBRANCH  22  24
ENDBRANCH  21  22
ENDBRANCH  20  21
ENDBRANCH   7  20
BRANCH   6  31
HETATM   31  O   UNL     1     -27.037  -6.405 -19.768  1.00  0.00    -0.358 OA
HETATM   32  H   UNL     1     -27.255  -7.152 -20.352  1.00  0.00     0.217 HD
ENDBRANCH   6  31
TORSDOF 19
BEGIN_RES ARG D 557
REMARK  4 active torsions:
REMARK  status: ('A' for Active; 'I' for Inactive)
REMARK    1  A    between atoms: CA   and  CB  
REMARK    2  A    between atoms: CB   and  CG  
REMARK    3  A    between atoms: CG   and  CD  
REMARK    4  A    between atoms: CD   and  NE  
REMARK       I    between atoms: NE   and  CZ  
REMARK       I    between atoms: CZ   and  NH1 
REMARK       I    between atoms: CZ   and  NH2 
ROOT
ATOM      1  CA  ARG D 557     -26.217   2.705 -17.014  1.00 35.49     0.159 C 
ENDROOT
BRANCH   1   2
ATOM      2  CB  ARG D 557     -26.789   1.319 -17.183  1.00 35.49     0.034 C 
BRANCH   2   3
ATOM      3  CG  ARG D 557     -25.832   0.206 -17.188  1.00 35.49     0.027 C 
BRANCH   3   4
ATOM      4  CD  ARG D 557     -24.736   0.399 -16.211  1.00 35.49     0.116 C 
BRANCH   4   5
ATOM      5  NE  ARG D 557     -24.884  -0.446 -15.056  1.00 35.49    -0.212 N 
ATOM      6  CZ  ARG D 557     -24.053  -1.394 -14.686  1.00 35.49     0.666 C 
ATOM      7  NH1 ARG D 557     -22.963  -1.688 -15.370  1.00 35.49    -0.235 N 
ATOM      8  NH2 ARG D 557     -24.334  -2.048 -13.597  1.00 35.49    -0.235 N 
ATOM      9  HH  ARG D 557     -22.757  -1.269 -16.089  1.00 35.49     0.174 HD
ATOM     10  HH  ARG D 557     -22.456  -2.315 -15.079  1.00 35.49     0.174 HD
ATOM     11  HH  ARG D 557     -25.041  -1.832 -13.171  1.00 35.49     0.174 HD
ATOM     12  HH  ARG D 557     -23.819  -2.664 -13.324  1.00 35.49     0.174 HD
ATOM     13  HE  ARG D 557     -25.597  -0.375 -14.597  1.00 35.49     0.178 HD
ENDBRANCH   4   5
ENDBRANCH   3   4
ENDBRANCH   2   3
ENDBRANCH   1   2
END_RES ARG D 557
BEGIN_RES GLU D 570
REMARK  3 active torsions:
REMARK  status: ('A' for Active; 'I' for Inactive)
REMARK    5  A    between atoms: CA   and  CB  
REMARK    6  A    between atoms: CB   and  CG  
REMARK    7  A    between atoms: CG   and  CD  
ROOT
ATOM     14  CA  GLU D 570     -18.033  -6.348 -13.375  1.00 32.92     0.160 C 
ENDROOT
BRANCH  14  15
ATOM     15  CB  GLU D 570     -19.500  -6.345 -13.794  1.00 32.92     0.043 C 
BRANCH  15  16
ATOM     16  CG  GLU D 570     -20.099  -7.643 -14.200  1.00 32.92     0.100 C 
BRANCH  16  17
ATOM     17  CD  GLU D 570     -20.496  -7.678 -15.658  1.00 32.92     0.185 C 
ATOM     18  OE1 GLU D 570     -20.731  -8.777 -16.195  1.00 32.92    -0.647 OA
ATOM     19  OE2 GLU D 570     -20.558  -6.595 -16.273  1.00 32.92    -0.647 OA
ENDBRANCH  16  17
ENDBRANCH  15  16
ENDBRANCH  14  15
END_RES GLU D 570
ENDMDL
MODEL 2
REMARK VINA RESULT:      -7.4      7.127     12.318
REMARK  19 active torsions:
REMARK  status: ('A' for Active; 'I' for Inactive)
REMARK    1  A    between atoms: C_2  and  C_3 
REMARK    2  A    between atoms: C_3  and  C_4 
REMARK    3  A    between atoms: C_4  and  C_5 
REMARK    4  A    between atoms: C_5  and  C_6 
REMARK    5  A    between atoms: C_6  and  C_7 
REMARK    6  A    between atoms: C_7  and  C_8 
REMARK    7  A    between atoms: C_8  and  O_10 
REMARK    8  A    between atoms: O_10  and  C_11 
REMARK    9  A    between atoms: C_11  and  C_12 
REMARK   10  A    between atoms: C_17  and  O_30 
REMARK   11  A    between atoms: C_18  and  C_19 
REMARK   12  A    between atoms: C_19  and  O_20 
REMARK   13  A    between atoms: O_20  and  C_21 
REMARK   14  A    between atoms: C_21  and  C_23 
REMARK   15  A    between atoms: C_23  and  C_24 
REMARK   16  A    between atoms: C_24  and  C_25 
REMARK   17  A    between atoms: C_25  and  C_26 
REMARK   18  A    between atoms: C_26  and  C_27 
REMARK   19  A    between atoms: C_27  and  C_28 
ROOT
HETATM    1  C   UNL     1     -19.849  -8.891  -3.206  1.00  0.00    -0.007 A 
HETATM    2  C   UNL     1     -18.817  -9.426  -2.432  1.00  0.00     0.098 A 
HETATM    3  N   UNL     1     -17.628  -9.850  -2.912  1.00  0.00    -0.367 N 
ATOM      4  HN  UNL     1     -16.911 -10.232  -2.295  1.00  0.00     0.165 HD
HETATM    5  C   UNL     1     -17.429  -9.748  -4.243  1.00  0.00     0.039 A 
HETATM    6  C   UNL     1     -18.396  -9.226  -5.108  1.00  0.00     0.096 A 
HETATM    7  C   UNL     1     -19.636  -8.789  -4.595  1.00  0.00     0.011 A 
HETATM    8  C   UNL     1     -16.105 -10.238  -4.750  1.00  0.00     0.071 C 
ENDROOT
BRANCH   1   9
HETATM    9  C   UNL     1     -21.131  -8.486  -2.522  1.00  0.00     0.219 C 
BRANCH   9  10
HETATM   10  O   UNL     1     -20.905  -7.825  -1.267  1.00  0.00    -0.317 OA
BRANCH  10  11
HETATM   11  C   UNL     1     -22.046  -7.476  -0.613  1.00  0.00     0.259 C 
HETATM   12  O   UNL     1     -22.747  -6.515  -0.903  1.00  0.00    -0.265 OA
BRANCH  11  13
HETATM   13  C   UNL     1     -22.335  -8.430   0.525  1.00  0.00     0.111 C 
BRANCH  13  14
HETATM   14  C   UNL     1     -21.064  -8.769   1.309  1.00  0.00     0.010 C 
BRANCH  14  15
HETATM   15  C   UNL     1     -20.635 -10.232   1.146  1.00  0.00     0.000 C 
BRANCH  15  16
HETATM   16  C   UNL     1     -21.562 -10.966   0.174  1.00  0.00     0.000 C 
BRANCH  16  17
HETATM   17  C   UNL     1     -22.127 -12.244   0.794  1.00  0.00    -0.000 C 
BRANCH  17  18
HETATM   18  C   UNL     1     -23.580 -12.472   0.375  1.00  0.00    -0.005 C 
HETATM   19  C   UNL     1     -24.003 -11.485  -0.701  1.00  0.00     0.005 C 
ENDBRANCH  17  18
ENDBRANCH  16  17
ENDBRANCH  15  16
ENDBRANCH  14  15
ENDBRANCH  13  14
ENDBRANCH  11  13
ENDBRANCH  10  11
ENDBRANCH   9  10
ENDBRANCH   1   9
BRANCH   7  20
HETATM   20  C   UNL     1     -20.705  -8.226  -5.504  1.00  0.00     0.221 C 
BRANCH  20  21
HETATM   21  O   UNL     1     -20.265  -7.077  -6.241  1.00  0.00    -0.317 OA
BRANCH  21  22
HETATM   22  C   UNL     1     -20.503  -5.880  -5.622  1.00  0.00     0.259 C 
HETATM   23  O   UNL     1     -21.260  -5.707  -4.695  1.00  0.00    -0.265 OA
BRANCH  22  24
HETATM   24  C   UNL     1     -19.663  -4.797  -6.278  1.00  0.00     0.111 C 
BRANCH  24  25
HETATM   25  C   UNL     1     -20.248  -4.392  -7.627  1.00  0.00     0.010 C 
BRANCH  25  26
HETATM   26  C   UNL     1     -21.533  -3.573  -7.495  1.00  0.00     0.000 C 
BRANCH  26  27
HETATM   27  C   UNL     1     -22.693  -4.300  -8.175  1.00  0.00     0.000 C 
BRANCH  27  28
HETATM   28  C   UNL     1     -22.425  -4.513  -9.662  1.00  0.00    -0.000 C 
BRANCH  28  29
HETATM   29  C   UNL     1     -22.915  -3.325 -10.486  1.00  0.00    -0.005 C 
HETATM   30  C   UNL     1     -21.784  -2.724 -11.305  1.00  0.00     0.005 C 
ENDBRANCH  28  29
ENDBRANCH  27  28
ENDBRANCH  26  27
ENDBRANCH  25  26
ENDBRANCH  24  25
ENDBRANCH  22  24
ENDBRANCH  21  22
ENDBRANCH  20  21
ENDBRANCH   7  20
BRANCH   6  31
HETATM   31  O   UNL     1     -18.149  -9.136  -6.455  1.00  0.00    -0.358 OA
HETATM   32  H   UNL     1     -17.835  -8.241  -6.677  1.00  0.00     0.217 HD
ENDBRANCH   6  31
TORSDOF 19
BEGIN_RES ARG D 557
REMARK  4 active torsions:
REMARK  status: ('A' for Active; 'I' for Inactive)
REMARK    1  A    between atoms: CA   and  CB  
REMARK    2  A    between atoms: CB   and  CG  
REMARK    3  A    between atoms: CG   and  CD  
REMARK    4  A    between atoms: CD   and  NE  
REMARK       I    between atoms: NE   and  CZ  
REMARK       I    between atoms: CZ   and  NH1 
REMARK       I    between atoms: CZ   and  NH2 
ROOT
ATOM      1  CA  ARG D 557     -26.217   2.705 -17.014  1.00 35.49     0.159 C 
ENDROOT
BRANCH   1   2
ATOM      2  CB  ARG D 557     -26.789   1.319 -17.183  1.00 35.49     0.034 C 
BRANCH   2   3
ATOM      3  CG  ARG D 557     -25.910   0.195 -16.838  1.00 35.49     0.027 C 
BRANCH   3   4
ATOM      4  CD  ARG D 557     -26.609  -0.846 -16.050  1.00 35.49     0.116 C 
BRANCH   4   5
ATOM      5  NE  ARG D 557     -25.750  -1.447 -15.064  1.00 35.49    -0.212 N 
ATOM      6  CZ  ARG D 557     -25.756  -2.713 -14.710  1.00 35.49     0.666 C 
ATOM      7  NH1 ARG D 557     -26.590  -3.592 -15.233  1.00 35.49    -0.235 N 
ATOM      8  NH2 ARG D 557     -24.891  -3.089 -13.813  1.00 35.49    -0.235 N 
ATOM      9  HH  ARG D 557     -27.166  -3.367 -15.827  1.00 35.49     0.174 HD
ATOM     10  HH  ARG D 557     -26.545  -4.405 -14.966  1.00 35.49     0.174 HD
ATOM     11  HH  ARG D 557     -24.360  -2.501 -13.498  1.00 35.49     0.174 HD
ATOM     12  HH  ARG D 557     -24.862  -3.899 -13.562  1.00 35.49     0.174 HD
ATOM     13  HE  ARG D 557     -25.230  -0.939 -14.624  1.00 35.49     0.178 HD
ENDBRANCH   4   5
ENDBRANCH   3   4
ENDBRANCH   2   3
ENDBRANCH   1   2
END_RES ARG D 557
BEGIN_RES GLU D 570
REMARK  3 active torsions:
REMARK  status: ('A' for Active; 'I' for Inactive)
REMARK    5  A    between atoms: CA   and  CB  
REMARK    6  A    between atoms: CB   and  CG  
REMARK    7  A    between atoms: CG   and  CD  
ROOT
ATOM     14  CA  GLU D 570     -18.033  -6.348 -13.375  1.00 32.92     0.160 C 
ENDROOT
BRANCH  14  15
ATOM     15  CB  GLU D 570     -19.500  -6.345 -13.794  1.00 32.92     0.043 C 
BRANCH  15  16
ATOM     16  CG  GLU D 570     -20.431  -5.483 -13.021  1.00 32.92     0.100 C 
BRANCH  16  17
ATOM     17  CD  GLU D 570     -21.709  -5.178 -13.767  1.00 32.92     0.185 C 
ATOM     18  OE1 GLU D 570     -21.640  -4.673 -14.904  1.00 32.92    -0.647 OA
ATOM     19  OE2 GLU D 570     -22.791  -5.431 -13.201  1.00 32.92    -0.647 OA
ENDBRANCH  16  17
ENDBRANCH  15  16
ENDBRANCH  14  15
END_RES GLU D 570
ENDMDL
MODEL 3
REMARK VINA RESULT:      -7.3      6.920     12.984
REMARK  19 active torsions:
REMARK  status: ('A' for Active; 'I' for Inactive)
REMARK    1  A    between atoms: C_2  and  C_3 
REMARK    2  A    between atoms: C_3  and  C_4 
REMARK    3  A    between atoms: C_4  and  C_5 
REMARK    4  A    between atoms: C_5  and  C_6 
REMARK    5  A    between atoms: C_6  and  C_7 
REMARK    6  A    between atoms: C_7  and  C_8 
REMARK    7  A    between atoms: C_8  and  O_10 
REMARK    8  A    between atoms: O_10  and  C_11 
REMARK    9  A    between atoms: C_11  and  C_12 
REMARK   10  A    between atoms: C_17  and  O_30 
REMARK   11  A    between atoms: C_18  and  C_19 
REMARK   12  A    between atoms: C_19  and  O_20 
REMARK   13  A    between atoms: O_20  and  C_21 
REMARK   14  A    between atoms: C_21  and  C_23 
REMARK   15  A    between atoms: C_23  and  C_24 
REMARK   16  A    between atoms: C_24  and  C_25 
REMARK   17  A    between atoms: C_25  and  C_26 
REMARK   18  A    between atoms: C_26  and  C_27 
REMARK   19  A    between atoms: C_27  and  C_28 
ROOT
HETATM    1  C   UNL     1     -21.590  -6.939  -3.384  1.00  0.00    -0.007 A 
HETATM    2  C   UNL     1     -22.304  -6.325  -2.353  1.00  0.00     0.098 A 
HETATM    3  N   UNL     1     -22.310  -6.733  -1.065  1.00  0.00    -0.367 N 
ATOM      4  HN  UNL     1     -22.852  -6.242  -0.355  1.00  0.00     0.165 HD
HETATM    5  C   UNL     1     -21.568  -7.818  -0.759  1.00  0.00     0.039 A 
HETATM    6  C   UNL     1     -20.814  -8.506  -1.715  1.00  0.00     0.096 A 
HETATM    7  C   UNL     1     -20.818  -8.072  -3.058  1.00  0.00     0.011 A 
HETATM    8  C   UNL     1     -21.603  -8.256   0.676  1.00  0.00     0.071 C 
ENDROOT
BRANCH   1   9
HETATM    9  C   UNL     1     -21.707  -6.378  -4.780  1.00  0.00     0.219 C 
BRANCH   9  10
HETATM   10  O   UNL     1     -20.625  -5.495  -5.115  1.00  0.00    -0.317 OA
BRANCH  10  11
HETATM   11  C   UNL     1     -20.132  -5.678  -6.370  1.00  0.00     0.259 C 
HETATM   12  O   UNL     1     -19.661  -6.730  -6.785  1.00  0.00    -0.265 OA
BRANCH  11  13
HETATM   13  C   UNL     1     -20.236  -4.409  -7.187  1.00  0.00     0.111 C 
BRANCH  13  14
HETATM   14  C   UNL     1     -20.093  -4.693  -8.685  1.00  0.00     0.010 C 
BRANCH  14  15
HETATM   15  C   UNL     1     -21.214  -4.065  -9.521  1.00  0.00     0.000 C 
BRANCH  15  16
HETATM   16  C   UNL     1     -22.556  -4.159  -8.791  1.00  0.00     0.000 C 
BRANCH  16  17
HETATM   17  C   UNL     1     -23.712  -3.697  -9.678  1.00  0.00    -0.000 C 
BRANCH  17  18
HETATM   18  C   UNL     1     -23.209  -3.184 -11.028  1.00  0.00    -0.005 C 
HETATM   19  C   UNL     1     -24.322  -3.176 -12.063  1.00  0.00     0.005 C 
ENDBRANCH  17  18
ENDBRANCH  16  17
ENDBRANCH  15  16
ENDBRANCH  14  15
ENDBRANCH  13  14
ENDBRANCH  11  13
ENDBRANCH  10  11
ENDBRANCH   9  10
ENDBRANCH   1   9
BRANCH   7  20
HETATM   20  C   UNL     1     -20.020  -8.798  -4.118  1.00  0.00     0.221 C 
BRANCH  20  21
HETATM   21  O   UNL     1     -20.217 -10.219  -4.090  1.00  0.00    -0.317 OA
BRANCH  21  22
HETATM   22  C   UNL     1     -21.049 -10.695  -5.066  1.00  0.00     0.259 C 
HETATM   23  O   UNL     1     -21.035 -10.359  -6.227  1.00  0.00    -0.265 OA
BRANCH  22  24
HETATM   24  C   UNL     1     -21.995 -11.721  -4.465  1.00  0.00     0.111 C 
BRANCH  24  25
HETATM   25  C   UNL     1     -22.959 -11.067  -3.480  1.00  0.00     0.010 C 
BRANCH  25  26
HETATM   26  C   UNL     1     -22.923 -11.715  -2.095  1.00  0.00     0.000 C 
BRANCH  26  27
HETATM   27  C   UNL     1     -23.664 -10.840  -1.084  1.00  0.00     0.000 C 
BRANCH  27  28
HETATM   28  C   UNL     1     -23.831 -11.552   0.255  1.00  0.00    -0.000 C 
BRANCH  28  29
HETATM   29  C   UNL     1     -22.558 -12.304   0.642  1.00  0.00    -0.005 C 
HETATM   30  C   UNL     1     -22.881 -13.521   1.493  1.00  0.00     0.005 C 
ENDBRANCH  28  29
ENDBRANCH  27  28
ENDBRANCH  26  27
ENDBRANCH  25  26
ENDBRANCH  24  25
ENDBRANCH  22  24
ENDBRANCH  21  22
ENDBRANCH  20  21
ENDBRANCH   7  20
BRANCH   6  31
HETATM   31  O   UNL     1     -20.070  -9.602  -1.357  1.00  0.00    -0.358 OA
HETATM   32  H   UNL     1     -19.851  -9.560  -0.409  1.00  0.00     0.217 HD
ENDBRANCH   6  31
TORSDOF 19
BEGIN_RES ARG D 557
REMARK  4 active torsions:
REMARK  status: ('A' for Active; 'I' for Inactive)
REMARK    1  A    between atoms: CA   and  CB  
REMARK    2  A    between atoms: CB   and  CG  
REMARK    3  A    between atoms: CG   and  CD  
REMARK    4  A    between atoms: CD   and  NE  
REMARK       I    between atoms: NE   and  CZ  
REMARK       I    between atoms: CZ   and  NH1 
REMARK       I    between atoms: CZ   and  NH2 
ROOT
ATOM      1  CA  ARG D 557     -26.217   2.705 -17.014  1.00 35.49     0.159 C 
ENDROOT
BRANCH   1   2
ATOM      2  CB  ARG D 557     -26.789   1.319 -17.183  1.00 35.49     0.034 C 
BRANCH   2   3
ATOM      3  CG  ARG D 557     -28.216   1.152 -16.881  1.00 35.49     0.027 C 
BRANCH   3   4
ATOM      4  CD  ARG D 557     -28.611  -0.273 -16.795  1.00 35.49     0.116 C 
BRANCH   4   5
ATOM      5  NE  ARG D 557     -27.636  -1.065 -16.094  1.00 35.49    -0.212 N 
ATOM      6  CZ  ARG D 557     -27.510  -2.371 -16.168  1.00 35.49     0.666 C 
ATOM      7  NH1 ARG D 557     -28.306  -3.119 -16.910  1.00 35.49    -0.235 N 
ATOM      8  NH2 ARG D 557     -26.554  -2.922 -15.479  1.00 35.49    -0.235 N 
ATOM      9  HH  ARG D 557     -28.940  -2.777 -17.374  1.00 35.49     0.174 HD
ATOM     10  HH  ARG D 557     -28.175  -3.966 -16.921  1.00 35.49     0.174 HD
ATOM     11  HH  ARG D 557     -26.051  -2.414 -15.015  1.00 35.49     0.174 HD
ATOM     12  HH  ARG D 557     -26.439  -3.762 -15.504  1.00 35.49     0.174 HD
ATOM     13  HE  ARG D 557     -27.128  -0.672 -15.537  1.00 35.49     0.178 HD
ENDBRANCH   4   5
ENDBRANCH   3   4
ENDBRANCH   2   3
ENDBRANCH   1   2
END_RES ARG D 557
BEGIN_RES GLU D 570
REMARK  3 active torsions:
REMARK  status: ('A' for Active; 'I' for Inactive)
REMARK    5  A    between atoms: CA   and  CB  
REMARK    6  A    between atoms: CB   and  CG  
REMARK    7  A    between atoms: CG   and  CD  
ROOT
ATOM     14  CA  GLU D 570     -18.033  -6.348 -13.375  1.00 32.92     0.160 C 
ENDROOT
BRANCH  14  15
ATOM     15  CB  GLU D 570     -19.500  -6.345 -13.794  1.00 32.92     0.043 C 
BRANCH  15  16
ATOM     16  CG  GLU D 570     -20.411  -5.406 -13.090  1.00 32.92     0.100 C 
BRANCH  16  17
ATOM     17  CD  GLU D 570     -21.724  -5.207 -13.811  1.00 32.92     0.185 C 
ATOM     18  OE1 GLU D 570     -22.663  -5.994 -13.587  1.00 32.92    -0.647 OA
ATOM     19  OE2 GLU D 570     -21.809  -4.262 -14.621  1.00 32.92    -0.647 OA
ENDBRANCH  16  17
ENDBRANCH  15  16
ENDBRANCH  14  15
END_RES GLU D 570
ENDMDL
MODEL 4
REMARK VINA RESULT:      -7.3      6.837     12.179
REMARK  19 active torsions:
REMARK  status: ('A' for Active; 'I' for Inactive)
REMARK    1  A    between atoms: C_2  and  C_3 
REMARK    2  A    between atoms: C_3  and  C_4 
REMARK    3  A    between atoms: C_4  and  C_5 
REMARK    4  A    between atoms: C_5  and  C_6 
REMARK    5  A    between atoms: C_6  and  C_7 
REMARK    6  A    between atoms: C_7  and  C_8 
REMARK    7  A    between atoms: C_8  and  O_10 
REMARK    8  A    between atoms: O_10  and  C_11 
REMARK    9  A    between atoms: C_11  and  C_12 
REMARK   10  A    between atoms: C_17  and  O_30 
REMARK   11  A    between atoms: C_18  and  C_19 
REMARK   12  A    between atoms: C_19  and  O_20 
REMARK   13  A    between atoms: O_20  and  C_21 
REMARK   14  A    between atoms: C_21  and  C_23 
REMARK   15  A    between atoms: C_23  and  C_24 
REMARK   16  A    between atoms: C_24  and  C_25 
REMARK   17  A    between atoms: C_25  and  C_26 
REMARK   18  A    between atoms: C_26  and  C_27 
REMARK   19  A    between atoms: C_27  and  C_28 
ROOT
HETATM    1  C   UNL     1     -19.892  -8.922  -3.247  1.00  0.00    -0.007 A 
HETATM    2  C   UNL     1     -18.813  -9.392  -2.495  1.00  0.00     0.098 A 
HETATM    3  N   UNL     1     -17.617  -9.759  -3.005  1.00  0.00    -0.367 N 
ATOM      4  HN  UNL     1     -16.864 -10.095  -2.403  1.00  0.00     0.165 HD
HETATM    5  C   UNL     1     -17.460  -9.664  -4.341  1.00  0.00     0.039 A 
HETATM    6  C   UNL     1     -18.476  -9.205  -5.185  1.00  0.00     0.096 A 
HETATM    7  C   UNL     1     -19.723  -8.827  -4.642  1.00  0.00     0.011 A 
HETATM    8  C   UNL     1     -16.126 -10.091  -4.880  1.00  0.00     0.071 C 
ENDROOT
BRANCH   1   9
HETATM    9  C   UNL     1     -21.175  -8.576  -2.532  1.00  0.00     0.219 C 
BRANCH   9  10
HETATM   10  O   UNL     1     -20.949  -7.887  -1.291  1.00  0.00    -0.317 OA
BRANCH  10  11
HETATM   11  C   UNL     1     -22.076  -7.363  -0.738  1.00  0.00     0.259 C 
HETATM   12  O   UNL     1     -22.620  -6.333  -1.114  1.00  0.00    -0.265 OA
BRANCH  11  13
HETATM   13  C   UNL     1     -22.568  -8.217   0.409  1.00  0.00     0.111 C 
BRANCH  13  14
HETATM   14  C   UNL     1     -21.592  -9.356   0.719  1.00  0.00     0.010 C 
BRANCH  14  15
HETATM   15  C   UNL     1     -22.122 -10.730   0.294  1.00  0.00     0.000 C 
BRANCH  15  16
HETATM   16  C   UNL     1     -23.604 -10.650  -0.079  1.00  0.00     0.000 C 
BRANCH  16  17
HETATM   17  C   UNL     1     -23.882 -11.322  -1.423  1.00  0.00    -0.000 C 
BRANCH  17  18
HETATM   18  C   UNL     1     -22.616 -11.951  -2.005  1.00  0.00    -0.005 C 
HETATM   19  C   UNL     1     -22.566 -11.792  -3.516  1.00  0.00     0.005 C 
ENDBRANCH  17  18
ENDBRANCH  16  17
ENDBRANCH  15  16
ENDBRANCH  14  15
ENDBRANCH  13  14
ENDBRANCH  11  13
ENDBRANCH  10  11
ENDBRANCH   9  10
ENDBRANCH   1   9
BRANCH   7  20
HETATM   20  C   UNL     1     -20.845  -8.333  -5.527  1.00  0.00     0.221 C 
BRANCH  20  21
HETATM   21  O   UNL     1     -20.568  -7.057  -6.121  1.00  0.00    -0.317 OA
BRANCH  21  22
HETATM   22  C   UNL     1     -21.020  -5.985  -5.400  1.00  0.00     0.259 C 
HETATM   23  O   UNL     1     -21.954  -5.999  -4.633  1.00  0.00    -0.265 OA
BRANCH  22  24
HETATM   24  C   UNL     1     -20.160  -4.771  -5.710  1.00  0.00     0.111 C 
BRANCH  24  25
HETATM   25  C   UNL     1     -19.403  -4.957  -7.021  1.00  0.00     0.010 C 
BRANCH  25  26
HETATM   26  C   UNL     1     -19.802  -3.935  -8.087  1.00  0.00     0.000 C 
BRANCH  26  27
HETATM   27  C   UNL     1     -21.324  -3.841  -8.182  1.00  0.00     0.000 C 
BRANCH  27  28
HETATM   28  C   UNL     1     -21.846  -4.478  -9.467  1.00  0.00    -0.000 C 
BRANCH  28  29
HETATM   29  C   UNL     1     -20.835  -4.332 -10.603  1.00  0.00    -0.005 C 
HETATM   30  C   UNL     1     -21.159  -3.125 -11.468  1.00  0.00     0.005 C 
ENDBRANCH  28  29
ENDBRANCH  27  28
ENDBRANCH  26  27
ENDBRANCH  25  26
ENDBRANCH  24  25
ENDBRANCH  22  24
ENDBRANCH  21  22
ENDBRANCH  20  21
ENDBRANCH   7  20
BRANCH   6  31
HETATM   31  O   UNL     1     -18.271  -9.120  -6.539  1.00  0.00    -0.358 OA
HETATM   32  H   UNL     1     -19.038  -9.486  -7.015  1.00  0.00     0.217 HD
ENDBRANCH   6  31
TORSDOF 19
BEGIN_RES ARG D 557
REMARK  4 active torsions:
REMARK  status: ('A' for Active; 'I' for Inactive)
REMARK    1  A    between atoms: CA   and  CB  
REMARK    2  A    between atoms: CB   and  CG  
REMARK    3  A    between atoms: CG   and  CD  
REMARK    4  A    between atoms: CD   and  NE  
REMARK       I    between atoms: NE   and  CZ  
REMARK       I    between atoms: CZ   and  NH1 
REMARK       I    between atoms: CZ   and  NH2 
ROOT
ATOM      1  CA  ARG D 557     -26.217   2.705 -17.014  1.00 35.49     0.159 C 
ENDROOT
BRANCH   1   2
ATOM      2  CB  ARG D 557     -26.789   1.319 -17.183  1.00 35.49     0.034 C 
BRANCH   2   3
ATOM      3  CG  ARG D 557     -25.865   0.195 -16.991  1.00 35.49     0.027 C 
BRANCH   3   4
ATOM      4  CD  ARG D 557     -26.307  -0.722 -15.915  1.00 35.49     0.116 C 
BRANCH   4   5
ATOM      5  NE  ARG D 557     -25.281  -0.934 -14.928  1.00 35.49    -0.212 N 
ATOM      6  CZ  ARG D 557     -25.002  -2.078 -14.345  1.00 35.49     0.666 C 
ATOM      7  NH1 ARG D 557     -25.668  -3.188 -14.605  1.00 35.49    -0.235 N 
ATOM      8  NH2 ARG D 557     -24.022  -2.092 -13.488  1.00 35.49    -0.235 N 
ATOM      9  HH  ARG D 557     -26.315  -3.203 -15.166  1.00 35.49     0.174 HD
ATOM     10  HH  ARG D 557     -25.439  -3.905 -14.196  1.00 35.49     0.174 HD
ATOM     11  HH  ARG D 557     -23.605  -1.362 -13.346  1.00 35.49     0.174 HD
ATOM     12  HH  ARG D 557     -23.810  -2.813 -13.095  1.00 35.49     0.174 HD
ATOM     13  HE  ARG D 557     -24.850  -0.257 -14.648  1.00 35.49     0.178 HD
ENDBRANCH   4   5
ENDBRANCH   3   4
ENDBRANCH   2   3
ENDBRANCH   1   2
END_RES ARG D 557
BEGIN_RES GLU D 570
REMARK  3 active torsions:
REMARK  status: ('A' for Active; 'I' for Inactive)
REMARK    5  A    between atoms: CA   and  CB  
REMARK    6  A    between atoms: CB   and  CG  
REMARK    7  A    between atoms: CG   and  CD  
ROOT
ATOM     14  CA  GLU D 570     -18.033  -6.348 -13.375  1.00 32.92     0.160 C 
ENDROOT
BRANCH  14  15
ATOM     15  CB  GLU D 570     -19.500  -6.345 -13.794  1.00 32.92     0.043 C 
BRANCH  15  16
ATOM     16  CG  GLU D 570     -19.811  -5.962 -15.195  1.00 32.92     0.100 C 
BRANCH  16  17
ATOM     17  CD  GLU D 570     -21.287  -5.744 -15.433  1.00 32.92     0.185 C 
ATOM     18  OE1 GLU D 570     -22.073  -6.697 -15.269  1.00 32.92    -0.647 OA
ATOM     19  OE2 GLU D 570     -21.659  -4.613 -15.804  1.00 32.92    -0.647 OA
ENDBRANCH  16  17
ENDBRANCH  15  16
ENDBRANCH  14  15
END_RES GLU D 570
ENDMDL
MODEL 5
REMARK VINA RESULT:      -7.2      7.083     12.262
REMARK  19 active torsions:
REMARK  status: ('A' for Active; 'I' for Inactive)
REMARK    1  A    between atoms: C_2  and  C_3 
REMARK    2  A    between atoms: C_3  and  C_4 
REMARK    3  A    between atoms: C_4  and  C_5 
REMARK    4  A    between atoms: C_5  and  C_6 
REMARK    5  A    between atoms: C_6  and  C_7 
REMARK    6  A    between atoms: C_7  and  C_8 
REMARK    7  A    between atoms: C_8  and  O_10 
REMARK    8  A    between atoms: O_10  and  C_11 
REMARK    9  A    between atoms: C_11  and  C_12 
REMARK   10  A    between atoms: C_17  and  O_30 
REMARK   11  A    between atoms: C_18  and  C_19 
REMARK   12  A    between atoms: C_19  and  O_20 
REMARK   13  A    between atoms: O_20  and  C_21 
REMARK   14  A    between atoms: C_21  and  C_23 
REMARK   15  A    between atoms: C_23  and  C_24 
REMARK   16  A    between atoms: C_24  and  C_25 
REMARK   17  A    between atoms: C_25  and  C_26 
REMARK   18  A    between atoms: C_26  and  C_27 
REMARK   19  A    between atoms: C_27  and  C_28 
ROOT
HETATM    1  C   UNL     1     -19.871  -9.053  -3.206  1.00  0.00    -0.007 A 
HETATM    2  C   UNL     1     -18.809  -9.609  -2.489  1.00  0.00     0.098 A 
HETATM    3  N   UNL     1     -17.626  -9.983  -3.024  1.00  0.00    -0.367 N 
ATOM      4  HN  UNL     1     -16.886 -10.384  -2.448  1.00  0.00     0.165 HD
HETATM    5  C   UNL     1     -17.466  -9.806  -4.352  1.00  0.00     0.039 A 
HETATM    6  C   UNL     1     -18.466  -9.257  -5.162  1.00  0.00     0.096 A 
HETATM    7  C   UNL     1     -19.698  -8.872  -4.592  1.00  0.00     0.011 A 
HETATM    8  C   UNL     1     -16.148 -10.243  -4.921  1.00  0.00     0.071 C 
ENDROOT
BRANCH   1   9
HETATM    9  C   UNL     1     -21.141  -8.710  -2.467  1.00  0.00     0.219 C 
BRANCH   9  10
HETATM   10  O   UNL     1     -20.915  -7.822  -1.360  1.00  0.00    -0.317 OA
BRANCH  10  11
HETATM   11  C   UNL     1     -22.053  -7.434  -0.723  1.00  0.00     0.259 C 
HETATM   12  O   UNL     1     -22.716  -6.449  -1.021  1.00  0.00    -0.265 OA
BRANCH  11  13
HETATM   13  C   UNL     1     -22.392  -8.379   0.409  1.00  0.00     0.111 C 
BRANCH  13  14
HETATM   14  C   UNL     1     -21.142  -8.779   1.198  1.00  0.00     0.010 C 
BRANCH  14  15
HETATM   15  C   UNL     1     -20.738 -10.241   0.975  1.00  0.00     0.000 C 
BRANCH  15  16
HETATM   16  C   UNL     1     -21.928 -11.065   0.476  1.00  0.00     0.000 C 
BRANCH  16  17
HETATM   17  C   UNL     1     -21.578 -11.849  -0.788  1.00  0.00    -0.000 C 
BRANCH  17  18
HETATM   18  C   UNL     1     -22.784 -11.971  -1.720  1.00  0.00    -0.005 C 
HETATM   19  C   UNL     1     -24.040 -11.413  -1.070  1.00  0.00     0.005 C 
ENDBRANCH  17  18
ENDBRANCH  16  17
ENDBRANCH  15  16
ENDBRANCH  14  15
ENDBRANCH  13  14
ENDBRANCH  11  13
ENDBRANCH  10  11
ENDBRANCH   9  10
ENDBRANCH   1   9
BRANCH   7  20
HETATM   20  C   UNL     1     -20.802  -8.282  -5.440  1.00  0.00     0.221 C 
BRANCH  20  21
HETATM   21  O   UNL     1     -20.406  -7.080  -6.117  1.00  0.00    -0.317 OA
BRANCH  21  22
HETATM   22  C   UNL     1     -20.857  -5.927  -5.535  1.00  0.00     0.259 C 
HETATM   23  O   UNL     1     -21.746  -5.852  -4.720  1.00  0.00    -0.265 OA
BRANCH  22  24
HETATM   24  C   UNL     1     -20.060  -4.748  -6.069  1.00  0.00     0.111 C 
BRANCH  24  25
HETATM   25  C   UNL     1     -20.858  -3.976  -7.114  1.00  0.00     0.010 C 
BRANCH  25  26
HETATM   26  C   UNL     1     -21.096  -4.780  -8.394  1.00  0.00     0.000 C 
BRANCH  26  27
HETATM   27  C   UNL     1     -20.436  -4.085  -9.583  1.00  0.00     0.000 C 
BRANCH  27  28
HETATM   28  C   UNL     1     -21.347  -4.087 -10.808  1.00  0.00    -0.000 C 
BRANCH  28  29
HETATM   29  C   UNL     1     -22.756  -4.552 -10.445  1.00  0.00    -0.005 C 
HETATM   30  C   UNL     1     -23.773  -3.448 -10.684  1.00  0.00     0.005 C 
ENDBRANCH  28  29
ENDBRANCH  27  28
ENDBRANCH  26  27
ENDBRANCH  25  26
ENDBRANCH  24  25
ENDBRANCH  22  24
ENDBRANCH  21  22
ENDBRANCH  20  21
ENDBRANCH   7  20
BRANCH   6  31
HETATM   31  O   UNL     1     -18.257  -9.090  -6.508  1.00  0.00    -0.358 OA
HETATM   32  H   UNL     1     -17.554  -9.691  -6.812  1.00  0.00     0.217 HD
ENDBRANCH   6  31
TORSDOF 19
BEGIN_RES ARG D 557
REMARK  4 active torsions:
REMARK  status: ('A' for Active; 'I' for Inactive)
REMARK    1  A    between atoms: CA   and  CB  
REMARK    2  A    between atoms: CB   and  CG  
REMARK    3  A    between atoms: CG   and  CD  
REMARK    4  A    between atoms: CD   and  NE  
REMARK       I    between atoms: NE   and  CZ  
REMARK       I    between atoms: CZ   and  NH1 
REMARK       I    between atoms: CZ   and  NH2 
ROOT
ATOM      1  CA  ARG D 557     -26.217   2.705 -17.014  1.00 35.49     0.159 C 
ENDROOT
BRANCH   1   2
ATOM      2  CB  ARG D 557     -26.789   1.319 -17.183  1.00 35.49     0.034 C 
BRANCH   2   3
ATOM      3  CG  ARG D 557     -28.231   1.226 -17.441  1.00 35.49     0.027 C 
BRANCH   3   4
ATOM      4  CD  ARG D 557     -28.914   0.304 -16.505  1.00 35.49     0.116 C 
BRANCH   4   5
ATOM      5  NE  ARG D 557     -29.285  -0.934 -17.139  1.00 35.49    -0.212 N 
ATOM      6  CZ  ARG D 557     -28.645  -2.077 -17.025  1.00 35.49     0.666 C 
ATOM      7  NH1 ARG D 557     -27.548  -2.207 -16.302  1.00 35.49    -0.235 N 
ATOM      8  NH2 ARG D 557     -29.137  -3.105 -17.654  1.00 35.49    -0.235 N 
ATOM      9  HH  ARG D 557     -27.208  -1.544 -15.878  1.00 35.49     0.174 HD
ATOM     10  HH  ARG D 557     -27.176  -2.978 -16.263  1.00 35.49     0.174 HD
ATOM     11  HH  ARG D 557     -29.851  -2.993 -18.107  1.00 35.49     0.174 HD
ATOM     12  HH  ARG D 557     -28.754  -3.860 -17.601  1.00 35.49     0.174 HD
ATOM     13  HE  ARG D 557     -29.939  -0.925 -17.682  1.00 35.49     0.178 HD
ENDBRANCH   4   5
ENDBRANCH   3   4
ENDBRANCH   2   3
ENDBRANCH   1   2
END_RES ARG D 557
BEGIN_RES GLU D 570
REMARK  3 active torsions:
REMARK  status: ('A' for Active; 'I' for Inactive)
REMARK    5  A    between atoms: CA   and  CB  
REMARK    6  A    between atoms: CB   and  CG  
REMARK    7  A    between atoms: CG   and  CD  
ROOT
ATOM     14  CA  GLU D 570     -18.033  -6.348 -13.375  1.00 32.92     0.160 C 
ENDROOT
BRANCH  14  15
ATOM     15  CB  GLU D 570     -19.500  -6.345 -13.794  1.00 32.92     0.043 C 
BRANCH  15  16
ATOM     16  CG  GLU D 570     -19.808  -5.993 -15.204  1.00 32.92     0.100 C 
BRANCH  16  17
ATOM     17  CD  GLU D 570     -21.277  -5.721 -15.436  1.00 32.92     0.185 C 
ATOM     18  OE1 GLU D 570     -21.607  -4.790 -16.195  1.00 32.92    -0.647 OA
ATOM     19  OE2 GLU D 570     -22.105  -6.437 -14.839  1.00 32.92    -0.647 OA
ENDBRANCH  16  17
ENDBRANCH  15  16
ENDBRANCH  14  15
END_RES GLU D 570
ENDMDL
MODEL 6
REMARK VINA RESULT:      -7.1      6.929     12.912
REMARK  19 active torsions:
REMARK  status: ('A' for Active; 'I' for Inactive)
REMARK    1  A    between atoms: C_2  and  C_3 
REMARK    2  A    between atoms: C_3  and  C_4 
REMARK    3  A    between atoms: C_4  and  C_5 
REMARK    4  A    between atoms: C_5  and  C_6 
REMARK    5  A    between atoms: C_6  and  C_7 
REMARK    6  A    between atoms: C_7  and  C_8 
REMARK    7  A    between atoms: C_8  and  O_10 
REMARK    8  A    between atoms: O_10  and  C_11 
REMARK    9  A    between atoms: C_11  and  C_12 
REMARK   10  A    between atoms: C_17  and  O_30 
REMARK   11  A    between atoms: C_18  and  C_19 
REMARK   12  A    between atoms: C_19  and  O_20 
REMARK   13  A    between atoms: O_20  and  C_21 
REMARK   14  A    between atoms: C_21  and  C_23 
REMARK   15  A    between atoms: C_23  and  C_24 
REMARK   16  A    between atoms: C_24  and  C_25 
REMARK   17  A    between atoms: C_25  and  C_26 
REMARK   18  A    between atoms: C_26  and  C_27 
REMARK   19  A    between atoms: C_27  and  C_28 
ROOT
HETATM    1  C   UNL     1     -19.723  -9.215  -4.749  1.00  0.00    -0.007 A 
HETATM    2  C   UNL     1     -18.843  -9.182  -5.833  1.00  0.00     0.098 A 
HETATM    3  N   UNL     1     -17.547  -9.559  -5.789  1.00  0.00    -0.367 N 
ATOM      4  HN  UNL     1     -16.952  -9.514  -6.617  1.00  0.00     0.165 HD
HETATM    5  C   UNL     1     -17.072  -9.999  -4.605  1.00  0.00     0.039 A 
HETATM    6  C   UNL     1     -17.869 -10.073  -3.458  1.00  0.00     0.096 A 
HETATM    7  C   UNL     1     -19.221  -9.673  -3.515  1.00  0.00     0.011 A 
HETATM    8  C   UNL     1     -15.626 -10.399  -4.583  1.00  0.00     0.071 C 
ENDROOT
BRANCH   1   9
HETATM    9  C   UNL     1     -21.139  -8.734  -4.952  1.00  0.00     0.219 C 
BRANCH   9  10
HETATM   10  O   UNL     1     -21.241  -7.728  -5.972  1.00  0.00    -0.317 OA
BRANCH  10  11
HETATM   11  C   UNL     1     -21.614  -6.505  -5.506  1.00  0.00     0.259 C 
HETATM   12  O   UNL     1     -22.673  -6.270  -4.938  1.00  0.00    -0.265 OA
BRANCH  11  13
HETATM   13  C   UNL     1     -20.547  -5.468  -5.784  1.00  0.00     0.111 C 
BRANCH  13  14
HETATM   14  C   UNL     1     -19.759  -5.803  -7.054  1.00  0.00     0.010 C 
BRANCH  14  15
HETATM   15  C   UNL     1     -19.811  -4.684  -8.102  1.00  0.00     0.000 C 
BRANCH  15  16
HETATM   16  C   UNL     1     -21.109  -3.881  -7.975  1.00  0.00     0.000 C 
BRANCH  16  17
HETATM   17  C   UNL     1     -21.868  -3.829  -9.301  1.00  0.00    -0.000 C 
BRANCH  17  18
HETATM   18  C   UNL     1     -23.264  -4.439  -9.167  1.00  0.00    -0.005 C 
HETATM   19  C   UNL     1     -23.786  -4.918 -10.513  1.00  0.00     0.005 C 
ENDBRANCH  17  18
ENDBRANCH  16  17
ENDBRANCH  15  16
ENDBRANCH  14  15
ENDBRANCH  13  14
ENDBRANCH  11  13
ENDBRANCH  10  11
ENDBRANCH   9  10
ENDBRANCH   1   9
BRANCH   7  20
HETATM   20  C   UNL     1     -20.107  -9.733  -2.291  1.00  0.00     0.221 C 
BRANCH  20  21
HETATM   21  O   UNL     1     -20.214 -11.055  -1.743  1.00  0.00    -0.317 OA
BRANCH  21  22
HETATM   22  C   UNL     1     -21.316 -11.753  -2.158  1.00  0.00     0.259 C 
HETATM   23  O   UNL     1     -21.340 -12.931  -2.428  1.00  0.00    -0.265 OA
BRANCH  22  24
HETATM   24  C   UNL     1     -22.511 -10.817  -2.221  1.00  0.00     0.111 C 
BRANCH  24  25
HETATM   25  C   UNL     1     -23.707 -11.405  -1.478  1.00  0.00     0.010 C 
BRANCH  25  26
HETATM   26  C   UNL     1     -24.022 -10.661  -0.179  1.00  0.00     0.000 C 
BRANCH  26  27
HETATM   27  C   UNL     1     -22.846  -9.770   0.217  1.00  0.00     0.000 C 
BRANCH  27  28
HETATM   28  C   UNL     1     -23.259  -8.303   0.300  1.00  0.00    -0.000 C 
BRANCH  28  29
HETATM   29  C   UNL     1     -22.094  -7.382  -0.056  1.00  0.00    -0.005 C 
HETATM   30  C   UNL     1     -22.308  -6.729  -1.412  1.00  0.00     0.005 C 
ENDBRANCH  28  29
ENDBRANCH  27  28
ENDBRANCH  26  27
ENDBRANCH  25  26
ENDBRANCH  24  25
ENDBRANCH  22  24
ENDBRANCH  21  22
ENDBRANCH  20  21
ENDBRANCH   7  20
BRANCH   6  31
HETATM   31  O   UNL     1     -17.344 -10.530  -2.275  1.00  0.00    -0.358 OA
HETATM   32  H   UNL     1     -17.408 -11.501  -2.237  1.00  0.00     0.217 HD
ENDBRANCH   6  31
TORSDOF 19
BEGIN_RES ARG D 557
REMARK  4 active torsions:
REMARK  status: ('A' for Active; 'I' for Inactive)
REMARK    1  A    between atoms: CA   and  CB  
REMARK    2  A    between atoms: CB   and  CG  
REMARK    3  A    between atoms: CG   and  CD  
REMARK    4  A    between atoms: CD   and  NE  
REMARK       I    between atoms: NE   and  CZ  
REMARK       I    between atoms: CZ   and  NH1 
REMARK       I    between atoms: CZ   and  NH2 
ROOT
ATOM      1  CA  ARG D 557     -26.217   2.705 -17.014  1.00 35.49     0.159 C 
ENDROOT
BRANCH   1   2
ATOM      2  CB  ARG D 557     -26.789   1.319 -17.183  1.00 35.49     0.034 C 
BRANCH   2   3
ATOM      3  CG  ARG D 557     -25.837   0.202 -17.149  1.00 35.49     0.027 C 
BRANCH   3   4
ATOM      4  CD  ARG D 557     -24.758   0.411 -16.156  1.00 35.49     0.116 C 
BRANCH   4   5
ATOM      5  NE  ARG D 557     -24.907  -0.440 -15.006  1.00 35.49    -0.212 N 
ATOM      6  CZ  ARG D 557     -24.099  -1.419 -14.665  1.00 35.49     0.666 C 
ATOM      7  NH1 ARG D 557     -23.037  -1.743 -15.378  1.00 35.49    -0.235 N 
ATOM      8  NH2 ARG D 557     -24.377  -2.074 -13.575  1.00 35.49    -0.235 N 
ATOM      9  HH  ARG D 557     -22.834  -1.324 -16.097  1.00 35.49     0.174 HD
ATOM     10  HH  ARG D 557     -22.545  -2.389 -15.105  1.00 35.49     0.174 HD
ATOM     11  HH  ARG D 557     -25.066  -1.838 -13.131  1.00 35.49     0.174 HD
ATOM     12  HH  ARG D 557     -23.877  -2.710 -13.321  1.00 35.49     0.174 HD
ATOM     13  HE  ARG D 557     -25.605  -0.348 -14.529  1.00 35.49     0.178 HD
ENDBRANCH   4   5
ENDBRANCH   3   4
ENDBRANCH   2   3
ENDBRANCH   1   2
END_RES ARG D 557
BEGIN_RES GLU D 570
REMARK  3 active torsions:
REMARK  status: ('A' for Active; 'I' for Inactive)
REMARK    5  A    between atoms: CA   and  CB  
REMARK    6  A    between atoms: CB   and  CG  
REMARK    7  A    between atoms: CG   and  CD  
ROOT
ATOM     14  CA  GLU D 570     -18.033  -6.348 -13.375  1.00 32.92     0.160 C 
ENDROOT
BRANCH  14  15
ATOM     15  CB  GLU D 570     -19.500  -6.345 -13.794  1.00 32.92     0.043 C 
BRANCH  15  16
ATOM     16  CG  GLU D 570     -20.441  -5.529 -12.985  1.00 32.92     0.100 C 
BRANCH  16  17
ATOM     17  CD  GLU D 570     -21.736  -5.235 -13.705  1.00 32.92     0.185 C 
ATOM     18  OE1 GLU D 570     -22.240  -4.100 -13.605  1.00 32.92    -0.647 OA
ATOM     19  OE2 GLU D 570     -22.261  -6.154 -14.364  1.00 32.92    -0.647 OA
ENDBRANCH  16  17
ENDBRANCH  15  16
ENDBRANCH  14  15
END_RES GLU D 570
ENDMDL
MODEL 7
REMARK VINA RESULT:      -7.1      6.468     11.957
REMARK  19 active torsions:
REMARK  status: ('A' for Active; 'I' for Inactive)
REMARK    1  A    between atoms: C_2  and  C_3 
REMARK    2  A    between atoms: C_3  and  C_4 
REMARK    3  A    between atoms: C_4  and  C_5 
REMARK    4  A    between atoms: C_5  and  C_6 
REMARK    5  A    between atoms: C_6  and  C_7 
REMARK    6  A    between atoms: C_7  and  C_8 
REMARK    7  A    between atoms: C_8  and  O_10 
REMARK    8  A    between atoms: O_10  and  C_11 
REMARK    9  A    between atoms: C_11  and  C_12 
REMARK   10  A    between atoms: C_17  and  O_30 
REMARK   11  A    between atoms: C_18  and  C_19 
REMARK   12  A    between atoms: C_19  and  O_20 
REMARK   13  A    between atoms: O_20  and  C_21 
REMARK   14  A    between atoms: C_21  and  C_23 
REMARK   15  A    between atoms: C_23  and  C_24 
REMARK   16  A    between atoms: C_24  and  C_25 
REMARK   17  A    between atoms: C_25  and  C_26 
REMARK   18  A    between atoms: C_26  and  C_27 
REMARK   19  A    between atoms: C_27  and  C_28 
ROOT
HETATM    1  C   UNL     1     -20.382  -8.219  -3.649  1.00  0.00    -0.007 A 
HETATM    2  C   UNL     1     -20.444  -9.196  -2.653  1.00  0.00     0.098 A 
HETATM    3  N   UNL     1     -21.146  -9.086  -1.504  1.00  0.00    -0.367 N 
ATOM      4  HN  UNL     1     -21.154  -9.836  -0.813  1.00  0.00     0.165 HD
HETATM    5  C   UNL     1     -21.835  -7.942  -1.309  1.00  0.00     0.039 A 
HETATM    6  C   UNL     1     -21.841  -6.902  -2.244  1.00  0.00     0.096 A 
HETATM    7  C   UNL     1     -21.102  -7.027  -3.440  1.00  0.00     0.011 A 
HETATM    8  C   UNL     1     -22.595  -7.842  -0.019  1.00  0.00     0.071 C 
ENDROOT
BRANCH   1   9
HETATM    9  C   UNL     1     -19.530  -8.482  -4.867  1.00  0.00     0.219 C 
BRANCH   9  10
HETATM   10  O   UNL     1     -19.801  -9.759  -5.467  1.00  0.00    -0.317 OA
BRANCH  10  11
HETATM   11  C   UNL     1     -18.738 -10.608  -5.459  1.00  0.00     0.259 C 
HETATM   12  O   UNL     1     -18.812 -11.813  -5.254  1.00  0.00    -0.265 OA
BRANCH  11  13
HETATM   13  C   UNL     1     -17.448  -9.867  -5.734  1.00  0.00     0.111 C 
BRANCH  13  14
HETATM   14  C   UNL     1     -16.314 -10.362  -4.830  1.00  0.00     0.010 C 
BRANCH  14  15
HETATM   15  C   UNL     1     -16.100  -9.471  -3.600  1.00  0.00     0.000 C 
BRANCH  15  16
HETATM   16  C   UNL     1     -15.816 -10.318  -2.357  1.00  0.00     0.000 C 
BRANCH  16  17
HETATM   17  C   UNL     1     -15.854 -11.813  -2.676  1.00  0.00    -0.000 C 
BRANCH  17  18
HETATM   18  C   UNL     1     -15.533 -12.655  -1.441  1.00  0.00    -0.005 C 
HETATM   19  C   UNL     1     -15.853 -11.899  -0.161  1.00  0.00     0.005 C 
ENDBRANCH  17  18
ENDBRANCH  16  17
ENDBRANCH  15  16
ENDBRANCH  14  15
ENDBRANCH  13  14
ENDBRANCH  11  13
ENDBRANCH  10  11
ENDBRANCH   9  10
ENDBRANCH   1   9
BRANCH   7  20
HETATM   20  C   UNL     1     -21.081  -5.918  -4.467  1.00  0.00     0.221 C 
BRANCH  20  21
HETATM   21  O   UNL     1     -22.272  -5.874  -5.266  1.00  0.00    -0.317 OA
BRANCH  21  22
HETATM   22  C   UNL     1     -22.115  -5.272  -6.485  1.00  0.00     0.259 C 
HETATM   23  O   UNL     1     -22.886  -4.487  -6.985  1.00  0.00    -0.265 OA
BRANCH  22  24
HETATM   24  C   UNL     1     -20.813  -5.740  -7.114  1.00  0.00     0.111 C 
BRANCH  24  25
HETATM   25  C   UNL     1     -19.790  -4.610  -7.162  1.00  0.00     0.010 C 
BRANCH  25  26
HETATM   26  C   UNL     1     -19.799  -3.857  -8.493  1.00  0.00     0.000 C 
BRANCH  26  27
HETATM   27  C   UNL     1     -20.196  -4.799  -9.628  1.00  0.00     0.000 C 
BRANCH  27  28
HETATM   28  C   UNL     1     -20.476  -4.033 -10.918  1.00  0.00    -0.000 C 
BRANCH  28  29
HETATM   29  C   UNL     1     -21.907  -3.497 -10.941  1.00  0.00    -0.005 C 
HETATM   30  C   UNL     1     -22.900  -4.577 -10.546  1.00  0.00     0.005 C 
ENDBRANCH  28  29
ENDBRANCH  27  28
ENDBRANCH  26  27
ENDBRANCH  25  26
ENDBRANCH  24  25
ENDBRANCH  22  24
ENDBRANCH  21  22
ENDBRANCH  20  21
ENDBRANCH   7  20
BRANCH   6  31
HETATM   31  O   UNL     1     -22.561  -5.757  -2.006  1.00  0.00    -0.358 OA
HETATM   32  H   UNL     1     -22.744  -5.299  -2.846  1.00  0.00     0.217 HD
ENDBRANCH   6  31
TORSDOF 19
BEGIN_RES ARG D 557
REMARK  4 active torsions:
REMARK  status: ('A' for Active; 'I' for Inactive)
REMARK    1  A    between atoms: CA   and  CB  
REMARK    2  A    between atoms: CB   and  CG  
REMARK    3  A    between atoms: CG   and  CD  
REMARK    4  A    between atoms: CD   and  NE  
REMARK       I    between atoms: NE   and  CZ  
REMARK       I    between atoms: CZ   and  NH1 
REMARK       I    between atoms: CZ   and  NH2 
ROOT
ATOM      1  CA  ARG D 557     -26.217   2.705 -17.014  1.00 35.49     0.159 C 
ENDROOT
BRANCH   1   2
ATOM      2  CB  ARG D 557     -26.789   1.319 -17.183  1.00 35.49     0.034 C 
BRANCH   2   3
ATOM      3  CG  ARG D 557     -25.839   0.201 -17.131  1.00 35.49     0.027 C 
BRANCH   3   4
ATOM      4  CD  ARG D 557     -24.751   0.431 -16.153  1.00 35.49     0.116 C 
BRANCH   4   5
ATOM      5  NE  ARG D 557     -24.858  -0.436 -15.009  1.00 35.49    -0.212 N 
ATOM      6  CZ  ARG D 557     -24.022  -1.401 -14.696  1.00 35.49     0.666 C 
ATOM      7  NH1 ARG D 557     -22.968  -1.694 -15.434  1.00 35.49    -0.235 N 
ATOM      8  NH2 ARG D 557     -24.263  -2.073 -13.608  1.00 35.49    -0.235 N 
ATOM      9  HH  ARG D 557     -22.789  -1.263 -16.153  1.00 35.49     0.174 HD
ATOM     10  HH  ARG D 557     -22.457  -2.332 -15.179  1.00 35.49     0.174 HD
ATOM     11  HH  ARG D 557     -24.947  -1.857 -13.147  1.00 35.49     0.174 HD
ATOM     12  HH  ARG D 557     -23.744  -2.701 -13.371  1.00 35.49     0.174 HD
ATOM     13  HE  ARG D 557     -25.548  -0.364 -14.517  1.00 35.49     0.178 HD
ENDBRANCH   4   5
ENDBRANCH   3   4
ENDBRANCH   2   3
ENDBRANCH   1   2
END_RES ARG D 557
BEGIN_RES GLU D 570
REMARK  3 active torsions:
REMARK  status: ('A' for Active; 'I' for Inactive)
REMARK    5  A    between atoms: CA   and  CB  
REMARK    6  A    between atoms: CB   and  CG  
REMARK    7  A    between atoms: CG   and  CD  
ROOT
ATOM     14  CA  GLU D 570     -18.033  -6.348 -13.375  1.00 32.92     0.160 C 
ENDROOT
BRANCH  14  15
ATOM     15  CB  GLU D 570     -19.500  -6.345 -13.794  1.00 32.92     0.043 C 
BRANCH  15  16
ATOM     16  CG  GLU D 570     -19.821  -5.853 -15.158  1.00 32.92     0.100 C 
BRANCH  16  17
ATOM     17  CD  GLU D 570     -21.300  -5.629 -15.372  1.00 32.92     0.185 C 
ATOM     18  OE1 GLU D 570     -21.697  -4.504 -15.729  1.00 32.92    -0.647 OA
ATOM     19  OE2 GLU D 570     -22.072  -6.586 -15.162  1.00 32.92    -0.647 OA
ENDBRANCH  16  17
ENDBRANCH  15  16
ENDBRANCH  14  15
END_RES GLU D 570
ENDMDL
MODEL 8
REMARK VINA RESULT:      -7.0      2.131      3.413
REMARK  19 active torsions:
REMARK  status: ('A' for Active; 'I' for Inactive)
REMARK    1  A    between atoms: C_2  and  C_3 
REMARK    2  A    between atoms: C_3  and  C_4 
REMARK    3  A    between atoms: C_4  and  C_5 
REMARK    4  A    between atoms: C_5  and  C_6 
REMARK    5  A    between atoms: C_6  and  C_7 
REMARK    6  A    between atoms: C_7  and  C_8 
REMARK    7  A    between atoms: C_8  and  O_10 
REMARK    8  A    between atoms: O_10  and  C_11 
REMARK    9  A    between atoms: C_11  and  C_12 
REMARK   10  A    between atoms: C_17  and  O_30 
REMARK   11  A    between atoms: C_18  and  C_19 
REMARK   12  A    between atoms: C_19  and  O_20 
REMARK   13  A    between atoms: O_20  and  C_21 
REMARK   14  A    between atoms: C_21  and  C_23 
REMARK   15  A    between atoms: C_23  and  C_24 
REMARK   16  A    between atoms: C_24  and  C_25 
REMARK   17  A    between atoms: C_25  and  C_26 
REMARK   18  A    between atoms: C_26  and  C_27 
REMARK   19  A    between atoms: C_27  and  C_28 
ROOT
HETATM    1  C   UNL     1     -22.463  -5.166 -15.220  1.00  0.00    -0.007 A 
HETATM    2  C   UNL     1     -21.447  -4.791 -16.101  1.00  0.00     0.098 A 
HETATM    3  N   UNL     1     -21.193  -5.384 -17.287  1.00  0.00    -0.367 N 
ATOM      4  HN  UNL     1     -20.435  -5.064 -17.890  1.00  0.00     0.165 HD
HETATM    5  C   UNL     1     -21.984  -6.419 -17.641  1.00  0.00     0.039 A 
HETATM    6  C   UNL     1     -23.030  -6.874 -16.833  1.00  0.00     0.096 A 
HETATM    7  C   UNL     1     -23.284  -6.248 -15.594  1.00  0.00     0.011 A 
HETATM    8  C   UNL     1     -21.670  -7.067 -18.958  1.00  0.00     0.071 C 
ENDROOT
BRANCH   1   9
HETATM    9  C   UNL     1     -22.603  -4.419 -13.916  1.00  0.00     0.219 C 
BRANCH   9  10
HETATM   10  O   UNL     1     -23.671  -3.458 -13.941  1.00  0.00    -0.317 OA
BRANCH  10  11
HETATM   11  C   UNL     1     -24.278  -3.278 -12.736  1.00  0.00     0.259 C 
HETATM   12  O   UNL     1     -25.424  -2.874 -12.588  1.00  0.00    -0.265 OA
BRANCH  11  13
HETATM   13  C   UNL     1     -23.347  -3.636 -11.599  1.00  0.00     0.111 C 
BRANCH  13  14
HETATM   14  C   UNL     1     -24.044  -4.519 -10.560  1.00  0.00     0.010 C 
BRANCH  14  15
HETATM   15  C   UNL     1     -23.838  -4.027  -9.122  1.00  0.00     0.000 C 
BRANCH  15  16
HETATM   16  C   UNL     1     -22.381  -3.619  -8.891  1.00  0.00     0.000 C 
BRANCH  16  17
HETATM   17  C   UNL     1     -21.506  -4.826  -8.553  1.00  0.00    -0.000 C 
BRANCH  17  18
HETATM   18  C   UNL     1     -20.080  -4.644  -9.072  1.00  0.00    -0.005 C 
HETATM   19  C   UNL     1     -20.042  -4.654 -10.592  1.00  0.00     0.005 C 
ENDBRANCH  17  18
ENDBRANCH  16  17
ENDBRANCH  15  16
ENDBRANCH  14  15
ENDBRANCH  13  14
ENDBRANCH  11  13
ENDBRANCH  10  11
ENDBRANCH   9  10
ENDBRANCH   1   9
BRANCH   7  20
HETATM   20  C   UNL     1     -24.403  -6.720 -14.693  1.00  0.00     0.221 C 
BRANCH  20  21
HETATM   21  O   UNL     1     -25.494  -7.307 -15.417  1.00  0.00    -0.317 OA
BRANCH  21  22
HETATM   22  C   UNL     1     -26.470  -6.422 -15.788  1.00  0.00     0.259 C 
HETATM   23  O   UNL     1     -26.289  -5.271 -16.108  1.00  0.00    -0.265 OA
BRANCH  22  24
HETATM   24  C   UNL     1     -27.821  -7.115 -15.741  1.00  0.00     0.111 C 
BRANCH  24  25
HETATM   25  C   UNL     1     -28.857  -6.352 -16.561  1.00  0.00     0.010 C 
BRANCH  25  26
HETATM   26  C   UNL     1     -28.904  -6.800 -18.022  1.00  0.00     0.000 C 
BRANCH  26  27
HETATM   27  C   UNL     1     -28.105  -5.835 -18.896  1.00  0.00     0.000 C 
BRANCH  27  28
HETATM   28  C   UNL     1     -27.306  -6.577 -19.964  1.00  0.00    -0.000 C 
BRANCH  28  29
HETATM   29  C   UNL     1     -25.820  -6.613 -19.613  1.00  0.00    -0.005 C 
HETATM   30  C   UNL     1     -25.046  -7.467 -20.605  1.00  0.00     0.005 C 
ENDBRANCH  28  29
ENDBRANCH  27  28
ENDBRANCH  26  27
ENDBRANCH  25  26
ENDBRANCH  24  25
ENDBRANCH  22  24
ENDBRANCH  21  22
ENDBRANCH  20  21
ENDBRANCH   7  20
BRANCH   6  31
HETATM   31  O   UNL     1     -23.813  -7.927 -17.235  1.00  0.00    -0.358 OA
HETATM   32  H   UNL     1     -23.513  -8.251 -18.104  1.00  0.00     0.217 HD
ENDBRANCH   6  31
TORSDOF 19
BEGIN_RES ARG D 557
REMARK  4 active torsions:
REMARK  status: ('A' for Active; 'I' for Inactive)
REMARK    1  A    between atoms: CA   and  CB  
REMARK    2  A    between atoms: CB   and  CG  
REMARK    3  A    between atoms: CG   and  CD  
REMARK    4  A    between atoms: CD   and  NE  
REMARK       I    between atoms: NE   and  CZ  
REMARK       I    between atoms: CZ   and  NH1 
REMARK       I    between atoms: CZ   and  NH2 
ROOT
ATOM      1  CA  ARG D 557     -26.217   2.705 -17.014  1.00 35.49     0.159 C 
ENDROOT
BRANCH   1   2
ATOM      2  CB  ARG D 557     -26.789   1.319 -17.183  1.00 35.49     0.034 C 
BRANCH   2   3
ATOM      3  CG  ARG D 557     -28.250   1.193 -17.108  1.00 35.49     0.027 C 
BRANCH   3   4
ATOM      4  CD  ARG D 557     -28.675  -0.097 -16.519  1.00 35.49     0.116 C 
BRANCH   4   5
ATOM      5  NE  ARG D 557     -27.580  -0.801 -15.907  1.00 35.49    -0.212 N 
ATOM      6  CZ  ARG D 557     -27.316  -2.082 -16.046  1.00 35.49     0.666 C 
ATOM      7  NH1 ARG D 557     -28.067  -2.885 -16.777  1.00 35.49    -0.235 N 
ATOM      8  NH2 ARG D 557     -26.267  -2.548 -15.434  1.00 35.49    -0.235 N 
ATOM      9  HH  ARG D 557     -28.761  -2.598 -17.190  1.00 35.49     0.174 HD
ATOM     10  HH  ARG D 557     -27.844  -3.710 -16.833  1.00 35.49     0.174 HD
ATOM     11  HH  ARG D 557     -25.797  -2.005 -14.975  1.00 35.49     0.174 HD
ATOM     12  HH  ARG D 557     -26.062  -3.368 -15.503  1.00 35.49     0.174 HD
ATOM     13  HE  ARG D 557     -27.087  -0.376 -15.360  1.00 35.49     0.178 HD
ENDBRANCH   4   5
ENDBRANCH   3   4
ENDBRANCH   2   3
ENDBRANCH   1   2
END_RES ARG D 557
BEGIN_RES GLU D 570
REMARK  3 active torsions:
REMARK  status: ('A' for Active; 'I' for Inactive)
REMARK    5  A    between atoms: CA   and  CB  
REMARK    6  A    between atoms: CB   and  CG  
REMARK    7  A    between atoms: CG   and  CD  
ROOT
ATOM     14  CA  GLU D 570     -18.033  -6.348 -13.375  1.00 32.92     0.160 C 
ENDROOT
BRANCH  14  15
ATOM     15  CB  GLU D 570     -19.500  -6.345 -13.794  1.00 32.92     0.043 C 
BRANCH  15  16
ATOM     16  CG  GLU D 570     -20.187  -7.659 -13.891  1.00 32.92     0.100 C 
BRANCH  16  17
ATOM     17  CD  GLU D 570     -20.245  -8.190 -15.305  1.00 32.92     0.185 C 
ATOM     18  OE1 GLU D 570     -19.489  -7.702 -16.166  1.00 32.92    -0.647 OA
ATOM     19  OE2 GLU D 570     -21.068  -9.093 -15.556  1.00 32.92    -0.647 OA
ENDBRANCH  16  17
ENDBRANCH  15  16
ENDBRANCH  14  15
END_RES GLU D 570
ENDMDL
MODEL 9
REMARK VINA RESULT:      -7.0      2.273      3.532
REMARK  19 active torsions:
REMARK  status: ('A' for Active; 'I' for Inactive)
REMARK    1  A    between atoms: C_2  and  C_3 
REMARK    2  A    between atoms: C_3  and  C_4 
REMARK    3  A    between atoms: C_4  and  C_5 
REMARK    4  A    between atoms: C_5  and  C_6 
REMARK    5  A    between atoms: C_6  and  C_7 
REMARK    6  A    between atoms: C_7  and  C_8 
REMARK    7  A    between atoms: C_8  and  O_10 
REMARK    8  A    between atoms: O_10  and  C_11 
REMARK    9  A    between atoms: C_11  and  C_12 
REMARK   10  A    between atoms: C_17  and  O_30 
REMARK   11  A    between atoms: C_18  and  C_19 
REMARK   12  A    between atoms: C_19  and  O_20 
REMARK   13  A    between atoms: O_20  and  C_21 
REMARK   14  A    between atoms: C_21  and  C_23 
REMARK   15  A    between atoms: C_23  and  C_24 
REMARK   16  A    between atoms: C_24  and  C_25 
REMARK   17  A    between atoms: C_25  and  C_26 
REMARK   18  A    between atoms: C_26  and  C_27 
REMARK   19  A    between atoms: C_27  and  C_28 
ROOT
HETATM    1  C   UNL     1     -23.287  -4.847 -14.541  1.00  0.00    -0.007 A 
HETATM    2  C   UNL     1     -22.196  -4.081 -14.957  1.00  0.00     0.098 A 
HETATM    3  N   UNL     1     -21.336  -4.429 -15.939  1.00  0.00    -0.367 N 
ATOM      4  HN  UNL     1     -20.556  -3.825 -16.201  1.00  0.00     0.165 HD
HETATM    5  C   UNL     1     -21.551  -5.608 -16.559  1.00  0.00     0.039 A 
HETATM    6  C   UNL     1     -22.615  -6.451 -16.219  1.00  0.00     0.096 A 
HETATM    7  C   UNL     1     -23.505  -6.078 -15.190  1.00  0.00     0.011 A 
HETATM    8  C   UNL     1     -20.573  -5.975 -17.636  1.00  0.00     0.071 C 
ENDROOT
BRANCH   1   9
HETATM    9  C   UNL     1     -24.142  -4.332 -13.409  1.00  0.00     0.219 C 
BRANCH   9  10
HETATM   10  O   UNL     1     -23.424  -3.455 -12.527  1.00  0.00    -0.317 OA
BRANCH  10  11
HETATM   11  C   UNL     1     -23.998  -3.315 -11.300  1.00  0.00     0.259 C 
HETATM   12  O   UNL     1     -25.194  -3.138 -11.109  1.00  0.00    -0.265 OA
BRANCH  11  13
HETATM   13  C   UNL     1     -22.962  -3.402 -10.202  1.00  0.00     0.111 C 
BRANCH  13  14
HETATM   14  C   UNL     1     -23.174  -4.643  -9.328  1.00  0.00     0.010 C 
BRANCH  14  15
HETATM   15  C   UNL     1     -23.165  -4.326  -7.828  1.00  0.00     0.000 C 
BRANCH  15  16
HETATM   16  C   UNL     1     -21.750  -3.988  -7.352  1.00  0.00     0.000 C 
BRANCH  16  17
HETATM   17  C   UNL     1     -21.261  -4.981  -6.297  1.00  0.00    -0.000 C 
BRANCH  17  18
HETATM   18  C   UNL     1     -19.772  -4.795  -6.004  1.00  0.00    -0.005 C 
HETATM   19  C   UNL     1     -18.987  -4.543  -7.282  1.00  0.00     0.005 C 
ENDBRANCH  17  18
ENDBRANCH  16  17
ENDBRANCH  15  16
ENDBRANCH  14  15
ENDBRANCH  13  14
ENDBRANCH  11  13
ENDBRANCH  10  11
ENDBRANCH   9  10
ENDBRANCH   1   9
BRANCH   7  20
HETATM   20  C   UNL     1     -24.660  -6.969 -14.793  1.00  0.00     0.221 C 
BRANCH  20  21
HETATM   21  O   UNL     1     -25.453  -7.388 -15.913  1.00  0.00    -0.317 OA
BRANCH  21  22
HETATM   22  C   UNL     1     -26.747  -6.943 -15.891  1.00  0.00     0.259 C 
HETATM   23  O   UNL     1     -27.632  -7.392 -15.201  1.00  0.00    -0.265 OA
BRANCH  22  24
HETATM   24  C   UNL     1     -26.899  -5.788 -16.866  1.00  0.00     0.111 C 
BRANCH  24  25
HETATM   25  C   UNL     1     -27.510  -4.569 -16.181  1.00  0.00     0.010 C 
BRANCH  25  26
HETATM   26  C   UNL     1     -28.537  -3.849 -17.057  1.00  0.00     0.000 C 
BRANCH  26  27
HETATM   27  C   UNL     1     -29.409  -4.867 -17.792  1.00  0.00     0.000 C 
BRANCH  27  28
HETATM   28  C   UNL     1     -30.455  -5.480 -16.865  1.00  0.00    -0.000 C 
BRANCH  28  29
HETATM   29  C   UNL     1     -30.993  -6.792 -17.434  1.00  0.00    -0.005 C 
HETATM   30  C   UNL     1     -29.891  -7.581 -18.123  1.00  0.00     0.005 C 
ENDBRANCH  28  29
ENDBRANCH  27  28
ENDBRANCH  26  27
ENDBRANCH  25  26
ENDBRANCH  24  25
ENDBRANCH  22  24
ENDBRANCH  21  22
ENDBRANCH  20  21
ENDBRANCH   7  20
BRANCH   6  31
HETATM   31  O   UNL     1     -22.798  -7.640 -16.879  1.00  0.00    -0.358 OA
HETATM   32  H   UNL     1     -23.728  -7.920 -16.808  1.00  0.00     0.217 HD
ENDBRANCH   6  31
TORSDOF 19
BEGIN_RES ARG D 557
REMARK  4 active torsions:
REMARK  status: ('A' for Active; 'I' for Inactive)
REMARK    1  A    between atoms: CA   and  CB  
REMARK    2  A    between atoms: CB   and  CG  
REMARK    3  A    between atoms: CG   and  CD  
REMARK    4  A    between atoms: CD   and  NE  
REMARK       I    between atoms: NE   and  CZ  
REMARK       I    between atoms: CZ   and  NH1 
REMARK       I    between atoms: CZ   and  NH2 
ROOT
ATOM      1  CA  ARG D 557     -26.217   2.705 -17.014  1.00 35.49     0.159 C 
ENDROOT
BRANCH   1   2
ATOM      2  CB  ARG D 557     -26.789   1.319 -17.183  1.00 35.49     0.034 C 
BRANCH   2   3
ATOM      3  CG  ARG D 557     -26.980   0.530 -15.960  1.00 35.49     0.027 C 
BRANCH   3   4
ATOM      4  CD  ARG D 557     -26.452  -0.848 -16.090  1.00 35.49     0.116 C 
BRANCH   4   5
ATOM      5  NE  ARG D 557     -25.481  -1.154 -15.073  1.00 35.49    -0.212 N 
ATOM      6  CZ  ARG D 557     -24.236  -0.736 -15.049  1.00 35.49     0.666 C 
ATOM      7  NH1 ARG D 557     -23.725   0.026 -15.999  1.00 35.49    -0.235 N 
ATOM      8  NH2 ARG D 557     -23.501  -1.094 -14.037  1.00 35.49    -0.235 N 
ATOM      9  HH  ARG D 557     -24.191   0.276 -16.673  1.00 35.49     0.174 HD
ATOM     10  HH  ARG D 557     -22.907   0.271 -15.929  1.00 35.49     0.174 HD
ATOM     11  HH  ARG D 557     -23.859  -1.581 -13.434  1.00 35.49     0.174 HD
ATOM     12  HH  ARG D 557     -22.694  -0.840 -13.984  1.00 35.49     0.174 HD
ATOM     13  HE  ARG D 557     -25.704  -1.700 -14.459  1.00 35.49     0.178 HD
ENDBRANCH   4   5
ENDBRANCH   3   4
ENDBRANCH   2   3
ENDBRANCH   1   2
END_RES ARG D 557
BEGIN_RES GLU D 570
REMARK  3 active torsions:
REMARK  status: ('A' for Active; 'I' for Inactive)
REMARK    5  A    between atoms: CA   and  CB  
REMARK    6  A    between atoms: CB   and  CG  
REMARK    7  A    between atoms: CG   and  CD  
ROOT
ATOM     14  CA  GLU D 570     -18.033  -6.348 -13.375  1.00 32.92     0.160 C 
ENDROOT
BRANCH  14  15
ATOM     15  CB  GLU D 570     -19.500  -6.345 -13.794  1.00 32.92     0.043 C 
BRANCH  15  16
ATOM     16  CG  GLU D 570     -20.512  -6.075 -12.740  1.00 32.92     0.100 C 
BRANCH  16  17
ATOM     17  CD  GLU D 570     -20.091  -4.985 -11.783  1.00 32.92     0.185 C 
ATOM     18  OE1 GLU D 570     -20.127  -3.799 -12.163  1.00 32.92    -0.647 OA
ATOM     19  OE2 GLU D 570     -19.704  -5.322 -10.647  1.00 32.92    -0.647 OA
ENDBRANCH  16  17
ENDBRANCH  15  16
ENDBRANCH  14  15
END_RES GLU D 570
ENDMDL
