MODEL 1
REMARK VINA RESULT:      -6.9      0.000      0.000
REMARK  24 active torsions:
REMARK  status: ('A' for Active; 'I' for Inactive)
REMARK    1  A    between atoms: C_1  and  C_2 
REMARK    2  A    between atoms: C_1  and  O_45 
REMARK    3  A    between atoms: C_3  and  O_44 
REMARK    4  A    between atoms: C_4  and  O_43 
REMARK    5  A    between atoms: C_5  and  O_42 
REMARK    6  A    between atoms: C_6  and  O_8 
REMARK    7  A    between atoms: O_8  and  C_9 
REMARK    8  A    between atoms: C_10  and  C_40 
REMARK    9  A    between atoms: C_12  and  O_17 
REMARK   10  A    between atoms: C_13  and  O_16 
REMARK   11  A    between atoms: C_14  and  O_15 
REMARK   12  A    between atoms: O_17  and  C_18 
REMARK   13  A    between atoms: C_19  and  C_38 
REMARK   14  A    between atoms: C_21  and  O_26 
REMARK   15  A    between atoms: C_22  and  O_25 
REMARK   16  A    between atoms: C_23  and  O_24 
REMARK   17  A    between atoms: O_26  and  C_27 
REMARK   18  A    between atoms: C_28  and  C_36 
REMARK   19  A    between atoms: C_30  and  O_35 
REMARK   20  A    between atoms: C_31  and  O_34 
REMARK   21  A    between atoms: C_32  and  O_33 
REMARK   22  A    between atoms: C_36  and  O_37 
REMARK   23  A    between atoms: C_38  and  O_39 
REMARK   24  A    between atoms: C_40  and  O_41 
ROOT
HETATM    1  O   UNL     1     -21.151  -4.975  -6.231  1.00  0.00    -0.348 OA
ENDROOT
BRANCH   1   2
HETATM    2  C   UNL     1     -21.761  -5.469  -7.455  1.00  0.00     0.292 C 
HETATM    3  O   UNL     1     -20.836  -5.575  -8.540  1.00  0.00    -0.348 OA
HETATM    4  C   UNL     1     -20.679  -4.433  -9.400  1.00  0.00     0.180 C 
HETATM    5  C   UNL     1     -22.020  -3.863  -9.929  1.00  0.00     0.187 C 
HETATM    6  C   UNL     1     -22.880  -3.510  -8.709  1.00  0.00     0.183 C 
HETATM    7  C   UNL     1     -23.094  -4.761  -7.843  1.00  0.00     0.204 C 
BRANCH   4   8
HETATM    8  C   UNL     1     -19.816  -3.331  -8.751  1.00  0.00     0.198 C 
BRANCH   8   9
HETATM    9  O   UNL     1     -18.855  -3.880  -7.870  1.00  0.00    -0.398 OA
HETATM   10  H   UNL     1     -18.035  -3.360  -7.947  1.00  0.00     0.209 HD
ENDBRANCH   8   9
ENDBRANCH   4   8
BRANCH   5  11
HETATM   11  O   UNL     1     -22.653  -4.829 -10.801  1.00  0.00    -0.348 OA
BRANCH  11  12
HETATM   12  C   UNL     1     -22.974  -4.475 -12.166  1.00  0.00     0.292 C 
HETATM   13  C   UNL     1     -23.315  -2.984 -12.429  1.00  0.00     0.204 C 
HETATM   14  C   UNL     1     -23.528  -2.771 -13.935  1.00  0.00     0.183 C 
HETATM   15  C   UNL     1     -24.633  -3.710 -14.457  1.00  0.00     0.180 C 
HETATM   16  C   UNL     1     -24.279  -5.171 -14.118  1.00  0.00     0.179 C 
HETATM   17  O   UNL     1     -23.967  -5.360 -12.711  1.00  0.00    -0.348 OA
BRANCH  13  18
HETATM   18  O   UNL     1     -24.521  -2.523 -11.781  1.00  0.00    -0.388 OA
HETATM   19  H   UNL     1     -24.895  -3.276 -11.263  1.00  0.00     0.210 HD
ENDBRANCH  13  18
BRANCH  14  20
HETATM   20  O   UNL     1     -23.858  -1.402 -14.213  1.00  0.00    -0.390 OA
HETATM   21  H   UNL     1     -24.533  -1.123 -13.565  1.00  0.00     0.210 HD
ENDBRANCH  14  20
BRANCH  15  22
HETATM   22  O   UNL     1     -25.913  -3.431 -13.871  1.00  0.00    -0.390 OA
HETATM   23  H   UNL     1     -25.910  -2.503 -13.557  1.00  0.00     0.210 HD
ENDBRANCH  15  22
BRANCH  16  24
HETATM   24  C   UNL     1     -23.187  -5.743 -15.042  1.00  0.00     0.198 C 
BRANCH  24  25
HETATM   25  O   UNL     1     -23.739  -6.471 -16.129  1.00  0.00    -0.398 OA
HETATM   26  H   UNL     1     -24.037  -7.339 -15.799  1.00  0.00     0.209 HD
ENDBRANCH  24  25
ENDBRANCH  16  24
ENDBRANCH  11  12
ENDBRANCH   5  11
BRANCH   6  27
HETATM   27  O   UNL     1     -24.111  -2.909  -9.124  1.00  0.00    -0.390 OA
HETATM   28  H   UNL     1     -24.681  -3.629  -9.476  1.00  0.00     0.210 HD
ENDBRANCH   6  27
BRANCH   7  29
HETATM   29  O   UNL     1     -23.898  -4.468  -6.697  1.00  0.00    -0.388 OA
HETATM   30  H   UNL     1     -24.803  -4.775  -6.890  1.00  0.00     0.210 HD
ENDBRANCH   7  29
ENDBRANCH   1   2
BRANCH   1  31
HETATM   31  C   UNL     1     -20.330  -5.975  -5.532  1.00  0.00     0.187 C 
HETATM   32  C   UNL     1     -20.725  -7.441  -5.791  1.00  0.00     0.180 C 
HETATM   33  O   UNL     1     -21.952  -7.807  -5.139  1.00  0.00    -0.348 OA
HETATM   34  C   UNL     1     -21.988  -7.714  -3.707  1.00  0.00     0.292 C 
HETATM   35  C   UNL     1     -21.510  -6.308  -3.226  1.00  0.00     0.204 C 
HETATM   36  C   UNL     1     -20.316  -5.716  -3.999  1.00  0.00     0.183 C 
BRANCH  32  37
HETATM   37  C   UNL     1     -19.566  -8.432  -5.544  1.00  0.00     0.198 C 
BRANCH  37  38
HETATM   38  O   UNL     1     -19.944  -9.798  -5.648  1.00  0.00    -0.398 OA
HETATM   39  H   UNL     1     -20.794  -9.914  -5.180  1.00  0.00     0.209 HD
ENDBRANCH  37  38
ENDBRANCH  32  37
BRANCH  34  40
HETATM   40  O   UNL     1     -21.382  -8.867  -3.050  1.00  0.00    -0.348 OA
BRANCH  40  41
HETATM   41  C   UNL     1     -22.309  -9.516  -2.124  1.00  0.00     0.187 C 
HETATM   42  C   UNL     1     -22.004  -9.234  -0.635  1.00  0.00     0.180 C 
HETATM   43  O   UNL     1     -20.841  -9.951  -0.185  1.00  0.00    -0.349 OA
HETATM   44  C   UNL     1     -20.894 -11.357  -0.279  1.00  0.00     0.288 C 
HETATM   45  C   UNL     1     -21.222 -11.853  -1.702  1.00  0.00     0.204 C 
HETATM   46  C   UNL     1     -22.362 -11.052  -2.352  1.00  0.00     0.183 C 
BRANCH  42  47
HETATM   47  C   UNL     1     -23.245  -9.478   0.252  1.00  0.00     0.198 C 
BRANCH  47  48
HETATM   48  O   UNL     1     -23.774  -8.246   0.725  1.00  0.00    -0.398 OA
HETATM   49  H   UNL     1     -23.017  -7.624   0.729  1.00  0.00     0.209 HD
ENDBRANCH  47  48
ENDBRANCH  42  47
BRANCH  44  50
HETATM   50  O   UNL     1     -21.788 -11.901   0.685  1.00  0.00    -0.369 OA
HETATM   51  H   UNL     1     -21.911 -12.843   0.459  1.00  0.00     0.212 HD
ENDBRANCH  44  50
BRANCH  45  52
HETATM   52  O   UNL     1     -21.619 -13.242  -1.610  1.00  0.00    -0.388 OA
HETATM   53  H   UNL     1     -20.864 -13.747  -1.261  1.00  0.00     0.210 HD
ENDBRANCH  45  52
BRANCH  46  54
HETATM   54  O   UNL     1     -22.448 -11.356  -3.746  1.00  0.00    -0.390 OA
HETATM   55  H   UNL     1     -22.142 -10.566  -4.241  1.00  0.00     0.210 HD
ENDBRANCH  46  54
ENDBRANCH  40  41
ENDBRANCH  34  40
BRANCH  35  56
HETATM   56  O   UNL     1     -21.265  -6.301  -1.817  1.00  0.00    -0.388 OA
HETATM   57  H   UNL     1     -21.633  -5.469  -1.469  1.00  0.00     0.210 HD
ENDBRANCH  35  56
BRANCH  36  58
HETATM   58  O   UNL     1     -20.176  -4.304  -3.754  1.00  0.00    -0.390 OA
HETATM   59  H   UNL     1     -19.707  -3.933  -4.523  1.00  0.00     0.210 HD
ENDBRANCH  36  58
ENDBRANCH   1  31
TORSDOF 24
BEGIN_RES ARG D 557
REMARK  4 active torsions:
REMARK  status: ('A' for Active; 'I' for Inactive)
REMARK    1  A    between atoms: CA   and  CB  
REMARK    2  A    between atoms: CB   and  CG  
REMARK    3  A    between atoms: CG   and  CD  
REMARK    4  A    between atoms: CD   and  NE  
REMARK       I    between atoms: NE   and  CZ  
REMARK       I    between atoms: CZ   and  NH1 
REMARK       I    between atoms: CZ   and  NH2 
ROOT
ATOM      1  CA  ARG D 557     -26.217   2.705 -17.014  1.00 35.49     0.159 C 
ENDROOT
BRANCH   1   2
ATOM      2  CB  ARG D 557     -26.789   1.319 -17.183  1.00 35.49     0.034 C 
BRANCH   2   3
ATOM      3  CG  ARG D 557     -28.236   1.225 -17.410  1.00 35.49     0.027 C 
BRANCH   3   4
ATOM      4  CD  ARG D 557     -28.893   0.279 -16.478  1.00 35.49     0.116 C 
BRANCH   4   5
ATOM      5  NE  ARG D 557     -29.255  -0.955 -17.123  1.00 35.49    -0.212 N 
ATOM      6  CZ  ARG D 557     -28.615  -2.097 -17.011  1.00 35.49     0.666 C 
ATOM      7  NH1 ARG D 557     -27.526  -2.230 -16.277  1.00 35.49    -0.235 N 
ATOM      8  NH2 ARG D 557     -29.099  -3.122 -17.652  1.00 35.49    -0.235 N 
ATOM      9  HH  ARG D 557     -27.191  -1.570 -15.846  1.00 35.49     0.174 HD
ATOM     10  HH  ARG D 557     -27.153  -3.001 -16.239  1.00 35.49     0.174 HD
ATOM     11  HH  ARG D 557     -29.808  -3.008 -18.112  1.00 35.49     0.174 HD
ATOM     12  HH  ARG D 557     -28.716  -3.876 -17.600  1.00 35.49     0.174 HD
ATOM     13  HE  ARG D 557     -29.904  -0.942 -17.673  1.00 35.49     0.178 HD
ENDBRANCH   4   5
ENDBRANCH   3   4
ENDBRANCH   2   3
ENDBRANCH   1   2
END_RES ARG D 557
BEGIN_RES GLU D 570
REMARK  3 active torsions:
REMARK  status: ('A' for Active; 'I' for Inactive)
REMARK    5  A    between atoms: CA   and  CB  
REMARK    6  A    between atoms: CB   and  CG  
REMARK    7  A    between atoms: CG   and  CD  
ROOT
ATOM     14  CA  GLU D 570     -18.033  -6.348 -13.375  1.00 32.92     0.160 C 
ENDROOT
BRANCH  14  15
ATOM     15  CB  GLU D 570     -19.500  -6.345 -13.794  1.00 32.92     0.043 C 
BRANCH  15  16
ATOM     16  CG  GLU D 570     -20.081  -7.630 -14.263  1.00 32.92     0.100 C 
BRANCH  16  17
ATOM     17  CD  GLU D 570     -20.530  -7.582 -15.704  1.00 32.92     0.185 C 
ATOM     18  OE1 GLU D 570     -20.177  -6.623 -16.417  1.00 32.92    -0.647 OA
ATOM     19  OE2 GLU D 570     -21.257  -8.506 -16.121  1.00 32.92    -0.647 OA
ENDBRANCH  16  17
ENDBRANCH  15  16
ENDBRANCH  14  15
END_RES GLU D 570
ENDMDL
MODEL 2
REMARK VINA RESULT:      -6.1      2.599      4.091
REMARK  24 active torsions:
REMARK  status: ('A' for Active; 'I' for Inactive)
REMARK    1  A    between atoms: C_1  and  C_2 
REMARK    2  A    between atoms: C_1  and  O_45 
REMARK    3  A    between atoms: C_3  and  O_44 
REMARK    4  A    between atoms: C_4  and  O_43 
REMARK    5  A    between atoms: C_5  and  O_42 
REMARK    6  A    between atoms: C_6  and  O_8 
REMARK    7  A    between atoms: O_8  and  C_9 
REMARK    8  A    between atoms: C_10  and  C_40 
REMARK    9  A    between atoms: C_12  and  O_17 
REMARK   10  A    between atoms: C_13  and  O_16 
REMARK   11  A    between atoms: C_14  and  O_15 
REMARK   12  A    between atoms: O_17  and  C_18 
REMARK   13  A    between atoms: C_19  and  C_38 
REMARK   14  A    between atoms: C_21  and  O_26 
REMARK   15  A    between atoms: C_22  and  O_25 
REMARK   16  A    between atoms: C_23  and  O_24 
REMARK   17  A    between atoms: O_26  and  C_27 
REMARK   18  A    between atoms: C_28  and  C_36 
REMARK   19  A    between atoms: C_30  and  O_35 
REMARK   20  A    between atoms: C_31  and  O_34 
REMARK   21  A    between atoms: C_32  and  O_33 
REMARK   22  A    between atoms: C_36  and  O_37 
REMARK   23  A    between atoms: C_38  and  O_39 
REMARK   24  A    between atoms: C_40  and  O_41 
ROOT
HETATM    1  O   UNL     1     -20.228  -6.797  -4.717  1.00  0.00    -0.348 OA
ENDROOT
BRANCH   1   2
HETATM    2  C   UNL     1     -20.845  -6.985  -6.021  1.00  0.00     0.292 C 
HETATM    3  O   UNL     1     -19.953  -6.725  -7.107  1.00  0.00    -0.348 OA
HETATM    4  C   UNL     1     -19.901  -5.384  -7.626  1.00  0.00     0.180 C 
HETATM    5  C   UNL     1     -21.295  -4.793  -7.959  1.00  0.00     0.187 C 
HETATM    6  C   UNL     1     -22.134  -4.847  -6.677  1.00  0.00     0.183 C 
HETATM    7  C   UNL     1     -22.235  -6.298  -6.182  1.00  0.00     0.204 C 
BRANCH   4   8
HETATM    8  C   UNL     1     -19.092  -4.439  -6.713  1.00  0.00     0.198 C 
BRANCH   8   9
HETATM    9  O   UNL     1     -17.852  -4.092  -7.300  1.00  0.00    -0.398 OA
HETATM   10  H   UNL     1     -18.025  -3.535  -8.079  1.00  0.00     0.209 HD
ENDBRANCH   8   9
ENDBRANCH   4   8
BRANCH   5  11
HETATM   11  O   UNL     1     -21.891  -5.530  -9.052  1.00  0.00    -0.348 OA
BRANCH  11  12
HETATM   12  C   UNL     1     -22.513  -4.825 -10.151  1.00  0.00     0.292 C 
HETATM   13  C   UNL     1     -21.707  -4.769 -11.477  1.00  0.00     0.204 C 
HETATM   14  C   UNL     1     -22.555  -4.078 -12.556  1.00  0.00     0.183 C 
HETATM   15  C   UNL     1     -22.978  -2.673 -12.085  1.00  0.00     0.180 C 
HETATM   16  C   UNL     1     -23.719  -2.776 -10.737  1.00  0.00     0.179 C 
HETATM   17  O   UNL     1     -22.971  -3.526  -9.742  1.00  0.00    -0.348 OA
BRANCH  13  18
HETATM   18  O   UNL     1     -20.472  -4.025 -11.394  1.00  0.00    -0.388 OA
HETATM   19  H   UNL     1     -19.757  -4.575 -11.796  1.00  0.00     0.210 HD
ENDBRANCH  13  18
BRANCH  14  20
HETATM   20  O   UNL     1     -21.834  -3.998 -13.794  1.00  0.00    -0.390 OA
HETATM   21  H   UNL     1     -21.635  -4.911 -14.080  1.00  0.00     0.210 HD
ENDBRANCH  14  20
BRANCH  15  22
HETATM   22  O   UNL     1     -21.857  -1.797 -11.893  1.00  0.00    -0.390 OA
HETATM   23  H   UNL     1     -21.258  -1.895 -12.661  1.00  0.00     0.210 HD
ENDBRANCH  15  22
BRANCH  16  24
HETATM   24  C   UNL     1     -25.162  -3.291 -10.895  1.00  0.00     0.198 C 
BRANCH  24  25
HETATM   25  O   UNL     1     -25.866  -3.286  -9.662  1.00  0.00    -0.398 OA
HETATM   26  H   UNL     1     -25.496  -2.580  -9.100  1.00  0.00     0.209 HD
ENDBRANCH  24  25
ENDBRANCH  16  24
ENDBRANCH  11  12
ENDBRANCH   5  11
BRANCH   6  27
HETATM   27  O   UNL     1     -23.415  -4.248  -6.895  1.00  0.00    -0.390 OA
HETATM   28  H   UNL     1     -23.385  -3.810  -7.775  1.00  0.00     0.210 HD
ENDBRANCH   6  27
BRANCH   7  29
HETATM   29  O   UNL     1     -23.017  -6.386  -4.988  1.00  0.00    -0.388 OA
HETATM   30  H   UNL     1     -23.373  -5.496  -4.806  1.00  0.00     0.210 HD
ENDBRANCH   7  29
ENDBRANCH   1   2
BRANCH   1  31
HETATM   31  C   UNL     1     -19.748  -8.044  -4.103  1.00  0.00     0.187 C 
HETATM   32  C   UNL     1     -19.109  -9.050  -5.081  1.00  0.00     0.180 C 
HETATM   33  O   UNL     1     -20.078  -9.690  -5.927  1.00  0.00    -0.348 OA
HETATM   34  C   UNL     1     -21.097 -10.471  -5.284  1.00  0.00     0.292 C 
HETATM   35  C   UNL     1     -21.807  -9.650  -4.163  1.00  0.00     0.204 C 
HETATM   36  C   UNL     1     -20.883  -8.754  -3.315  1.00  0.00     0.183 C 
BRANCH  32  37
HETATM   37  C   UNL     1     -18.137 -10.031  -4.389  1.00  0.00     0.198 C 
BRANCH  37  38
HETATM   38  O   UNL     1     -17.668 -11.070  -5.238  1.00  0.00    -0.398 OA
HETATM   39  H   UNL     1     -17.886 -11.925  -4.819  1.00  0.00     0.209 HD
ENDBRANCH  37  38
ENDBRANCH  32  37
BRANCH  34  40
HETATM   40  O   UNL     1     -20.639 -11.808  -4.921  1.00  0.00    -0.348 OA
BRANCH  40  41
HETATM   41  C   UNL     1     -21.110 -12.820  -5.866  1.00  0.00     0.187 C 
HETATM   42  C   UNL     1     -21.589 -14.127  -5.195  1.00  0.00     0.180 C 
HETATM   43  O   UNL     1     -20.485 -14.907  -4.702  1.00  0.00    -0.349 OA
HETATM   44  C   UNL     1     -19.533 -15.322  -5.656  1.00  0.00     0.288 C 
HETATM   45  C   UNL     1     -18.946 -14.152  -6.470  1.00  0.00     0.204 C 
HETATM   46  C   UNL     1     -20.026 -13.158  -6.927  1.00  0.00     0.183 C 
BRANCH  42  47
HETATM   47  C   UNL     1     -22.527 -14.929  -6.123  1.00  0.00     0.198 C 
BRANCH  47  48
HETATM   48  O   UNL     1     -23.825 -14.348  -6.147  1.00  0.00    -0.398 OA
HETATM   49  H   UNL     1     -23.682 -13.403  -6.361  1.00  0.00     0.209 HD
ENDBRANCH  47  48
ENDBRANCH  42  47
BRANCH  44  50
HETATM   50  O   UNL     1     -20.065 -16.335  -6.502  1.00  0.00    -0.369 OA
HETATM   51  H   UNL     1     -19.307 -16.835  -6.860  1.00  0.00     0.212 HD
ENDBRANCH  44  50
BRANCH  45  52
HETATM   52  O   UNL     1     -18.293 -14.703  -7.638  1.00  0.00    -0.388 OA
HETATM   53  H   UNL     1     -17.953 -13.961  -8.169  1.00  0.00     0.210 HD
ENDBRANCH  45  52
BRANCH  46  54
HETATM   54  O   UNL     1     -19.420 -11.966  -7.432  1.00  0.00    -0.390 OA
HETATM   55  H   UNL     1     -19.917 -11.203  -7.066  1.00  0.00     0.210 HD
ENDBRANCH  46  54
ENDBRANCH  40  41
ENDBRANCH  34  40
BRANCH  35  56
HETATM   56  O   UNL     1     -22.608 -10.495  -3.333  1.00  0.00    -0.388 OA
HETATM   57  H   UNL     1     -22.004 -10.941  -2.713  1.00  0.00     0.210 HD
ENDBRANCH  35  56
BRANCH  36  58
HETATM   58  O   UNL     1     -21.634  -7.775  -2.572  1.00  0.00    -0.390 OA
HETATM   59  H   UNL     1     -21.300  -6.902  -2.845  1.00  0.00     0.210 HD
ENDBRANCH  36  58
ENDBRANCH   1  31
TORSDOF 24
BEGIN_RES ARG D 557
REMARK  4 active torsions:
REMARK  status: ('A' for Active; 'I' for Inactive)
REMARK    1  A    between atoms: CA   and  CB  
REMARK    2  A    between atoms: CB   and  CG  
REMARK    3  A    between atoms: CG   and  CD  
REMARK    4  A    between atoms: CD   and  NE  
REMARK       I    between atoms: NE   and  CZ  
REMARK       I    between atoms: CZ   and  NH1 
REMARK       I    between atoms: CZ   and  NH2 
ROOT
ATOM      1  CA  ARG D 557     -26.217   2.705 -17.014  1.00 35.49     0.159 C 
ENDROOT
BRANCH   1   2
ATOM      2  CB  ARG D 557     -26.789   1.319 -17.183  1.00 35.49     0.034 C 
BRANCH   2   3
ATOM      3  CG  ARG D 557     -28.151   1.100 -16.680  1.00 35.49     0.027 C 
BRANCH   3   4
ATOM      4  CD  ARG D 557     -28.788  -0.095 -17.278  1.00 35.49     0.116 C 
BRANCH   4   5
ATOM      5  NE  ARG D 557     -28.171  -1.317 -16.835  1.00 35.49    -0.212 N 
ATOM      6  CZ  ARG D 557     -28.646  -2.529 -17.021  1.00 35.49     0.666 C 
ATOM      7  NH1 ARG D 557     -29.788  -2.755 -17.644  1.00 35.49    -0.235 N 
ATOM      8  NH2 ARG D 557     -27.942  -3.525 -16.570  1.00 35.49    -0.235 N 
ATOM      9  HH  ARG D 557     -30.267  -2.114 -17.951  1.00 35.49     0.174 HD
ATOM     10  HH  ARG D 557     -30.047  -3.566 -17.738  1.00 35.49     0.174 HD
ATOM     11  HH  ARG D 557     -27.205  -3.350 -16.178  1.00 35.49     0.174 HD
ATOM     12  HH  ARG D 557     -28.214  -4.322 -16.674  1.00 35.49     0.174 HD
ATOM     13  HE  ARG D 557     -27.467  -1.261 -16.361  1.00 35.49     0.178 HD
ENDBRANCH   4   5
ENDBRANCH   3   4
ENDBRANCH   2   3
ENDBRANCH   1   2
END_RES ARG D 557
BEGIN_RES GLU D 570
REMARK  3 active torsions:
REMARK  status: ('A' for Active; 'I' for Inactive)
REMARK    5  A    between atoms: CA   and  CB  
REMARK    6  A    between atoms: CB   and  CG  
REMARK    7  A    between atoms: CG   and  CD  
ROOT
ATOM     14  CA  GLU D 570     -18.033  -6.348 -13.375  1.00 32.92     0.160 C 
ENDROOT
BRANCH  14  15
ATOM     15  CB  GLU D 570     -19.500  -6.345 -13.794  1.00 32.92     0.043 C 
BRANCH  15  16
ATOM     16  CG  GLU D 570     -20.081  -7.630 -14.262  1.00 32.92     0.100 C 
BRANCH  16  17
ATOM     17  CD  GLU D 570     -21.187  -7.443 -15.274  1.00 32.92     0.185 C 
ATOM     18  OE1 GLU D 570     -22.100  -6.631 -15.030  1.00 32.92    -0.647 OA
ATOM     19  OE2 GLU D 570     -21.148  -8.128 -16.315  1.00 32.92    -0.647 OA
ENDBRANCH  16  17
ENDBRANCH  15  16
ENDBRANCH  14  15
END_RES GLU D 570
ENDMDL
MODEL 3
REMARK VINA RESULT:      -5.8      3.410      7.793
REMARK  24 active torsions:
REMARK  status: ('A' for Active; 'I' for Inactive)
REMARK    1  A    between atoms: C_1  and  C_2 
REMARK    2  A    between atoms: C_1  and  O_45 
REMARK    3  A    between atoms: C_3  and  O_44 
REMARK    4  A    between atoms: C_4  and  O_43 
REMARK    5  A    between atoms: C_5  and  O_42 
REMARK    6  A    between atoms: C_6  and  O_8 
REMARK    7  A    between atoms: O_8  and  C_9 
REMARK    8  A    between atoms: C_10  and  C_40 
REMARK    9  A    between atoms: C_12  and  O_17 
REMARK   10  A    between atoms: C_13  and  O_16 
REMARK   11  A    between atoms: C_14  and  O_15 
REMARK   12  A    between atoms: O_17  and  C_18 
REMARK   13  A    between atoms: C_19  and  C_38 
REMARK   14  A    between atoms: C_21  and  O_26 
REMARK   15  A    between atoms: C_22  and  O_25 
REMARK   16  A    between atoms: C_23  and  O_24 
REMARK   17  A    between atoms: O_26  and  C_27 
REMARK   18  A    between atoms: C_28  and  C_36 
REMARK   19  A    between atoms: C_30  and  O_35 
REMARK   20  A    between atoms: C_31  and  O_34 
REMARK   21  A    between atoms: C_32  and  O_33 
REMARK   22  A    between atoms: C_36  and  O_37 
REMARK   23  A    between atoms: C_38  and  O_39 
REMARK   24  A    between atoms: C_40  and  O_41 
ROOT
HETATM    1  O   UNL     1     -25.069  -4.479 -13.413  1.00  0.00    -0.348 OA
ENDROOT
BRANCH   1   2
HETATM    2  C   UNL     1     -24.777  -4.560 -14.836  1.00  0.00     0.292 C 
HETATM    3  O   UNL     1     -25.869  -4.142 -15.658  1.00  0.00    -0.348 OA
HETATM    4  C   UNL     1     -26.818  -5.141 -16.071  1.00  0.00     0.180 C 
HETATM    5  C   UNL     1     -26.163  -6.399 -16.696  1.00  0.00     0.187 C 
HETATM    6  C   UNL     1     -25.189  -6.972 -15.659  1.00  0.00     0.183 C 
HETATM    7  C   UNL     1     -24.142  -5.910 -15.288  1.00  0.00     0.204 C 
BRANCH   4   8
HETATM    8  C   UNL     1     -27.794  -5.519 -14.938  1.00  0.00     0.198 C 
BRANCH   8   9
HETATM    9  O   UNL     1     -29.141  -5.415 -15.361  1.00  0.00    -0.398 OA
HETATM   10  H   UNL     1     -29.577  -4.722 -14.834  1.00  0.00     0.209 HD
ENDBRANCH   8   9
ENDBRANCH   4   8
BRANCH   5  11
HETATM   11  O   UNL     1     -25.515  -6.048 -17.941  1.00  0.00    -0.348 OA
BRANCH  11  12
HETATM   12  C   UNL     1     -25.471  -6.996 -19.032  1.00  0.00     0.292 C 
HETATM   13  C   UNL     1     -24.061  -7.479 -19.468  1.00  0.00     0.204 C 
HETATM   14  C   UNL     1     -24.208  -8.550 -20.559  1.00  0.00     0.183 C 
HETATM   15  C   UNL     1     -25.015  -7.995 -21.748  1.00  0.00     0.180 C 
HETATM   16  C   UNL     1     -26.378  -7.472 -21.256  1.00  0.00     0.179 C 
HETATM   17  O   UNL     1     -26.255  -6.541 -20.147  1.00  0.00    -0.348 OA
BRANCH  13  18
HETATM   18  O   UNL     1     -23.222  -6.445 -20.026  1.00  0.00    -0.388 OA
HETATM   19  H   UNL     1     -22.862  -6.775 -20.885  1.00  0.00     0.210 HD
ENDBRANCH  13  18
BRANCH  14  20
HETATM   20  O   UNL     1     -22.921  -9.011 -20.994  1.00  0.00    -0.390 OA
HETATM   21  H   UNL     1     -22.692  -8.523 -21.809  1.00  0.00     0.210 HD
ENDBRANCH  14  20
BRANCH  15  22
HETATM   22  O   UNL     1     -24.348  -6.905 -22.403  1.00  0.00    -0.390 OA
HETATM   23  H   UNL     1     -23.624  -6.596 -21.820  1.00  0.00     0.210 HD
ENDBRANCH  15  22
BRANCH  16  24
HETATM   24  C   UNL     1     -27.373  -8.610 -20.956  1.00  0.00     0.198 C 
BRANCH  24  25
HETATM   25  O   UNL     1     -28.360  -8.219 -20.014  1.00  0.00    -0.398 OA
HETATM   26  H   UNL     1     -28.607  -9.000 -19.484  1.00  0.00     0.209 HD
ENDBRANCH  24  25
ENDBRANCH  16  24
ENDBRANCH  11  12
ENDBRANCH   5  11
BRANCH   6  27
HETATM   27  O   UNL     1     -24.599  -8.182 -16.145  1.00  0.00    -0.390 OA
HETATM   28  H   UNL     1     -25.123  -8.466 -16.928  1.00  0.00     0.210 HD
ENDBRANCH   6  27
BRANCH   7  29
HETATM   29  O   UNL     1     -23.212  -6.413 -14.324  1.00  0.00    -0.388 OA
HETATM   30  H   UNL     1     -22.321  -6.132 -14.604  1.00  0.00     0.210 HD
ENDBRANCH   7  29
ENDBRANCH   1   2
BRANCH   1  31
HETATM   31  C   UNL     1     -24.140  -3.617 -12.666  1.00  0.00     0.187 C 
HETATM   32  C   UNL     1     -22.732  -4.206 -12.451  1.00  0.00     0.180 C 
HETATM   33  O   UNL     1     -22.719  -5.272 -11.488  1.00  0.00    -0.348 OA
HETATM   34  C   UNL     1     -23.140  -4.956 -10.153  1.00  0.00     0.292 C 
HETATM   35  C   UNL     1     -24.527  -4.241 -10.159  1.00  0.00     0.204 C 
HETATM   36  C   UNL     1     -24.736  -3.213 -11.289  1.00  0.00     0.183 C 
BRANCH  32  37
HETATM   37  C   UNL     1     -21.656  -3.125 -12.203  1.00  0.00     0.198 C 
BRANCH  37  38
HETATM   38  O   UNL     1     -20.421  -3.642 -11.724  1.00  0.00    -0.398 OA
HETATM   39  H   UNL     1     -20.483  -4.616 -11.718  1.00  0.00     0.209 HD
ENDBRANCH  37  38
ENDBRANCH  32  37
BRANCH  34  40
HETATM   40  O   UNL     1     -22.088  -4.328  -9.362  1.00  0.00    -0.348 OA
BRANCH  40  41
HETATM   41  C   UNL     1     -21.527  -5.248  -8.374  1.00  0.00     0.187 C 
HETATM   42  C   UNL     1     -22.044  -5.012  -6.936  1.00  0.00     0.180 C 
HETATM   43  O   UNL     1     -21.474  -3.826  -6.354  1.00  0.00    -0.349 OA
HETATM   44  C   UNL     1     -20.069  -3.796  -6.239  1.00  0.00     0.288 C 
HETATM   45  C   UNL     1     -19.349  -4.045  -7.579  1.00  0.00     0.204 C 
HETATM   46  C   UNL     1     -19.974  -5.205  -8.371  1.00  0.00     0.183 C 
BRANCH  42  47
HETATM   47  C   UNL     1     -21.857  -6.266  -6.055  1.00  0.00     0.198 C 
BRANCH  47  48
HETATM   48  O   UNL     1     -22.314  -6.021  -4.730  1.00  0.00    -0.398 OA
HETATM   49  H   UNL     1     -22.341  -6.901  -4.299  1.00  0.00     0.209 HD
ENDBRANCH  47  48
ENDBRANCH  42  47
BRANCH  44  50
HETATM   50  O   UNL     1     -19.619  -4.689  -5.227  1.00  0.00    -0.369 OA
HETATM   51  H   UNL     1     -19.938  -4.338  -4.374  1.00  0.00     0.212 HD
ENDBRANCH  44  50
BRANCH  45  52
HETATM   52  O   UNL     1     -17.967  -4.365  -7.292  1.00  0.00    -0.388 OA
HETATM   53  H   UNL     1     -17.697  -5.088  -7.886  1.00  0.00     0.210 HD
ENDBRANCH  45  52
BRANCH  46  54
HETATM   54  O   UNL     1     -19.462  -5.226  -9.706  1.00  0.00    -0.390 OA
HETATM   55  H   UNL     1     -20.177  -4.913 -10.301  1.00  0.00     0.210 HD
ENDBRANCH  46  54
ENDBRANCH  40  41
ENDBRANCH  34  40
BRANCH  35  56
HETATM   56  O   UNL     1     -24.818  -3.667  -8.882  1.00  0.00    -0.388 OA
HETATM   57  H   UNL     1     -25.275  -4.351  -8.360  1.00  0.00     0.210 HD
ENDBRANCH  35  56
BRANCH  36  58
HETATM   58  O   UNL     1     -26.127  -2.880 -11.449  1.00  0.00    -0.390 OA
HETATM   59  H   UNL     1     -26.384  -2.369 -10.661  1.00  0.00     0.210 HD
ENDBRANCH  36  58
ENDBRANCH   1  31
TORSDOF 24
BEGIN_RES ARG D 557
REMARK  4 active torsions:
REMARK  status: ('A' for Active; 'I' for Inactive)
REMARK    1  A    between atoms: CA   and  CB  
REMARK    2  A    between atoms: CB   and  CG  
REMARK    3  A    between atoms: CG   and  CD  
REMARK    4  A    between atoms: CD   and  NE  
REMARK       I    between atoms: NE   and  CZ  
REMARK       I    between atoms: CZ   and  NH1 
REMARK       I    between atoms: CZ   and  NH2 
ROOT
ATOM      1  CA  ARG D 557     -26.217   2.705 -17.014  1.00 35.49     0.159 C 
ENDROOT
BRANCH   1   2
ATOM      2  CB  ARG D 557     -26.789   1.319 -17.183  1.00 35.49     0.034 C 
BRANCH   2   3
ATOM      3  CG  ARG D 557     -28.197   1.230 -17.589  1.00 35.49     0.027 C 
BRANCH   3   4
ATOM      4  CD  ARG D 557     -29.011   0.446 -16.632  1.00 35.49     0.116 C 
BRANCH   4   5
ATOM      5  NE  ARG D 557     -29.371  -0.845 -17.157  1.00 35.49    -0.212 N 
ATOM      6  CZ  ARG D 557     -28.688  -1.956 -16.999  1.00 35.49     0.666 C 
ATOM      7  NH1 ARG D 557     -27.551  -2.000 -16.329  1.00 35.49    -0.235 N 
ATOM      8  NH2 ARG D 557     -29.175  -3.041 -17.527  1.00 35.49    -0.235 N 
ATOM      9  HH  ARG D 557     -27.213  -1.298 -15.971  1.00 35.49     0.174 HD
ATOM     10  HH  ARG D 557     -27.150  -2.754 -16.256  1.00 35.49     0.174 HD
ATOM     11  HH  ARG D 557     -29.914  -2.984 -17.948  1.00 35.49     0.174 HD
ATOM     12  HH  ARG D 557     -28.764  -3.778 -17.443  1.00 35.49     0.174 HD
ATOM     13  HE  ARG D 557     -30.053  -0.894 -17.664  1.00 35.49     0.178 HD
ENDBRANCH   4   5
ENDBRANCH   3   4
ENDBRANCH   2   3
ENDBRANCH   1   2
END_RES ARG D 557
BEGIN_RES GLU D 570
REMARK  3 active torsions:
REMARK  status: ('A' for Active; 'I' for Inactive)
REMARK    5  A    between atoms: CA   and  CB  
REMARK    6  A    between atoms: CB   and  CG  
REMARK    7  A    between atoms: CG   and  CD  
ROOT
ATOM     14  CA  GLU D 570     -18.033  -6.348 -13.375  1.00 32.92     0.160 C 
ENDROOT
BRANCH  14  15
ATOM     15  CB  GLU D 570     -19.500  -6.345 -13.794  1.00 32.92     0.043 C 
BRANCH  15  16
ATOM     16  CG  GLU D 570     -20.070  -7.620 -14.301  1.00 32.92     0.100 C 
BRANCH  16  17
ATOM     17  CD  GLU D 570     -20.787  -7.462 -15.621  1.00 32.92     0.185 C 
ATOM     18  OE1 GLU D 570     -21.499  -8.395 -16.039  1.00 32.92    -0.647 OA
ATOM     19  OE2 GLU D 570     -20.621  -6.400 -16.253  1.00 32.92    -0.647 OA
ENDBRANCH  16  17
ENDBRANCH  15  16
ENDBRANCH  14  15
END_RES GLU D 570
ENDMDL
MODEL 4
REMARK VINA RESULT:      -5.6      2.034      3.245
REMARK  24 active torsions:
REMARK  status: ('A' for Active; 'I' for Inactive)
REMARK    1  A    between atoms: C_1  and  C_2 
REMARK    2  A    between atoms: C_1  and  O_45 
REMARK    3  A    between atoms: C_3  and  O_44 
REMARK    4  A    between atoms: C_4  and  O_43 
REMARK    5  A    between atoms: C_5  and  O_42 
REMARK    6  A    between atoms: C_6  and  O_8 
REMARK    7  A    between atoms: O_8  and  C_9 
REMARK    8  A    between atoms: C_10  and  C_40 
REMARK    9  A    between atoms: C_12  and  O_17 
REMARK   10  A    between atoms: C_13  and  O_16 
REMARK   11  A    between atoms: C_14  and  O_15 
REMARK   12  A    between atoms: O_17  and  C_18 
REMARK   13  A    between atoms: C_19  and  C_38 
REMARK   14  A    between atoms: C_21  and  O_26 
REMARK   15  A    between atoms: C_22  and  O_25 
REMARK   16  A    between atoms: C_23  and  O_24 
REMARK   17  A    between atoms: O_26  and  C_27 
REMARK   18  A    between atoms: C_28  and  C_36 
REMARK   19  A    between atoms: C_30  and  O_35 
REMARK   20  A    between atoms: C_31  and  O_34 
REMARK   21  A    between atoms: C_32  and  O_33 
REMARK   22  A    between atoms: C_36  and  O_37 
REMARK   23  A    between atoms: C_38  and  O_39 
REMARK   24  A    between atoms: C_40  and  O_41 
ROOT
HETATM    1  O   UNL     1     -20.619  -6.779  -4.651  1.00  0.00    -0.348 OA
ENDROOT
BRANCH   1   2
HETATM    2  C   UNL     1     -21.156  -6.964  -5.990  1.00  0.00     0.292 C 
HETATM    3  O   UNL     1     -20.178  -6.784  -7.016  1.00  0.00    -0.348 OA
HETATM    4  C   UNL     1     -20.013  -5.462  -7.560  1.00  0.00     0.180 C 
HETATM    5  C   UNL     1     -21.343  -4.801  -8.002  1.00  0.00     0.187 C 
HETATM    6  C   UNL     1     -22.269  -4.774  -6.779  1.00  0.00     0.183 C 
HETATM    7  C   UNL     1     -22.489  -6.204  -6.261  1.00  0.00     0.204 C 
BRANCH   4   8
HETATM    8  C   UNL     1     -19.213  -4.542  -6.614  1.00  0.00     0.198 C 
BRANCH   8   9
HETATM    9  O   UNL     1     -17.944  -4.224  -7.155  1.00  0.00    -0.398 OA
HETATM   10  H   UNL     1     -18.075  -3.659  -7.937  1.00  0.00     0.209 HD
ENDBRANCH   8   9
ENDBRANCH   4   8
BRANCH   5  11
HETATM   11  O   UNL     1     -21.907  -5.530  -9.117  1.00  0.00    -0.348 OA
BRANCH  11  12
HETATM   12  C   UNL     1     -22.530  -4.819 -10.211  1.00  0.00     0.292 C 
HETATM   13  C   UNL     1     -21.719  -4.744 -11.533  1.00  0.00     0.204 C 
HETATM   14  C   UNL     1     -22.568  -4.048 -12.608  1.00  0.00     0.183 C 
HETATM   15  C   UNL     1     -23.004  -2.652 -12.125  1.00  0.00     0.180 C 
HETATM   16  C   UNL     1     -23.749  -2.773 -10.781  1.00  0.00     0.179 C 
HETATM   17  O   UNL     1     -22.999  -3.528  -9.791  1.00  0.00    -0.348 OA
BRANCH  13  18
HETATM   18  O   UNL     1     -20.490  -3.991 -11.439  1.00  0.00    -0.388 OA
HETATM   19  H   UNL     1     -20.574  -3.363 -10.681  1.00  0.00     0.210 HD
ENDBRANCH  13  18
BRANCH  14  20
HETATM   20  O   UNL     1     -21.843  -3.951 -13.843  1.00  0.00    -0.390 OA
HETATM   21  H   UNL     1     -21.637  -4.859 -14.137  1.00  0.00     0.210 HD
ENDBRANCH  14  20
BRANCH  15  22
HETATM   22  O   UNL     1     -21.890  -1.769 -11.920  1.00  0.00    -0.390 OA
HETATM   23  H   UNL     1     -21.219  -2.243 -11.387  1.00  0.00     0.210 HD
ENDBRANCH  15  22
BRANCH  16  24
HETATM   24  C   UNL     1     -25.187  -3.297 -10.950  1.00  0.00     0.198 C 
BRANCH  24  25
HETATM   25  O   UNL     1     -25.891  -3.323  -9.717  1.00  0.00    -0.398 OA
HETATM   26  H   UNL     1     -26.681  -3.885  -9.826  1.00  0.00     0.209 HD
ENDBRANCH  24  25
ENDBRANCH  16  24
ENDBRANCH  11  12
ENDBRANCH   5  11
BRANCH   6  27
HETATM   27  O   UNL     1     -23.495  -4.108  -7.098  1.00  0.00    -0.390 OA
HETATM   28  H   UNL     1     -23.380  -3.695  -7.983  1.00  0.00     0.210 HD
ENDBRANCH   6  27
BRANCH   7  29
HETATM   29  O   UNL     1     -23.354  -6.216  -5.123  1.00  0.00    -0.388 OA
HETATM   30  H   UNL     1     -23.817  -5.358  -5.099  1.00  0.00     0.210 HD
ENDBRANCH   7  29
ENDBRANCH   1   2
BRANCH   1  31
HETATM   31  C   UNL     1     -19.954  -7.973  -4.107  1.00  0.00     0.187 C 
HETATM   32  C   UNL     1     -20.166  -9.265  -4.921  1.00  0.00     0.180 C 
HETATM   33  O   UNL     1     -21.496  -9.790  -4.790  1.00  0.00    -0.348 OA
HETATM   34  C   UNL     1     -21.928 -10.166  -3.473  1.00  0.00     0.292 C 
HETATM   35  C   UNL     1     -21.694  -9.007  -2.456  1.00  0.00     0.204 C 
HETATM   36  C   UNL     1     -20.376  -8.227  -2.633  1.00  0.00     0.183 C 
BRANCH  32  37
HETATM   37  C   UNL     1     -19.054 -10.313  -4.689  1.00  0.00     0.198 C 
BRANCH  37  38
HETATM   38  O   UNL     1     -19.349 -11.594  -5.231  1.00  0.00    -0.398 OA
HETATM   39  H   UNL     1     -19.934 -12.060  -4.604  1.00  0.00     0.209 HD
ENDBRANCH  37  38
ENDBRANCH  32  37
BRANCH  34  40
HETATM   40  O   UNL     1     -21.448 -11.486  -3.078  1.00  0.00    -0.348 OA
BRANCH  40  41
HETATM   41  C   UNL     1     -22.528 -12.472  -3.050  1.00  0.00     0.187 C 
HETATM   42  C   UNL     1     -22.597 -13.286  -1.738  1.00  0.00     0.180 C 
HETATM   43  O   UNL     1     -21.532 -14.251  -1.654  1.00  0.00    -0.349 OA
HETATM   44  C   UNL     1     -21.481 -15.221  -2.675  1.00  0.00     0.288 C 
HETATM   45  C   UNL     1     -21.438 -14.606  -4.088  1.00  0.00     0.204 C 
HETATM   46  C   UNL     1     -22.438 -13.450  -4.253  1.00  0.00     0.183 C 
BRANCH  42  47
HETATM   47  C   UNL     1     -23.994 -13.911  -1.533  1.00  0.00     0.198 C 
BRANCH  47  48
HETATM   48  O   UNL     1     -24.024 -14.694  -0.346  1.00  0.00    -0.398 OA
HETATM   49  H   UNL     1     -23.906 -14.057   0.388  1.00  0.00     0.209 HD
ENDBRANCH  47  48
ENDBRANCH  42  47
BRANCH  44  50
HETATM   50  O   UNL     1     -22.543 -16.159  -2.543  1.00  0.00    -0.369 OA
HETATM   51  H   UNL     1     -22.305 -16.937  -3.083  1.00  0.00     0.212 HD
ENDBRANCH  44  50
BRANCH  45  52
HETATM   52  O   UNL     1     -21.766 -15.647  -5.039  1.00  0.00    -0.388 OA
HETATM   53  H   UNL     1     -22.736 -15.692  -5.113  1.00  0.00     0.210 HD
ENDBRANCH  45  52
BRANCH  46  54
HETATM   54  O   UNL     1     -22.178 -12.741  -5.467  1.00  0.00    -0.390 OA
HETATM   55  H   UNL     1     -22.204 -13.391  -6.201  1.00  0.00     0.210 HD
ENDBRANCH  46  54
ENDBRANCH  40  41
ENDBRANCH  34  40
BRANCH  35  56
HETATM   56  O   UNL     1     -21.844  -9.464  -1.109  1.00  0.00    -0.388 OA
HETATM   57  H   UNL     1     -21.019  -9.925  -0.872  1.00  0.00     0.210 HD
ENDBRANCH  35  56
BRANCH  36  58
HETATM   58  O   UNL     1     -20.403  -6.976  -1.922  1.00  0.00    -0.390 OA
HETATM   59  H   UNL     1     -19.501  -6.611  -1.965  1.00  0.00     0.210 HD
ENDBRANCH  36  58
ENDBRANCH   1  31
TORSDOF 24
BEGIN_RES ARG D 557
REMARK  4 active torsions:
REMARK  status: ('A' for Active; 'I' for Inactive)
REMARK    1  A    between atoms: CA   and  CB  
REMARK    2  A    between atoms: CB   and  CG  
REMARK    3  A    between atoms: CG   and  CD  
REMARK    4  A    between atoms: CD   and  NE  
REMARK       I    between atoms: NE   and  CZ  
REMARK       I    between atoms: CZ   and  NH1 
REMARK       I    between atoms: CZ   and  NH2 
ROOT
ATOM      1  CA  ARG D 557     -26.217   2.705 -17.014  1.00 35.49     0.159 C 
ENDROOT
BRANCH   1   2
ATOM      2  CB  ARG D 557     -26.789   1.319 -17.183  1.00 35.49     0.034 C 
BRANCH   2   3
ATOM      3  CG  ARG D 557     -25.884   0.194 -16.917  1.00 35.49     0.027 C 
BRANCH   3   4
ATOM      4  CD  ARG D 557     -26.316  -0.615 -15.754  1.00 35.49     0.116 C 
BRANCH   4   5
ATOM      5  NE  ARG D 557     -26.996  -1.818 -16.153  1.00 35.49    -0.212 N 
ATOM      6  CZ  ARG D 557     -26.825  -3.009 -15.624  1.00 35.49     0.666 C 
ATOM      7  NH1 ARG D 557     -25.969  -3.233 -14.644  1.00 35.49    -0.235 N 
ATOM      8  NH2 ARG D 557     -27.544  -3.985 -16.097  1.00 35.49    -0.235 N 
ATOM      9  HH  ARG D 557     -25.487  -2.605 -14.316  1.00 35.49     0.174 HD
ATOM     10  HH  ARG D 557     -25.902  -4.030 -14.336  1.00 35.49     0.174 HD
ATOM     11  HH  ARG D 557     -28.094  -3.810 -16.724  1.00 35.49     0.174 HD
ATOM     12  HH  ARG D 557     -27.464  -4.767 -15.778  1.00 35.49     0.174 HD
ATOM     13  HE  ARG D 557     -27.514  -1.780 -16.827  1.00 35.49     0.178 HD
ENDBRANCH   4   5
ENDBRANCH   3   4
ENDBRANCH   2   3
ENDBRANCH   1   2
END_RES ARG D 557
BEGIN_RES GLU D 570
REMARK  3 active torsions:
REMARK  status: ('A' for Active; 'I' for Inactive)
REMARK    5  A    between atoms: CA   and  CB  
REMARK    6  A    between atoms: CB   and  CG  
REMARK    7  A    between atoms: CG   and  CD  
ROOT
ATOM     14  CA  GLU D 570     -18.033  -6.348 -13.375  1.00 32.92     0.160 C 
ENDROOT
BRANCH  14  15
ATOM     15  CB  GLU D 570     -19.500  -6.345 -13.794  1.00 32.92     0.043 C 
BRANCH  15  16
ATOM     16  CG  GLU D 570     -19.800  -6.532 -15.237  1.00 32.92     0.100 C 
BRANCH  16  17
ATOM     17  CD  GLU D 570     -21.123  -7.222 -15.479  1.00 32.92     0.185 C 
ATOM     18  OE1 GLU D 570     -22.165  -6.707 -15.031  1.00 32.92    -0.647 OA
ATOM     19  OE2 GLU D 570     -21.114  -8.298 -16.110  1.00 32.92    -0.647 OA
ENDBRANCH  16  17
ENDBRANCH  15  16
ENDBRANCH  14  15
END_RES GLU D 570
ENDMDL
MODEL 5
REMARK VINA RESULT:      -5.6      4.099      9.058
REMARK  24 active torsions:
REMARK  status: ('A' for Active; 'I' for Inactive)
REMARK    1  A    between atoms: C_1  and  C_2 
REMARK    2  A    between atoms: C_1  and  O_45 
REMARK    3  A    between atoms: C_3  and  O_44 
REMARK    4  A    between atoms: C_4  and  O_43 
REMARK    5  A    between atoms: C_5  and  O_42 
REMARK    6  A    between atoms: C_6  and  O_8 
REMARK    7  A    between atoms: O_8  and  C_9 
REMARK    8  A    between atoms: C_10  and  C_40 
REMARK    9  A    between atoms: C_12  and  O_17 
REMARK   10  A    between atoms: C_13  and  O_16 
REMARK   11  A    between atoms: C_14  and  O_15 
REMARK   12  A    between atoms: O_17  and  C_18 
REMARK   13  A    between atoms: C_19  and  C_38 
REMARK   14  A    between atoms: C_21  and  O_26 
REMARK   15  A    between atoms: C_22  and  O_25 
REMARK   16  A    between atoms: C_23  and  O_24 
REMARK   17  A    between atoms: O_26  and  C_27 
REMARK   18  A    between atoms: C_28  and  C_36 
REMARK   19  A    between atoms: C_30  and  O_35 
REMARK   20  A    between atoms: C_31  and  O_34 
REMARK   21  A    between atoms: C_32  and  O_33 
REMARK   22  A    between atoms: C_36  and  O_37 
REMARK   23  A    between atoms: C_38  and  O_39 
REMARK   24  A    between atoms: C_40  and  O_41 
ROOT
HETATM    1  O   UNL     1     -19.763 -11.844   0.373  1.00  0.00    -0.348 OA
ENDROOT
BRANCH   1   2
HETATM    2  C   UNL     1     -20.274 -11.346  -0.896  1.00  0.00     0.292 C 
HETATM    3  O   UNL     1     -20.099  -9.937  -1.056  1.00  0.00    -0.348 OA
HETATM    4  C   UNL     1     -21.158  -9.074  -0.602  1.00  0.00     0.180 C 
HETATM    5  C   UNL     1     -22.558  -9.478  -1.130  1.00  0.00     0.187 C 
HETATM    6  C   UNL     1     -22.812 -10.926  -0.693  1.00  0.00     0.183 C 
HETATM    7  C   UNL     1     -21.709 -11.839  -1.251  1.00  0.00     0.204 C 
BRANCH   4   8
HETATM    8  C   UNL     1     -21.159  -8.916   0.933  1.00  0.00     0.198 C 
BRANCH   8   9
HETATM    9  O   UNL     1     -22.025  -7.874   1.343  1.00  0.00    -0.398 OA
HETATM   10  H   UNL     1     -22.587  -8.207   2.065  1.00  0.00     0.209 HD
ENDBRANCH   8   9
ENDBRANCH   4   8
BRANCH   5  11
HETATM   11  O   UNL     1     -22.609  -9.307  -2.566  1.00  0.00    -0.348 OA
BRANCH  11  12
HETATM   12  C   UNL     1     -21.523  -8.649  -3.259  1.00  0.00     0.292 C 
HETATM   13  C   UNL     1     -21.762  -7.170  -3.665  1.00  0.00     0.204 C 
HETATM   14  C   UNL     1     -20.479  -6.605  -4.293  1.00  0.00     0.183 C 
HETATM   15  C   UNL     1     -20.049  -7.465  -5.497  1.00  0.00     0.180 C 
HETATM   16  C   UNL     1     -19.886  -8.933  -5.058  1.00  0.00     0.179 C 
HETATM   17  O   UNL     1     -21.055  -9.443  -4.362  1.00  0.00    -0.348 OA
BRANCH  13  18
HETATM   18  O   UNL     1     -22.809  -6.979  -4.641  1.00  0.00    -0.388 OA
HETATM   19  H   UNL     1     -23.093  -6.034  -4.601  1.00  0.00     0.210 HD
ENDBRANCH  13  18
BRANCH  14  20
HETATM   20  O   UNL     1     -20.668  -5.239  -4.691  1.00  0.00    -0.390 OA
HETATM   21  H   UNL     1     -21.298  -4.833  -4.065  1.00  0.00     0.210 HD
ENDBRANCH  14  20
BRANCH  15  22
HETATM   22  O   UNL     1     -21.012  -7.439  -6.562  1.00  0.00    -0.390 OA
HETATM   23  H   UNL     1     -21.223  -8.365  -6.803  1.00  0.00     0.210 HD
ENDBRANCH  15  22
BRANCH  16  24
HETATM   24  C   UNL     1     -18.585  -9.172  -4.268  1.00  0.00     0.198 C 
BRANCH  24  25
HETATM   25  O   UNL     1     -17.972 -10.405  -4.614  1.00  0.00    -0.398 OA
HETATM   26  H   UNL     1     -18.217 -11.068  -3.941  1.00  0.00     0.209 HD
ENDBRANCH  24  25
ENDBRANCH  16  24
ENDBRANCH  11  12
ENDBRANCH   5  11
BRANCH   6  27
HETATM   27  O   UNL     1     -24.124 -11.342  -1.088  1.00  0.00    -0.390 OA
HETATM   28  H   UNL     1     -24.374 -10.806  -1.873  1.00  0.00     0.210 HD
ENDBRANCH   6  27
BRANCH   7  29
HETATM   29  O   UNL     1     -21.918 -13.200  -0.867  1.00  0.00    -0.388 OA
HETATM   30  H   UNL     1     -22.877 -13.323  -0.740  1.00  0.00     0.210 HD
ENDBRANCH   7  29
ENDBRANCH   1   2
BRANCH   1  31
HETATM   31  C   UNL     1     -18.433 -12.464   0.274  1.00  0.00     0.187 C 
HETATM   32  C   UNL     1     -17.455 -11.763  -0.688  1.00  0.00     0.180 C 
HETATM   33  O   UNL     1     -17.793 -11.970  -2.069  1.00  0.00    -0.348 OA
HETATM   34  C   UNL     1     -17.799 -13.323  -2.548  1.00  0.00     0.292 C 
HETATM   35  C   UNL     1     -18.666 -14.238  -1.628  1.00  0.00     0.204 C 
HETATM   36  C   UNL     1     -18.542 -13.964  -0.116  1.00  0.00     0.183 C 
BRANCH  32  37
HETATM   37  C   UNL     1     -15.973 -12.048  -0.357  1.00  0.00     0.198 C 
BRANCH  37  38
HETATM   38  O   UNL     1     -15.590 -11.652   0.953  1.00  0.00    -0.398 OA
HETATM   39  H   UNL     1     -14.654 -11.899   1.083  1.00  0.00     0.209 HD
ENDBRANCH  37  38
ENDBRANCH  32  37
BRANCH  34  40
HETATM   40  O   UNL     1     -16.464 -13.811  -2.879  1.00  0.00    -0.348 OA
BRANCH  40  41
HETATM   41  C   UNL     1     -16.206 -13.755  -4.317  1.00  0.00     0.187 C 
HETATM   42  C   UNL     1     -15.720 -15.095  -4.917  1.00  0.00     0.180 C 
HETATM   43  O   UNL     1     -14.360 -15.381  -4.546  1.00  0.00    -0.349 OA
HETATM   44  C   UNL     1     -13.389 -14.439  -4.942  1.00  0.00     0.288 C 
HETATM   45  C   UNL     1     -13.707 -13.008  -4.463  1.00  0.00     0.204 C 
HETATM   46  C   UNL     1     -15.185 -12.638  -4.670  1.00  0.00     0.183 C 
BRANCH  42  47
HETATM   47  C   UNL     1     -15.954 -15.148  -6.442  1.00  0.00     0.198 C 
BRANCH  47  48
HETATM   48  O   UNL     1     -15.451 -16.363  -6.984  1.00  0.00    -0.398 OA
HETATM   49  H   UNL     1     -15.344 -16.194  -7.943  1.00  0.00     0.209 HD
ENDBRANCH  47  48
ENDBRANCH  42  47
BRANCH  44  50
HETATM   50  O   UNL     1     -13.173 -14.485  -6.348  1.00  0.00    -0.369 OA
HETATM   51  H   UNL     1     -12.868 -13.599  -6.619  1.00  0.00     0.212 HD
ENDBRANCH  44  50
BRANCH  45  52
HETATM   52  O   UNL     1     -12.884 -12.090  -5.220  1.00  0.00    -0.388 OA
HETATM   53  H   UNL     1     -13.158 -12.141  -6.154  1.00  0.00     0.210 HD
ENDBRANCH  45  52
BRANCH  46  54
HETATM   54  O   UNL     1     -15.494 -11.428  -3.973  1.00  0.00    -0.390 OA
HETATM   55  H   UNL     1     -15.384 -10.686  -4.606  1.00  0.00     0.210 HD
ENDBRANCH  46  54
ENDBRANCH  40  41
ENDBRANCH  34  40
BRANCH  35  56
HETATM   56  O   UNL     1     -18.446 -15.620  -1.920  1.00  0.00    -0.388 OA
HETATM   57  H   UNL     1     -18.572 -16.111  -1.088  1.00  0.00     0.210 HD
ENDBRANCH  35  56
BRANCH  36  58
HETATM   58  O   UNL     1     -19.618 -14.573   0.621  1.00  0.00    -0.390 OA
HETATM   59  H   UNL     1     -19.206 -15.124   1.310  1.00  0.00     0.210 HD
ENDBRANCH  36  58
ENDBRANCH   1  31
TORSDOF 24
BEGIN_RES ARG D 557
REMARK  4 active torsions:
REMARK  status: ('A' for Active; 'I' for Inactive)
REMARK    1  A    between atoms: CA   and  CB  
REMARK    2  A    between atoms: CB   and  CG  
REMARK    3  A    between atoms: CG   and  CD  
REMARK    4  A    between atoms: CD   and  NE  
REMARK       I    between atoms: NE   and  CZ  
REMARK       I    between atoms: CZ   and  NH1 
REMARK       I    between atoms: CZ   and  NH2 
ROOT
ATOM      1  CA  ARG D 557     -26.217   2.705 -17.014  1.00 35.49     0.159 C 
ENDROOT
BRANCH   1   2
ATOM      2  CB  ARG D 557     -26.789   1.319 -17.183  1.00 35.49     0.034 C 
BRANCH   2   3
ATOM      3  CG  ARG D 557     -25.837   0.202 -17.144  1.00 35.49     0.027 C 
BRANCH   3   4
ATOM      4  CD  ARG D 557     -24.756   0.416 -16.155  1.00 35.49     0.116 C 
BRANCH   4   5
ATOM      5  NE  ARG D 557     -24.896  -0.440 -15.006  1.00 35.49    -0.212 N 
ATOM      6  CZ  ARG D 557     -24.075  -1.407 -14.664  1.00 35.49     0.666 C 
ATOM      7  NH1 ARG D 557     -23.005  -1.713 -15.374  1.00 35.49    -0.235 N 
ATOM      8  NH2 ARG D 557     -24.346  -2.068 -13.577  1.00 35.49    -0.235 N 
ATOM      9  HH  ARG D 557     -22.806  -1.289 -16.092  1.00 35.49     0.174 HD
ATOM     10  HH  ARG D 557     -22.504  -2.352 -15.101  1.00 35.49     0.174 HD
ATOM     11  HH  ARG D 557     -25.040  -1.844 -13.134  1.00 35.49     0.174 HD
ATOM     12  HH  ARG D 557     -23.837  -2.697 -13.322  1.00 35.49     0.174 HD
ATOM     13  HE  ARG D 557     -25.598  -0.360 -14.532  1.00 35.49     0.178 HD
ENDBRANCH   4   5
ENDBRANCH   3   4
ENDBRANCH   2   3
ENDBRANCH   1   2
END_RES ARG D 557
BEGIN_RES GLU D 570
REMARK  3 active torsions:
REMARK  status: ('A' for Active; 'I' for Inactive)
REMARK    5  A    between atoms: CA   and  CB  
REMARK    6  A    between atoms: CB   and  CG  
REMARK    7  A    between atoms: CG   and  CD  
ROOT
ATOM     14  CA  GLU D 570     -18.033  -6.348 -13.375  1.00 32.92     0.160 C 
ENDROOT
BRANCH  14  15
ATOM     15  CB  GLU D 570     -19.500  -6.345 -13.794  1.00 32.92     0.043 C 
BRANCH  15  16
ATOM     16  CG  GLU D 570     -20.444  -5.540 -12.976  1.00 32.92     0.100 C 
BRANCH  16  17
ATOM     17  CD  GLU D 570     -21.724  -5.210 -13.708  1.00 32.92     0.185 C 
ATOM     18  OE1 GLU D 570     -22.173  -6.023 -14.539  1.00 32.92    -0.647 OA
ATOM     19  OE2 GLU D 570     -22.275  -4.119 -13.460  1.00 32.92    -0.647 OA
ENDBRANCH  16  17
ENDBRANCH  15  16
ENDBRANCH  14  15
END_RES GLU D 570
ENDMDL
MODEL 6
REMARK VINA RESULT:      -5.5      3.853      9.529
REMARK  24 active torsions:
REMARK  status: ('A' for Active; 'I' for Inactive)
REMARK    1  A    between atoms: C_1  and  C_2 
REMARK    2  A    between atoms: C_1  and  O_45 
REMARK    3  A    between atoms: C_3  and  O_44 
REMARK    4  A    between atoms: C_4  and  O_43 
REMARK    5  A    between atoms: C_5  and  O_42 
REMARK    6  A    between atoms: C_6  and  O_8 
REMARK    7  A    between atoms: O_8  and  C_9 
REMARK    8  A    between atoms: C_10  and  C_40 
REMARK    9  A    between atoms: C_12  and  O_17 
REMARK   10  A    between atoms: C_13  and  O_16 
REMARK   11  A    between atoms: C_14  and  O_15 
REMARK   12  A    between atoms: O_17  and  C_18 
REMARK   13  A    between atoms: C_19  and  C_38 
REMARK   14  A    between atoms: C_21  and  O_26 
REMARK   15  A    between atoms: C_22  and  O_25 
REMARK   16  A    between atoms: C_23  and  O_24 
REMARK   17  A    between atoms: O_26  and  C_27 
REMARK   18  A    between atoms: C_28  and  C_36 
REMARK   19  A    between atoms: C_30  and  O_35 
REMARK   20  A    between atoms: C_31  and  O_34 
REMARK   21  A    between atoms: C_32  and  O_33 
REMARK   22  A    between atoms: C_36  and  O_37 
REMARK   23  A    between atoms: C_38  and  O_39 
REMARK   24  A    between atoms: C_40  and  O_41 
ROOT
HETATM    1  O   UNL     1     -19.828 -13.399   0.456  1.00  0.00    -0.348 OA
ENDROOT
BRANCH   1   2
HETATM    2  C   UNL     1     -20.352 -13.033  -0.851  1.00  0.00     0.292 C 
HETATM    3  O   UNL     1     -20.149 -11.655  -1.169  1.00  0.00    -0.348 OA
HETATM    4  C   UNL     1     -21.180 -10.723  -0.796  1.00  0.00     0.180 C 
HETATM    5  C   UNL     1     -22.599 -11.149  -1.253  1.00  0.00     0.187 C 
HETATM    6  C   UNL     1     -22.876 -12.533  -0.654  1.00  0.00     0.183 C 
HETATM    7  C   UNL     1     -21.804 -13.528  -1.125  1.00  0.00     0.204 C 
BRANCH   4   8
HETATM    8  C   UNL     1     -21.148 -10.395   0.711  1.00  0.00     0.198 C 
BRANCH   8   9
HETATM    9  O   UNL     1     -21.266  -9.003   0.940  1.00  0.00    -0.398 OA
HETATM   10  H   UNL     1     -20.882  -8.533   0.179  1.00  0.00     0.209 HD
ENDBRANCH   8   9
ENDBRANCH   4   8
BRANCH   5  11
HETATM   11  O   UNL     1     -22.673 -11.136  -2.697  1.00  0.00    -0.348 OA
BRANCH  11  12
HETATM   12  C   UNL     1     -21.942 -10.145  -3.455  1.00  0.00     0.292 C 
HETATM   13  C   UNL     1     -20.878 -10.685  -4.448  1.00  0.00     0.204 C 
HETATM   14  C   UNL     1     -20.278  -9.510  -5.235  1.00  0.00     0.183 C 
HETATM   15  C   UNL     1     -19.681  -8.469  -4.268  1.00  0.00     0.180 C 
HETATM   16  C   UNL     1     -20.757  -8.011  -3.265  1.00  0.00     0.179 C 
HETATM   17  O   UNL     1     -21.410  -9.123  -2.596  1.00  0.00    -0.348 OA
BRANCH  13  18
HETATM   18  O   UNL     1     -19.767 -11.364  -3.823  1.00  0.00    -0.388 OA
HETATM   19  H   UNL     1     -20.127 -12.123  -3.304  1.00  0.00     0.210 HD
ENDBRANCH  13  18
BRANCH  14  20
HETATM   20  O   UNL     1     -19.280  -9.973  -6.156  1.00  0.00    -0.390 OA
HETATM   21  H   UNL     1     -18.666  -9.232  -6.324  1.00  0.00     0.210 HD
ENDBRANCH  14  20
BRANCH  15  22
HETATM   22  O   UNL     1     -18.581  -8.992  -3.508  1.00  0.00    -0.390 OA
HETATM   23  H   UNL     1     -18.933  -9.649  -2.874  1.00  0.00     0.210 HD
ENDBRANCH  15  22
BRANCH  16  24
HETATM   24  C   UNL     1     -21.767  -7.030  -3.890  1.00  0.00     0.198 C 
BRANCH  24  25
HETATM   25  O   UNL     1     -22.290  -6.122  -2.931  1.00  0.00    -0.398 OA
HETATM   26  H   UNL     1     -22.638  -5.343  -3.404  1.00  0.00     0.209 HD
ENDBRANCH  24  25
ENDBRANCH  16  24
ENDBRANCH  11  12
ENDBRANCH   5  11
BRANCH   6  27
HETATM   27  O   UNL     1     -24.204 -12.959  -0.978  1.00  0.00    -0.390 OA
HETATM   28  H   UNL     1     -24.268 -13.911  -0.741  1.00  0.00     0.210 HD
ENDBRANCH   6  27
BRANCH   7  29
HETATM   29  O   UNL     1     -22.035 -14.833  -0.589  1.00  0.00    -0.388 OA
HETATM   30  H   UNL     1     -21.776 -14.812   0.351  1.00  0.00     0.210 HD
ENDBRANCH   7  29
ENDBRANCH   1   2
BRANCH   1  31
HETATM   31  C   UNL     1     -18.400 -13.755   0.445  1.00  0.00     0.187 C 
HETATM   32  C   UNL     1     -17.429 -12.558   0.435  1.00  0.00     0.180 C 
HETATM   33  O   UNL     1     -17.401 -11.879  -0.831  1.00  0.00    -0.348 OA
HETATM   34  C   UNL     1     -16.984 -12.639  -1.975  1.00  0.00     0.292 C 
HETATM   35  C   UNL     1     -17.791 -13.971  -2.086  1.00  0.00     0.204 C 
HETATM   36  C   UNL     1     -18.066 -14.690  -0.751  1.00  0.00     0.183 C 
BRANCH  32  37
HETATM   37  C   UNL     1     -16.030 -12.911   0.987  1.00  0.00     0.198 C 
BRANCH  37  38
HETATM   38  O   UNL     1     -15.090 -11.850   0.893  1.00  0.00    -0.398 OA
HETATM   39  H   UNL     1     -15.527 -11.030   1.193  1.00  0.00     0.209 HD
ENDBRANCH  37  38
ENDBRANCH  32  37
BRANCH  34  40
HETATM   40  O   UNL     1     -15.533 -12.747  -2.084  1.00  0.00    -0.348 OA
BRANCH  40  41
HETATM   41  C   UNL     1     -15.004 -11.906  -3.157  1.00  0.00     0.187 C 
HETATM   42  C   UNL     1     -16.080 -11.411  -4.151  1.00  0.00     0.180 C 
HETATM   43  O   UNL     1     -16.530 -12.468  -5.017  1.00  0.00    -0.349 OA
HETATM   44  C   UNL     1     -15.550 -13.079  -5.826  1.00  0.00     0.288 C 
HETATM   45  C   UNL     1     -14.354 -13.621  -5.017  1.00  0.00     0.204 C 
HETATM   46  C   UNL     1     -13.877 -12.629  -3.944  1.00  0.00     0.183 C 
BRANCH  42  47
HETATM   47  C   UNL     1     -15.605 -10.160  -4.922  1.00  0.00     0.198 C 
BRANCH  47  48
HETATM   48  O   UNL     1     -16.604  -9.725  -5.835  1.00  0.00    -0.398 OA
HETATM   49  H   UNL     1     -16.300 -10.028  -6.716  1.00  0.00     0.209 HD
ENDBRANCH  47  48
ENDBRANCH  42  47
BRANCH  44  50
HETATM   50  O   UNL     1     -15.127 -12.204  -6.865  1.00  0.00    -0.369 OA
HETATM   51  H   UNL     1     -15.934 -11.848  -7.284  1.00  0.00     0.212 HD
ENDBRANCH  44  50
BRANCH  45  52
HETATM   52  O   UNL     1     -13.268 -13.872  -5.940  1.00  0.00    -0.388 OA
HETATM   53  H   UNL     1     -12.519 -13.305  -5.682  1.00  0.00     0.210 HD
ENDBRANCH  45  52
BRANCH  46  54
HETATM   54  O   UNL     1     -12.962 -13.269  -3.051  1.00  0.00    -0.390 OA
HETATM   55  H   UNL     1     -12.688 -12.605  -2.382  1.00  0.00     0.210 HD
ENDBRANCH  46  54
ENDBRANCH  40  41
ENDBRANCH  34  40
BRANCH  35  56
HETATM   56  O   UNL     1     -17.193 -14.858  -3.035  1.00  0.00    -0.388 OA
HETATM   57  H   UNL     1     -17.871 -15.516  -3.275  1.00  0.00     0.210 HD
ENDBRANCH  35  56
BRANCH  36  58
HETATM   58  O   UNL     1     -19.102 -15.680  -0.888  1.00  0.00    -0.390 OA
HETATM   59  H   UNL     1     -18.680 -16.476  -1.256  1.00  0.00     0.210 HD
ENDBRANCH  36  58
ENDBRANCH   1  31
TORSDOF 24
BEGIN_RES ARG D 557
REMARK  4 active torsions:
REMARK  status: ('A' for Active; 'I' for Inactive)
REMARK    1  A    between atoms: CA   and  CB  
REMARK    2  A    between atoms: CB   and  CG  
REMARK    3  A    between atoms: CG   and  CD  
REMARK    4  A    between atoms: CD   and  NE  
REMARK       I    between atoms: NE   and  CZ  
REMARK       I    between atoms: CZ   and  NH1 
REMARK       I    between atoms: CZ   and  NH2 
ROOT
ATOM      1  CA  ARG D 557     -26.217   2.705 -17.014  1.00 35.49     0.159 C 
ENDROOT
BRANCH   1   2
ATOM      2  CB  ARG D 557     -26.789   1.319 -17.183  1.00 35.49     0.034 C 
BRANCH   2   3
ATOM      3  CG  ARG D 557     -25.837   0.202 -17.146  1.00 35.49     0.027 C 
BRANCH   3   4
ATOM      4  CD  ARG D 557     -24.759   0.412 -16.153  1.00 35.49     0.116 C 
BRANCH   4   5
ATOM      5  NE  ARG D 557     -24.905  -0.443 -15.005  1.00 35.49    -0.212 N 
ATOM      6  CZ  ARG D 557     -24.089  -1.415 -14.662  1.00 35.49     0.666 C 
ATOM      7  NH1 ARG D 557     -23.019  -1.725 -15.371  1.00 35.49    -0.235 N 
ATOM      8  NH2 ARG D 557     -24.365  -2.076 -13.576  1.00 35.49    -0.235 N 
ATOM      9  HH  ARG D 557     -22.817  -1.303 -16.088  1.00 35.49     0.174 HD
ATOM     10  HH  ARG D 557     -22.522  -2.367 -15.097  1.00 35.49     0.174 HD
ATOM     11  HH  ARG D 557     -25.058  -1.848 -13.134  1.00 35.49     0.174 HD
ATOM     12  HH  ARG D 557     -23.860  -2.707 -13.320  1.00 35.49     0.174 HD
ATOM     13  HE  ARG D 557     -25.607  -0.360 -14.532  1.00 35.49     0.178 HD
ENDBRANCH   4   5
ENDBRANCH   3   4
ENDBRANCH   2   3
ENDBRANCH   1   2
END_RES ARG D 557
BEGIN_RES GLU D 570
REMARK  3 active torsions:
REMARK  status: ('A' for Active; 'I' for Inactive)
REMARK    5  A    between atoms: CA   and  CB  
REMARK    6  A    between atoms: CB   and  CG  
REMARK    7  A    between atoms: CG   and  CD  
ROOT
ATOM     14  CA  GLU D 570     -18.033  -6.348 -13.375  1.00 32.92     0.160 C 
ENDROOT
BRANCH  14  15
ATOM     15  CB  GLU D 570     -19.500  -6.345 -13.794  1.00 32.92     0.043 C 
BRANCH  15  16
ATOM     16  CG  GLU D 570     -20.443  -5.537 -12.979  1.00 32.92     0.100 C 
BRANCH  16  17
ATOM     17  CD  GLU D 570     -21.717  -5.196 -13.716  1.00 32.92     0.185 C 
ATOM     18  OE1 GLU D 570     -22.141  -5.981 -14.586  1.00 32.92    -0.647 OA
ATOM     19  OE2 GLU D 570     -22.288  -4.125 -13.432  1.00 32.92    -0.647 OA
ENDBRANCH  16  17
ENDBRANCH  15  16
ENDBRANCH  14  15
END_RES GLU D 570
ENDMDL
MODEL 7
REMARK VINA RESULT:      -5.4      5.483     10.371
REMARK  24 active torsions:
REMARK  status: ('A' for Active; 'I' for Inactive)
REMARK    1  A    between atoms: C_1  and  C_2 
REMARK    2  A    between atoms: C_1  and  O_45 
REMARK    3  A    between atoms: C_3  and  O_44 
REMARK    4  A    between atoms: C_4  and  O_43 
REMARK    5  A    between atoms: C_5  and  O_42 
REMARK    6  A    between atoms: C_6  and  O_8 
REMARK    7  A    between atoms: O_8  and  C_9 
REMARK    8  A    between atoms: C_10  and  C_40 
REMARK    9  A    between atoms: C_12  and  O_17 
REMARK   10  A    between atoms: C_13  and  O_16 
REMARK   11  A    between atoms: C_14  and  O_15 
REMARK   12  A    between atoms: O_17  and  C_18 
REMARK   13  A    between atoms: C_19  and  C_38 
REMARK   14  A    between atoms: C_21  and  O_26 
REMARK   15  A    between atoms: C_22  and  O_25 
REMARK   16  A    between atoms: C_23  and  O_24 
REMARK   17  A    between atoms: O_26  and  C_27 
REMARK   18  A    between atoms: C_28  and  C_36 
REMARK   19  A    between atoms: C_30  and  O_35 
REMARK   20  A    between atoms: C_31  and  O_34 
REMARK   21  A    between atoms: C_32  and  O_33 
REMARK   22  A    between atoms: C_36  and  O_37 
REMARK   23  A    between atoms: C_38  and  O_39 
REMARK   24  A    between atoms: C_40  and  O_41 
ROOT
HETATM    1  O   UNL     1     -17.214 -12.518  -4.630  1.00  0.00    -0.348 OA
ENDROOT
BRANCH   1   2
HETATM    2  C   UNL     1     -17.775 -11.469  -3.794  1.00  0.00     0.292 C 
HETATM    3  O   UNL     1     -19.023 -11.833  -3.200  1.00  0.00    -0.348 OA
HETATM    4  C   UNL     1     -20.227 -11.524  -3.926  1.00  0.00     0.180 C 
HETATM    5  C   UNL     1     -20.302 -10.052  -4.407  1.00  0.00     0.187 C 
HETATM    6  C   UNL     1     -19.063  -9.790  -5.272  1.00  0.00     0.183 C 
HETATM    7  C   UNL     1     -17.790 -10.057  -4.453  1.00  0.00     0.204 C 
BRANCH   4   8
HETATM    8  C   UNL     1     -20.473 -12.509  -5.087  1.00  0.00     0.198 C 
BRANCH   8   9
HETATM    9  O   UNL     1     -20.161 -13.838  -4.712  1.00  0.00    -0.398 OA
HETATM   10  H   UNL     1     -19.194 -13.917  -4.635  1.00  0.00     0.209 HD
ENDBRANCH   8   9
ENDBRANCH   4   8
BRANCH   5  11
HETATM   11  O   UNL     1     -20.388  -9.167  -3.266  1.00  0.00    -0.348 OA
BRANCH  11  12
HETATM   12  C   UNL     1     -21.002  -9.621  -2.038  1.00  0.00     0.292 C 
HETATM   13  C   UNL     1     -22.096  -8.699  -1.435  1.00  0.00     0.204 C 
HETATM   14  C   UNL     1     -22.705  -9.379  -0.200  1.00  0.00     0.183 C 
HETATM   15  C   UNL     1     -21.605  -9.708   0.828  1.00  0.00     0.180 C 
HETATM   16  C   UNL     1     -20.513 -10.570   0.165  1.00  0.00     0.179 C 
HETATM   17  O   UNL     1     -20.008  -9.987  -1.066  1.00  0.00    -0.348 OA
BRANCH  13  18
HETATM   18  O   UNL     1     -21.615  -7.411  -0.992  1.00  0.00    -0.388 OA
HETATM   19  H   UNL     1     -21.401  -7.480  -0.030  1.00  0.00     0.210 HD
ENDBRANCH  13  18
BRANCH  14  20
HETATM   20  O   UNL     1     -23.715  -8.548   0.391  1.00  0.00    -0.390 OA
HETATM   21  H   UNL     1     -24.556  -8.729  -0.072  1.00  0.00     0.210 HD
ENDBRANCH  14  20
BRANCH  15  22
HETATM   22  O   UNL     1     -20.967  -8.530   1.345  1.00  0.00    -0.390 OA
HETATM   23  H   UNL     1     -20.482  -8.099   0.611  1.00  0.00     0.210 HD
ENDBRANCH  15  22
BRANCH  16  24
HETATM   24  C   UNL     1     -20.950 -12.036  -0.017  1.00  0.00     0.198 C 
BRANCH  24  25
HETATM   25  O   UNL     1     -19.902 -12.842  -0.536  1.00  0.00    -0.398 OA
HETATM   26  H   UNL     1     -19.306 -13.081   0.198  1.00  0.00     0.209 HD
ENDBRANCH  24  25
ENDBRANCH  16  24
ENDBRANCH  11  12
ENDBRANCH   5  11
BRANCH   6  27
HETATM   27  O   UNL     1     -19.104  -8.465  -5.812  1.00  0.00    -0.390 OA
HETATM   28  H   UNL     1     -18.831  -8.527  -6.755  1.00  0.00     0.210 HD
ENDBRANCH   6  27
BRANCH   7  29
HETATM   29  O   UNL     1     -16.614  -9.816  -5.230  1.00  0.00    -0.388 OA
HETATM   30  H   UNL     1     -16.760  -8.993  -5.732  1.00  0.00     0.210 HD
ENDBRANCH   7  29
ENDBRANCH   1   2
BRANCH   1  31
HETATM   31  C   UNL     1     -16.916 -13.761  -3.902  1.00  0.00     0.187 C 
HETATM   32  C   UNL     1     -16.863 -13.623  -2.368  1.00  0.00     0.180 C 
HETATM   33  O   UNL     1     -15.690 -12.928  -1.915  1.00  0.00    -0.348 OA
HETATM   34  C   UNL     1     -14.418 -13.514  -2.228  1.00  0.00     0.292 C 
HETATM   35  C   UNL     1     -14.310 -13.835  -3.752  1.00  0.00     0.204 C 
HETATM   36  C   UNL     1     -15.590 -14.398  -4.400  1.00  0.00     0.183 C 
BRANCH  32  37
HETATM   37  C   UNL     1     -17.123 -14.957  -1.632  1.00  0.00     0.198 C 
BRANCH  37  38
HETATM   38  O   UNL     1     -17.578 -14.796  -0.295  1.00  0.00    -0.398 OA
HETATM   39  H   UNL     1     -18.552 -14.874  -0.295  1.00  0.00     0.209 HD
ENDBRANCH  37  38
ENDBRANCH  32  37
BRANCH  34  40
HETATM   40  O   UNL     1     -14.047 -14.584  -1.309  1.00  0.00    -0.348 OA
BRANCH  40  41
HETATM   41  C   UNL     1     -13.216 -14.095  -0.210  1.00  0.00     0.187 C 
HETATM   42  C   UNL     1     -11.876 -14.850  -0.056  1.00  0.00     0.180 C 
HETATM   43  O   UNL     1     -12.066 -16.165   0.495  1.00  0.00    -0.349 OA
HETATM   44  C   UNL     1     -12.663 -16.232   1.770  1.00  0.00     0.288 C 
HETATM   45  C   UNL     1     -14.018 -15.500   1.840  1.00  0.00     0.204 C 
HETATM   46  C   UNL     1     -13.980 -14.131   1.142  1.00  0.00     0.183 C 
BRANCH  42  47
HETATM   47  C   UNL     1     -10.842 -14.012   0.727  1.00  0.00     0.198 C 
BRANCH  47  48
HETATM   48  O   UNL     1      -9.620 -14.726   0.867  1.00  0.00    -0.398 OA
HETATM   49  H   UNL     1      -9.424 -14.719   1.827  1.00  0.00     0.209 HD
ENDBRANCH  47  48
ENDBRANCH  42  47
BRANCH  44  50
HETATM   50  O   UNL     1     -11.768 -15.776   2.779  1.00  0.00    -0.369 OA
HETATM   51  H   UNL     1     -11.881 -14.809   2.844  1.00  0.00     0.212 HD
ENDBRANCH  44  50
BRANCH  45  52
HETATM   52  O   UNL     1     -14.350 -15.305   3.235  1.00  0.00    -0.388 OA
HETATM   53  H   UNL     1     -15.180 -15.782   3.416  1.00  0.00     0.210 HD
ENDBRANCH  45  52
BRANCH  46  54
HETATM   54  O   UNL     1     -15.305 -13.615   0.992  1.00  0.00    -0.390 OA
HETATM   55  H   UNL     1     -15.383 -12.826   1.571  1.00  0.00     0.210 HD
ENDBRANCH  46  54
ENDBRANCH  40  41
ENDBRANCH  34  40
BRANCH  35  56
HETATM   56  O   UNL     1     -13.183 -14.673  -4.024  1.00  0.00    -0.388 OA
HETATM   57  H   UNL     1     -12.723 -14.814  -3.177  1.00  0.00     0.210 HD
ENDBRANCH  35  56
BRANCH  36  58
HETATM   58  O   UNL     1     -15.532 -14.320  -5.837  1.00  0.00    -0.390 OA
HETATM   59  H   UNL     1     -14.672 -14.693  -6.102  1.00  0.00     0.210 HD
ENDBRANCH  36  58
ENDBRANCH   1  31
TORSDOF 24
BEGIN_RES ARG D 557
REMARK  4 active torsions:
REMARK  status: ('A' for Active; 'I' for Inactive)
REMARK    1  A    between atoms: CA   and  CB  
REMARK    2  A    between atoms: CB   and  CG  
REMARK    3  A    between atoms: CG   and  CD  
REMARK    4  A    between atoms: CD   and  NE  
REMARK       I    between atoms: NE   and  CZ  
REMARK       I    between atoms: CZ   and  NH1 
REMARK       I    between atoms: CZ   and  NH2 
ROOT
ATOM      1  CA  ARG D 557     -26.217   2.705 -17.014  1.00 35.49     0.159 C 
ENDROOT
BRANCH   1   2
ATOM      2  CB  ARG D 557     -26.789   1.319 -17.183  1.00 35.49     0.034 C 
BRANCH   2   3
ATOM      3  CG  ARG D 557     -25.837   0.202 -17.144  1.00 35.49     0.027 C 
BRANCH   3   4
ATOM      4  CD  ARG D 557     -24.757   0.416 -16.155  1.00 35.49     0.116 C 
BRANCH   4   5
ATOM      5  NE  ARG D 557     -24.898  -0.437 -15.004  1.00 35.49    -0.212 N 
ATOM      6  CZ  ARG D 557     -24.085  -1.413 -14.666  1.00 35.49     0.666 C 
ATOM      7  NH1 ARG D 557     -23.023  -1.730 -15.382  1.00 35.49    -0.235 N 
ATOM      8  NH2 ARG D 557     -24.357  -2.070 -13.576  1.00 35.49    -0.235 N 
ATOM      9  HH  ARG D 557     -22.824  -1.310 -16.102  1.00 35.49     0.174 HD
ATOM     10  HH  ARG D 557     -22.527  -2.374 -15.111  1.00 35.49     0.174 HD
ATOM     11  HH  ARG D 557     -25.045  -1.838 -13.130  1.00 35.49     0.174 HD
ATOM     12  HH  ARG D 557     -23.853  -2.704 -13.324  1.00 35.49     0.174 HD
ATOM     13  HE  ARG D 557     -25.596  -0.350 -14.526  1.00 35.49     0.178 HD
ENDBRANCH   4   5
ENDBRANCH   3   4
ENDBRANCH   2   3
ENDBRANCH   1   2
END_RES ARG D 557
BEGIN_RES GLU D 570
REMARK  3 active torsions:
REMARK  status: ('A' for Active; 'I' for Inactive)
REMARK    5  A    between atoms: CA   and  CB  
REMARK    6  A    between atoms: CB   and  CG  
REMARK    7  A    between atoms: CG   and  CD  
ROOT
ATOM     14  CA  GLU D 570     -18.033  -6.348 -13.375  1.00 32.92     0.160 C 
ENDROOT
BRANCH  14  15
ATOM     15  CB  GLU D 570     -19.500  -6.345 -13.794  1.00 32.92     0.043 C 
BRANCH  15  16
ATOM     16  CG  GLU D 570     -20.446  -5.549 -12.970  1.00 32.92     0.100 C 
BRANCH  16  17
ATOM     17  CD  GLU D 570     -21.737  -5.238 -13.690  1.00 32.92     0.185 C 
ATOM     18  OE1 GLU D 570     -22.261  -4.118 -13.536  1.00 32.92    -0.647 OA
ATOM     19  OE2 GLU D 570     -22.239  -6.130 -14.402  1.00 32.92    -0.647 OA
ENDBRANCH  16  17
ENDBRANCH  15  16
ENDBRANCH  14  15
END_RES GLU D 570
ENDMDL
MODEL 8
REMARK VINA RESULT:      -5.3      2.603      4.177
REMARK  24 active torsions:
REMARK  status: ('A' for Active; 'I' for Inactive)
REMARK    1  A    between atoms: C_1  and  C_2 
REMARK    2  A    between atoms: C_1  and  O_45 
REMARK    3  A    between atoms: C_3  and  O_44 
REMARK    4  A    between atoms: C_4  and  O_43 
REMARK    5  A    between atoms: C_5  and  O_42 
REMARK    6  A    between atoms: C_6  and  O_8 
REMARK    7  A    between atoms: O_8  and  C_9 
REMARK    8  A    between atoms: C_10  and  C_40 
REMARK    9  A    between atoms: C_12  and  O_17 
REMARK   10  A    between atoms: C_13  and  O_16 
REMARK   11  A    between atoms: C_14  and  O_15 
REMARK   12  A    between atoms: O_17  and  C_18 
REMARK   13  A    between atoms: C_19  and  C_38 
REMARK   14  A    between atoms: C_21  and  O_26 
REMARK   15  A    between atoms: C_22  and  O_25 
REMARK   16  A    between atoms: C_23  and  O_24 
REMARK   17  A    between atoms: O_26  and  C_27 
REMARK   18  A    between atoms: C_28  and  C_36 
REMARK   19  A    between atoms: C_30  and  O_35 
REMARK   20  A    between atoms: C_31  and  O_34 
REMARK   21  A    between atoms: C_32  and  O_33 
REMARK   22  A    between atoms: C_36  and  O_37 
REMARK   23  A    between atoms: C_38  and  O_39 
REMARK   24  A    between atoms: C_40  and  O_41 
ROOT
HETATM    1  O   UNL     1     -20.708  -6.817  -4.630  1.00  0.00    -0.348 OA
ENDROOT
BRANCH   1   2
HETATM    2  C   UNL     1     -21.198  -6.987  -5.990  1.00  0.00     0.292 C 
HETATM    3  O   UNL     1     -20.175  -6.838  -6.977  1.00  0.00    -0.348 OA
HETATM    4  C   UNL     1     -19.947  -5.522  -7.512  1.00  0.00     0.180 C 
HETATM    5  C   UNL     1     -21.239  -4.821  -8.007  1.00  0.00     0.187 C 
HETATM    6  C   UNL     1     -22.211  -4.764  -6.822  1.00  0.00     0.183 C 
HETATM    7  C   UNL     1     -22.495  -6.186  -6.313  1.00  0.00     0.204 C 
BRANCH   4   8
HETATM    8  C   UNL     1     -19.158  -4.626  -6.536  1.00  0.00     0.198 C 
BRANCH   8   9
HETATM    9  O   UNL     1     -17.975  -4.129  -7.133  1.00  0.00    -0.398 OA
HETATM   10  H   UNL     1     -17.598  -3.448  -6.549  1.00  0.00     0.209 HD
ENDBRANCH   8   9
ENDBRANCH   4   8
BRANCH   5  11
HETATM   11  O   UNL     1     -21.779  -5.533  -9.143  1.00  0.00    -0.348 OA
BRANCH  11  12
HETATM   12  C   UNL     1     -22.435  -4.810 -10.211  1.00  0.00     0.292 C 
HETATM   13  C   UNL     1     -21.690  -4.772 -11.573  1.00  0.00     0.204 C 
HETATM   14  C   UNL     1     -22.570  -4.057 -12.610  1.00  0.00     0.183 C 
HETATM   15  C   UNL     1     -22.935  -2.643 -12.118  1.00  0.00     0.180 C 
HETATM   16  C   UNL     1     -23.614  -2.730 -10.737  1.00  0.00     0.179 C 
HETATM   17  O   UNL     1     -22.839  -3.501  -9.779  1.00  0.00    -0.348 OA
BRANCH  13  18
HETATM   18  O   UNL     1     -20.435  -4.059 -11.548  1.00  0.00    -0.388 OA
HETATM   19  H   UNL     1     -20.611  -3.122 -11.804  1.00  0.00     0.210 HD
ENDBRANCH  13  18
BRANCH  14  20
HETATM   20  O   UNL     1     -21.907  -3.993 -13.881  1.00  0.00    -0.390 OA
HETATM   21  H   UNL     1     -21.594  -4.893 -14.097  1.00  0.00     0.210 HD
ENDBRANCH  14  20
BRANCH  15  22
HETATM   22  O   UNL     1     -21.785  -1.796 -11.979  1.00  0.00    -0.390 OA
HETATM   23  H   UNL     1     -21.877  -1.292 -11.144  1.00  0.00     0.210 HD
ENDBRANCH  15  22
BRANCH  16  24
HETATM   24  C   UNL     1     -25.076  -3.208 -10.827  1.00  0.00     0.198 C 
BRANCH  24  25
HETATM   25  O   UNL     1     -25.599  -3.560  -9.555  1.00  0.00    -0.398 OA
HETATM   26  H   UNL     1     -24.923  -3.363  -8.880  1.00  0.00     0.209 HD
ENDBRANCH  24  25
ENDBRANCH  16  24
ENDBRANCH  11  12
ENDBRANCH   5  11
BRANCH   6  27
HETATM   27  O   UNL     1     -23.403  -4.061  -7.189  1.00  0.00    -0.390 OA
HETATM   28  H   UNL     1     -24.096  -4.307  -6.536  1.00  0.00     0.210 HD
ENDBRANCH   6  27
BRANCH   7  29
HETATM   29  O   UNL     1     -23.404  -6.171  -5.210  1.00  0.00    -0.388 OA
HETATM   30  H   UNL     1     -23.285  -5.321  -4.746  1.00  0.00     0.210 HD
ENDBRANCH   7  29
ENDBRANCH   1   2
BRANCH   1  31
HETATM   31  C   UNL     1     -21.053  -7.929  -3.732  1.00  0.00     0.187 C 
HETATM   32  C   UNL     1     -20.326  -7.921  -2.373  1.00  0.00     0.180 C 
HETATM   33  O   UNL     1     -18.939  -8.276  -2.486  1.00  0.00    -0.348 OA
HETATM   34  C   UNL     1     -18.634  -9.579  -3.005  1.00  0.00     0.292 C 
HETATM   35  C   UNL     1     -19.375  -9.831  -4.355  1.00  0.00     0.204 C 
HETATM   36  C   UNL     1     -20.821  -9.301  -4.424  1.00  0.00     0.183 C 
BRANCH  32  37
HETATM   37  C   UNL     1     -21.085  -8.703  -1.278  1.00  0.00     0.198 C 
BRANCH  37  38
HETATM   38  O   UNL     1     -22.304  -8.093  -0.875  1.00  0.00    -0.398 OA
HETATM   39  H   UNL     1     -23.007  -8.388  -1.486  1.00  0.00     0.209 HD
ENDBRANCH  37  38
ENDBRANCH  32  37
BRANCH  34  40
HETATM   40  O   UNL     1     -18.743 -10.628  -1.997  1.00  0.00    -0.348 OA
BRANCH  40  41
HETATM   41  C   UNL     1     -17.441 -11.209  -1.673  1.00  0.00     0.187 C 
HETATM   42  C   UNL     1     -16.659 -11.715  -2.907  1.00  0.00     0.180 C 
HETATM   43  O   UNL     1     -17.222 -12.931  -3.432  1.00  0.00    -0.349 OA
HETATM   44  C   UNL     1     -17.262 -14.035  -2.556  1.00  0.00     0.288 C 
HETATM   45  C   UNL     1     -17.984 -13.726  -1.229  1.00  0.00     0.204 C 
HETATM   46  C   UNL     1     -17.573 -12.365  -0.643  1.00  0.00     0.183 C 
BRANCH  42  47
HETATM   47  C   UNL     1     -15.147 -11.829  -2.609  1.00  0.00     0.198 C 
BRANCH  47  48
HETATM   48  O   UNL     1     -14.448 -12.314  -3.749  1.00  0.00    -0.398 OA
HETATM   49  H   UNL     1     -13.983 -11.535  -4.118  1.00  0.00     0.209 HD
ENDBRANCH  47  48
ENDBRANCH  42  47
BRANCH  44  50
HETATM   50  O   UNL     1     -15.957 -14.559  -2.333  1.00  0.00    -0.369 OA
HETATM   51  H   UNL     1     -15.671 -14.974  -3.168  1.00  0.00     0.212 HD
ENDBRANCH  44  50
BRANCH  45  52
HETATM   52  O   UNL     1     -17.645 -14.765  -0.282  1.00  0.00    -0.388 OA
HETATM   53  H   UNL     1     -18.351 -14.803   0.388  1.00  0.00     0.210 HD
ENDBRANCH  45  52
BRANCH  46  54
HETATM   54  O   UNL     1     -18.453 -11.999   0.423  1.00  0.00    -0.390 OA
HETATM   55  H   UNL     1     -18.187 -11.107   0.732  1.00  0.00     0.210 HD
ENDBRANCH  46  54
ENDBRANCH  40  41
ENDBRANCH  34  40
BRANCH  35  56
HETATM   56  O   UNL     1     -19.314 -11.210  -4.728  1.00  0.00    -0.388 OA
HETATM   57  H   UNL     1     -18.628 -11.624  -4.175  1.00  0.00     0.210 HD
ENDBRANCH  35  56
BRANCH  36  58
HETATM   58  O   UNL     1     -21.295  -9.238  -5.782  1.00  0.00    -0.390 OA
HETATM   59  H   UNL     1     -21.845  -8.437  -5.848  1.00  0.00     0.210 HD
ENDBRANCH  36  58
ENDBRANCH   1  31
TORSDOF 24
BEGIN_RES ARG D 557
REMARK  4 active torsions:
REMARK  status: ('A' for Active; 'I' for Inactive)
REMARK    1  A    between atoms: CA   and  CB  
REMARK    2  A    between atoms: CB   and  CG  
REMARK    3  A    between atoms: CG   and  CD  
REMARK    4  A    between atoms: CD   and  NE  
REMARK       I    between atoms: NE   and  CZ  
REMARK       I    between atoms: CZ   and  NH1 
REMARK       I    between atoms: CZ   and  NH2 
ROOT
ATOM      1  CA  ARG D 557     -26.217   2.705 -17.014  1.00 35.49     0.159 C 
ENDROOT
BRANCH   1   2
ATOM      2  CB  ARG D 557     -26.789   1.319 -17.183  1.00 35.49     0.034 C 
BRANCH   2   3
ATOM      3  CG  ARG D 557     -28.230   1.227 -17.445  1.00 35.49     0.027 C 
BRANCH   3   4
ATOM      4  CD  ARG D 557     -28.915   0.301 -16.514  1.00 35.49     0.116 C 
BRANCH   4   5
ATOM      5  NE  ARG D 557     -28.132  -0.877 -16.247  1.00 35.49    -0.212 N 
ATOM      6  CZ  ARG D 557     -28.371  -2.081 -16.718  1.00 35.49     0.666 C 
ATOM      7  NH1 ARG D 557     -29.400  -2.345 -17.501  1.00 35.49    -0.235 N 
ATOM      8  NH2 ARG D 557     -27.542  -3.029 -16.389  1.00 35.49    -0.235 N 
ATOM      9  HH  ARG D 557     -29.957  -1.736 -17.732  1.00 35.49     0.174 HD
ATOM     10  HH  ARG D 557     -29.504  -3.148 -17.780  1.00 35.49     0.174 HD
ATOM     11  HH  ARG D 557     -26.882  -2.828 -15.887  1.00 35.49     0.174 HD
ATOM     12  HH  ARG D 557     -27.661  -3.818 -16.676  1.00 35.49     0.174 HD
ATOM     13  HE  ARG D 557     -27.490  -0.813 -15.692  1.00 35.49     0.178 HD
ENDBRANCH   4   5
ENDBRANCH   3   4
ENDBRANCH   2   3
ENDBRANCH   1   2
END_RES ARG D 557
BEGIN_RES GLU D 570
REMARK  3 active torsions:
REMARK  status: ('A' for Active; 'I' for Inactive)
REMARK    5  A    between atoms: CA   and  CB  
REMARK    6  A    between atoms: CB   and  CG  
REMARK    7  A    between atoms: CG   and  CD  
ROOT
ATOM     14  CA  GLU D 570     -18.033  -6.348 -13.375  1.00 32.92     0.160 C 
ENDROOT
BRANCH  14  15
ATOM     15  CB  GLU D 570     -19.500  -6.345 -13.794  1.00 32.92     0.043 C 
BRANCH  15  16
ATOM     16  CG  GLU D 570     -19.797  -6.449 -15.246  1.00 32.92     0.100 C 
BRANCH  16  17
ATOM     17  CD  GLU D 570     -21.095  -7.168 -15.531  1.00 32.92     0.185 C 
ATOM     18  OE1 GLU D 570     -21.059  -8.353 -15.915  1.00 32.92    -0.647 OA
ATOM     19  OE2 GLU D 570     -22.159  -6.534 -15.387  1.00 32.92    -0.647 OA
ENDBRANCH  16  17
ENDBRANCH  15  16
ENDBRANCH  14  15
END_RES GLU D 570
ENDMDL
MODEL 9
REMARK VINA RESULT:      -5.3      4.427      9.207
REMARK  24 active torsions:
REMARK  status: ('A' for Active; 'I' for Inactive)
REMARK    1  A    between atoms: C_1  and  C_2 
REMARK    2  A    between atoms: C_1  and  O_45 
REMARK    3  A    between atoms: C_3  and  O_44 
REMARK    4  A    between atoms: C_4  and  O_43 
REMARK    5  A    between atoms: C_5  and  O_42 
REMARK    6  A    between atoms: C_6  and  O_8 
REMARK    7  A    between atoms: O_8  and  C_9 
REMARK    8  A    between atoms: C_10  and  C_40 
REMARK    9  A    between atoms: C_12  and  O_17 
REMARK   10  A    between atoms: C_13  and  O_16 
REMARK   11  A    between atoms: C_14  and  O_15 
REMARK   12  A    between atoms: O_17  and  C_18 
REMARK   13  A    between atoms: C_19  and  C_38 
REMARK   14  A    between atoms: C_21  and  O_26 
REMARK   15  A    between atoms: C_22  and  O_25 
REMARK   16  A    between atoms: C_23  and  O_24 
REMARK   17  A    between atoms: O_26  and  C_27 
REMARK   18  A    between atoms: C_28  and  C_36 
REMARK   19  A    between atoms: C_30  and  O_35 
REMARK   20  A    between atoms: C_31  and  O_34 
REMARK   21  A    between atoms: C_32  and  O_33 
REMARK   22  A    between atoms: C_36  and  O_37 
REMARK   23  A    between atoms: C_38  and  O_39 
REMARK   24  A    between atoms: C_40  and  O_41 
ROOT
HETATM    1  O   UNL     1     -15.216 -12.018  -3.740  1.00  0.00    -0.348 OA
ENDROOT
BRANCH   1   2
HETATM    2  C   UNL     1     -16.216 -12.997  -4.135  1.00  0.00     0.292 C 
HETATM    3  O   UNL     1     -15.746 -14.344  -4.054  1.00  0.00    -0.348 OA
HETATM    4  C   UNL     1     -15.125 -14.908  -5.223  1.00  0.00     0.180 C 
HETATM    5  C   UNL     1     -15.964 -14.739  -6.515  1.00  0.00     0.187 C 
HETATM    6  C   UNL     1     -16.214 -13.238  -6.705  1.00  0.00     0.183 C 
HETATM    7  C   UNL     1     -16.942 -12.672  -5.476  1.00  0.00     0.204 C 
BRANCH   4   8
HETATM    8  C   UNL     1     -13.682 -14.399  -5.417  1.00  0.00     0.198 C 
BRANCH   8   9
HETATM    9  O   UNL     1     -13.027 -15.090  -6.464  1.00  0.00    -0.398 OA
HETATM   10  H   UNL     1     -13.688 -15.621  -6.944  1.00  0.00     0.209 HD
ENDBRANCH   8   9
ENDBRANCH   4   8
BRANCH   5  11
HETATM   11  O   UNL     1     -17.187 -15.503  -6.410  1.00  0.00    -0.348 OA
BRANCH  11  12
HETATM   12  C   UNL     1     -18.419 -14.855  -6.017  1.00  0.00     0.292 C 
HETATM   13  C   UNL     1     -19.166 -15.474  -4.805  1.00  0.00     0.204 C 
HETATM   14  C   UNL     1     -20.387 -14.606  -4.467  1.00  0.00     0.183 C 
HETATM   15  C   UNL     1     -21.306 -14.473  -5.696  1.00  0.00     0.180 C 
HETATM   16  C   UNL     1     -20.505 -13.914  -6.889  1.00  0.00     0.179 C 
HETATM   17  O   UNL     1     -19.287 -14.664  -7.146  1.00  0.00    -0.348 OA
BRANCH  13  18
HETATM   18  O   UNL     1     -19.668 -16.809  -5.031  1.00  0.00    -0.388 OA
HETATM   19  H   UNL     1     -18.941 -17.446  -4.832  1.00  0.00     0.210 HD
ENDBRANCH  13  18
BRANCH  14  20
HETATM   20  O   UNL     1     -21.109 -15.156  -3.356  1.00  0.00    -0.390 OA
HETATM   21  H   UNL     1     -21.175 -16.121  -3.494  1.00  0.00     0.210 HD
ENDBRANCH  14  20
BRANCH  15  22
HETATM   22  O   UNL     1     -21.862 -15.731  -6.105  1.00  0.00    -0.390 OA
HETATM   23  H   UNL     1     -21.944 -15.726  -7.081  1.00  0.00     0.210 HD
ENDBRANCH  15  22
BRANCH  16  24
HETATM   24  C   UNL     1     -20.245 -12.400  -6.767  1.00  0.00     0.198 C 
BRANCH  24  25
HETATM   25  O   UNL     1     -19.399 -11.922  -7.802  1.00  0.00    -0.398 OA
HETATM   26  H   UNL     1     -18.570 -12.435  -7.784  1.00  0.00     0.209 HD
ENDBRANCH  24  25
ENDBRANCH  16  24
ENDBRANCH  11  12
ENDBRANCH   5  11
BRANCH   6  27
HETATM   27  O   UNL     1     -16.925 -13.002  -7.924  1.00  0.00    -0.390 OA
HETATM   28  H   UNL     1     -17.649 -12.368  -7.720  1.00  0.00     0.210 HD
ENDBRANCH   6  27
BRANCH   7  29
HETATM   29  O   UNL     1     -17.197 -11.273  -5.622  1.00  0.00    -0.388 OA
HETATM   30  H   UNL     1     -17.271 -11.088  -6.576  1.00  0.00     0.210 HD
ENDBRANCH   7  29
ENDBRANCH   1   2
BRANCH   1  31
HETATM   31  C   UNL     1     -15.463 -11.415  -2.421  1.00  0.00     0.187 C 
HETATM   32  C   UNL     1     -16.029 -12.378  -1.359  1.00  0.00     0.180 C 
HETATM   33  O   UNL     1     -17.402 -12.724  -1.600  1.00  0.00    -0.348 OA
HETATM   34  C   UNL     1     -18.358 -11.653  -1.603  1.00  0.00     0.292 C 
HETATM   35  C   UNL     1     -17.907 -10.503  -2.556  1.00  0.00     0.204 C 
HETATM   36  C   UNL     1     -16.400 -10.181  -2.536  1.00  0.00     0.183 C 
BRANCH  32  37
HETATM   37  C   UNL     1     -15.744 -11.916   0.087  1.00  0.00     0.198 C 
BRANCH  37  38
HETATM   38  O   UNL     1     -16.541 -12.569   1.067  1.00  0.00    -0.398 OA
HETATM   39  H   UNL     1     -16.468 -12.066   1.901  1.00  0.00     0.209 HD
ENDBRANCH  37  38
ENDBRANCH  32  37
BRANCH  34  40
HETATM   40  O   UNL     1     -18.770 -11.261  -0.259  1.00  0.00    -0.348 OA
BRANCH  40  41
HETATM   41  C   UNL     1     -20.146 -11.664   0.027  1.00  0.00     0.187 C 
HETATM   42  C   UNL     1     -20.955 -12.060  -1.229  1.00  0.00     0.180 C 
HETATM   43  O   UNL     1     -21.313 -10.910  -2.016  1.00  0.00    -0.349 OA
HETATM   44  C   UNL     1     -22.101  -9.932  -1.377  1.00  0.00     0.288 C 
HETATM   45  C   UNL     1     -21.476  -9.418  -0.065  1.00  0.00     0.204 C 
HETATM   46  C   UNL     1     -20.915 -10.557   0.801  1.00  0.00     0.183 C 
BRANCH  42  47
HETATM   47  C   UNL     1     -22.169 -12.943  -0.864  1.00  0.00     0.198 C 
BRANCH  47  48
HETATM   48  O   UNL     1     -22.918 -13.271  -2.027  1.00  0.00    -0.398 OA
HETATM   49  H   UNL     1     -23.011 -14.246  -2.009  1.00  0.00     0.209 HD
ENDBRANCH  47  48
ENDBRANCH  42  47
BRANCH  44  50
HETATM   50  O   UNL     1     -23.432 -10.396  -1.178  1.00  0.00    -0.369 OA
HETATM   51  H   UNL     1     -23.548 -11.180  -1.747  1.00  0.00     0.212 HD
ENDBRANCH  44  50
BRANCH  45  52
HETATM   52  O   UNL     1     -22.506  -8.727   0.681  1.00  0.00    -0.388 OA
HETATM   53  H   UNL     1     -22.614  -7.840   0.294  1.00  0.00     0.210 HD
ENDBRANCH  45  52
BRANCH  46  54
HETATM   54  O   UNL     1     -20.113 -10.027   1.859  1.00  0.00    -0.390 OA
HETATM   55  H   UNL     1     -20.490 -10.349   2.706  1.00  0.00     0.210 HD
ENDBRANCH  46  54
ENDBRANCH  40  41
ENDBRANCH  34  40
BRANCH  35  56
HETATM   56  O   UNL     1     -18.688  -9.324  -2.348  1.00  0.00    -0.388 OA
HETATM   57  H   UNL     1     -19.562  -9.613  -2.031  1.00  0.00     0.210 HD
ENDBRANCH  35  56
BRANCH  36  58
HETATM   58  O   UNL     1     -16.013  -9.392  -3.678  1.00  0.00    -0.390 OA
HETATM   59  H   UNL     1     -16.123  -8.459  -3.421  1.00  0.00     0.210 HD
ENDBRANCH  36  58
ENDBRANCH   1  31
TORSDOF 24
BEGIN_RES ARG D 557
REMARK  4 active torsions:
REMARK  status: ('A' for Active; 'I' for Inactive)
REMARK    1  A    between atoms: CA   and  CB  
REMARK    2  A    between atoms: CB   and  CG  
REMARK    3  A    between atoms: CG   and  CD  
REMARK    4  A    between atoms: CD   and  NE  
REMARK       I    between atoms: NE   and  CZ  
REMARK       I    between atoms: CZ   and  NH1 
REMARK       I    between atoms: CZ   and  NH2 
ROOT
ATOM      1  CA  ARG D 557     -26.217   2.705 -17.014  1.00 35.49     0.159 C 
ENDROOT
BRANCH   1   2
ATOM      2  CB  ARG D 557     -26.789   1.319 -17.183  1.00 35.49     0.034 C 
BRANCH   2   3
ATOM      3  CG  ARG D 557     -25.838   0.202 -17.135  1.00 35.49     0.027 C 
BRANCH   3   4
ATOM      4  CD  ARG D 557     -24.757   0.423 -16.148  1.00 35.49     0.116 C 
BRANCH   4   5
ATOM      5  NE  ARG D 557     -24.889  -0.432 -14.998  1.00 35.49    -0.212 N 
ATOM      6  CZ  ARG D 557     -24.069  -1.403 -14.663  1.00 35.49     0.666 C 
ATOM      7  NH1 ARG D 557     -23.007  -1.713 -15.384  1.00 35.49    -0.235 N 
ATOM      8  NH2 ARG D 557     -24.332  -2.063 -13.573  1.00 35.49    -0.235 N 
ATOM      9  HH  ARG D 557     -22.813  -1.290 -16.103  1.00 35.49     0.174 HD
ATOM     10  HH  ARG D 557     -22.506  -2.354 -15.115  1.00 35.49     0.174 HD
ATOM     11  HH  ARG D 557     -25.021  -1.836 -13.124  1.00 35.49     0.174 HD
ATOM     12  HH  ARG D 557     -23.823  -2.693 -13.323  1.00 35.49     0.174 HD
ATOM     13  HE  ARG D 557     -25.586  -0.350 -14.517  1.00 35.49     0.178 HD
ENDBRANCH   4   5
ENDBRANCH   3   4
ENDBRANCH   2   3
ENDBRANCH   1   2
END_RES ARG D 557
BEGIN_RES GLU D 570
REMARK  3 active torsions:
REMARK  status: ('A' for Active; 'I' for Inactive)
REMARK    5  A    between atoms: CA   and  CB  
REMARK    6  A    between atoms: CB   and  CG  
REMARK    7  A    between atoms: CG   and  CD  
ROOT
ATOM     14  CA  GLU D 570     -18.033  -6.348 -13.375  1.00 32.92     0.160 C 
ENDROOT
BRANCH  14  15
ATOM     15  CB  GLU D 570     -19.500  -6.345 -13.794  1.00 32.92     0.043 C 
BRANCH  15  16
ATOM     16  CG  GLU D 570     -20.445  -5.546 -12.972  1.00 32.92     0.100 C 
BRANCH  16  17
ATOM     17  CD  GLU D 570     -21.731  -5.224 -13.698  1.00 32.92     0.185 C 
ATOM     18  OE1 GLU D 570     -22.203  -6.060 -14.492  1.00 32.92    -0.647 OA
ATOM     19  OE2 GLU D 570     -22.263  -4.117 -13.482  1.00 32.92    -0.647 OA
ENDBRANCH  16  17
ENDBRANCH  15  16
ENDBRANCH  14  15
END_RES GLU D 570
ENDMDL
