MODEL 1
REMARK VINA RESULT:      -7.5      0.000      0.000
REMARK  12 active torsions:
REMARK  status: ('A' for Active; 'I' for Inactive)
REMARK    1  A    between atoms: C_6  and  O_11 
REMARK    2  A    between atoms: C_7  and  C_8 
REMARK    3  A    between atoms: C_8  and  O_10 
REMARK    4  A    between atoms: C_18  and  O_35 
REMARK    5  A    between atoms: C_19  and  C_24 
REMARK    6  A    between atoms: C_20  and  O_23 
REMARK    7  A    between atoms: C_21  and  O_22 
REMARK    8  A    between atoms: C_25  and  O_34 
REMARK    9  A    between atoms: C_26  and  O_33 
REMARK   10  A    between atoms: C_27  and  O_32 
REMARK   11  A    between atoms: C_28  and  C_30 
REMARK   12  A    between atoms: C_30  and  O_31 
ROOT
HETATM    1  C   UNL     1     -19.865  -5.313  -9.563  1.00  0.00     0.050 C 
HETATM    2  C   UNL     1     -20.992  -5.176  -8.552  1.00  0.00    -0.027 A 
HETATM    3  C   UNL     1     -21.016  -5.886  -7.306  1.00  0.00     0.036 A 
HETATM    4  C   UNL     1     -22.076  -5.724  -6.408  1.00  0.00     0.032 A 
HETATM    5  C   UNL     1     -23.137  -4.873  -6.732  1.00  0.00     0.054 A 
HETATM    6  C   UNL     1     -23.135  -4.180  -7.943  1.00  0.00     0.084 A 
HETATM    7  C   UNL     1     -22.082  -4.303  -8.872  1.00  0.00     0.077 A 
HETATM    8  C   UNL     1     -22.139  -6.424  -5.089  1.00  0.00     0.197 A 
HETATM    9  O   UNL     1     -23.103  -6.201  -4.373  1.00  0.00    -0.286 OA
HETATM   10  C   UNL     1     -21.063  -7.360  -4.700  1.00  0.00     0.068 A 
HETATM   11  C   UNL     1     -20.037  -7.558  -5.605  1.00  0.00     0.066 A 
HETATM   12  C   UNL     1     -19.942  -6.803  -6.870  1.00  0.00     0.197 A 
HETATM   13  O   UNL     1     -18.916  -6.953  -7.522  1.00  0.00    -0.286 OA
HETATM   14  C   UNL     1     -19.024  -8.467  -5.285  1.00  0.00     0.092 A 
HETATM   15  C   UNL     1     -18.927  -9.142  -4.038  1.00  0.00     0.043 A 
HETATM   16  C   UNL     1     -19.959  -8.934  -3.139  1.00  0.00     0.111 A 
HETATM   17  C   UNL     1     -21.023  -8.060  -3.476  1.00  0.00     0.115 A 
ENDROOT
BRANCH  15  18
HETATM   18  C   UNL     1     -17.634  -9.928  -3.905  1.00  0.00     0.192 C 
HETATM   19  C   UNL     1     -17.577 -10.595  -2.501  1.00  0.00     0.183 C 
HETATM   20  C   UNL     1     -16.097 -10.608  -2.119  1.00  0.00     0.181 C 
HETATM   21  C   UNL     1     -15.272 -11.373  -3.167  1.00  0.00     0.180 C 
HETATM   22  C   UNL     1     -15.592 -10.858  -4.600  1.00  0.00     0.177 C 
HETATM   23  O   UNL     1     -17.058 -10.854  -4.869  1.00  0.00    -0.368 OA
BRANCH  19  24
HETATM   24  O   UNL     1     -18.159 -11.908  -2.500  1.00  0.00    -0.390 OA
HETATM   25  H   UNL     1     -17.841 -12.377  -1.713  1.00  0.00     0.210 HD
ENDBRANCH  19  24
BRANCH  20  26
HETATM   26  O   UNL     1     -15.915 -11.152  -0.815  1.00  0.00    -0.390 OA
HETATM   27  H   UNL     1     -15.137 -11.738  -0.887  1.00  0.00     0.210 HD
ENDBRANCH  20  26
BRANCH  21  28
HETATM   28  O   UNL     1     -15.521 -12.780  -3.025  1.00  0.00    -0.390 OA
HETATM   29  H   UNL     1     -16.026 -12.948  -2.214  1.00  0.00     0.210 HD
ENDBRANCH  21  28
BRANCH  22  30
HETATM   30  C   UNL     1     -14.787 -11.632  -5.651  1.00  0.00     0.198 C 
BRANCH  30  31
HETATM   31  O   UNL     1     -13.541 -12.054  -5.113  1.00  0.00    -0.398 OA
HETATM   32  H   UNL     1     -12.945 -12.200  -5.868  1.00  0.00     0.209 HD
ENDBRANCH  30  31
ENDBRANCH  22  30
ENDBRANCH  15  18
BRANCH  14  33
HETATM   33  O   UNL     1     -18.021  -8.747  -6.198  1.00  0.00    -0.359 OA
HETATM   34  H   UNL     1     -17.781  -9.702  -6.140  1.00  0.00     0.217 HD
ENDBRANCH  14  33
BRANCH  16  35
HETATM   35  O   UNL     1     -20.021  -9.539  -1.914  1.00  0.00    -0.357 OA
HETATM   36  H   UNL     1     -19.152  -9.454  -1.478  1.00  0.00     0.217 HD
ENDBRANCH  16  35
BRANCH  17  37
HETATM   37  O   UNL     1     -22.021  -7.901  -2.549  1.00  0.00    -0.357 OA
HETATM   38  H   UNL     1     -21.972  -8.671  -1.950  1.00  0.00     0.217 HD
ENDBRANCH  17  37
BRANCH   7  39
HETATM   39  C   UNL     1     -22.112  -3.532 -10.184  1.00  0.00     0.179 C 
HETATM   40  O   UNL     1     -21.163  -2.917 -10.649  1.00  0.00    -0.646 OA
BRANCH  39  41
HETATM   41  O   UNL     1     -23.282  -3.551 -10.844  1.00  0.00    -0.773 OA
HETATM   42  H   UNL     1     -23.337  -2.873 -11.550  1.00  0.00     0.167 HD
ENDBRANCH  39  41
ENDBRANCH   7  39
BRANCH   6  43
HETATM   43  O   UNL     1     -24.212  -3.369  -8.205  1.00  0.00    -0.360 OA
HETATM   44  H   UNL     1     -24.328  -3.292  -9.173  1.00  0.00     0.217 HD
ENDBRANCH   6  43
TORSDOF 12
BEGIN_RES ARG D 557
REMARK  4 active torsions:
REMARK  status: ('A' for Active; 'I' for Inactive)
REMARK    1  A    between atoms: CA   and  CB  
REMARK    2  A    between atoms: CB   and  CG  
REMARK    3  A    between atoms: CG   and  CD  
REMARK    4  A    between atoms: CD   and  NE  
REMARK       I    between atoms: NE   and  CZ  
REMARK       I    between atoms: CZ   and  NH1 
REMARK       I    between atoms: CZ   and  NH2 
ROOT
ATOM      1  CA  ARG D 557     -26.217   2.705 -17.014  1.00 35.49     0.159 C 
ENDROOT
BRANCH   1   2
ATOM      2  CB  ARG D 557     -26.789   1.319 -17.183  1.00 35.49     0.034 C 
BRANCH   2   3
ATOM      3  CG  ARG D 557     -25.840   0.201 -17.120  1.00 35.49     0.027 C 
BRANCH   3   4
ATOM      4  CD  ARG D 557     -24.760   0.431 -16.134  1.00 35.49     0.116 C 
BRANCH   4   5
ATOM      5  NE  ARG D 557     -24.884  -0.425 -14.984  1.00 35.49    -0.212 N 
ATOM      6  CZ  ARG D 557     -24.061  -1.396 -14.658  1.00 35.49     0.666 C 
ATOM      7  NH1 ARG D 557     -23.005  -1.706 -15.387  1.00 35.49    -0.235 N 
ATOM      8  NH2 ARG D 557     -24.316  -2.058 -13.566  1.00 35.49    -0.235 N 
ATOM      9  HH  ARG D 557     -22.817  -1.283 -16.108  1.00 35.49     0.174 HD
ATOM     10  HH  ARG D 557     -22.502  -2.348 -15.124  1.00 35.49     0.174 HD
ATOM     11  HH  ARG D 557     -25.000  -1.831 -13.111  1.00 35.49     0.174 HD
ATOM     12  HH  ARG D 557     -23.805  -2.689 -13.321  1.00 35.49     0.174 HD
ATOM     13  HE  ARG D 557     -25.576  -0.342 -14.497  1.00 35.49     0.178 HD
ENDBRANCH   4   5
ENDBRANCH   3   4
ENDBRANCH   2   3
ENDBRANCH   1   2
END_RES ARG D 557
BEGIN_RES GLU D 570
REMARK  3 active torsions:
REMARK  status: ('A' for Active; 'I' for Inactive)
REMARK    5  A    between atoms: CA   and  CB  
REMARK    6  A    between atoms: CB   and  CG  
REMARK    7  A    between atoms: CG   and  CD  
ROOT
ATOM     14  CA  GLU D 570     -18.033  -6.348 -13.375  1.00 32.92     0.160 C 
ENDROOT
BRANCH  14  15
ATOM     15  CB  GLU D 570     -19.500  -6.345 -13.794  1.00 32.92     0.043 C 
BRANCH  15  16
ATOM     16  CG  GLU D 570     -20.435  -5.500 -13.007  1.00 32.92     0.100 C 
BRANCH  16  17
ATOM     17  CD  GLU D 570     -21.749  -5.259 -13.714  1.00 32.92     0.185 C 
ATOM     18  OE1 GLU D 570     -22.245  -6.176 -14.396  1.00 32.92    -0.647 OA
ATOM     19  OE2 GLU D 570     -22.279  -4.137 -13.597  1.00 32.92    -0.647 OA
ENDBRANCH  16  17
ENDBRANCH  15  16
ENDBRANCH  14  15
END_RES GLU D 570
ENDMDL
MODEL 2
REMARK VINA RESULT:      -7.5      2.577      5.886
REMARK  12 active torsions:
REMARK  status: ('A' for Active; 'I' for Inactive)
REMARK    1  A    between atoms: C_6  and  O_11 
REMARK    2  A    between atoms: C_7  and  C_8 
REMARK    3  A    between atoms: C_8  and  O_10 
REMARK    4  A    between atoms: C_18  and  O_35 
REMARK    5  A    between atoms: C_19  and  C_24 
REMARK    6  A    between atoms: C_20  and  O_23 
REMARK    7  A    between atoms: C_21  and  O_22 
REMARK    8  A    between atoms: C_25  and  O_34 
REMARK    9  A    between atoms: C_26  and  O_33 
REMARK   10  A    between atoms: C_27  and  O_32 
REMARK   11  A    between atoms: C_28  and  C_30 
REMARK   12  A    between atoms: C_30  and  O_31 
ROOT
HETATM    1  C   UNL     1     -20.803 -10.103   0.505  1.00  0.00     0.050 C 
HETATM    2  C   UNL     1     -20.881  -9.186  -0.704  1.00  0.00    -0.027 A 
HETATM    3  C   UNL     1     -20.091  -9.381  -1.885  1.00  0.00     0.036 A 
HETATM    4  C   UNL     1     -20.199  -8.510  -2.975  1.00  0.00     0.032 A 
HETATM    5  C   UNL     1     -21.077  -7.423  -2.909  1.00  0.00     0.054 A 
HETATM    6  C   UNL     1     -21.847  -7.212  -1.765  1.00  0.00     0.084 A 
HETATM    7  C   UNL     1     -21.780  -8.072  -0.650  1.00  0.00     0.077 A 
HETATM    8  C   UNL     1     -19.415  -8.681  -4.235  1.00  0.00     0.197 A 
HETATM    9  O   UNL     1     -19.597  -7.871  -5.132  1.00  0.00    -0.286 OA
HETATM   10  C   UNL     1     -18.448  -9.793  -4.356  1.00  0.00     0.068 A 
HETATM   11  C   UNL     1     -18.304 -10.629  -3.264  1.00  0.00     0.066 A 
HETATM   12  C   UNL     1     -19.140 -10.501  -2.054  1.00  0.00     0.197 A 
HETATM   13  O   UNL     1     -19.026 -11.384  -1.213  1.00  0.00    -0.286 OA
HETATM   14  C   UNL     1     -17.369 -11.667  -3.330  1.00  0.00     0.092 A 
HETATM   15  C   UNL     1     -16.613 -11.982  -4.492  1.00  0.00     0.043 A 
HETATM   16  C   UNL     1     -16.768 -11.140  -5.579  1.00  0.00     0.111 A 
HETATM   17  C   UNL     1     -17.670 -10.047  -5.504  1.00  0.00     0.115 A 
ENDROOT
BRANCH  15  18
HETATM   18  C   UNL     1     -15.812 -13.263  -4.331  1.00  0.00     0.192 C 
HETATM   19  C   UNL     1     -15.567 -13.898  -5.729  1.00  0.00     0.183 C 
HETATM   20  C   UNL     1     -15.562 -15.408  -5.492  1.00  0.00     0.181 C 
HETATM   21  C   UNL     1     -14.479 -15.795  -4.472  1.00  0.00     0.180 C 
HETATM   22  C   UNL     1     -14.589 -14.915  -3.194  1.00  0.00     0.177 C 
HETATM   23  O   UNL     1     -14.615 -13.462  -3.527  1.00  0.00    -0.368 OA
BRANCH  19  24
HETATM   24  O   UNL     1     -14.349 -13.430  -6.332  1.00  0.00    -0.390 OA
HETATM   25  H   UNL     1     -14.571 -12.698  -6.927  1.00  0.00     0.210 HD
ENDBRANCH  19  24
BRANCH  20  26
HETATM   26  O   UNL     1     -15.398 -16.113  -6.719  1.00  0.00    -0.390 OA
HETATM   27  H   UNL     1     -15.985 -15.660  -7.355  1.00  0.00     0.210 HD
ENDBRANCH  20  26
BRANCH  21  28
HETATM   28  O   UNL     1     -13.190 -15.694  -5.095  1.00  0.00    -0.390 OA
HETATM   29  H   UNL     1     -12.497 -15.964  -4.471  1.00  0.00     0.210 HD
ENDBRANCH  21  28
BRANCH  22  30
HETATM   30  C   UNL     1     -13.498 -15.283  -2.182  1.00  0.00     0.198 C 
BRANCH  30  31
HETATM   31  O   UNL     1     -12.262 -14.677  -2.539  1.00  0.00    -0.398 OA
HETATM   32  H   UNL     1     -12.339 -13.732  -2.320  1.00  0.00     0.209 HD
ENDBRANCH  30  31
ENDBRANCH  22  30
ENDBRANCH  15  18
BRANCH  14  33
HETATM   33  O   UNL     1     -17.144 -12.477  -2.230  1.00  0.00    -0.359 OA
HETATM   34  H   UNL     1     -18.005 -12.702  -1.806  1.00  0.00     0.217 HD
ENDBRANCH  14  33
BRANCH  16  35
HETATM   35  O   UNL     1     -16.085 -11.296  -6.753  1.00  0.00    -0.357 OA
HETATM   36  H   UNL     1     -16.476 -12.040  -7.248  1.00  0.00     0.217 HD
ENDBRANCH  16  35
BRANCH  17  37
HETATM   37  O   UNL     1     -17.774  -9.243  -6.609  1.00  0.00    -0.357 OA
HETATM   38  H   UNL     1     -17.955  -9.831  -7.368  1.00  0.00     0.217 HD
ENDBRANCH  17  37
BRANCH   7  39
HETATM   39  C   UNL     1     -22.635  -7.812   0.581  1.00  0.00     0.179 C 
HETATM   40  O   UNL     1     -22.193  -7.633   1.708  1.00  0.00    -0.646 OA
BRANCH  39  41
HETATM   41  O   UNL     1     -23.962  -7.789   0.375  1.00  0.00    -0.773 OA
HETATM   42  H   UNL     1     -24.462  -7.400   1.124  1.00  0.00     0.167 HD
ENDBRANCH  39  41
ENDBRANCH   7  39
BRANCH   6  43
HETATM   43  O   UNL     1     -22.681  -6.121  -1.762  1.00  0.00    -0.360 OA
HETATM   44  H   UNL     1     -22.735  -5.762  -0.854  1.00  0.00     0.217 HD
ENDBRANCH   6  43
TORSDOF 12
BEGIN_RES ARG D 557
REMARK  4 active torsions:
REMARK  status: ('A' for Active; 'I' for Inactive)
REMARK    1  A    between atoms: CA   and  CB  
REMARK    2  A    between atoms: CB   and  CG  
REMARK    3  A    between atoms: CG   and  CD  
REMARK    4  A    between atoms: CD   and  NE  
REMARK       I    between atoms: NE   and  CZ  
REMARK       I    between atoms: CZ   and  NH1 
REMARK       I    between atoms: CZ   and  NH2 
ROOT
ATOM      1  CA  ARG D 557     -26.217   2.705 -17.014  1.00 35.49     0.159 C 
ENDROOT
BRANCH   1   2
ATOM      2  CB  ARG D 557     -26.789   1.319 -17.183  1.00 35.49     0.034 C 
BRANCH   2   3
ATOM      3  CG  ARG D 557     -25.838   0.201 -17.134  1.00 35.49     0.027 C 
BRANCH   3   4
ATOM      4  CD  ARG D 557     -24.760   0.421 -16.143  1.00 35.49     0.116 C 
BRANCH   4   5
ATOM      5  NE  ARG D 557     -24.896  -0.435 -14.995  1.00 35.49    -0.212 N 
ATOM      6  CZ  ARG D 557     -24.079  -1.410 -14.662  1.00 35.49     0.666 C 
ATOM      7  NH1 ARG D 557     -23.018  -1.723 -15.383  1.00 35.49    -0.235 N 
ATOM      8  NH2 ARG D 557     -24.346  -2.071 -13.573  1.00 35.49    -0.235 N 
ATOM      9  HH  ARG D 557     -22.823  -1.300 -16.102  1.00 35.49     0.174 HD
ATOM     10  HH  ARG D 557     -22.520  -2.367 -15.115  1.00 35.49     0.174 HD
ATOM     11  HH  ARG D 557     -25.033  -1.842 -13.124  1.00 35.49     0.174 HD
ATOM     12  HH  ARG D 557     -23.839  -2.704 -13.324  1.00 35.49     0.174 HD
ATOM     13  HE  ARG D 557     -25.592  -0.351 -14.514  1.00 35.49     0.178 HD
ENDBRANCH   4   5
ENDBRANCH   3   4
ENDBRANCH   2   3
ENDBRANCH   1   2
END_RES ARG D 557
BEGIN_RES GLU D 570
REMARK  3 active torsions:
REMARK  status: ('A' for Active; 'I' for Inactive)
REMARK    5  A    between atoms: CA   and  CB  
REMARK    6  A    between atoms: CB   and  CG  
REMARK    7  A    between atoms: CG   and  CD  
ROOT
ATOM     14  CA  GLU D 570     -18.033  -6.348 -13.375  1.00 32.92     0.160 C 
ENDROOT
BRANCH  14  15
ATOM     15  CB  GLU D 570     -19.500  -6.345 -13.794  1.00 32.92     0.043 C 
BRANCH  15  16
ATOM     16  CG  GLU D 570     -20.445  -5.545 -12.972  1.00 32.92     0.100 C 
BRANCH  16  17
ATOM     17  CD  GLU D 570     -21.727  -5.216 -13.701  1.00 32.92     0.185 C 
ATOM     18  OE1 GLU D 570     -22.285  -4.124 -13.481  1.00 32.92    -0.647 OA
ATOM     19  OE2 GLU D 570     -22.187  -6.067 -14.488  1.00 32.92    -0.647 OA
ENDBRANCH  16  17
ENDBRANCH  15  16
ENDBRANCH  14  15
END_RES GLU D 570
ENDMDL
MODEL 3
REMARK VINA RESULT:      -6.7      2.328      9.274
REMARK  12 active torsions:
REMARK  status: ('A' for Active; 'I' for Inactive)
REMARK    1  A    between atoms: C_6  and  O_11 
REMARK    2  A    between atoms: C_7  and  C_8 
REMARK    3  A    between atoms: C_8  and  O_10 
REMARK    4  A    between atoms: C_18  and  O_35 
REMARK    5  A    between atoms: C_19  and  C_24 
REMARK    6  A    between atoms: C_20  and  O_23 
REMARK    7  A    between atoms: C_21  and  O_22 
REMARK    8  A    between atoms: C_25  and  O_34 
REMARK    9  A    between atoms: C_26  and  O_33 
REMARK   10  A    between atoms: C_27  and  O_32 
REMARK   11  A    between atoms: C_28  and  C_30 
REMARK   12  A    between atoms: C_30  and  O_31 
ROOT
HETATM    1  C   UNL     1     -15.961 -12.885   1.123  1.00  0.00     0.050 C 
HETATM    2  C   UNL     1     -15.222 -13.236  -0.159  1.00  0.00    -0.027 A 
HETATM    3  C   UNL     1     -15.547 -12.658  -1.431  1.00  0.00     0.036 A 
HETATM    4  C   UNL     1     -14.836 -13.013  -2.583  1.00  0.00     0.032 A 
HETATM    5  C   UNL     1     -13.806 -13.955  -2.500  1.00  0.00     0.054 A 
HETATM    6  C   UNL     1     -13.482 -14.534  -1.273  1.00  0.00     0.084 A 
HETATM    7  C   UNL     1     -14.163 -14.196  -0.085  1.00  0.00     0.077 A 
HETATM    8  C   UNL     1     -15.120 -12.425  -3.927  1.00  0.00     0.197 A 
HETATM    9  O   UNL     1     -14.429 -12.794  -4.865  1.00  0.00    -0.286 OA
HETATM   10  C   UNL     1     -16.215 -11.446  -4.087  1.00  0.00     0.068 A 
HETATM   11  C   UNL     1     -16.950 -11.128  -2.960  1.00  0.00     0.066 A 
HETATM   12  C   UNL     1     -16.613 -11.652  -1.621  1.00  0.00     0.197 A 
HETATM   13  O   UNL     1     -17.239 -11.188  -0.677  1.00  0.00    -0.286 OA
HETATM   14  C   UNL     1     -18.020 -10.235  -3.083  1.00  0.00     0.092 A 
HETATM   15  C   UNL     1     -18.349  -9.553  -4.286  1.00  0.00     0.043 A 
HETATM   16  C   UNL     1     -17.605  -9.878  -5.407  1.00  0.00     0.111 A 
HETATM   17  C   UNL     1     -16.556 -10.827  -5.307  1.00  0.00     0.115 A 
ENDROOT
BRANCH  15  18
HETATM   18  C   UNL     1     -19.442  -8.517  -4.082  1.00  0.00     0.192 C 
HETATM   19  C   UNL     1     -19.959  -8.032  -5.467  1.00  0.00     0.183 C 
HETATM   20  C   UNL     1     -20.338  -6.565  -5.266  1.00  0.00     0.181 C 
HETATM   21  C   UNL     1     -21.397  -6.424  -4.161  1.00  0.00     0.180 C 
HETATM   22  C   UNL     1     -20.956  -7.186  -2.877  1.00  0.00     0.177 C 
HETATM   23  O   UNL     1     -20.579  -8.596  -3.177  1.00  0.00    -0.368 OA
BRANCH  19  24
HETATM   24  O   UNL     1     -21.057  -8.826  -5.944  1.00  0.00    -0.390 OA
HETATM   25  H   UNL     1     -20.827  -9.156  -6.827  1.00  0.00     0.210 HD
ENDBRANCH  19  24
BRANCH  20  26
HETATM   26  O   UNL     1     -20.781  -5.985  -6.489  1.00  0.00    -0.390 OA
HETATM   27  H   UNL     1     -19.984  -5.930  -7.050  1.00  0.00     0.210 HD
ENDBRANCH  20  26
BRANCH  21  28
HETATM   28  O   UNL     1     -22.662  -6.884  -4.660  1.00  0.00    -0.390 OA
HETATM   29  H   UNL     1     -22.703  -6.762  -5.622  1.00  0.00     0.210 HD
ENDBRANCH  21  28
BRANCH  22  30
HETATM   30  C   UNL     1     -22.018  -7.066  -1.779  1.00  0.00     0.198 C 
BRANCH  30  31
HETATM   31  O   UNL     1     -22.679  -5.809  -1.859  1.00  0.00    -0.398 OA
HETATM   32  H   UNL     1     -22.242  -5.221  -1.220  1.00  0.00     0.209 HD
ENDBRANCH  30  31
ENDBRANCH  22  30
ENDBRANCH  15  18
BRANCH  14  33
HETATM   33  O   UNL     1     -18.824  -9.951  -1.993  1.00  0.00    -0.359 OA
HETATM   34  H   UNL     1     -19.572  -9.374  -2.278  1.00  0.00     0.217 HD
ENDBRANCH  14  33
BRANCH  16  35
HETATM   35  O   UNL     1     -17.826  -9.329  -6.640  1.00  0.00    -0.357 OA
HETATM   36  H   UNL     1     -17.556  -9.972  -7.323  1.00  0.00     0.217 HD
ENDBRANCH  16  35
BRANCH  17  37
HETATM   37  O   UNL     1     -15.860 -11.114  -6.453  1.00  0.00    -0.357 OA
HETATM   38  H   UNL     1     -16.488 -11.016  -7.194  1.00  0.00     0.217 HD
ENDBRANCH  17  37
BRANCH   7  39
HETATM   39  C   UNL     1     -13.783 -14.847   1.237  1.00  0.00     0.179 C 
HETATM   40  O   UNL     1     -14.532 -15.544   1.908  1.00  0.00    -0.646 OA
BRANCH  39  41
HETATM   41  O   UNL     1     -12.531 -14.614   1.663  1.00  0.00    -0.773 OA
HETATM   42  H   UNL     1     -12.483 -13.927   2.361  1.00  0.00     0.167 HD
ENDBRANCH  39  41
ENDBRANCH   7  39
BRANCH   6  43
HETATM   43  O   UNL     1     -12.468 -15.459  -1.262  1.00  0.00    -0.360 OA
HETATM   44  H   UNL     1     -11.608 -14.993  -1.239  1.00  0.00     0.217 HD
ENDBRANCH   6  43
TORSDOF 12
BEGIN_RES ARG D 557
REMARK  4 active torsions:
REMARK  status: ('A' for Active; 'I' for Inactive)
REMARK    1  A    between atoms: CA   and  CB  
REMARK    2  A    between atoms: CB   and  CG  
REMARK    3  A    between atoms: CG   and  CD  
REMARK    4  A    between atoms: CD   and  NE  
REMARK       I    between atoms: NE   and  CZ  
REMARK       I    between atoms: CZ   and  NH1 
REMARK       I    between atoms: CZ   and  NH2 
ROOT
ATOM      1  CA  ARG D 557     -26.217   2.705 -17.014  1.00 35.49     0.159 C 
ENDROOT
BRANCH   1   2
ATOM      2  CB  ARG D 557     -26.789   1.319 -17.183  1.00 35.49     0.034 C 
BRANCH   2   3
ATOM      3  CG  ARG D 557     -25.837   0.202 -17.143  1.00 35.49     0.027 C 
BRANCH   3   4
ATOM      4  CD  ARG D 557     -24.753   0.420 -16.159  1.00 35.49     0.116 C 
BRANCH   4   5
ATOM      5  NE  ARG D 557     -24.887  -0.432 -15.007  1.00 35.49    -0.212 N 
ATOM      6  CZ  ARG D 557     -24.066  -1.402 -14.669  1.00 35.49     0.666 C 
ATOM      7  NH1 ARG D 557     -23.003  -1.713 -15.386  1.00 35.49    -0.235 N 
ATOM      8  NH2 ARG D 557     -24.331  -2.059 -13.577  1.00 35.49    -0.235 N 
ATOM      9  HH  ARG D 557     -22.808  -1.292 -16.107  1.00 35.49     0.174 HD
ATOM     10  HH  ARG D 557     -22.502  -2.353 -15.115  1.00 35.49     0.174 HD
ATOM     11  HH  ARG D 557     -25.021  -1.831 -13.130  1.00 35.49     0.174 HD
ATOM     12  HH  ARG D 557     -23.822  -2.689 -13.325  1.00 35.49     0.174 HD
ATOM     13  HE  ARG D 557     -25.584  -0.349 -14.527  1.00 35.49     0.178 HD
ENDBRANCH   4   5
ENDBRANCH   3   4
ENDBRANCH   2   3
ENDBRANCH   1   2
END_RES ARG D 557
BEGIN_RES GLU D 570
REMARK  3 active torsions:
REMARK  status: ('A' for Active; 'I' for Inactive)
REMARK    5  A    between atoms: CA   and  CB  
REMARK    6  A    between atoms: CB   and  CG  
REMARK    7  A    between atoms: CG   and  CD  
ROOT
ATOM     14  CA  GLU D 570     -18.033  -6.348 -13.375  1.00 32.92     0.160 C 
ENDROOT
BRANCH  14  15
ATOM     15  CB  GLU D 570     -19.500  -6.345 -13.794  1.00 32.92     0.043 C 
BRANCH  15  16
ATOM     16  CG  GLU D 570     -20.445  -5.547 -12.971  1.00 32.92     0.100 C 
BRANCH  16  17
ATOM     17  CD  GLU D 570     -21.723  -5.209 -13.703  1.00 32.92     0.185 C 
ATOM     18  OE1 GLU D 570     -22.286  -4.123 -13.467  1.00 32.92    -0.647 OA
ATOM     19  OE2 GLU D 570     -22.175  -6.046 -14.508  1.00 32.92    -0.647 OA
ENDBRANCH  16  17
ENDBRANCH  15  16
ENDBRANCH  14  15
END_RES GLU D 570
ENDMDL
MODEL 4
REMARK VINA RESULT:      -6.4      2.877      5.856
REMARK  12 active torsions:
REMARK  status: ('A' for Active; 'I' for Inactive)
REMARK    1  A    between atoms: C_6  and  O_11 
REMARK    2  A    between atoms: C_7  and  C_8 
REMARK    3  A    between atoms: C_8  and  O_10 
REMARK    4  A    between atoms: C_18  and  O_35 
REMARK    5  A    between atoms: C_19  and  C_24 
REMARK    6  A    between atoms: C_20  and  O_23 
REMARK    7  A    between atoms: C_21  and  O_22 
REMARK    8  A    between atoms: C_25  and  O_34 
REMARK    9  A    between atoms: C_26  and  O_33 
REMARK   10  A    between atoms: C_27  and  O_32 
REMARK   11  A    between atoms: C_28  and  C_30 
REMARK   12  A    between atoms: C_30  and  O_31 
ROOT
HETATM    1  C   UNL     1     -21.212  -8.318  -1.610  1.00  0.00     0.050 C 
HETATM    2  C   UNL     1     -20.462  -8.428  -2.927  1.00  0.00    -0.027 A 
HETATM    3  C   UNL     1     -19.394  -9.361  -3.142  1.00  0.00     0.036 A 
HETATM    4  C   UNL     1     -18.734  -9.425  -4.375  1.00  0.00     0.032 A 
HETATM    5  C   UNL     1     -19.108  -8.560  -5.408  1.00  0.00     0.054 A 
HETATM    6  C   UNL     1     -20.139  -7.640  -5.214  1.00  0.00     0.084 A 
HETATM    7  C   UNL     1     -20.839  -7.550  -3.993  1.00  0.00     0.077 A 
HETATM    8  C   UNL     1     -17.631 -10.392  -4.657  1.00  0.00     0.197 A 
HETATM    9  O   UNL     1     -17.132 -10.375  -5.773  1.00  0.00    -0.286 OA
HETATM   10  C   UNL     1     -17.169 -11.314  -3.598  1.00  0.00     0.068 A 
HETATM   11  C   UNL     1     -17.787 -11.221  -2.364  1.00  0.00     0.066 A 
HETATM   12  C   UNL     1     -18.929 -10.319  -2.118  1.00  0.00     0.197 A 
HETATM   13  O   UNL     1     -19.490 -10.429  -1.034  1.00  0.00    -0.286 OA
HETATM   14  C   UNL     1     -17.348 -12.051  -1.328  1.00  0.00     0.092 A 
HETATM   15  C   UNL     1     -16.359 -13.060  -1.483  1.00  0.00     0.043 A 
HETATM   16  C   UNL     1     -15.750 -13.145  -2.723  1.00  0.00     0.111 A 
HETATM   17  C   UNL     1     -16.145 -12.269  -3.766  1.00  0.00     0.115 A 
ENDROOT
BRANCH  15  18
HETATM   18  C   UNL     1     -16.211 -13.921  -0.240  1.00  0.00     0.192 C 
HETATM   19  C   UNL     1     -14.921 -13.507   0.524  1.00  0.00     0.183 C 
HETATM   20  C   UNL     1     -14.396 -14.795   1.159  1.00  0.00     0.181 C 
HETATM   21  C   UNL     1     -15.455 -15.415   2.084  1.00  0.00     0.180 C 
HETATM   22  C   UNL     1     -16.822 -15.537   1.352  1.00  0.00     0.177 C 
HETATM   23  O   UNL     1     -17.236 -14.241   0.742  1.00  0.00    -0.368 OA
BRANCH  19  24
HETATM   24  O   UNL     1     -15.173 -12.476   1.493  1.00  0.00    -0.390 OA
HETATM   25  H   UNL     1     -14.610 -12.646   2.264  1.00  0.00     0.210 HD
ENDBRANCH  19  24
BRANCH  20  26
HETATM   26  O   UNL     1     -13.175 -14.556   1.851  1.00  0.00    -0.390 OA
HETATM   27  H   UNL     1     -13.433 -14.116   2.684  1.00  0.00     0.210 HD
ENDBRANCH  20  26
BRANCH  21  28
HETATM   28  O   UNL     1     -15.547 -14.632   3.284  1.00  0.00    -0.390 OA
HETATM   29  H   UNL     1     -15.154 -13.756   3.141  1.00  0.00     0.210 HD
ENDBRANCH  21  28
BRANCH  22  30
HETATM   30  C   UNL     1     -17.887 -16.136   2.277  1.00  0.00     0.198 C 
BRANCH  30  31
HETATM   31  O   UNL     1     -17.276 -16.872   3.329  1.00  0.00    -0.398 OA
HETATM   32  H   UNL     1     -17.996 -17.281   3.840  1.00  0.00     0.209 HD
ENDBRANCH  30  31
ENDBRANCH  22  30
ENDBRANCH  15  18
BRANCH  14  33
HETATM   33  O   UNL     1     -17.891 -11.935  -0.060  1.00  0.00    -0.359 OA
HETATM   34  H   UNL     1     -18.421 -12.741   0.146  1.00  0.00     0.217 HD
ENDBRANCH  14  33
BRANCH  16  35
HETATM   35  O   UNL     1     -14.760 -14.043  -3.014  1.00  0.00    -0.357 OA
HETATM   36  H   UNL     1     -13.978 -13.556  -3.335  1.00  0.00     0.217 HD
ENDBRANCH  16  35
BRANCH  17  37
HETATM   37  O   UNL     1     -15.499 -12.393  -4.969  1.00  0.00    -0.357 OA
HETATM   38  H   UNL     1     -16.150 -12.760  -5.599  1.00  0.00     0.217 HD
ENDBRANCH  17  37
BRANCH   7  39
HETATM   39  C   UNL     1     -21.959  -6.535  -3.817  1.00  0.00     0.179 C 
HETATM   40  O   UNL     1     -22.192  -5.932  -2.778  1.00  0.00    -0.646 OA
BRANCH  39  41
HETATM   41  O   UNL     1     -22.724  -6.317  -4.899  1.00  0.00    -0.773 OA
HETATM   42  H   UNL     1     -23.586  -5.901  -4.684  1.00  0.00     0.167 HD
ENDBRANCH  39  41
ENDBRANCH   7  39
BRANCH   6  43
HETATM   43  O   UNL     1     -20.449  -6.812  -6.265  1.00  0.00    -0.360 OA
HETATM   44  H   UNL     1     -21.264  -6.316  -6.053  1.00  0.00     0.217 HD
ENDBRANCH   6  43
TORSDOF 12
BEGIN_RES ARG D 557
REMARK  4 active torsions:
REMARK  status: ('A' for Active; 'I' for Inactive)
REMARK    1  A    between atoms: CA   and  CB  
REMARK    2  A    between atoms: CB   and  CG  
REMARK    3  A    between atoms: CG   and  CD  
REMARK    4  A    between atoms: CD   and  NE  
REMARK       I    between atoms: NE   and  CZ  
REMARK       I    between atoms: CZ   and  NH1 
REMARK       I    between atoms: CZ   and  NH2 
ROOT
ATOM      1  CA  ARG D 557     -26.217   2.705 -17.014  1.00 35.49     0.159 C 
ENDROOT
BRANCH   1   2
ATOM      2  CB  ARG D 557     -26.789   1.319 -17.183  1.00 35.49     0.034 C 
BRANCH   2   3
ATOM      3  CG  ARG D 557     -25.840   0.201 -17.122  1.00 35.49     0.027 C 
BRANCH   3   4
ATOM      4  CD  ARG D 557     -24.770   0.423 -16.123  1.00 35.49     0.116 C 
BRANCH   4   5
ATOM      5  NE  ARG D 557     -24.911  -0.435 -14.977  1.00 35.49    -0.212 N 
ATOM      6  CZ  ARG D 557     -24.116  -1.433 -14.661  1.00 35.49     0.666 C 
ATOM      7  NH1 ARG D 557     -23.075  -1.771 -15.398  1.00 35.49    -0.235 N 
ATOM      8  NH2 ARG D 557     -24.384  -2.092 -13.571  1.00 35.49    -0.235 N 
ATOM      9  HH  ARG D 557     -22.879  -1.350 -16.119  1.00 35.49     0.174 HD
ATOM     10  HH  ARG D 557     -22.590  -2.429 -15.141  1.00 35.49     0.174 HD
ATOM     11  HH  ARG D 557     -25.059  -1.846 -13.110  1.00 35.49     0.174 HD
ATOM     12  HH  ARG D 557     -23.891  -2.739 -13.332  1.00 35.49     0.174 HD
ATOM     13  HE  ARG D 557     -25.598  -0.335 -14.485  1.00 35.49     0.178 HD
ENDBRANCH   4   5
ENDBRANCH   3   4
ENDBRANCH   2   3
ENDBRANCH   1   2
END_RES ARG D 557
BEGIN_RES GLU D 570
REMARK  3 active torsions:
REMARK  status: ('A' for Active; 'I' for Inactive)
REMARK    5  A    between atoms: CA   and  CB  
REMARK    6  A    between atoms: CB   and  CG  
REMARK    7  A    between atoms: CG   and  CD  
ROOT
ATOM     14  CA  GLU D 570     -18.033  -6.348 -13.375  1.00 32.92     0.160 C 
ENDROOT
BRANCH  14  15
ATOM     15  CB  GLU D 570     -19.500  -6.345 -13.794  1.00 32.92     0.043 C 
BRANCH  15  16
ATOM     16  CG  GLU D 570     -20.448  -5.558 -12.963  1.00 32.92     0.100 C 
BRANCH  16  17
ATOM     17  CD  GLU D 570     -21.675  -5.118 -13.726  1.00 32.92     0.185 C 
ATOM     18  OE1 GLU D 570     -21.985  -5.718 -14.773  1.00 32.92    -0.647 OA
ATOM     19  OE2 GLU D 570     -22.325  -4.152 -13.280  1.00 32.92    -0.647 OA
ENDBRANCH  16  17
ENDBRANCH  15  16
ENDBRANCH  14  15
END_RES GLU D 570
ENDMDL
MODEL 5
REMARK VINA RESULT:      -6.4      2.141      4.264
REMARK  12 active torsions:
REMARK  status: ('A' for Active; 'I' for Inactive)
REMARK    1  A    between atoms: C_6  and  O_11 
REMARK    2  A    between atoms: C_7  and  C_8 
REMARK    3  A    between atoms: C_8  and  O_10 
REMARK    4  A    between atoms: C_18  and  O_35 
REMARK    5  A    between atoms: C_19  and  C_24 
REMARK    6  A    between atoms: C_20  and  O_23 
REMARK    7  A    between atoms: C_21  and  O_22 
REMARK    8  A    between atoms: C_25  and  O_34 
REMARK    9  A    between atoms: C_26  and  O_33 
REMARK   10  A    between atoms: C_27  and  O_32 
REMARK   11  A    between atoms: C_28  and  C_30 
REMARK   12  A    between atoms: C_30  and  O_31 
ROOT
HETATM    1  C   UNL     1     -19.503  -7.456  -6.225  1.00  0.00     0.050 C 
HETATM    2  C   UNL     1     -20.075  -7.607  -4.825  1.00  0.00    -0.027 A 
HETATM    3  C   UNL     1     -19.668  -8.645  -3.923  1.00  0.00     0.036 A 
HETATM    4  C   UNL     1     -20.223  -8.742  -2.642  1.00  0.00     0.032 A 
HETATM    5  C   UNL     1     -21.201  -7.826  -2.238  1.00  0.00     0.054 A 
HETATM    6  C   UNL     1     -21.615  -6.816  -3.106  1.00  0.00     0.084 A 
HETATM    7  C   UNL     1     -21.073  -6.672  -4.400  1.00  0.00     0.077 A 
HETATM    8  C   UNL     1     -19.819  -9.790  -1.657  1.00  0.00     0.197 A 
HETATM    9  O   UNL     1     -20.357  -9.776  -0.559  1.00  0.00    -0.286 OA
HETATM   10  C   UNL     1     -18.813 -10.806  -2.032  1.00  0.00     0.068 A 
HETATM   11  C   UNL     1     -18.296 -10.742  -3.313  1.00  0.00     0.066 A 
HETATM   12  C   UNL     1     -18.641  -9.656  -4.252  1.00  0.00     0.197 A 
HETATM   13  O   UNL     1     -18.011  -9.619  -5.302  1.00  0.00    -0.286 OA
HETATM   14  C   UNL     1     -17.371 -11.711  -3.715  1.00  0.00     0.092 A 
HETATM   15  C   UNL     1     -16.850 -12.716  -2.855  1.00  0.00     0.043 A 
HETATM   16  C   UNL     1     -17.374 -12.769  -1.575  1.00  0.00     0.111 A 
HETATM   17  C   UNL     1     -18.356 -11.827  -1.174  1.00  0.00     0.115 A 
ENDROOT
BRANCH  15  18
HETATM   18  C   UNL     1     -15.736 -13.515  -3.509  1.00  0.00     0.192 C 
HETATM   19  C   UNL     1     -14.660 -13.868  -2.442  1.00  0.00     0.183 C 
HETATM   20  C   UNL     1     -13.329 -13.869  -3.195  1.00  0.00     0.181 C 
HETATM   21  C   UNL     1     -13.362 -14.878  -4.354  1.00  0.00     0.180 C 
HETATM   22  C   UNL     1     -14.630 -14.667  -5.231  1.00  0.00     0.177 C 
HETATM   23  O   UNL     1     -15.872 -14.652  -4.407  1.00  0.00    -0.368 OA
BRANCH  19  24
HETATM   24  O   UNL     1     -14.928 -15.122  -1.795  1.00  0.00    -0.390 OA
HETATM   25  H   UNL     1     -14.459 -15.128  -0.946  1.00  0.00     0.210 HD
ENDBRANCH  19  24
BRANCH  20  26
HETATM   26  O   UNL     1     -12.246 -14.129  -2.308  1.00  0.00    -0.390 OA
HETATM   27  H   UNL     1     -11.942 -13.251  -2.009  1.00  0.00     0.210 HD
ENDBRANCH  20  26
BRANCH  21  28
HETATM   28  O   UNL     1     -13.283 -16.209  -3.821  1.00  0.00    -0.390 OA
HETATM   29  H   UNL     1     -12.357 -16.497  -3.783  1.00  0.00     0.210 HD
ENDBRANCH  21  28
BRANCH  22  30
HETATM   30  C   UNL     1     -14.678 -15.685  -6.377  1.00  0.00     0.198 C 
BRANCH  30  31
HETATM   31  O   UNL     1     -13.363 -16.050  -6.774  1.00  0.00    -0.398 OA
HETATM   32  H   UNL     1     -13.280 -17.008  -6.622  1.00  0.00     0.209 HD
ENDBRANCH  30  31
ENDBRANCH  22  30
ENDBRANCH  15  18
BRANCH  14  33
HETATM   33  O   UNL     1     -16.888 -11.723  -5.012  1.00  0.00    -0.359 OA
HETATM   34  H   UNL     1     -16.544 -12.623  -5.226  1.00  0.00     0.217 HD
ENDBRANCH  14  33
BRANCH  16  35
HETATM   35  O   UNL     1     -16.996 -13.699  -0.646  1.00  0.00    -0.357 OA
HETATM   36  H   UNL     1     -16.989 -14.579  -1.068  1.00  0.00     0.217 HD
ENDBRANCH  16  35
BRANCH  17  37
HETATM   37  O   UNL     1     -18.844 -11.935   0.103  1.00  0.00    -0.357 OA
HETATM   38  H   UNL     1     -19.557 -11.272   0.186  1.00  0.00     0.217 HD
ENDBRANCH  17  37
BRANCH   7  39
HETATM   39  C   UNL     1     -21.548  -5.558  -5.319  1.00  0.00     0.179 C 
HETATM   40  O   UNL     1     -20.834  -4.665  -5.755  1.00  0.00    -0.646 OA
BRANCH  39  41
HETATM   41  O   UNL     1     -22.850  -5.589  -5.649  1.00  0.00    -0.773 OA
HETATM   42  H   UNL     1     -23.363  -6.243  -5.129  1.00  0.00     0.167 HD
ENDBRANCH  39  41
ENDBRANCH   7  39
BRANCH   6  43
HETATM   43  O   UNL     1     -22.585  -5.957  -2.652  1.00  0.00    -0.360 OA
HETATM   44  H   UNL     1     -23.325  -5.942  -3.291  1.00  0.00     0.217 HD
ENDBRANCH   6  43
TORSDOF 12
BEGIN_RES ARG D 557
REMARK  4 active torsions:
REMARK  status: ('A' for Active; 'I' for Inactive)
REMARK    1  A    between atoms: CA   and  CB  
REMARK    2  A    between atoms: CB   and  CG  
REMARK    3  A    between atoms: CG   and  CD  
REMARK    4  A    between atoms: CD   and  NE  
REMARK       I    between atoms: NE   and  CZ  
REMARK       I    between atoms: CZ   and  NH1 
REMARK       I    between atoms: CZ   and  NH2 
ROOT
ATOM      1  CA  ARG D 557     -26.217   2.705 -17.014  1.00 35.49     0.159 C 
ENDROOT
BRANCH   1   2
ATOM      2  CB  ARG D 557     -26.789   1.319 -17.183  1.00 35.49     0.034 C 
BRANCH   2   3
ATOM      3  CG  ARG D 557     -25.877   0.194 -16.944  1.00 35.49     0.027 C 
BRANCH   3   4
ATOM      4  CD  ARG D 557     -26.339  -0.683 -15.844  1.00 35.49     0.116 C 
BRANCH   4   5
ATOM      5  NE  ARG D 557     -25.296  -0.950 -14.889  1.00 35.49    -0.212 N 
ATOM      6  CZ  ARG D 557     -25.021  -2.121 -14.359  1.00 35.49     0.666 C 
ATOM      7  NH1 ARG D 557     -25.709  -3.210 -14.649  1.00 35.49    -0.235 N 
ATOM      8  NH2 ARG D 557     -24.024  -2.183 -13.524  1.00 35.49    -0.235 N 
ATOM      9  HH  ARG D 557     -26.367  -3.193 -15.197  1.00 35.49     0.174 HD
ATOM     10  HH  ARG D 557     -25.482  -3.946 -14.275  1.00 35.49     0.174 HD
ATOM     11  HH  ARG D 557     -23.594  -1.465 -13.361  1.00 35.49     0.174 HD
ATOM     12  HH  ARG D 557     -23.815  -2.922 -13.165  1.00 35.49     0.174 HD
ATOM     13  HE  ARG D 557     -24.849  -0.291 -14.591  1.00 35.49     0.178 HD
ENDBRANCH   4   5
ENDBRANCH   3   4
ENDBRANCH   2   3
ENDBRANCH   1   2
END_RES ARG D 557
BEGIN_RES GLU D 570
REMARK  3 active torsions:
REMARK  status: ('A' for Active; 'I' for Inactive)
REMARK    5  A    between atoms: CA   and  CB  
REMARK    6  A    between atoms: CB   and  CG  
REMARK    7  A    between atoms: CG   and  CD  
ROOT
ATOM     14  CA  GLU D 570     -18.033  -6.348 -13.375  1.00 32.92     0.160 C 
ENDROOT
BRANCH  14  15
ATOM     15  CB  GLU D 570     -19.500  -6.345 -13.794  1.00 32.92     0.043 C 
BRANCH  15  16
ATOM     16  CG  GLU D 570     -20.448  -5.558 -12.963  1.00 32.92     0.100 C 
BRANCH  16  17
ATOM     17  CD  GLU D 570     -21.704  -5.172 -13.708  1.00 32.92     0.185 C 
ATOM     18  OE1 GLU D 570     -21.674  -5.106 -14.952  1.00 32.92    -0.647 OA
ATOM     19  OE2 GLU D 570     -22.725  -4.916 -13.040  1.00 32.92    -0.647 OA
ENDBRANCH  16  17
ENDBRANCH  15  16
ENDBRANCH  14  15
END_RES GLU D 570
ENDMDL
MODEL 6
REMARK VINA RESULT:      -6.4      2.775      9.443
REMARK  12 active torsions:
REMARK  status: ('A' for Active; 'I' for Inactive)
REMARK    1  A    between atoms: C_6  and  O_11 
REMARK    2  A    between atoms: C_7  and  C_8 
REMARK    3  A    between atoms: C_8  and  O_10 
REMARK    4  A    between atoms: C_18  and  O_35 
REMARK    5  A    between atoms: C_19  and  C_24 
REMARK    6  A    between atoms: C_20  and  O_23 
REMARK    7  A    between atoms: C_21  and  O_22 
REMARK    8  A    between atoms: C_25  and  O_34 
REMARK    9  A    between atoms: C_26  and  O_33 
REMARK   10  A    between atoms: C_27  and  O_32 
REMARK   11  A    between atoms: C_28  and  C_30 
REMARK   12  A    between atoms: C_30  and  O_31 
ROOT
HETATM    1  C   UNL     1     -16.023 -12.953   1.142  1.00  0.00     0.050 C 
HETATM    2  C   UNL     1     -15.250 -13.278  -0.126  1.00  0.00    -0.027 A 
HETATM    3  C   UNL     1     -15.548 -12.682  -1.396  1.00  0.00     0.036 A 
HETATM    4  C   UNL     1     -14.806 -13.012  -2.536  1.00  0.00     0.032 A 
HETATM    5  C   UNL     1     -13.770 -13.948  -2.443  1.00  0.00     0.054 A 
HETATM    6  C   UNL     1     -13.473 -14.544  -1.217  1.00  0.00     0.084 A 
HETATM    7  C   UNL     1     -14.185 -14.231  -0.041  1.00  0.00     0.077 A 
HETATM    8  C   UNL     1     -15.061 -12.405  -3.877  1.00  0.00     0.197 A 
HETATM    9  O   UNL     1     -14.344 -12.753  -4.804  1.00  0.00    -0.286 OA
HETATM   10  C   UNL     1     -16.160 -11.432  -4.048  1.00  0.00     0.068 A 
HETATM   11  C   UNL     1     -16.925 -11.138  -2.935  1.00  0.00     0.066 A 
HETATM   12  C   UNL     1     -16.616 -11.681  -1.597  1.00  0.00     0.197 A 
HETATM   13  O   UNL     1     -17.270 -11.236  -0.661  1.00  0.00    -0.286 OA
HETATM   14  C   UNL     1     -17.998 -10.251  -3.071  1.00  0.00     0.092 A 
HETATM   15  C   UNL     1     -18.303  -9.551  -4.270  1.00  0.00     0.043 A 
HETATM   16  C   UNL     1     -17.529  -9.852  -5.377  1.00  0.00     0.111 A 
HETATM   17  C   UNL     1     -16.474 -10.795  -5.267  1.00  0.00     0.115 A 
ENDROOT
BRANCH  15  18
HETATM   18  C   UNL     1     -19.408  -8.527  -4.077  1.00  0.00     0.192 C 
HETATM   19  C   UNL     1     -19.970  -8.105  -5.465  1.00  0.00     0.183 C 
HETATM   20  C   UNL     1     -20.370  -6.638  -5.310  1.00  0.00     0.181 C 
HETATM   21  C   UNL     1     -21.402  -6.472  -4.183  1.00  0.00     0.180 C 
HETATM   22  C   UNL     1     -20.914  -7.176  -2.884  1.00  0.00     0.177 C 
HETATM   23  O   UNL     1     -20.519  -8.590  -3.139  1.00  0.00    -0.368 OA
BRANCH  19  24
HETATM   24  O   UNL     1     -21.065  -8.936  -5.881  1.00  0.00    -0.390 OA
HETATM   25  H   UNL     1     -20.832  -9.857  -5.693  1.00  0.00     0.210 HD
ENDBRANCH  19  24
BRANCH  20  26
HETATM   26  O   UNL     1     -20.855  -6.113  -6.542  1.00  0.00    -0.390 OA
HETATM   27  H   UNL     1     -20.489  -5.210  -6.598  1.00  0.00     0.210 HD
ENDBRANCH  20  26
BRANCH  21  28
HETATM   28  O   UNL     1     -22.671  -6.973  -4.630  1.00  0.00    -0.390 OA
HETATM   29  H   UNL     1     -23.354  -6.292  -4.519  1.00  0.00     0.210 HD
ENDBRANCH  21  28
BRANCH  22  30
HETATM   30  C   UNL     1     -21.949  -7.031  -1.762  1.00  0.00     0.198 C 
BRANCH  30  31
HETATM   31  O   UNL     1     -22.685  -5.825  -1.916  1.00  0.00    -0.398 OA
HETATM   32  H   UNL     1     -22.879  -5.498  -1.020  1.00  0.00     0.209 HD
ENDBRANCH  30  31
ENDBRANCH  22  30
ENDBRANCH  15  18
BRANCH  14  33
HETATM   33  O   UNL     1     -18.831  -9.990  -1.996  1.00  0.00    -0.359 OA
HETATM   34  H   UNL     1     -19.711  -9.690  -2.328  1.00  0.00     0.217 HD
ENDBRANCH  14  33
BRANCH  16  35
HETATM   35  O   UNL     1     -17.723  -9.285  -6.606  1.00  0.00    -0.357 OA
HETATM   36  H   UNL     1     -16.854  -9.073  -6.995  1.00  0.00     0.217 HD
ENDBRANCH  16  35
BRANCH  17  37
HETATM   37  O   UNL     1     -15.748 -11.059  -6.399  1.00  0.00    -0.357 OA
HETATM   38  H   UNL     1     -15.049 -10.378  -6.448  1.00  0.00     0.217 HD
ENDBRANCH  17  37
BRANCH   7  39
HETATM   39  C   UNL     1     -13.833 -14.901   1.279  1.00  0.00     0.179 C 
HETATM   40  O   UNL     1     -14.569 -15.668   1.886  1.00  0.00    -0.646 OA
BRANCH  39  41
HETATM   41  O   UNL     1     -12.624 -14.601   1.780  1.00  0.00    -0.773 OA
HETATM   42  H   UNL     1     -12.186 -15.365   2.212  1.00  0.00     0.167 HD
ENDBRANCH  39  41
ENDBRANCH   7  39
BRANCH   6  43
HETATM   43  O   UNL     1     -12.452 -15.462  -1.196  1.00  0.00    -0.360 OA
HETATM   44  H   UNL     1     -12.097 -15.527  -0.287  1.00  0.00     0.217 HD
ENDBRANCH   6  43
TORSDOF 12
BEGIN_RES ARG D 557
REMARK  4 active torsions:
REMARK  status: ('A' for Active; 'I' for Inactive)
REMARK    1  A    between atoms: CA   and  CB  
REMARK    2  A    between atoms: CB   and  CG  
REMARK    3  A    between atoms: CG   and  CD  
REMARK    4  A    between atoms: CD   and  NE  
REMARK       I    between atoms: NE   and  CZ  
REMARK       I    between atoms: CZ   and  NH1 
REMARK       I    between atoms: CZ   and  NH2 
ROOT
ATOM      1  CA  ARG D 557     -26.217   2.705 -17.014  1.00 35.49     0.159 C 
ENDROOT
BRANCH   1   2
ATOM      2  CB  ARG D 557     -26.789   1.319 -17.183  1.00 35.49     0.034 C 
BRANCH   2   3
ATOM      3  CG  ARG D 557     -28.237   1.224 -17.406  1.00 35.49     0.027 C 
BRANCH   3   4
ATOM      4  CD  ARG D 557     -28.891   0.277 -16.475  1.00 35.49     0.116 C 
BRANCH   4   5
ATOM      5  NE  ARG D 557     -29.261  -0.953 -17.124  1.00 35.49    -0.212 N 
ATOM      6  CZ  ARG D 557     -28.626  -2.099 -17.019  1.00 35.49     0.666 C 
ATOM      7  NH1 ARG D 557     -27.533  -2.239 -16.292  1.00 35.49    -0.235 N 
ATOM      8  NH2 ARG D 557     -29.116  -3.118 -17.662  1.00 35.49    -0.235 N 
ATOM      9  HH  ARG D 557     -27.194  -1.582 -15.859  1.00 35.49     0.174 HD
ATOM     10  HH  ARG D 557     -27.163  -3.011 -16.259  1.00 35.49     0.174 HD
ATOM     11  HH  ARG D 557     -29.827  -2.999 -18.118  1.00 35.49     0.174 HD
ATOM     12  HH  ARG D 557     -28.736  -3.875 -17.616  1.00 35.49     0.174 HD
ATOM     13  HE  ARG D 557     -29.912  -0.936 -17.671  1.00 35.49     0.178 HD
ENDBRANCH   4   5
ENDBRANCH   3   4
ENDBRANCH   2   3
ENDBRANCH   1   2
END_RES ARG D 557
BEGIN_RES GLU D 570
REMARK  3 active torsions:
REMARK  status: ('A' for Active; 'I' for Inactive)
REMARK    5  A    between atoms: CA   and  CB  
REMARK    6  A    between atoms: CB   and  CG  
REMARK    7  A    between atoms: CG   and  CD  
ROOT
ATOM     14  CA  GLU D 570     -18.033  -6.348 -13.375  1.00 32.92     0.160 C 
ENDROOT
BRANCH  14  15
ATOM     15  CB  GLU D 570     -19.500  -6.345 -13.794  1.00 32.92     0.043 C 
BRANCH  15  16
ATOM     16  CG  GLU D 570     -20.448  -5.559 -12.962  1.00 32.92     0.100 C 
BRANCH  16  17
ATOM     17  CD  GLU D 570     -21.709  -5.181 -13.704  1.00 32.92     0.185 C 
ATOM     18  OE1 GLU D 570     -21.808  -5.464 -14.913  1.00 32.92    -0.647 OA
ATOM     19  OE2 GLU D 570     -22.600  -4.580 -13.072  1.00 32.92    -0.647 OA
ENDBRANCH  16  17
ENDBRANCH  15  16
ENDBRANCH  14  15
END_RES GLU D 570
ENDMDL
MODEL 7
REMARK VINA RESULT:      -6.3      1.647      2.014
REMARK  12 active torsions:
REMARK  status: ('A' for Active; 'I' for Inactive)
REMARK    1  A    between atoms: C_6  and  O_11 
REMARK    2  A    between atoms: C_7  and  C_8 
REMARK    3  A    between atoms: C_8  and  O_10 
REMARK    4  A    between atoms: C_18  and  O_35 
REMARK    5  A    between atoms: C_19  and  C_24 
REMARK    6  A    between atoms: C_20  and  O_23 
REMARK    7  A    between atoms: C_21  and  O_22 
REMARK    8  A    between atoms: C_25  and  O_34 
REMARK    9  A    between atoms: C_26  and  O_33 
REMARK   10  A    between atoms: C_27  and  O_32 
REMARK   11  A    between atoms: C_28  and  C_30 
REMARK   12  A    between atoms: C_30  and  O_31 
ROOT
HETATM    1  C   UNL     1     -19.611  -5.755  -8.954  1.00  0.00     0.050 C 
HETATM    2  C   UNL     1     -20.747  -5.586  -7.959  1.00  0.00    -0.027 A 
HETATM    3  C   UNL     1     -20.804  -6.291  -6.711  1.00  0.00     0.036 A 
HETATM    4  C   UNL     1     -21.871  -6.099  -5.826  1.00  0.00     0.032 A 
HETATM    5  C   UNL     1     -22.906  -5.222  -6.166  1.00  0.00     0.054 A 
HETATM    6  C   UNL     1     -22.871  -4.534  -7.379  1.00  0.00     0.084 A 
HETATM    7  C   UNL     1     -21.810  -4.686  -8.295  1.00  0.00     0.077 A 
HETATM    8  C   UNL     1     -21.968  -6.792  -4.506  1.00  0.00     0.197 A 
HETATM    9  O   UNL     1     -22.935  -6.543  -3.802  1.00  0.00    -0.286 OA
HETATM   10  C   UNL     1     -20.921  -7.755  -4.100  1.00  0.00     0.068 A 
HETATM   11  C   UNL     1     -19.889  -7.982  -4.992  1.00  0.00     0.066 A 
HETATM   12  C   UNL     1     -19.759  -7.234  -6.259  1.00  0.00     0.197 A 
HETATM   13  O   UNL     1     -18.730  -7.412  -6.897  1.00  0.00    -0.286 OA
HETATM   14  C   UNL     1     -18.903  -8.915  -4.657  1.00  0.00     0.092 A 
HETATM   15  C   UNL     1     -18.839  -9.588  -3.407  1.00  0.00     0.043 A 
HETATM   16  C   UNL     1     -19.876  -9.351  -2.522  1.00  0.00     0.111 A 
HETATM   17  C   UNL     1     -20.914  -8.451  -2.874  1.00  0.00     0.115 A 
ENDROOT
BRANCH  15  18
HETATM   18  C   UNL     1     -17.568 -10.406  -3.256  1.00  0.00     0.192 C 
HETATM   19  C   UNL     1     -17.536 -11.054  -1.841  1.00  0.00     0.183 C 
HETATM   20  C   UNL     1     -16.058 -11.101  -1.452  1.00  0.00     0.181 C 
HETATM   21  C   UNL     1     -15.250 -11.902  -2.484  1.00  0.00     0.180 C 
HETATM   22  C   UNL     1     -15.548 -11.401  -3.926  1.00  0.00     0.177 C 
HETATM   23  O   UNL     1     -17.012 -11.361  -4.203  1.00  0.00    -0.368 OA
BRANCH  19  24
HETATM   24  O   UNL     1     -18.153 -12.351  -1.824  1.00  0.00    -0.390 OA
HETATM   25  H   UNL     1     -17.928 -12.800  -2.653  1.00  0.00     0.210 HD
ENDBRANCH  19  24
BRANCH  20  26
HETATM   26  O   UNL     1     -15.898 -11.629  -0.139  1.00  0.00    -0.390 OA
HETATM   27  H   UNL     1     -14.934 -11.725  -0.017  1.00  0.00     0.210 HD
ENDBRANCH  20  26
BRANCH  21  28
HETATM   28  O   UNL     1     -15.536 -13.300  -2.323  1.00  0.00    -0.390 OA
HETATM   29  H   UNL     1     -14.728 -13.779  -2.078  1.00  0.00     0.210 HD
ENDBRANCH  21  28
BRANCH  22  30
HETATM   30  C   UNL     1     -14.759 -12.211  -4.961  1.00  0.00     0.198 C 
BRANCH  30  31
HETATM   31  O   UNL     1     -13.499 -12.602  -4.433  1.00  0.00    -0.398 OA
HETATM   32  H   UNL     1     -13.368 -12.094  -3.613  1.00  0.00     0.209 HD
ENDBRANCH  30  31
ENDBRANCH  22  30
ENDBRANCH  15  18
BRANCH  14  33
HETATM   33  O   UNL     1     -17.897  -9.224  -5.557  1.00  0.00    -0.359 OA
HETATM   34  H   UNL     1     -18.175  -9.991  -6.111  1.00  0.00     0.217 HD
ENDBRANCH  14  33
BRANCH  16  35
HETATM   35  O   UNL     1     -19.968  -9.949  -1.296  1.00  0.00    -0.357 OA
HETATM   36  H   UNL     1     -20.794 -10.468  -1.260  1.00  0.00     0.217 HD
ENDBRANCH  16  35
BRANCH  17  37
HETATM   37  O   UNL     1     -21.918  -8.263  -1.960  1.00  0.00    -0.357 OA
HETATM   38  H   UNL     1     -21.957  -9.074  -1.417  1.00  0.00     0.217 HD
ENDBRANCH  17  37
BRANCH   7  39
HETATM   39  C   UNL     1     -21.805  -3.920  -9.609  1.00  0.00     0.179 C 
HETATM   40  O   UNL     1     -22.774  -3.800 -10.346  1.00  0.00    -0.646 OA
BRANCH  39  41
HETATM   41  O   UNL     1     -20.636  -3.353  -9.949  1.00  0.00    -0.773 OA
HETATM   42  H   UNL     1     -19.858  -3.824  -9.580  1.00  0.00     0.167 HD
ENDBRANCH  39  41
ENDBRANCH   7  39
BRANCH   6  43
HETATM   43  O   UNL     1     -23.924  -3.697  -7.657  1.00  0.00    -0.360 OA
HETATM   44  H   UNL     1     -23.820  -3.340  -8.561  1.00  0.00     0.217 HD
ENDBRANCH   6  43
TORSDOF 12
BEGIN_RES ARG D 557
REMARK  4 active torsions:
REMARK  status: ('A' for Active; 'I' for Inactive)
REMARK    1  A    between atoms: CA   and  CB  
REMARK    2  A    between atoms: CB   and  CG  
REMARK    3  A    between atoms: CG   and  CD  
REMARK    4  A    between atoms: CD   and  NE  
REMARK       I    between atoms: NE   and  CZ  
REMARK       I    between atoms: CZ   and  NH1 
REMARK       I    between atoms: CZ   and  NH2 
ROOT
ATOM      1  CA  ARG D 557     -26.217   2.705 -17.014  1.00 35.49     0.159 C 
ENDROOT
BRANCH   1   2
ATOM      2  CB  ARG D 557     -26.789   1.319 -17.183  1.00 35.49     0.034 C 
BRANCH   2   3
ATOM      3  CG  ARG D 557     -28.232   1.226 -17.434  1.00 35.49     0.027 C 
BRANCH   3   4
ATOM      4  CD  ARG D 557     -28.910   0.301 -16.496  1.00 35.49     0.116 C 
BRANCH   4   5
ATOM      5  NE  ARG D 557     -29.323  -0.918 -17.140  1.00 35.49    -0.212 N 
ATOM      6  CZ  ARG D 557     -28.716  -2.079 -17.047  1.00 35.49     0.666 C 
ATOM      7  NH1 ARG D 557     -27.616  -2.250 -16.338  1.00 35.49    -0.235 N 
ATOM      8  NH2 ARG D 557     -29.244  -3.085 -17.683  1.00 35.49    -0.235 N 
ATOM      9  HH  ARG D 557     -27.252  -1.603 -15.910  1.00 35.49     0.174 HD
ATOM     10  HH  ARG D 557     -27.265  -3.031 -16.311  1.00 35.49     0.174 HD
ATOM     11  HH  ARG D 557     -29.959  -2.947 -18.127  1.00 35.49     0.174 HD
ATOM     12  HH  ARG D 557     -28.883  -3.851 -17.643  1.00 35.49     0.174 HD
ATOM     13  HE  ARG D 557     -29.982  -0.882 -17.676  1.00 35.49     0.178 HD
ENDBRANCH   4   5
ENDBRANCH   3   4
ENDBRANCH   2   3
ENDBRANCH   1   2
END_RES ARG D 557
BEGIN_RES GLU D 570
REMARK  3 active torsions:
REMARK  status: ('A' for Active; 'I' for Inactive)
REMARK    5  A    between atoms: CA   and  CB  
REMARK    6  A    between atoms: CB   and  CG  
REMARK    7  A    between atoms: CG   and  CD  
ROOT
ATOM     14  CA  GLU D 570     -18.033  -6.348 -13.375  1.00 32.92     0.160 C 
ENDROOT
BRANCH  14  15
ATOM     15  CB  GLU D 570     -19.500  -6.345 -13.794  1.00 32.92     0.043 C 
BRANCH  15  16
ATOM     16  CG  GLU D 570     -20.439  -5.519 -12.992  1.00 32.92     0.100 C 
BRANCH  16  17
ATOM     17  CD  GLU D 570     -21.742  -5.246 -13.708  1.00 32.92     0.185 C 
ATOM     18  OE1 GLU D 570     -22.259  -4.116 -13.613  1.00 32.92    -0.647 OA
ATOM     19  OE2 GLU D 570     -22.259  -6.177 -14.356  1.00 32.92    -0.647 OA
ENDBRANCH  16  17
ENDBRANCH  15  16
ENDBRANCH  14  15
END_RES GLU D 570
ENDMDL
MODEL 8
REMARK VINA RESULT:      -6.2      1.788      2.154
REMARK  12 active torsions:
REMARK  status: ('A' for Active; 'I' for Inactive)
REMARK    1  A    between atoms: C_6  and  O_11 
REMARK    2  A    between atoms: C_7  and  C_8 
REMARK    3  A    between atoms: C_8  and  O_10 
REMARK    4  A    between atoms: C_18  and  O_35 
REMARK    5  A    between atoms: C_19  and  C_24 
REMARK    6  A    between atoms: C_20  and  O_23 
REMARK    7  A    between atoms: C_21  and  O_22 
REMARK    8  A    between atoms: C_25  and  O_34 
REMARK    9  A    between atoms: C_26  and  O_33 
REMARK   10  A    between atoms: C_27  and  O_32 
REMARK   11  A    between atoms: C_28  and  C_30 
REMARK   12  A    between atoms: C_30  and  O_31 
ROOT
HETATM    1  C   UNL     1     -19.993  -4.937 -10.242  1.00  0.00     0.050 C 
HETATM    2  C   UNL     1     -21.222  -4.664  -9.390  1.00  0.00    -0.027 A 
HETATM    3  C   UNL     1     -21.424  -5.257  -8.099  1.00  0.00     0.036 A 
HETATM    4  C   UNL     1     -22.573  -4.973  -7.351  1.00  0.00     0.032 A 
HETATM    5  C   UNL     1     -23.545  -4.113  -7.872  1.00  0.00     0.054 A 
HETATM    6  C   UNL     1     -23.369  -3.535  -9.129  1.00  0.00     0.084 A 
HETATM    7  C   UNL     1     -22.222  -3.782  -9.911  1.00  0.00     0.077 A 
HETATM    8  C   UNL     1     -22.822  -5.547  -5.995  1.00  0.00     0.197 A 
HETATM    9  O   UNL     1     -23.851  -5.222  -5.420  1.00  0.00    -0.286 OA
HETATM   10  C   UNL     1     -21.846  -6.486  -5.401  1.00  0.00     0.068 A 
HETATM   11  C   UNL     1     -20.733  -6.805  -6.156  1.00  0.00     0.066 A 
HETATM   12  C   UNL     1     -20.455  -6.172  -7.461  1.00  0.00     0.197 A 
HETATM   13  O   UNL     1     -19.369  -6.421  -7.970  1.00  0.00    -0.286 OA
HETATM   14  C   UNL     1     -19.810  -7.720  -5.641  1.00  0.00     0.092 A 
HETATM   15  C   UNL     1     -19.892  -8.282  -4.338  1.00  0.00     0.043 A 
HETATM   16  C   UNL     1     -21.009  -7.954  -3.591  1.00  0.00     0.111 A 
HETATM   17  C   UNL     1     -21.983  -7.072  -4.125  1.00  0.00     0.115 A 
ENDROOT
BRANCH  15  18
HETATM   18  C   UNL     1     -18.663  -9.103  -3.985  1.00  0.00     0.192 C 
HETATM   19  C   UNL     1     -19.068 -10.242  -3.005  1.00  0.00     0.183 C 
HETATM   20  C   UNL     1     -17.855 -10.443  -2.096  1.00  0.00     0.181 C 
HETATM   21  C   UNL     1     -16.608 -10.793  -2.923  1.00  0.00     0.180 C 
HETATM   22  C   UNL     1     -16.415  -9.776  -4.084  1.00  0.00     0.177 C 
HETATM   23  O   UNL     1     -17.656  -9.626  -4.896  1.00  0.00    -0.368 OA
BRANCH  19  24
HETATM   24  O   UNL     1     -19.444 -11.444  -3.697  1.00  0.00    -0.390 OA
HETATM   25  H   UNL     1     -20.141 -11.219  -4.332  1.00  0.00     0.210 HD
ENDBRANCH  19  24
BRANCH  20  26
HETATM   26  O   UNL     1     -18.121 -11.434  -1.109  1.00  0.00    -0.390 OA
HETATM   27  H   UNL     1     -18.159 -10.950  -0.262  1.00  0.00     0.210 HD
ENDBRANCH  20  26
BRANCH  21  28
HETATM   28  O   UNL     1     -16.721 -12.144  -3.394  1.00  0.00    -0.390 OA
HETATM   29  H   UNL     1     -17.015 -12.724  -2.673  1.00  0.00     0.210 HD
ENDBRANCH  21  28
BRANCH  22  30
HETATM   30  C   UNL     1     -15.183 -10.133  -4.924  1.00  0.00     0.198 C 
BRANCH  30  31
HETATM   31  O   UNL     1     -15.526 -11.067  -5.940  1.00  0.00    -0.398 OA
HETATM   32  H   UNL     1     -14.748 -11.152  -6.517  1.00  0.00     0.209 HD
ENDBRANCH  30  31
ENDBRANCH  22  30
ENDBRANCH  15  18
BRANCH  14  33
HETATM   33  O   UNL     1     -18.723  -8.121  -6.400  1.00  0.00    -0.359 OA
HETATM   34  H   UNL     1     -17.969  -7.505  -6.243  1.00  0.00     0.217 HD
ENDBRANCH  14  33
BRANCH  16  35
HETATM   35  O   UNL     1     -21.242  -8.442  -2.334  1.00  0.00    -0.357 OA
HETATM   36  H   UNL     1     -20.916  -7.795  -1.681  1.00  0.00     0.217 HD
ENDBRANCH  16  35
BRANCH  17  37
HETATM   37  O   UNL     1     -23.072  -6.791  -3.342  1.00  0.00    -0.357 OA
HETATM   38  H   UNL     1     -23.591  -7.617  -3.277  1.00  0.00     0.217 HD
ENDBRANCH  17  37
BRANCH   7  39
HETATM   39  C   UNL     1     -22.062  -3.133 -11.278  1.00  0.00     0.179 C 
HETATM   40  O   UNL     1     -21.200  -2.312 -11.560  1.00  0.00    -0.646 OA
BRANCH  39  41
HETATM   41  O   UNL     1     -22.952  -3.511 -12.210  1.00  0.00    -0.773 OA
HETATM   42  H   UNL     1     -23.727  -3.980 -11.835  1.00  0.00     0.167 HD
ENDBRANCH  39  41
ENDBRANCH   7  39
BRANCH   6  43
HETATM   43  O   UNL     1     -24.366  -2.709  -9.586  1.00  0.00    -0.360 OA
HETATM   44  H   UNL     1     -25.200  -3.217  -9.649  1.00  0.00     0.217 HD
ENDBRANCH   6  43
TORSDOF 12
BEGIN_RES ARG D 557
REMARK  4 active torsions:
REMARK  status: ('A' for Active; 'I' for Inactive)
REMARK    1  A    between atoms: CA   and  CB  
REMARK    2  A    between atoms: CB   and  CG  
REMARK    3  A    between atoms: CG   and  CD  
REMARK    4  A    between atoms: CD   and  NE  
REMARK       I    between atoms: NE   and  CZ  
REMARK       I    between atoms: CZ   and  NH1 
REMARK       I    between atoms: CZ   and  NH2 
ROOT
ATOM      1  CA  ARG D 557     -26.217   2.705 -17.014  1.00 35.49     0.159 C 
ENDROOT
BRANCH   1   2
ATOM      2  CB  ARG D 557     -26.789   1.319 -17.183  1.00 35.49     0.034 C 
BRANCH   2   3
ATOM      3  CG  ARG D 557     -25.955   0.200 -16.727  1.00 35.49     0.027 C 
BRANCH   3   4
ATOM      4  CD  ARG D 557     -26.746  -0.855 -16.054  1.00 35.49     0.116 C 
BRANCH   4   5
ATOM      5  NE  ARG D 557     -27.997  -1.104 -16.721  1.00 35.49    -0.212 N 
ATOM      6  CZ  ARG D 557     -28.521  -2.286 -16.955  1.00 35.49     0.666 C 
ATOM      7  NH1 ARG D 557     -27.924  -3.409 -16.601  1.00 35.49    -0.235 N 
ATOM      8  NH2 ARG D 557     -29.676  -2.323 -17.554  1.00 35.49    -0.235 N 
ATOM      9  HH  ARG D 557     -27.165  -3.408 -16.204  1.00 35.49     0.174 HD
ATOM     10  HH  ARG D 557     -28.315  -4.151 -16.777  1.00 35.49     0.174 HD
ATOM     11  HH  ARG D 557     -30.042  -1.582 -17.764  1.00 35.49     0.174 HD
ATOM     12  HH  ARG D 557     -30.047  -3.068 -17.718  1.00 35.49     0.174 HD
ATOM     13  HE  ARG D 557     -28.415  -0.439 -17.048  1.00 35.49     0.178 HD
ENDBRANCH   4   5
ENDBRANCH   3   4
ENDBRANCH   2   3
ENDBRANCH   1   2
END_RES ARG D 557
BEGIN_RES GLU D 570
REMARK  3 active torsions:
REMARK  status: ('A' for Active; 'I' for Inactive)
REMARK    5  A    between atoms: CA   and  CB  
REMARK    6  A    between atoms: CB   and  CG  
REMARK    7  A    between atoms: CG   and  CD  
ROOT
ATOM     14  CA  GLU D 570     -18.033  -6.348 -13.375  1.00 32.92     0.160 C 
ENDROOT
BRANCH  14  15
ATOM     15  CB  GLU D 570     -19.500  -6.345 -13.794  1.00 32.92     0.043 C 
BRANCH  15  16
ATOM     16  CG  GLU D 570     -19.802  -6.089 -15.226  1.00 32.92     0.100 C 
BRANCH  16  17
ATOM     17  CD  GLU D 570     -21.097  -5.337 -15.430  1.00 32.92     0.185 C 
ATOM     18  OE1 GLU D 570     -21.474  -5.085 -16.590  1.00 32.92    -0.647 OA
ATOM     19  OE2 GLU D 570     -21.732  -4.982 -14.418  1.00 32.92    -0.647 OA
ENDBRANCH  16  17
ENDBRANCH  15  16
ENDBRANCH  14  15
END_RES GLU D 570
ENDMDL
MODEL 9
REMARK VINA RESULT:      -6.2      2.713      8.180
REMARK  12 active torsions:
REMARK  status: ('A' for Active; 'I' for Inactive)
REMARK    1  A    between atoms: C_6  and  O_11 
REMARK    2  A    between atoms: C_7  and  C_8 
REMARK    3  A    between atoms: C_8  and  O_10 
REMARK    4  A    between atoms: C_18  and  O_35 
REMARK    5  A    between atoms: C_19  and  C_24 
REMARK    6  A    between atoms: C_20  and  O_23 
REMARK    7  A    between atoms: C_21  and  O_22 
REMARK    8  A    between atoms: C_25  and  O_34 
REMARK    9  A    between atoms: C_26  and  O_33 
REMARK   10  A    between atoms: C_27  and  O_32 
REMARK   11  A    between atoms: C_28  and  C_30 
REMARK   12  A    between atoms: C_30  and  O_31 
ROOT
HETATM    1  C   UNL     1     -15.210 -14.537  -2.569  1.00  0.00     0.050 C 
HETATM    2  C   UNL     1     -15.074 -13.605  -3.762  1.00  0.00    -0.027 A 
HETATM    3  C   UNL     1     -15.999 -12.542  -4.032  1.00  0.00     0.036 A 
HETATM    4  C   UNL     1     -15.829 -11.708  -5.143  1.00  0.00     0.032 A 
HETATM    5  C   UNL     1     -14.756 -11.921  -6.014  1.00  0.00     0.054 A 
HETATM    6  C   UNL     1     -13.851 -12.955  -5.771  1.00  0.00     0.084 A 
HETATM    7  C   UNL     1     -13.975 -13.811  -4.657  1.00  0.00     0.077 A 
HETATM    8  C   UNL     1     -16.751 -10.575  -5.458  1.00  0.00     0.197 A 
HETATM    9  O   UNL     1     -16.504  -9.900  -6.446  1.00  0.00    -0.286 OA
HETATM   10  C   UNL     1     -17.922 -10.316  -4.594  1.00  0.00     0.068 A 
HETATM   11  C   UNL     1     -18.119 -11.166  -3.521  1.00  0.00     0.066 A 
HETATM   12  C   UNL     1     -17.160 -12.233  -3.172  1.00  0.00     0.197 A 
HETATM   13  O   UNL     1     -17.360 -12.826  -2.119  1.00  0.00    -0.286 OA
HETATM   14  C   UNL     1     -19.239 -10.974  -2.706  1.00  0.00     0.092 A 
HETATM   15  C   UNL     1     -20.152  -9.894  -2.853  1.00  0.00     0.043 A 
HETATM   16  C   UNL     1     -19.943  -9.048  -3.929  1.00  0.00     0.111 A 
HETATM   17  C   UNL     1     -18.844  -9.268  -4.798  1.00  0.00     0.115 A 
ENDROOT
BRANCH  15  18
HETATM   18  C   UNL     1     -21.166  -9.837  -1.724  1.00  0.00     0.192 C 
HETATM   19  C   UNL     1     -21.026  -8.483  -0.971  1.00  0.00     0.183 C 
HETATM   20  C   UNL     1     -21.369  -8.793   0.486  1.00  0.00     0.181 C 
HETATM   21  C   UNL     1     -22.784  -9.384   0.597  1.00  0.00     0.180 C 
HETATM   22  C   UNL     1     -22.966 -10.563  -0.401  1.00  0.00     0.177 C 
HETATM   23  O   UNL     1     -22.580 -10.175  -1.787  1.00  0.00    -0.368 OA
BRANCH  19  24
HETATM   24  O   UNL     1     -21.867  -7.462  -1.531  1.00  0.00    -0.390 OA
HETATM   25  H   UNL     1     -21.312  -6.693  -1.734  1.00  0.00     0.210 HD
ENDBRANCH  19  24
BRANCH  20  26
HETATM   26  O   UNL     1     -21.225  -7.632   1.298  1.00  0.00    -0.390 OA
HETATM   27  H   UNL     1     -20.613  -7.893   2.013  1.00  0.00     0.210 HD
ENDBRANCH  20  26
BRANCH  21  28
HETATM   28  O   UNL     1     -23.747  -8.340   0.390  1.00  0.00    -0.390 OA
HETATM   29  H   UNL     1     -24.436  -8.384   1.073  1.00  0.00     0.210 HD
ENDBRANCH  21  28
BRANCH  22  30
HETATM   30  C   UNL     1     -24.382 -11.144  -0.308  1.00  0.00     0.198 C 
BRANCH  30  31
HETATM   31  O   UNL     1     -24.445 -12.411  -0.949  1.00  0.00    -0.398 OA
HETATM   32  H   UNL     1     -25.150 -12.914  -0.507  1.00  0.00     0.209 HD
ENDBRANCH  30  31
ENDBRANCH  22  30
ENDBRANCH  15  18
BRANCH  14  33
HETATM   33  O   UNL     1     -19.509 -11.850  -1.669  1.00  0.00    -0.359 OA
HETATM   34  H   UNL     1     -19.451 -12.778  -1.999  1.00  0.00     0.217 HD
ENDBRANCH  14  33
BRANCH  16  35
HETATM   35  O   UNL     1     -20.755  -7.986  -4.217  1.00  0.00    -0.357 OA
HETATM   36  H   UNL     1     -21.684  -8.261  -4.106  1.00  0.00     0.217 HD
ENDBRANCH  16  35
BRANCH  17  37
HETATM   37  O   UNL     1     -18.694  -8.403  -5.851  1.00  0.00    -0.357 OA
HETATM   38  H   UNL     1     -19.556  -8.368  -6.309  1.00  0.00     0.217 HD
ENDBRANCH  17  37
BRANCH   7  39
HETATM   39  C   UNL     1     -12.970 -14.928  -4.423  1.00  0.00     0.179 C 
HETATM   40  O   UNL     1     -12.258 -15.026  -3.432  1.00  0.00    -0.646 OA
BRANCH  39  41
HETATM   41  O   UNL     1     -12.886 -15.850  -5.396  1.00  0.00    -0.773 OA
HETATM   42  H   UNL     1     -12.260 -16.575  -5.187  1.00  0.00     0.167 HD
ENDBRANCH  39  41
ENDBRANCH   7  39
BRANCH   6  43
HETATM   43  O   UNL     1     -12.826 -13.117  -6.669  1.00  0.00    -0.360 OA
HETATM   44  H   UNL     1     -12.018 -13.389  -6.189  1.00  0.00     0.217 HD
ENDBRANCH   6  43
TORSDOF 12
BEGIN_RES ARG D 557
REMARK  4 active torsions:
REMARK  status: ('A' for Active; 'I' for Inactive)
REMARK    1  A    between atoms: CA   and  CB  
REMARK    2  A    between atoms: CB   and  CG  
REMARK    3  A    between atoms: CG   and  CD  
REMARK    4  A    between atoms: CD   and  NE  
REMARK       I    between atoms: NE   and  CZ  
REMARK       I    between atoms: CZ   and  NH1 
REMARK       I    between atoms: CZ   and  NH2 
ROOT
ATOM      1  CA  ARG D 557     -26.217   2.705 -17.014  1.00 35.49     0.159 C 
ENDROOT
BRANCH   1   2
ATOM      2  CB  ARG D 557     -26.789   1.319 -17.183  1.00 35.49     0.034 C 
BRANCH   2   3
ATOM      3  CG  ARG D 557     -25.862   0.195 -17.001  1.00 35.49     0.027 C 
BRANCH   3   4
ATOM      4  CD  ARG D 557     -26.273  -0.701 -15.895  1.00 35.49     0.116 C 
BRANCH   4   5
ATOM      5  NE  ARG D 557     -25.213  -0.908 -14.944  1.00 35.49    -0.212 N 
ATOM      6  CZ  ARG D 557     -24.911  -2.051 -14.368  1.00 35.49     0.666 C 
ATOM      7  NH1 ARG D 557     -25.583  -3.162 -14.602  1.00 35.49    -0.235 N 
ATOM      8  NH2 ARG D 557     -23.903  -2.060 -13.545  1.00 35.49    -0.235 N 
ATOM      9  HH  ARG D 557     -26.249  -3.180 -15.141  1.00 35.49     0.174 HD
ATOM     10  HH  ARG D 557     -25.339  -3.878 -14.199  1.00 35.49     0.174 HD
ATOM     11  HH  ARG D 557     -23.482  -1.328 -13.419  1.00 35.49     0.174 HD
ATOM     12  HH  ARG D 557     -23.675  -2.779 -13.157  1.00 35.49     0.174 HD
ATOM     13  HE  ARG D 557     -24.774  -0.229 -14.680  1.00 35.49     0.178 HD
ENDBRANCH   4   5
ENDBRANCH   3   4
ENDBRANCH   2   3
ENDBRANCH   1   2
END_RES ARG D 557
BEGIN_RES GLU D 570
REMARK  3 active torsions:
REMARK  status: ('A' for Active; 'I' for Inactive)
REMARK    5  A    between atoms: CA   and  CB  
REMARK    6  A    between atoms: CB   and  CG  
REMARK    7  A    between atoms: CG   and  CD  
ROOT
ATOM     14  CA  GLU D 570     -18.033  -6.348 -13.375  1.00 32.92     0.160 C 
ENDROOT
BRANCH  14  15
ATOM     15  CB  GLU D 570     -19.500  -6.345 -13.794  1.00 32.92     0.043 C 
BRANCH  15  16
ATOM     16  CG  GLU D 570     -20.448  -5.558 -12.964  1.00 32.92     0.100 C 
BRANCH  16  17
ATOM     17  CD  GLU D 570     -21.676  -5.120 -13.726  1.00 32.92     0.185 C 
ATOM     18  OE1 GLU D 570     -21.618  -5.030 -14.967  1.00 32.92    -0.647 OA
ATOM     19  OE2 GLU D 570     -22.703  -4.848 -13.073  1.00 32.92    -0.647 OA
ENDBRANCH  16  17
ENDBRANCH  15  16
ENDBRANCH  14  15
END_RES GLU D 570
ENDMDL
