MODEL 1
REMARK VINA RESULT:      -1.3      0.000      0.000
REMARK  4 active torsions:
REMARK  status: ('A' for Active; 'I' for Inactive)
REMARK    1  A    between atoms: C_6  and  S_13 
REMARK    2  A    between atoms: C_8  and  S_9 
REMARK    3  A    between atoms: C_20  and  S_26 
REMARK    4  A    between atoms: C_22  and  O_25 
ROOT
HETATM    1 NA   UNL     2     -11.248   1.582   2.393  1.00  0.00     0.000 Na
ENDROOT
TORSDOF 4
BEGIN_RES ARG D 557
REMARK  4 active torsions:
REMARK  status: ('A' for Active; 'I' for Inactive)
REMARK    1  A    between atoms: CA   and  CB  
REMARK    2  A    between atoms: CB   and  CG  
REMARK    3  A    between atoms: CG   and  CD  
REMARK    4  A    between atoms: CD   and  NE  
REMARK       I    between atoms: NE   and  CZ  
REMARK       I    between atoms: CZ   and  NH1 
REMARK       I    between atoms: CZ   and  NH2 
ROOT
ATOM      1  CA  ARG D 557     -26.217   2.705 -17.014  1.00 35.49     0.159 C 
ENDROOT
BRANCH   1   2
ATOM      2  CB  ARG D 557     -26.789   1.319 -17.183  1.00 35.49     0.034 C 
BRANCH   2   3
ATOM      3  CG  ARG D 557     -25.836   0.203 -17.154  1.00 35.49     0.027 C 
BRANCH   3   4
ATOM      4  CD  ARG D 557     -24.751   0.412 -16.168  1.00 35.49     0.116 C 
BRANCH   4   5
ATOM      5  NE  ARG D 557     -24.896  -0.436 -15.014  1.00 35.49    -0.212 N 
ATOM      6  CZ  ARG D 557     -24.082  -1.408 -14.668  1.00 35.49     0.666 C 
ATOM      7  NH1 ARG D 557     -23.015  -1.726 -15.379  1.00 35.49    -0.235 N 
ATOM      8  NH2 ARG D 557     -24.356  -2.061 -13.577  1.00 35.49    -0.235 N 
ATOM      9  HH  ARG D 557     -22.814  -1.308 -16.099  1.00 35.49     0.174 HD
ATOM     10  HH  ARG D 557     -22.519  -2.367 -15.103  1.00 35.49     0.174 HD
ATOM     11  HH  ARG D 557     -25.047  -1.829 -13.135  1.00 35.49     0.174 HD
ATOM     12  HH  ARG D 557     -23.852  -2.692 -13.319  1.00 35.49     0.174 HD
ATOM     13  HE  ARG D 557     -25.596  -0.348 -14.539  1.00 35.49     0.178 HD
ENDBRANCH   4   5
ENDBRANCH   3   4
ENDBRANCH   2   3
ENDBRANCH   1   2
END_RES ARG D 557
BEGIN_RES GLU D 570
REMARK  3 active torsions:
REMARK  status: ('A' for Active; 'I' for Inactive)
REMARK    5  A    between atoms: CA   and  CB  
REMARK    6  A    between atoms: CB   and  CG  
REMARK    7  A    between atoms: CG   and  CD  
ROOT
ATOM     14  CA  GLU D 570     -18.033  -6.348 -13.375  1.00 32.92     0.160 C 
ENDROOT
BRANCH  14  15
ATOM     15  CB  GLU D 570     -19.500  -6.345 -13.794  1.00 32.92     0.043 C 
BRANCH  15  16
ATOM     16  CG  GLU D 570     -20.440  -5.524 -12.988  1.00 32.92     0.100 C 
BRANCH  16  17
ATOM     17  CD  GLU D 570     -21.738  -5.238 -13.708  1.00 32.92     0.185 C 
ATOM     18  OE1 GLU D 570     -22.206  -6.099 -14.476  1.00 32.92    -0.647 OA
ATOM     19  OE2 GLU D 570     -22.283  -4.133 -13.513  1.00 32.92    -0.647 OA
ENDBRANCH  16  17
ENDBRANCH  15  16
ENDBRANCH  14  15
END_RES GLU D 570
ENDMDL
MODEL 2
REMARK VINA RESULT:      -1.2      8.097      8.151
REMARK  4 active torsions:
REMARK  status: ('A' for Active; 'I' for Inactive)
REMARK    1  A    between atoms: C_6  and  S_13 
REMARK    2  A    between atoms: C_8  and  S_9 
REMARK    3  A    between atoms: C_20  and  S_26 
REMARK    4  A    between atoms: C_22  and  O_25 
ROOT
HETATM    1 NA   UNL     2     -27.070 -13.646 -13.066  1.00  0.00     0.000 Na
ENDROOT
TORSDOF 4
BEGIN_RES ARG D 557
REMARK  4 active torsions:
REMARK  status: ('A' for Active; 'I' for Inactive)
REMARK    1  A    between atoms: CA   and  CB  
REMARK    2  A    between atoms: CB   and  CG  
REMARK    3  A    between atoms: CG   and  CD  
REMARK    4  A    between atoms: CD   and  NE  
REMARK       I    between atoms: NE   and  CZ  
REMARK       I    between atoms: CZ   and  NH1 
REMARK       I    between atoms: CZ   and  NH2 
ROOT
ATOM      1  CA  ARG D 557     -26.217   2.705 -17.014  1.00 35.49     0.159 C 
ENDROOT
BRANCH   1   2
ATOM      2  CB  ARG D 557     -26.789   1.319 -17.183  1.00 35.49     0.034 C 
BRANCH   2   3
ATOM      3  CG  ARG D 557     -25.835   0.203 -17.162  1.00 35.49     0.027 C 
BRANCH   3   4
ATOM      4  CD  ARG D 557     -24.745   0.412 -16.182  1.00 35.49     0.116 C 
BRANCH   4   5
ATOM      5  NE  ARG D 557     -24.890  -0.429 -15.022  1.00 35.49    -0.212 N 
ATOM      6  CZ  ARG D 557     -24.078  -1.401 -14.672  1.00 35.49     0.666 C 
ATOM      7  NH1 ARG D 557     -23.014  -1.727 -15.382  1.00 35.49    -0.235 N 
ATOM      8  NH2 ARG D 557     -24.352  -2.046 -13.576  1.00 35.49    -0.235 N 
ATOM      9  HH  ARG D 557     -22.813  -1.314 -16.106  1.00 35.49     0.174 HD
ATOM     10  HH  ARG D 557     -22.519  -2.368 -15.103  1.00 35.49     0.174 HD
ATOM     11  HH  ARG D 557     -25.042  -1.809 -13.133  1.00 35.49     0.174 HD
ATOM     12  HH  ARG D 557     -23.850  -2.677 -13.315  1.00 35.49     0.174 HD
ATOM     13  HE  ARG D 557     -25.589  -0.336 -14.546  1.00 35.49     0.178 HD
ENDBRANCH   4   5
ENDBRANCH   3   4
ENDBRANCH   2   3
ENDBRANCH   1   2
END_RES ARG D 557
BEGIN_RES GLU D 570
REMARK  3 active torsions:
REMARK  status: ('A' for Active; 'I' for Inactive)
REMARK    5  A    between atoms: CA   and  CB  
REMARK    6  A    between atoms: CB   and  CG  
REMARK    7  A    between atoms: CG   and  CD  
ROOT
ATOM     14  CA  GLU D 570     -18.033  -6.348 -13.375  1.00 32.92     0.160 C 
ENDROOT
BRANCH  14  15
ATOM     15  CB  GLU D 570     -19.500  -6.345 -13.794  1.00 32.92     0.043 C 
BRANCH  15  16
ATOM     16  CG  GLU D 570     -20.446  -5.552 -12.968  1.00 32.92     0.100 C 
BRANCH  16  17
ATOM     17  CD  GLU D 570     -21.731  -5.225 -13.693  1.00 32.92     0.185 C 
ATOM     18  OE1 GLU D 570     -22.268  -4.117 -13.503  1.00 32.92    -0.647 OA
ATOM     19  OE2 GLU D 570     -22.214  -6.093 -14.446  1.00 32.92    -0.647 OA
ENDBRANCH  16  17
ENDBRANCH  15  16
ENDBRANCH  14  15
END_RES GLU D 570
ENDMDL
MODEL 3
REMARK VINA RESULT:      -1.1      7.155      7.197
REMARK  4 active torsions:
REMARK  status: ('A' for Active; 'I' for Inactive)
REMARK    1  A    between atoms: C_6  and  S_13 
REMARK    2  A    between atoms: C_8  and  S_9 
REMARK    3  A    between atoms: C_20  and  S_26 
REMARK    4  A    between atoms: C_22  and  O_25 
ROOT
HETATM    1 NA   UNL     2     -32.354  -8.536   4.541  1.00  0.00     0.000 Na
ENDROOT
TORSDOF 4
BEGIN_RES ARG D 557
REMARK  4 active torsions:
REMARK  status: ('A' for Active; 'I' for Inactive)
REMARK    1  A    between atoms: CA   and  CB  
REMARK    2  A    between atoms: CB   and  CG  
REMARK    3  A    between atoms: CG   and  CD  
REMARK    4  A    between atoms: CD   and  NE  
REMARK       I    between atoms: NE   and  CZ  
REMARK       I    between atoms: CZ   and  NH1 
REMARK       I    between atoms: CZ   and  NH2 
ROOT
ATOM      1  CA  ARG D 557     -26.217   2.705 -17.014  1.00 35.49     0.159 C 
ENDROOT
BRANCH   1   2
ATOM      2  CB  ARG D 557     -26.789   1.319 -17.183  1.00 35.49     0.034 C 
BRANCH   2   3
ATOM      3  CG  ARG D 557     -25.862   0.195 -17.001  1.00 35.49     0.027 C 
BRANCH   3   4
ATOM      4  CD  ARG D 557     -26.284  -0.712 -15.909  1.00 35.49     0.116 C 
BRANCH   4   5
ATOM      5  NE  ARG D 557     -25.239  -0.917 -14.941  1.00 35.49    -0.212 N 
ATOM      6  CZ  ARG D 557     -24.948  -2.057 -14.354  1.00 35.49     0.666 C 
ATOM      7  NH1 ARG D 557     -25.620  -3.169 -14.592  1.00 35.49    -0.235 N 
ATOM      8  NH2 ARG D 557     -23.952  -2.064 -13.517  1.00 35.49    -0.235 N 
ATOM      9  HH  ARG D 557     -26.277  -3.187 -15.141  1.00 35.49     0.174 HD
ATOM     10  HH  ARG D 557     -25.383  -3.883 -14.182  1.00 35.49     0.174 HD
ATOM     11  HH  ARG D 557     -23.532  -1.333 -13.388  1.00 35.49     0.174 HD
ATOM     12  HH  ARG D 557     -23.732  -2.782 -13.122  1.00 35.49     0.174 HD
ATOM     13  HE  ARG D 557     -24.802  -0.238 -14.674  1.00 35.49     0.178 HD
ENDBRANCH   4   5
ENDBRANCH   3   4
ENDBRANCH   2   3
ENDBRANCH   1   2
END_RES ARG D 557
BEGIN_RES GLU D 570
REMARK  3 active torsions:
REMARK  status: ('A' for Active; 'I' for Inactive)
REMARK    5  A    between atoms: CA   and  CB  
REMARK    6  A    between atoms: CB   and  CG  
REMARK    7  A    between atoms: CG   and  CD  
ROOT
ATOM     14  CA  GLU D 570     -18.033  -6.348 -13.375  1.00 32.92     0.160 C 
ENDROOT
BRANCH  14  15
ATOM     15  CB  GLU D 570     -19.500  -6.345 -13.794  1.00 32.92     0.043 C 
BRANCH  15  16
ATOM     16  CG  GLU D 570     -20.452  -5.579 -12.949  1.00 32.92     0.100 C 
BRANCH  16  17
ATOM     17  CD  GLU D 570     -21.681  -5.130 -13.704  1.00 32.92     0.185 C 
ATOM     18  OE1 GLU D 570     -21.644  -5.084 -14.948  1.00 32.92    -0.647 OA
ATOM     19  OE2 GLU D 570     -22.687  -4.806 -13.043  1.00 32.92    -0.647 OA
ENDBRANCH  16  17
ENDBRANCH  15  16
ENDBRANCH  14  15
END_RES GLU D 570
ENDMDL
MODEL 4
REMARK VINA RESULT:      -1.0      6.102      6.102
REMARK  4 active torsions:
REMARK  status: ('A' for Active; 'I' for Inactive)
REMARK    1  A    between atoms: C_6  and  S_13 
REMARK    2  A    between atoms: C_8  and  S_9 
REMARK    3  A    between atoms: C_20  and  S_26 
REMARK    4  A    between atoms: C_22  and  O_25 
ROOT
HETATM    1 NA   UNL     2     -26.856  -3.595  -9.406  1.00  0.00     0.000 Na
ENDROOT
TORSDOF 4
BEGIN_RES ARG D 557
REMARK  4 active torsions:
REMARK  status: ('A' for Active; 'I' for Inactive)
REMARK    1  A    between atoms: CA   and  CB  
REMARK    2  A    between atoms: CB   and  CG  
REMARK    3  A    between atoms: CG   and  CD  
REMARK    4  A    between atoms: CD   and  NE  
REMARK       I    between atoms: NE   and  CZ  
REMARK       I    between atoms: CZ   and  NH1 
REMARK       I    between atoms: CZ   and  NH2 
ROOT
ATOM      1  CA  ARG D 557     -26.217   2.705 -17.014  1.00 35.49     0.159 C 
ENDROOT
BRANCH   1   2
ATOM      2  CB  ARG D 557     -26.789   1.319 -17.183  1.00 35.49     0.034 C 
BRANCH   2   3
ATOM      3  CG  ARG D 557     -25.836   0.203 -17.151  1.00 35.49     0.027 C 
BRANCH   3   4
ATOM      4  CD  ARG D 557     -24.757   0.410 -16.158  1.00 35.49     0.116 C 
BRANCH   4   5
ATOM      5  NE  ARG D 557     -24.901  -0.450 -15.013  1.00 35.49    -0.212 N 
ATOM      6  CZ  ARG D 557     -24.080  -1.418 -14.672  1.00 35.49     0.666 C 
ATOM      7  NH1 ARG D 557     -23.008  -1.721 -15.379  1.00 35.49    -0.235 N 
ATOM      8  NH2 ARG D 557     -24.355  -2.083 -13.587  1.00 35.49    -0.235 N 
ATOM      9  HH  ARG D 557     -22.806  -1.295 -16.095  1.00 35.49     0.174 HD
ATOM     10  HH  ARG D 557     -22.507  -2.361 -15.106  1.00 35.49     0.174 HD
ATOM     11  HH  ARG D 557     -25.051  -1.860 -13.147  1.00 35.49     0.174 HD
ATOM     12  HH  ARG D 557     -23.847  -2.712 -13.333  1.00 35.49     0.174 HD
ATOM     13  HE  ARG D 557     -25.604  -0.372 -14.541  1.00 35.49     0.178 HD
ENDBRANCH   4   5
ENDBRANCH   3   4
ENDBRANCH   2   3
ENDBRANCH   1   2
END_RES ARG D 557
BEGIN_RES GLU D 570
REMARK  3 active torsions:
REMARK  status: ('A' for Active; 'I' for Inactive)
REMARK    5  A    between atoms: CA   and  CB  
REMARK    6  A    between atoms: CB   and  CG  
REMARK    7  A    between atoms: CG   and  CD  
ROOT
ATOM     14  CA  GLU D 570     -18.033  -6.348 -13.375  1.00 32.92     0.160 C 
ENDROOT
BRANCH  14  15
ATOM     15  CB  GLU D 570     -19.500  -6.345 -13.794  1.00 32.92     0.043 C 
BRANCH  15  16
ATOM     16  CG  GLU D 570     -20.448  -5.558 -12.963  1.00 32.92     0.100 C 
BRANCH  16  17
ATOM     17  CD  GLU D 570     -21.731  -5.225 -13.688  1.00 32.92     0.185 C 
ATOM     18  OE1 GLU D 570     -22.209  -6.055 -14.484  1.00 32.92    -0.647 OA
ATOM     19  OE2 GLU D 570     -22.253  -4.114 -13.471  1.00 32.92    -0.647 OA
ENDBRANCH  16  17
ENDBRANCH  15  16
ENDBRANCH  14  15
END_RES GLU D 570
ENDMDL
MODEL 5
REMARK VINA RESULT:      -1.0      8.309      8.362
REMARK  4 active torsions:
REMARK  status: ('A' for Active; 'I' for Inactive)
REMARK    1  A    between atoms: C_6  and  S_13 
REMARK    2  A    between atoms: C_8  and  S_9 
REMARK    3  A    between atoms: C_20  and  S_26 
REMARK    4  A    between atoms: C_22  and  O_25 
ROOT
HETATM    1 NA   UNL     2     -32.911  -9.189 -10.806  1.00  0.00     0.000 Na
ENDROOT
TORSDOF 4
BEGIN_RES ARG D 557
REMARK  4 active torsions:
REMARK  status: ('A' for Active; 'I' for Inactive)
REMARK    1  A    between atoms: CA   and  CB  
REMARK    2  A    between atoms: CB   and  CG  
REMARK    3  A    between atoms: CG   and  CD  
REMARK    4  A    between atoms: CD   and  NE  
REMARK       I    between atoms: NE   and  CZ  
REMARK       I    between atoms: CZ   and  NH1 
REMARK       I    between atoms: CZ   and  NH2 
ROOT
ATOM      1  CA  ARG D 557     -26.217   2.705 -17.014  1.00 35.49     0.159 C 
ENDROOT
BRANCH   1   2
ATOM      2  CB  ARG D 557     -26.789   1.319 -17.183  1.00 35.49     0.034 C 
BRANCH   2   3
ATOM      3  CG  ARG D 557     -25.835   0.203 -17.159  1.00 35.49     0.027 C 
BRANCH   3   4
ATOM      4  CD  ARG D 557     -24.754   0.407 -16.168  1.00 35.49     0.116 C 
BRANCH   4   5
ATOM      5  NE  ARG D 557     -24.905  -0.444 -15.017  1.00 35.49    -0.212 N 
ATOM      6  CZ  ARG D 557     -24.093  -1.417 -14.669  1.00 35.49     0.666 C 
ATOM      7  NH1 ARG D 557     -23.023  -1.734 -15.374  1.00 35.49    -0.235 N 
ATOM      8  NH2 ARG D 557     -24.374  -2.073 -13.581  1.00 35.49    -0.235 N 
ATOM      9  HH  ARG D 557     -22.818  -1.314 -16.093  1.00 35.49     0.174 HD
ATOM     10  HH  ARG D 557     -22.528  -2.376 -15.097  1.00 35.49     0.174 HD
ATOM     11  HH  ARG D 557     -25.067  -1.841 -13.142  1.00 35.49     0.174 HD
ATOM     12  HH  ARG D 557     -23.871  -2.704 -13.322  1.00 35.49     0.174 HD
ATOM     13  HE  ARG D 557     -25.608  -0.357 -14.546  1.00 35.49     0.178 HD
ENDBRANCH   4   5
ENDBRANCH   3   4
ENDBRANCH   2   3
ENDBRANCH   1   2
END_RES ARG D 557
BEGIN_RES GLU D 570
REMARK  3 active torsions:
REMARK  status: ('A' for Active; 'I' for Inactive)
REMARK    5  A    between atoms: CA   and  CB  
REMARK    6  A    between atoms: CB   and  CG  
REMARK    7  A    between atoms: CG   and  CD  
ROOT
ATOM     14  CA  GLU D 570     -18.033  -6.348 -13.375  1.00 32.92     0.160 C 
ENDROOT
BRANCH  14  15
ATOM     15  CB  GLU D 570     -19.500  -6.345 -13.794  1.00 32.92     0.043 C 
BRANCH  15  16
ATOM     16  CG  GLU D 570     -20.442  -5.531 -12.983  1.00 32.92     0.100 C 
BRANCH  16  17
ATOM     17  CD  GLU D 570     -21.738  -5.237 -13.703  1.00 32.92     0.185 C 
ATOM     18  OE1 GLU D 570     -22.310  -4.150 -13.499  1.00 32.92    -0.647 OA
ATOM     19  OE2 GLU D 570     -22.193  -6.111 -14.466  1.00 32.92    -0.647 OA
ENDBRANCH  16  17
ENDBRANCH  15  16
ENDBRANCH  14  15
END_RES GLU D 570
ENDMDL
MODEL 6
REMARK VINA RESULT:      -0.9      7.706      7.981
REMARK  4 active torsions:
REMARK  status: ('A' for Active; 'I' for Inactive)
REMARK    1  A    between atoms: C_6  and  S_13 
REMARK    2  A    between atoms: C_8  and  S_9 
REMARK    3  A    between atoms: C_20  and  S_26 
REMARK    4  A    between atoms: C_22  and  O_25 
ROOT
HETATM    1 NA   UNL     2     -32.384  -8.532   4.524  1.00  0.00     0.000 Na
ENDROOT
TORSDOF 4
BEGIN_RES ARG D 557
REMARK  4 active torsions:
REMARK  status: ('A' for Active; 'I' for Inactive)
REMARK    1  A    between atoms: CA   and  CB  
REMARK    2  A    between atoms: CB   and  CG  
REMARK    3  A    between atoms: CG   and  CD  
REMARK    4  A    between atoms: CD   and  NE  
REMARK       I    between atoms: NE   and  CZ  
REMARK       I    between atoms: CZ   and  NH1 
REMARK       I    between atoms: CZ   and  NH2 
ROOT
ATOM      1  CA  ARG D 557     -26.217   2.705 -17.014  1.00 35.49     0.159 C 
ENDROOT
BRANCH   1   2
ATOM      2  CB  ARG D 557     -26.789   1.319 -17.183  1.00 35.49     0.034 C 
BRANCH   2   3
ATOM      3  CG  ARG D 557     -28.232   1.226 -17.434  1.00 35.49     0.027 C 
BRANCH   3   4
ATOM      4  CD  ARG D 557     -28.909   0.300 -16.497  1.00 35.49     0.116 C 
BRANCH   4   5
ATOM      5  NE  ARG D 557     -29.297  -0.930 -17.136  1.00 35.49    -0.212 N 
ATOM      6  CZ  ARG D 557     -28.671  -2.081 -17.032  1.00 35.49     0.666 C 
ATOM      7  NH1 ARG D 557     -27.573  -2.228 -16.313  1.00 35.49    -0.235 N 
ATOM      8  NH2 ARG D 557     -29.177  -3.099 -17.664  1.00 35.49    -0.235 N 
ATOM      9  HH  ARG D 557     -27.224  -1.572 -15.887  1.00 35.49     0.174 HD
ATOM     10  HH  ARG D 557     -27.209  -3.003 -16.280  1.00 35.49     0.174 HD
ATOM     11  HH  ARG D 557     -29.891  -2.976 -18.114  1.00 35.49     0.174 HD
ATOM     12  HH  ARG D 557     -28.803  -3.859 -17.617  1.00 35.49     0.174 HD
ATOM     13  HE  ARG D 557     -29.953  -0.909 -17.677  1.00 35.49     0.178 HD
ENDBRANCH   4   5
ENDBRANCH   3   4
ENDBRANCH   2   3
ENDBRANCH   1   2
END_RES ARG D 557
BEGIN_RES GLU D 570
REMARK  3 active torsions:
REMARK  status: ('A' for Active; 'I' for Inactive)
REMARK    5  A    between atoms: CA   and  CB  
REMARK    6  A    between atoms: CB   and  CG  
REMARK    7  A    between atoms: CG   and  CD  
ROOT
ATOM     14  CA  GLU D 570     -18.033  -6.348 -13.375  1.00 32.92     0.160 C 
ENDROOT
BRANCH  14  15
ATOM     15  CB  GLU D 570     -19.500  -6.345 -13.794  1.00 32.92     0.043 C 
BRANCH  15  16
ATOM     16  CG  GLU D 570     -20.447  -5.557 -12.964  1.00 32.92     0.100 C 
BRANCH  16  17
ATOM     17  CD  GLU D 570     -21.709  -5.182 -13.706  1.00 32.92     0.185 C 
ATOM     18  OE1 GLU D 570     -22.575  -4.502 -13.122  1.00 32.92    -0.647 OA
ATOM     19  OE2 GLU D 570     -21.841  -5.586 -14.878  1.00 32.92    -0.647 OA
ENDBRANCH  16  17
ENDBRANCH  15  16
ENDBRANCH  14  15
END_RES GLU D 570
ENDMDL
MODEL 7
REMARK VINA RESULT:      -0.9      8.663      8.871
REMARK  4 active torsions:
REMARK  status: ('A' for Active; 'I' for Inactive)
REMARK    1  A    between atoms: C_6  and  S_13 
REMARK    2  A    between atoms: C_8  and  S_9 
REMARK    3  A    between atoms: C_20  and  S_26 
REMARK    4  A    between atoms: C_22  and  O_25 
ROOT
HETATM    1 NA   UNL     2     -27.129 -13.713 -13.105  1.00  0.00     0.000 Na
ENDROOT
TORSDOF 4
BEGIN_RES ARG D 557
REMARK  4 active torsions:
REMARK  status: ('A' for Active; 'I' for Inactive)
REMARK    1  A    between atoms: CA   and  CB  
REMARK    2  A    between atoms: CB   and  CG  
REMARK    3  A    between atoms: CG   and  CD  
REMARK    4  A    between atoms: CD   and  NE  
REMARK       I    between atoms: NE   and  CZ  
REMARK       I    between atoms: CZ   and  NH1 
REMARK       I    between atoms: CZ   and  NH2 
ROOT
ATOM      1  CA  ARG D 557     -26.217   2.705 -17.014  1.00 35.49     0.159 C 
ENDROOT
BRANCH   1   2
ATOM      2  CB  ARG D 557     -26.789   1.319 -17.183  1.00 35.49     0.034 C 
BRANCH   2   3
ATOM      3  CG  ARG D 557     -28.230   1.227 -17.450  1.00 35.49     0.027 C 
BRANCH   3   4
ATOM      4  CD  ARG D 557     -28.920   0.312 -16.512  1.00 35.49     0.116 C 
BRANCH   4   5
ATOM      5  NE  ARG D 557     -29.312  -0.919 -17.145  1.00 35.49    -0.212 N 
ATOM      6  CZ  ARG D 557     -28.692  -2.072 -17.032  1.00 35.49     0.666 C 
ATOM      7  NH1 ARG D 557     -27.596  -2.221 -16.311  1.00 35.49    -0.235 N 
ATOM      8  NH2 ARG D 557     -29.202  -3.092 -17.661  1.00 35.49    -0.235 N 
ATOM      9  HH  ARG D 557     -27.245  -1.564 -15.888  1.00 35.49     0.174 HD
ATOM     10  HH  ARG D 557     -27.237  -2.998 -16.273  1.00 35.49     0.174 HD
ATOM     11  HH  ARG D 557     -29.914  -2.968 -18.113  1.00 35.49     0.174 HD
ATOM     12  HH  ARG D 557     -28.832  -3.853 -17.609  1.00 35.49     0.174 HD
ATOM     13  HE  ARG D 557     -29.967  -0.898 -17.687  1.00 35.49     0.178 HD
ENDBRANCH   4   5
ENDBRANCH   3   4
ENDBRANCH   2   3
ENDBRANCH   1   2
END_RES ARG D 557
BEGIN_RES GLU D 570
REMARK  3 active torsions:
REMARK  status: ('A' for Active; 'I' for Inactive)
REMARK    5  A    between atoms: CA   and  CB  
REMARK    6  A    between atoms: CB   and  CG  
REMARK    7  A    between atoms: CG   and  CD  
ROOT
ATOM     14  CA  GLU D 570     -18.033  -6.348 -13.375  1.00 32.92     0.160 C 
ENDROOT
BRANCH  14  15
ATOM     15  CB  GLU D 570     -19.500  -6.345 -13.794  1.00 32.92     0.043 C 
BRANCH  15  16
ATOM     16  CG  GLU D 570     -20.440  -5.524 -12.989  1.00 32.92     0.100 C 
BRANCH  16  17
ATOM     17  CD  GLU D 570     -21.744  -5.251 -13.701  1.00 32.92     0.185 C 
ATOM     18  OE1 GLU D 570     -22.208  -6.119 -14.466  1.00 32.92    -0.647 OA
ATOM     19  OE2 GLU D 570     -22.299  -4.152 -13.506  1.00 32.92    -0.647 OA
ENDBRANCH  16  17
ENDBRANCH  15  16
ENDBRANCH  14  15
END_RES GLU D 570
ENDMDL
MODEL 8
REMARK VINA RESULT:      -0.9      8.224      8.224
REMARK  4 active torsions:
REMARK  status: ('A' for Active; 'I' for Inactive)
REMARK    1  A    between atoms: C_6  and  S_13 
REMARK    2  A    between atoms: C_8  and  S_9 
REMARK    3  A    between atoms: C_20  and  S_26 
REMARK    4  A    between atoms: C_22  and  O_25 
ROOT
HETATM    1 NA   UNL     2     -35.831   1.798  -9.420  1.00  0.00     0.000 Na
ENDROOT
TORSDOF 4
BEGIN_RES ARG D 557
REMARK  4 active torsions:
REMARK  status: ('A' for Active; 'I' for Inactive)
REMARK    1  A    between atoms: CA   and  CB  
REMARK    2  A    between atoms: CB   and  CG  
REMARK    3  A    between atoms: CG   and  CD  
REMARK    4  A    between atoms: CD   and  NE  
REMARK       I    between atoms: NE   and  CZ  
REMARK       I    between atoms: CZ   and  NH1 
REMARK       I    between atoms: CZ   and  NH2 
ROOT
ATOM      1  CA  ARG D 557     -26.217   2.705 -17.014  1.00 35.49     0.159 C 
ENDROOT
BRANCH   1   2
ATOM      2  CB  ARG D 557     -26.789   1.319 -17.183  1.00 35.49     0.034 C 
BRANCH   2   3
ATOM      3  CG  ARG D 557     -25.836   0.203 -17.157  1.00 35.49     0.027 C 
BRANCH   3   4
ATOM      4  CD  ARG D 557     -24.755   0.407 -16.165  1.00 35.49     0.116 C 
BRANCH   4   5
ATOM      5  NE  ARG D 557     -24.905  -0.447 -15.016  1.00 35.49    -0.212 N 
ATOM      6  CZ  ARG D 557     -24.090  -1.418 -14.669  1.00 35.49     0.666 C 
ATOM      7  NH1 ARG D 557     -23.018  -1.729 -15.373  1.00 35.49    -0.235 N 
ATOM      8  NH2 ARG D 557     -24.370  -2.077 -13.582  1.00 35.49    -0.235 N 
ATOM      9  HH  ARG D 557     -22.813  -1.307 -16.090  1.00 35.49     0.174 HD
ATOM     10  HH  ARG D 557     -22.521  -2.370 -15.097  1.00 35.49     0.174 HD
ATOM     11  HH  ARG D 557     -25.065  -1.849 -13.144  1.00 35.49     0.174 HD
ATOM     12  HH  ARG D 557     -23.865  -2.707 -13.324  1.00 35.49     0.174 HD
ATOM     13  HE  ARG D 557     -25.609  -0.364 -14.546  1.00 35.49     0.178 HD
ENDBRANCH   4   5
ENDBRANCH   3   4
ENDBRANCH   2   3
ENDBRANCH   1   2
END_RES ARG D 557
BEGIN_RES GLU D 570
REMARK  3 active torsions:
REMARK  status: ('A' for Active; 'I' for Inactive)
REMARK    5  A    between atoms: CA   and  CB  
REMARK    6  A    between atoms: CB   and  CG  
REMARK    7  A    between atoms: CG   and  CD  
ROOT
ATOM     14  CA  GLU D 570     -18.033  -6.348 -13.375  1.00 32.92     0.160 C 
ENDROOT
BRANCH  14  15
ATOM     15  CB  GLU D 570     -19.500  -6.345 -13.794  1.00 32.92     0.043 C 
BRANCH  15  16
ATOM     16  CG  GLU D 570     -20.442  -5.531 -12.983  1.00 32.92     0.100 C 
BRANCH  16  17
ATOM     17  CD  GLU D 570     -21.743  -5.248 -13.698  1.00 32.92     0.185 C 
ATOM     18  OE1 GLU D 570     -22.234  -6.128 -14.431  1.00 32.92    -0.647 OA
ATOM     19  OE2 GLU D 570     -22.267  -4.129 -13.536  1.00 32.92    -0.647 OA
ENDBRANCH  16  17
ENDBRANCH  15  16
ENDBRANCH  14  15
END_RES GLU D 570
ENDMDL
MODEL 9
REMARK VINA RESULT:      -0.9      6.867      6.910
REMARK  4 active torsions:
REMARK  status: ('A' for Active; 'I' for Inactive)
REMARK    1  A    between atoms: C_6  and  S_13 
REMARK    2  A    between atoms: C_8  and  S_9 
REMARK    3  A    between atoms: C_20  and  S_26 
REMARK    4  A    between atoms: C_22  and  O_25 
ROOT
HETATM    1 NA   UNL     2     -22.850  -0.349 -16.839  1.00  0.00     0.000 Na
ENDROOT
TORSDOF 4
BEGIN_RES ARG D 557
REMARK  4 active torsions:
REMARK  status: ('A' for Active; 'I' for Inactive)
REMARK    1  A    between atoms: CA   and  CB  
REMARK    2  A    between atoms: CB   and  CG  
REMARK    3  A    between atoms: CG   and  CD  
REMARK    4  A    between atoms: CD   and  NE  
REMARK       I    between atoms: NE   and  CZ  
REMARK       I    between atoms: CZ   and  NH1 
REMARK       I    between atoms: CZ   and  NH2 
ROOT
ATOM      1  CA  ARG D 557     -26.217   2.705 -17.014  1.00 35.49     0.159 C 
ENDROOT
BRANCH   1   2
ATOM      2  CB  ARG D 557     -26.789   1.319 -17.183  1.00 35.49     0.034 C 
BRANCH   2   3
ATOM      3  CG  ARG D 557     -25.862   0.195 -17.001  1.00 35.49     0.027 C 
BRANCH   3   4
ATOM      4  CD  ARG D 557     -26.262  -0.691 -15.884  1.00 35.49     0.116 C 
BRANCH   4   5
ATOM      5  NE  ARG D 557     -25.193  -0.890 -14.941  1.00 35.49    -0.212 N 
ATOM      6  CZ  ARG D 557     -24.888  -2.025 -14.353  1.00 35.49     0.666 C 
ATOM      7  NH1 ARG D 557     -25.566  -3.138 -14.566  1.00 35.49    -0.235 N 
ATOM      8  NH2 ARG D 557     -23.872  -2.027 -13.541  1.00 35.49    -0.235 N 
ATOM      9  HH  ARG D 557     -26.238  -3.160 -15.098  1.00 35.49     0.174 HD
ATOM     10  HH  ARG D 557     -25.320  -3.849 -14.156  1.00 35.49     0.174 HD
ATOM     11  HH  ARG D 557     -23.448  -1.295 -13.429  1.00 35.49     0.174 HD
ATOM     12  HH  ARG D 557     -23.642  -2.741 -13.146  1.00 35.49     0.174 HD
ATOM     13  HE  ARG D 557     -24.749  -0.209 -14.690  1.00 35.49     0.178 HD
ENDBRANCH   4   5
ENDBRANCH   3   4
ENDBRANCH   2   3
ENDBRANCH   1   2
END_RES ARG D 557
BEGIN_RES GLU D 570
REMARK  3 active torsions:
REMARK  status: ('A' for Active; 'I' for Inactive)
REMARK    5  A    between atoms: CA   and  CB  
REMARK    6  A    between atoms: CB   and  CG  
REMARK    7  A    between atoms: CG   and  CD  
ROOT
ATOM     14  CA  GLU D 570     -18.033  -6.348 -13.375  1.00 32.92     0.160 C 
ENDROOT
BRANCH  14  15
ATOM     15  CB  GLU D 570     -19.500  -6.345 -13.794  1.00 32.92     0.043 C 
BRANCH  15  16
ATOM     16  CG  GLU D 570     -20.448  -5.562 -12.960  1.00 32.92     0.100 C 
BRANCH  16  17
ATOM     17  CD  GLU D 570     -21.675  -5.119 -13.722  1.00 32.92     0.185 C 
ATOM     18  OE1 GLU D 570     -21.617  -5.027 -14.964  1.00 32.92    -0.647 OA
ATOM     19  OE2 GLU D 570     -22.702  -4.844 -13.070  1.00 32.92    -0.647 OA
ENDBRANCH  16  17
ENDBRANCH  15  16
ENDBRANCH  14  15
END_RES GLU D 570
ENDMDL
