MODEL 1
REMARK VINA RESULT:      -7.7      0.000      0.000
REMARK  7 active torsions:
REMARK  status: ('A' for Active; 'I' for Inactive)
REMARK    1  A    between atoms: C_2  and  C_3 
REMARK    2  A    between atoms: C_3  and  C_4 
REMARK    3  A    between atoms: C_3  and  C_28 
REMARK    4  A    between atoms: C_4  and  C_5 
REMARK    5  A    between atoms: C_5  and  C_6 
REMARK    6  A    between atoms: C_6  and  C_8 
REMARK    7  A    between atoms: C_23  and  O_25 
ROOT
HETATM    1  C   UNL     1     -22.737 -10.279  -1.038  1.00  0.00    -0.002 C 
HETATM    2  C   UNL     1     -23.504  -9.495   0.075  1.00  0.00     0.006 C 
HETATM    3  C   UNL     1     -22.423  -8.671   0.811  1.00  0.00     0.006 C 
HETATM    4  C   UNL     1     -21.174  -8.774  -0.075  1.00  0.00    -0.001 C 
HETATM    5  C   UNL     1     -21.256 -10.298  -0.495  1.00  0.00    -0.036 C 
HETATM    6  C   UNL     1     -19.950 -10.496  -1.284  1.00  0.00     0.010 C 
HETATM    7  C   UNL     1     -19.725  -9.691  -2.550  1.00  0.00     0.007 C 
HETATM    8  C   UNL     1     -20.254  -8.232  -2.581  1.00  0.00     0.003 C 
HETATM    9  C   UNL     1     -21.224  -7.894  -1.404  1.00  0.00    -0.001 C 
HETATM   10  C   UNL     1     -21.624  -6.426  -1.352  1.00  0.00     0.033 C 
HETATM   11  C   UNL     1     -22.257  -6.098  -2.685  1.00  0.00    -0.023 C 
HETATM   12  C   UNL     1     -22.011  -6.741  -3.854  1.00  0.00    -0.072 C 
HETATM   13  C   UNL     1     -20.918  -7.841  -4.006  1.00  0.00    -0.017 C 
HETATM   14  C   UNL     1     -19.879  -7.196  -4.982  1.00  0.00     0.016 C 
HETATM   15  C   UNL     1     -20.526  -6.706  -6.304  1.00  0.00     0.033 C 
HETATM   16  C   UNL     1     -21.633  -5.681  -6.027  1.00  0.00     0.122 C 
HETATM   17  C   UNL     1     -22.700  -6.291  -5.108  1.00  0.00     0.066 C 
HETATM   18  C   UNL     1     -21.474  -9.104  -4.750  1.00  0.00     0.020 C 
HETATM   19  C   UNL     1     -21.201 -11.354   0.639  1.00  0.00     0.016 C 
ENDROOT
BRANCH   1  20
HETATM   20  C   UNL     1     -23.499 -11.283  -1.902  1.00  0.00    -0.014 C 
HETATM   21  C   UNL     1     -23.939 -12.490  -0.995  1.00  0.00     0.010 C 
BRANCH  20  22
HETATM   22  C   UNL     1     -22.801 -11.810  -3.139  1.00  0.00     0.005 C 
BRANCH  22  23
HETATM   23  C   UNL     1     -22.286 -13.229  -2.844  1.00  0.00     0.005 C 
BRANCH  23  24
HETATM   24  C   UNL     1     -21.079 -13.672  -3.679  1.00  0.00    -0.012 C 
BRANCH  24  25
HETATM   25  C   UNL     1     -19.838 -13.931  -2.795  1.00  0.00     0.000 C 
HETATM   26  C   UNL     1     -20.160 -14.267  -1.340  1.00  0.00     0.005 C 
ENDBRANCH  24  25
BRANCH  24  27
HETATM   27  C   UNL     1     -20.784 -12.690  -4.852  1.00  0.00    -0.019 C 
HETATM   28  C   UNL     1     -19.280 -12.401  -4.987  1.00  0.00     0.010 C 
HETATM   29  C   UNL     1     -21.298 -13.214  -6.202  1.00  0.00     0.010 C 
ENDBRANCH  24  27
ENDBRANCH  23  24
ENDBRANCH  22  23
ENDBRANCH  20  22
ENDBRANCH   1  20
BRANCH  16  30
HETATM   30  O   UNL     1     -22.209  -5.214  -7.237  1.00  0.00    -0.395 OA
HETATM   31  H   UNL     1     -21.958  -4.285  -7.357  1.00  0.00     0.210 HD
ENDBRANCH  16  30
TORSDOF 7
BEGIN_RES ARG D 557
REMARK  4 active torsions:
REMARK  status: ('A' for Active; 'I' for Inactive)
REMARK    1  A    between atoms: CA   and  CB  
REMARK    2  A    between atoms: CB   and  CG  
REMARK    3  A    between atoms: CG   and  CD  
REMARK    4  A    between atoms: CD   and  NE  
REMARK       I    between atoms: NE   and  CZ  
REMARK       I    between atoms: CZ   and  NH1 
REMARK       I    between atoms: CZ   and  NH2 
ROOT
ATOM      1  CA  ARG D 557     -26.217   2.705 -17.014  1.00 35.49     0.159 C 
ENDROOT
BRANCH   1   2
ATOM      2  CB  ARG D 557     -26.789   1.319 -17.183  1.00 35.49     0.034 C 
BRANCH   2   3
ATOM      3  CG  ARG D 557     -25.865   0.195 -16.988  1.00 35.49     0.027 C 
BRANCH   3   4
ATOM      4  CD  ARG D 557     -26.287  -0.697 -15.884  1.00 35.49     0.116 C 
BRANCH   4   5
ATOM      5  NE  ARG D 557     -25.230  -0.921 -14.934  1.00 35.49    -0.212 N 
ATOM      6  CZ  ARG D 557     -24.940  -2.068 -14.363  1.00 35.49     0.666 C 
ATOM      7  NH1 ARG D 557     -25.623  -3.172 -14.602  1.00 35.49    -0.235 N 
ATOM      8  NH2 ARG D 557     -23.932  -2.092 -13.540  1.00 35.49    -0.235 N 
ATOM      9  HH  ARG D 557     -26.289  -3.180 -15.142  1.00 35.49     0.174 HD
ATOM     10  HH  ARG D 557     -25.386  -3.892 -14.203  1.00 35.49     0.174 HD
ATOM     11  HH  ARG D 557     -23.504  -1.365 -13.410  1.00 35.49     0.174 HD
ATOM     12  HH  ARG D 557     -23.712  -2.815 -13.155  1.00 35.49     0.174 HD
ATOM     13  HE  ARG D 557     -24.784  -0.247 -14.666  1.00 35.49     0.178 HD
ENDBRANCH   4   5
ENDBRANCH   3   4
ENDBRANCH   2   3
ENDBRANCH   1   2
END_RES ARG D 557
BEGIN_RES GLU D 570
REMARK  3 active torsions:
REMARK  status: ('A' for Active; 'I' for Inactive)
REMARK    5  A    between atoms: CA   and  CB  
REMARK    6  A    between atoms: CB   and  CG  
REMARK    7  A    between atoms: CG   and  CD  
ROOT
ATOM     14  CA  GLU D 570     -18.033  -6.348 -13.375  1.00 32.92     0.160 C 
ENDROOT
BRANCH  14  15
ATOM     15  CB  GLU D 570     -19.500  -6.345 -13.794  1.00 32.92     0.043 C 
BRANCH  15  16
ATOM     16  CG  GLU D 570     -20.445  -5.548 -12.971  1.00 32.92     0.100 C 
BRANCH  16  17
ATOM     17  CD  GLU D 570     -21.682  -5.130 -13.732  1.00 32.92     0.185 C 
ATOM     18  OE1 GLU D 570     -22.740  -4.932 -13.104  1.00 32.92    -0.647 OA
ATOM     19  OE2 GLU D 570     -21.596  -5.017 -14.970  1.00 32.92    -0.647 OA
ENDBRANCH  16  17
ENDBRANCH  15  16
ENDBRANCH  14  15
END_RES GLU D 570
ENDMDL
MODEL 2
REMARK VINA RESULT:      -7.4      1.086      1.450
REMARK  7 active torsions:
REMARK  status: ('A' for Active; 'I' for Inactive)
REMARK    1  A    between atoms: C_2  and  C_3 
REMARK    2  A    between atoms: C_3  and  C_4 
REMARK    3  A    between atoms: C_3  and  C_28 
REMARK    4  A    between atoms: C_4  and  C_5 
REMARK    5  A    between atoms: C_5  and  C_6 
REMARK    6  A    between atoms: C_6  and  C_8 
REMARK    7  A    between atoms: C_23  and  O_25 
ROOT
HETATM    1  C   UNL     1     -22.789 -10.268  -1.002  1.00  0.00    -0.002 C 
HETATM    2  C   UNL     1     -23.554  -9.468   0.100  1.00  0.00     0.006 C 
HETATM    3  C   UNL     1     -22.468  -8.653   0.840  1.00  0.00     0.006 C 
HETATM    4  C   UNL     1     -21.214  -8.776  -0.036  1.00  0.00    -0.001 C 
HETATM    5  C   UNL     1     -21.312 -10.301  -0.449  1.00  0.00    -0.036 C 
HETATM    6  C   UNL     1     -20.002 -10.520  -1.228  1.00  0.00     0.010 C 
HETATM    7  C   UNL     1     -19.759  -9.723  -2.496  1.00  0.00     0.007 C 
HETATM    8  C   UNL     1     -20.270  -8.259  -2.539  1.00  0.00     0.003 C 
HETATM    9  C   UNL     1     -21.244  -7.902  -1.371  1.00  0.00    -0.001 C 
HETATM   10  C   UNL     1     -21.628  -6.430  -1.330  1.00  0.00     0.033 C 
HETATM   11  C   UNL     1     -22.247  -6.101  -2.668  1.00  0.00    -0.023 C 
HETATM   12  C   UNL     1     -22.000  -6.753  -3.832  1.00  0.00    -0.072 C 
HETATM   13  C   UNL     1     -20.920  -7.867  -3.970  1.00  0.00    -0.017 C 
HETATM   14  C   UNL     1     -19.866  -7.240  -4.943  1.00  0.00     0.016 C 
HETATM   15  C   UNL     1     -20.498  -6.750  -6.272  1.00  0.00     0.033 C 
HETATM   16  C   UNL     1     -21.594  -5.710  -6.008  1.00  0.00     0.122 C 
HETATM   17  C   UNL     1     -22.675  -6.302  -5.093  1.00  0.00     0.066 C 
HETATM   18  C   UNL     1     -21.486  -9.128  -4.711  1.00  0.00     0.020 C 
HETATM   19  C   UNL     1     -21.278 -11.351   0.691  1.00  0.00     0.016 C 
ENDROOT
BRANCH   1  20
HETATM   20  C   UNL     1     -23.556 -11.267  -1.866  1.00  0.00    -0.014 C 
HETATM   21  C   UNL     1     -23.760 -12.589  -1.040  1.00  0.00     0.010 C 
BRANCH  20  22
HETATM   22  C   UNL     1     -22.976 -11.605  -3.225  1.00  0.00     0.005 C 
BRANCH  22  23
HETATM   23  C   UNL     1     -22.182 -12.916  -3.106  1.00  0.00     0.005 C 
BRANCH  23  24
HETATM   24  C   UNL     1     -21.445 -13.351  -4.378  1.00  0.00    -0.012 C 
BRANCH  24  25
HETATM   25  C   UNL     1     -20.006 -12.791  -4.424  1.00  0.00     0.000 C 
HETATM   26  C   UNL     1     -19.050 -13.426  -3.416  1.00  0.00     0.005 C 
ENDBRANCH  24  25
BRANCH  24  27
HETATM   27  C   UNL     1     -22.257 -13.025  -5.667  1.00  0.00    -0.019 C 
HETATM   28  C   UNL     1     -21.337 -12.825  -6.883  1.00  0.00     0.010 C 
HETATM   29  C   UNL     1     -23.282 -14.117  -6.010  1.00  0.00     0.010 C 
ENDBRANCH  24  27
ENDBRANCH  23  24
ENDBRANCH  22  23
ENDBRANCH  20  22
ENDBRANCH   1  20
BRANCH  16  30
HETATM   30  O   UNL     1     -22.156  -5.243  -7.225  1.00  0.00    -0.395 OA
HETATM   31  H   UNL     1     -22.657  -5.969  -7.629  1.00  0.00     0.210 HD
ENDBRANCH  16  30
TORSDOF 7
BEGIN_RES ARG D 557
REMARK  4 active torsions:
REMARK  status: ('A' for Active; 'I' for Inactive)
REMARK    1  A    between atoms: CA   and  CB  
REMARK    2  A    between atoms: CB   and  CG  
REMARK    3  A    between atoms: CG   and  CD  
REMARK    4  A    between atoms: CD   and  NE  
REMARK       I    between atoms: NE   and  CZ  
REMARK       I    between atoms: CZ   and  NH1 
REMARK       I    between atoms: CZ   and  NH2 
ROOT
ATOM      1  CA  ARG D 557     -26.217   2.705 -17.014  1.00 35.49     0.159 C 
ENDROOT
BRANCH   1   2
ATOM      2  CB  ARG D 557     -26.789   1.319 -17.183  1.00 35.49     0.034 C 
BRANCH   2   3
ATOM      3  CG  ARG D 557     -28.237   1.174 -16.990  1.00 35.49     0.027 C 
BRANCH   3   4
ATOM      4  CD  ARG D 557     -28.629  -0.222 -16.689  1.00 35.49     0.116 C 
BRANCH   4   5
ATOM      5  NE  ARG D 557     -27.600  -0.933 -15.977  1.00 35.49    -0.212 N 
ATOM      6  CZ  ARG D 557     -27.376  -2.226 -16.039  1.00 35.49     0.666 C 
ATOM      7  NH1 ARG D 557     -28.111  -3.038 -16.776  1.00 35.49    -0.235 N 
ATOM      8  NH2 ARG D 557     -26.384  -2.698 -15.341  1.00 35.49    -0.235 N 
ATOM      9  HH  ARG D 557     -28.767  -2.749 -17.245  1.00 35.49     0.174 HD
ATOM     10  HH  ARG D 557     -27.917  -3.873 -16.779  1.00 35.49     0.174 HD
ATOM     11  HH  ARG D 557     -25.922  -2.149 -14.880  1.00 35.49     0.174 HD
ATOM     12  HH  ARG D 557     -26.207  -3.527 -15.358  1.00 35.49     0.174 HD
ATOM     13  HE  ARG D 557     -27.125  -0.498 -15.421  1.00 35.49     0.178 HD
ENDBRANCH   4   5
ENDBRANCH   3   4
ENDBRANCH   2   3
ENDBRANCH   1   2
END_RES ARG D 557
BEGIN_RES GLU D 570
REMARK  3 active torsions:
REMARK  status: ('A' for Active; 'I' for Inactive)
REMARK    5  A    between atoms: CA   and  CB  
REMARK    6  A    between atoms: CB   and  CG  
REMARK    7  A    between atoms: CG   and  CD  
ROOT
ATOM     14  CA  GLU D 570     -18.033  -6.348 -13.375  1.00 32.92     0.160 C 
ENDROOT
BRANCH  14  15
ATOM     15  CB  GLU D 570     -19.500  -6.345 -13.794  1.00 32.92     0.043 C 
BRANCH  15  16
ATOM     16  CG  GLU D 570     -20.444  -5.540 -12.976  1.00 32.92     0.100 C 
BRANCH  16  17
ATOM     17  CD  GLU D 570     -21.726  -5.215 -13.705  1.00 32.92     0.185 C 
ATOM     18  OE1 GLU D 570     -22.048  -5.896 -14.698  1.00 32.92    -0.647 OA
ATOM     19  OE2 GLU D 570     -22.409  -4.258 -13.290  1.00 32.92    -0.647 OA
ENDBRANCH  16  17
ENDBRANCH  15  16
ENDBRANCH  14  15
END_RES GLU D 570
ENDMDL
MODEL 3
REMARK VINA RESULT:      -7.1      2.573      5.778
REMARK  7 active torsions:
REMARK  status: ('A' for Active; 'I' for Inactive)
REMARK    1  A    between atoms: C_2  and  C_3 
REMARK    2  A    between atoms: C_3  and  C_4 
REMARK    3  A    between atoms: C_3  and  C_28 
REMARK    4  A    between atoms: C_4  and  C_5 
REMARK    5  A    between atoms: C_5  and  C_6 
REMARK    6  A    between atoms: C_6  and  C_8 
REMARK    7  A    between atoms: C_23  and  O_25 
ROOT
HETATM    1  C   UNL     1     -21.514 -10.976  -4.308  1.00  0.00    -0.002 C 
HETATM    2  C   UNL     1     -22.685 -11.928  -3.904  1.00  0.00     0.006 C 
HETATM    3  C   UNL     1     -22.273 -13.324  -4.425  1.00  0.00     0.006 C 
HETATM    4  C   UNL     1     -20.797 -13.181  -4.819  1.00  0.00    -0.001 C 
HETATM    5  C   UNL     1     -20.828 -11.752  -5.498  1.00  0.00    -0.036 C 
HETATM    6  C   UNL     1     -19.391 -11.607  -6.034  1.00  0.00     0.010 C 
HETATM    7  C   UNL     1     -18.236 -11.616  -5.051  1.00  0.00     0.007 C 
HETATM    8  C   UNL     1     -18.346 -12.545  -3.813  1.00  0.00     0.003 C 
HETATM    9  C   UNL     1     -19.781 -13.120  -3.590  1.00  0.00    -0.001 C 
HETATM   10  C   UNL     1     -19.855 -14.145  -2.467  1.00  0.00     0.033 C 
HETATM   11  C   UNL     1     -19.347 -13.462  -1.218  1.00  0.00    -0.023 C 
HETATM   12  C   UNL     1     -18.486 -12.414  -1.187  1.00  0.00    -0.072 C 
HETATM   13  C   UNL     1     -17.787 -11.850  -2.461  1.00  0.00    -0.017 C 
HETATM   14  C   UNL     1     -16.273 -12.164  -2.221  1.00  0.00     0.016 C 
HETATM   15  C   UNL     1     -15.755 -11.607  -0.869  1.00  0.00     0.033 C 
HETATM   16  C   UNL     1     -16.561 -12.177   0.305  1.00  0.00     0.122 C 
HETATM   17  C   UNL     1     -18.051 -11.849   0.132  1.00  0.00     0.066 C 
HETATM   18  C   UNL     1     -17.893 -10.287  -2.529  1.00  0.00     0.020 C 
HETATM   19  C   UNL     1     -21.736 -11.573  -6.741  1.00  0.00     0.016 C 
ENDROOT
BRANCH   1  20
HETATM   20  C   UNL     1     -21.641  -9.479  -4.031  1.00  0.00    -0.014 C 
HETATM   21  C   UNL     1     -20.785  -8.699  -5.095  1.00  0.00     0.010 C 
BRANCH  20  22
HETATM   22  C   UNL     1     -21.281  -8.994  -2.641  1.00  0.00     0.005 C 
BRANCH  22  23
HETATM   23  C   UNL     1     -21.191 -10.210  -1.705  1.00  0.00     0.005 C 
BRANCH  23  24
HETATM   24  C   UNL     1     -21.963 -10.080  -0.388  1.00  0.00    -0.012 C 
BRANCH  24  25
HETATM   25  C   UNL     1     -23.439 -10.505  -0.547  1.00  0.00     0.000 C 
HETATM   26  C   UNL     1     -23.779 -11.853   0.089  1.00  0.00     0.005 C 
ENDBRANCH  24  25
BRANCH  24  27
HETATM   27  C   UNL     1     -21.813  -8.663   0.243  1.00  0.00    -0.019 C 
HETATM   28  C   UNL     1     -23.179  -8.034   0.561  1.00  0.00     0.010 C 
HETATM   29  C   UNL     1     -20.976  -8.678   1.532  1.00  0.00     0.010 C 
ENDBRANCH  24  27
ENDBRANCH  23  24
ENDBRANCH  22  23
ENDBRANCH  20  22
ENDBRANCH   1  20
BRANCH  16  30
HETATM   30  O   UNL     1     -16.072 -11.686   1.544  1.00  0.00    -0.395 OA
HETATM   31  H   UNL     1     -15.328 -12.244   1.822  1.00  0.00     0.210 HD
ENDBRANCH  16  30
TORSDOF 7
BEGIN_RES ARG D 557
REMARK  4 active torsions:
REMARK  status: ('A' for Active; 'I' for Inactive)
REMARK    1  A    between atoms: CA   and  CB  
REMARK    2  A    between atoms: CB   and  CG  
REMARK    3  A    between atoms: CG   and  CD  
REMARK    4  A    between atoms: CD   and  NE  
REMARK       I    between atoms: NE   and  CZ  
REMARK       I    between atoms: CZ   and  NH1 
REMARK       I    between atoms: CZ   and  NH2 
ROOT
ATOM      1  CA  ARG D 557     -26.217   2.705 -17.014  1.00 35.49     0.159 C 
ENDROOT
BRANCH   1   2
ATOM      2  CB  ARG D 557     -26.789   1.319 -17.183  1.00 35.49     0.034 C 
BRANCH   2   3
ATOM      3  CG  ARG D 557     -25.863   0.195 -16.998  1.00 35.49     0.027 C 
BRANCH   3   4
ATOM      4  CD  ARG D 557     -26.269  -0.692 -15.884  1.00 35.49     0.116 C 
BRANCH   4   5
ATOM      5  NE  ARG D 557     -25.204  -0.894 -14.936  1.00 35.49    -0.212 N 
ATOM      6  CZ  ARG D 557     -24.894  -2.034 -14.360  1.00 35.49     0.666 C 
ATOM      7  NH1 ARG D 557     -25.562  -3.149 -14.590  1.00 35.49    -0.235 N 
ATOM      8  NH2 ARG D 557     -23.883  -2.037 -13.541  1.00 35.49    -0.235 N 
ATOM      9  HH  ARG D 557     -26.229  -3.171 -15.127  1.00 35.49     0.174 HD
ATOM     10  HH  ARG D 557     -25.312  -3.863 -14.188  1.00 35.49     0.174 HD
ATOM     11  HH  ARG D 557     -23.466  -1.303 -13.417  1.00 35.49     0.174 HD
ATOM     12  HH  ARG D 557     -23.650  -2.754 -13.153  1.00 35.49     0.174 HD
ATOM     13  HE  ARG D 557     -24.768  -0.212 -14.674  1.00 35.49     0.178 HD
ENDBRANCH   4   5
ENDBRANCH   3   4
ENDBRANCH   2   3
ENDBRANCH   1   2
END_RES ARG D 557
BEGIN_RES GLU D 570
REMARK  3 active torsions:
REMARK  status: ('A' for Active; 'I' for Inactive)
REMARK    5  A    between atoms: CA   and  CB  
REMARK    6  A    between atoms: CB   and  CG  
REMARK    7  A    between atoms: CG   and  CD  
ROOT
ATOM     14  CA  GLU D 570     -18.033  -6.348 -13.375  1.00 32.92     0.160 C 
ENDROOT
BRANCH  14  15
ATOM     15  CB  GLU D 570     -19.500  -6.345 -13.794  1.00 32.92     0.043 C 
BRANCH  15  16
ATOM     16  CG  GLU D 570     -20.448  -5.558 -12.963  1.00 32.92     0.100 C 
BRANCH  16  17
ATOM     17  CD  GLU D 570     -21.690  -5.146 -13.717  1.00 32.92     0.185 C 
ATOM     18  OE1 GLU D 570     -22.715  -4.843 -13.076  1.00 32.92    -0.647 OA
ATOM     19  OE2 GLU D 570     -21.644  -5.141 -14.963  1.00 32.92    -0.647 OA
ENDBRANCH  16  17
ENDBRANCH  15  16
ENDBRANCH  14  15
END_RES GLU D 570
ENDMDL
MODEL 4
REMARK VINA RESULT:      -7.1      2.757      5.364
REMARK  7 active torsions:
REMARK  status: ('A' for Active; 'I' for Inactive)
REMARK    1  A    between atoms: C_2  and  C_3 
REMARK    2  A    between atoms: C_3  and  C_4 
REMARK    3  A    between atoms: C_3  and  C_28 
REMARK    4  A    between atoms: C_4  and  C_5 
REMARK    5  A    between atoms: C_5  and  C_6 
REMARK    6  A    between atoms: C_6  and  C_8 
REMARK    7  A    between atoms: C_23  and  O_25 
ROOT
HETATM    1  C   UNL     1     -21.049 -10.050  -3.712  1.00  0.00    -0.002 C 
HETATM    2  C   UNL     1     -21.654  -9.784  -5.128  1.00  0.00     0.006 C 
HETATM    3  C   UNL     1     -20.872  -8.572  -5.684  1.00  0.00     0.006 C 
HETATM    4  C   UNL     1     -19.684  -8.394  -4.728  1.00  0.00    -0.001 C 
HETATM    5  C   UNL     1     -20.401  -8.660  -3.342  1.00  0.00    -0.036 C 
HETATM    6  C   UNL     1     -19.282  -8.365  -2.327  1.00  0.00     0.010 C 
HETATM    7  C   UNL     1     -18.023  -9.211  -2.354  1.00  0.00     0.007 C 
HETATM    8  C   UNL     1     -17.499  -9.684  -3.736  1.00  0.00     0.003 C 
HETATM    9  C   UNL     1     -18.523  -9.475  -4.897  1.00  0.00    -0.001 C 
HETATM   10  C   UNL     1     -17.956  -9.801  -6.272  1.00  0.00     0.033 C 
HETATM   11  C   UNL     1     -17.482 -11.234  -6.221  1.00  0.00    -0.023 C 
HETATM   12  C   UNL     1     -17.096 -11.898  -5.103  1.00  0.00    -0.072 C 
HETATM   13  C   UNL     1     -16.961 -11.211  -3.711  1.00  0.00    -0.017 C 
HETATM   14  C   UNL     1     -15.427 -11.290  -3.408  1.00  0.00     0.016 C 
HETATM   15  C   UNL     1     -14.875 -12.736  -3.499  1.00  0.00     0.033 C 
HETATM   16  C   UNL     1     -15.126 -13.334  -4.889  1.00  0.00     0.122 C 
HETATM   17  C   UNL     1     -16.628 -13.319  -5.207  1.00  0.00     0.066 C 
HETATM   18  C   UNL     1     -17.661 -12.050  -2.586  1.00  0.00     0.020 C 
HETATM   19  C   UNL     1     -21.559  -7.710  -2.945  1.00  0.00     0.016 C 
ENDROOT
BRANCH   1  20
HETATM   20  C   UNL     1     -21.668 -11.132  -2.829  1.00  0.00    -0.014 C 
HETATM   21  C   UNL     1     -21.563 -12.510  -3.579  1.00  0.00     0.010 C 
BRANCH  20  22
HETATM   22  C   UNL     1     -23.093 -10.920  -2.359  1.00  0.00     0.005 C 
BRANCH  22  23
HETATM   23  C   UNL     1     -23.076 -10.651  -0.845  1.00  0.00     0.005 C 
BRANCH  23  24
HETATM   24  C   UNL     1     -21.716 -10.240  -0.270  1.00  0.00    -0.012 C 
BRANCH  24  25
HETATM   25  C   UNL     1     -21.187 -11.279   0.743  1.00  0.00     0.000 C 
HETATM   26  C   UNL     1     -19.906 -11.989   0.307  1.00  0.00     0.005 C 
ENDBRANCH  24  25
BRANCH  24  27
HETATM   27  C   UNL     1     -21.738  -8.794   0.311  1.00  0.00    -0.019 C 
HETATM   28  C   UNL     1     -23.173  -8.289   0.529  1.00  0.00     0.010 C 
HETATM   29  C   UNL     1     -20.979  -8.684   1.643  1.00  0.00     0.010 C 
ENDBRANCH  24  27
ENDBRANCH  23  24
ENDBRANCH  22  23
ENDBRANCH  20  22
ENDBRANCH   1  20
BRANCH  16  30
HETATM   30  O   UNL     1     -14.599 -14.648  -4.981  1.00  0.00    -0.395 OA
HETATM   31  H   UNL     1     -14.070 -14.822  -4.187  1.00  0.00     0.210 HD
ENDBRANCH  16  30
TORSDOF 7
BEGIN_RES ARG D 557
REMARK  4 active torsions:
REMARK  status: ('A' for Active; 'I' for Inactive)
REMARK    1  A    between atoms: CA   and  CB  
REMARK    2  A    between atoms: CB   and  CG  
REMARK    3  A    between atoms: CG   and  CD  
REMARK    4  A    between atoms: CD   and  NE  
REMARK       I    between atoms: NE   and  CZ  
REMARK       I    between atoms: CZ   and  NH1 
REMARK       I    between atoms: CZ   and  NH2 
ROOT
ATOM      1  CA  ARG D 557     -26.217   2.705 -17.014  1.00 35.49     0.159 C 
ENDROOT
BRANCH   1   2
ATOM      2  CB  ARG D 557     -26.789   1.319 -17.183  1.00 35.49     0.034 C 
BRANCH   2   3
ATOM      3  CG  ARG D 557     -25.837   0.202 -17.149  1.00 35.49     0.027 C 
BRANCH   3   4
ATOM      4  CD  ARG D 557     -24.757   0.412 -16.157  1.00 35.49     0.116 C 
BRANCH   4   5
ATOM      5  NE  ARG D 557     -24.903  -0.442 -15.008  1.00 35.49    -0.212 N 
ATOM      6  CZ  ARG D 557     -24.088  -1.415 -14.666  1.00 35.49     0.666 C 
ATOM      7  NH1 ARG D 557     -23.020  -1.729 -15.376  1.00 35.49    -0.235 N 
ATOM      8  NH2 ARG D 557     -24.364  -2.074 -13.578  1.00 35.49    -0.235 N 
ATOM      9  HH  ARG D 557     -22.819  -1.307 -16.094  1.00 35.49     0.174 HD
ATOM     10  HH  ARG D 557     -22.524  -2.372 -15.103  1.00 35.49     0.174 HD
ATOM     11  HH  ARG D 557     -25.056  -1.845 -13.135  1.00 35.49     0.174 HD
ATOM     12  HH  ARG D 557     -23.859  -2.706 -13.323  1.00 35.49     0.174 HD
ATOM     13  HE  ARG D 557     -25.604  -0.357 -14.534  1.00 35.49     0.178 HD
ENDBRANCH   4   5
ENDBRANCH   3   4
ENDBRANCH   2   3
ENDBRANCH   1   2
END_RES ARG D 557
BEGIN_RES GLU D 570
REMARK  3 active torsions:
REMARK  status: ('A' for Active; 'I' for Inactive)
REMARK    5  A    between atoms: CA   and  CB  
REMARK    6  A    between atoms: CB   and  CG  
REMARK    7  A    between atoms: CG   and  CD  
ROOT
ATOM     14  CA  GLU D 570     -18.033  -6.348 -13.375  1.00 32.92     0.160 C 
ENDROOT
BRANCH  14  15
ATOM     15  CB  GLU D 570     -19.500  -6.345 -13.794  1.00 32.92     0.043 C 
BRANCH  15  16
ATOM     16  CG  GLU D 570     -20.444  -5.539 -12.977  1.00 32.92     0.100 C 
BRANCH  16  17
ATOM     17  CD  GLU D 570     -21.738  -5.239 -13.696  1.00 32.92     0.185 C 
ATOM     18  OE1 GLU D 570     -22.276  -4.126 -13.535  1.00 32.92    -0.647 OA
ATOM     19  OE2 GLU D 570     -22.228  -6.131 -14.416  1.00 32.92    -0.647 OA
ENDBRANCH  16  17
ENDBRANCH  15  16
ENDBRANCH  14  15
END_RES GLU D 570
ENDMDL
MODEL 5
REMARK VINA RESULT:      -6.7      3.504      6.295
REMARK  7 active torsions:
REMARK  status: ('A' for Active; 'I' for Inactive)
REMARK    1  A    between atoms: C_2  and  C_3 
REMARK    2  A    between atoms: C_3  and  C_4 
REMARK    3  A    between atoms: C_3  and  C_28 
REMARK    4  A    between atoms: C_4  and  C_5 
REMARK    5  A    between atoms: C_5  and  C_6 
REMARK    6  A    between atoms: C_6  and  C_8 
REMARK    7  A    between atoms: C_23  and  O_25 
ROOT
HETATM    1  C   UNL     1     -19.249 -11.153  -2.891  1.00  0.00    -0.002 C 
HETATM    2  C   UNL     1     -20.458 -11.199  -3.879  1.00  0.00     0.006 C 
HETATM    3  C   UNL     1     -20.166 -10.105  -4.932  1.00  0.00     0.006 C 
HETATM    4  C   UNL     1     -18.705  -9.702  -4.691  1.00  0.00    -0.001 C 
HETATM    5  C   UNL     1     -18.676  -9.699  -3.108  1.00  0.00    -0.036 C 
HETATM    6  C   UNL     1     -17.263  -9.171  -2.802  1.00  0.00     0.010 C 
HETATM    7  C   UNL     1     -16.062  -9.969  -3.274  1.00  0.00     0.007 C 
HETATM    8  C   UNL     1     -16.170 -10.699  -4.639  1.00  0.00     0.003 C 
HETATM    9  C   UNL     1     -17.627 -10.762  -5.200  1.00  0.00    -0.001 C 
HETATM   10  C   UNL     1     -17.711 -11.345  -6.604  1.00  0.00     0.033 C 
HETATM   11  C   UNL     1     -17.097 -12.725  -6.541  1.00  0.00    -0.023 C 
HETATM   12  C   UNL     1     -16.168 -13.134  -5.641  1.00  0.00    -0.072 C 
HETATM   13  C   UNL     1     -15.499 -12.173  -4.612  1.00  0.00    -0.017 C 
HETATM   14  C   UNL     1     -13.998 -12.144  -5.056  1.00  0.00     0.016 C 
HETATM   15  C   UNL     1     -13.377 -13.563  -5.151  1.00  0.00     0.033 C 
HETATM   16  C   UNL     1     -14.159 -14.439  -6.138  1.00  0.00     0.122 C 
HETATM   17  C   UNL     1     -15.630 -14.532  -5.712  1.00  0.00     0.066 C 
HETATM   18  C   UNL     1     -15.505 -12.783  -3.168  1.00  0.00     0.020 C 
HETATM   19  C   UNL     1     -19.633  -8.720  -2.379  1.00  0.00     0.016 C 
ENDROOT
BRANCH   1  20
HETATM   20  C   UNL     1     -19.263 -12.048  -1.653  1.00  0.00    -0.014 C 
HETATM   21  C   UNL     1     -18.666 -13.450  -2.044  1.00  0.00     0.010 C 
BRANCH  20  22
HETATM   22  C   UNL     1     -20.590 -12.243  -0.948  1.00  0.00     0.005 C 
BRANCH  22  23
HETATM   23  C   UNL     1     -20.729 -11.167   0.141  1.00  0.00     0.005 C 
BRANCH  23  24
HETATM   24  C   UNL     1     -22.043 -10.379   0.117  1.00  0.00    -0.012 C 
BRANCH  24  25
HETATM   25  C   UNL     1     -22.845 -10.645  -1.176  1.00  0.00     0.000 C 
HETATM   26  C   UNL     1     -24.146 -11.419  -0.964  1.00  0.00     0.005 C 
ENDBRANCH  24  25
BRANCH  24  27
HETATM   27  C   UNL     1     -21.822  -8.859   0.381  1.00  0.00    -0.019 C 
HETATM   28  C   UNL     1     -23.154  -8.111   0.548  1.00  0.00     0.010 C 
HETATM   29  C   UNL     1     -20.961  -8.598   1.627  1.00  0.00     0.010 C 
ENDBRANCH  24  27
ENDBRANCH  23  24
ENDBRANCH  22  23
ENDBRANCH  20  22
ENDBRANCH   1  20
BRANCH  16  30
HETATM   30  O   UNL     1     -13.576 -15.729  -6.244  1.00  0.00    -0.395 OA
HETATM   31  H   UNL     1     -12.706 -15.639  -6.663  1.00  0.00     0.210 HD
ENDBRANCH  16  30
TORSDOF 7
BEGIN_RES ARG D 557
REMARK  4 active torsions:
REMARK  status: ('A' for Active; 'I' for Inactive)
REMARK    1  A    between atoms: CA   and  CB  
REMARK    2  A    between atoms: CB   and  CG  
REMARK    3  A    between atoms: CG   and  CD  
REMARK    4  A    between atoms: CD   and  NE  
REMARK       I    between atoms: NE   and  CZ  
REMARK       I    between atoms: CZ   and  NH1 
REMARK       I    between atoms: CZ   and  NH2 
ROOT
ATOM      1  CA  ARG D 557     -26.217   2.705 -17.014  1.00 35.49     0.159 C 
ENDROOT
BRANCH   1   2
ATOM      2  CB  ARG D 557     -26.789   1.319 -17.183  1.00 35.49     0.034 C 
BRANCH   2   3
ATOM      3  CG  ARG D 557     -28.232   1.226 -17.434  1.00 35.49     0.027 C 
BRANCH   3   4
ATOM      4  CD  ARG D 557     -28.911   0.306 -16.493  1.00 35.49     0.116 C 
BRANCH   4   5
ATOM      5  NE  ARG D 557     -28.140  -0.884 -16.248  1.00 35.49    -0.212 N 
ATOM      6  CZ  ARG D 557     -28.398  -2.080 -16.729  1.00 35.49     0.666 C 
ATOM      7  NH1 ARG D 557     -29.439  -2.322 -17.504  1.00 35.49    -0.235 N 
ATOM      8  NH2 ARG D 557     -27.578  -3.042 -16.419  1.00 35.49    -0.235 N 
ATOM      9  HH  ARG D 557     -29.990  -1.704 -17.723  1.00 35.49     0.174 HD
ATOM     10  HH  ARG D 557     -29.555  -3.122 -17.791  1.00 35.49     0.174 HD
ATOM     11  HH  ARG D 557     -26.910  -2.854 -15.922  1.00 35.49     0.174 HD
ATOM     12  HH  ARG D 557     -27.710  -3.826 -16.714  1.00 35.49     0.174 HD
ATOM     13  HE  ARG D 557     -27.492  -0.834 -15.699  1.00 35.49     0.178 HD
ENDBRANCH   4   5
ENDBRANCH   3   4
ENDBRANCH   2   3
ENDBRANCH   1   2
END_RES ARG D 557
BEGIN_RES GLU D 570
REMARK  3 active torsions:
REMARK  status: ('A' for Active; 'I' for Inactive)
REMARK    5  A    between atoms: CA   and  CB  
REMARK    6  A    between atoms: CB   and  CG  
REMARK    7  A    between atoms: CG   and  CD  
ROOT
ATOM     14  CA  GLU D 570     -18.033  -6.348 -13.375  1.00 32.92     0.160 C 
ENDROOT
BRANCH  14  15
ATOM     15  CB  GLU D 570     -19.500  -6.345 -13.794  1.00 32.92     0.043 C 
BRANCH  15  16
ATOM     16  CG  GLU D 570     -20.448  -5.562 -12.961  1.00 32.92     0.100 C 
BRANCH  16  17
ATOM     17  CD  GLU D 570     -21.707  -5.177 -13.703  1.00 32.92     0.185 C 
ATOM     18  OE1 GLU D 570     -22.622  -4.601 -13.085  1.00 32.92    -0.647 OA
ATOM     19  OE2 GLU D 570     -21.784  -5.469 -14.913  1.00 32.92    -0.647 OA
ENDBRANCH  16  17
ENDBRANCH  15  16
ENDBRANCH  14  15
END_RES GLU D 570
ENDMDL
MODEL 6
REMARK VINA RESULT:      -6.7      3.030      6.139
REMARK  7 active torsions:
REMARK  status: ('A' for Active; 'I' for Inactive)
REMARK    1  A    between atoms: C_2  and  C_3 
REMARK    2  A    between atoms: C_3  and  C_4 
REMARK    3  A    between atoms: C_3  and  C_28 
REMARK    4  A    between atoms: C_4  and  C_5 
REMARK    5  A    between atoms: C_5  and  C_6 
REMARK    6  A    between atoms: C_6  and  C_8 
REMARK    7  A    between atoms: C_23  and  O_25 
ROOT
HETATM    1  C   UNL     1     -21.312 -10.757  -4.063  1.00  0.00    -0.002 C 
HETATM    2  C   UNL     1     -22.558 -11.597  -3.633  1.00  0.00     0.006 C 
HETATM    3  C   UNL     1     -22.278 -13.030  -4.140  1.00  0.00     0.006 C 
HETATM    4  C   UNL     1     -20.799 -13.024  -4.552  1.00  0.00    -0.001 C 
HETATM    5  C   UNL     1     -20.712 -11.606  -5.250  1.00  0.00    -0.036 C 
HETATM    6  C   UNL     1     -19.275 -11.596  -5.803  1.00  0.00     0.010 C 
HETATM    7  C   UNL     1     -18.113 -11.694  -4.833  1.00  0.00     0.007 C 
HETATM    8  C   UNL     1     -18.290 -12.595  -3.582  1.00  0.00     0.003 C 
HETATM    9  C   UNL     1     -19.767 -13.038  -3.336  1.00  0.00    -0.001 C 
HETATM   10  C   UNL     1     -19.918 -14.038  -2.197  1.00  0.00     0.033 C 
HETATM   11  C   UNL     1     -19.337 -13.388  -0.964  1.00  0.00    -0.023 C 
HETATM   12  C   UNL     1     -18.385 -12.420  -0.957  1.00  0.00    -0.072 C 
HETATM   13  C   UNL     1     -17.655 -11.936  -2.245  1.00  0.00    -0.017 C 
HETATM   14  C   UNL     1     -16.172 -12.380  -2.018  1.00  0.00     0.016 C 
HETATM   15  C   UNL     1     -15.590 -11.854  -0.679  1.00  0.00     0.033 C 
HETATM   16  C   UNL     1     -16.430 -12.336   0.511  1.00  0.00     0.122 C 
HETATM   17  C   UNL     1     -17.886 -11.879   0.350  1.00  0.00     0.066 C 
HETATM   18  C   UNL     1     -17.623 -10.371  -2.333  1.00  0.00     0.020 C 
HETATM   19  C   UNL     1     -21.616 -11.362  -6.485  1.00  0.00     0.016 C 
ENDROOT
BRANCH   1  20
HETATM   20  C   UNL     1     -21.302  -9.252  -3.805  1.00  0.00    -0.014 C 
HETATM   21  C   UNL     1     -21.326  -8.507  -5.189  1.00  0.00     0.010 C 
BRANCH  20  22
HETATM   22  C   UNL     1     -20.178  -8.697  -2.953  1.00  0.00     0.005 C 
BRANCH  22  23
HETATM   23  C   UNL     1     -20.522  -8.934  -1.473  1.00  0.00     0.005 C 
BRANCH  23  24
HETATM   24  C   UNL     1     -21.983  -8.674  -1.091  1.00  0.00    -0.012 C 
BRANCH  24  25
HETATM   25  C   UNL     1     -22.221  -7.194  -0.718  1.00  0.00     0.000 C 
HETATM   26  C   UNL     1     -22.251  -6.239  -1.911  1.00  0.00     0.005 C 
ENDBRANCH  24  25
BRANCH  24  27
HETATM   27  C   UNL     1     -22.488  -9.657   0.007  1.00  0.00    -0.019 C 
HETATM   28  C   UNL     1     -23.707 -10.463  -0.467  1.00  0.00     0.010 C 
HETATM   29  C   UNL     1     -21.400 -10.645   0.457  1.00  0.00     0.010 C 
ENDBRANCH  24  27
ENDBRANCH  23  24
ENDBRANCH  22  23
ENDBRANCH  20  22
ENDBRANCH   1  20
BRANCH  16  30
HETATM   30  O   UNL     1     -15.884 -11.875   1.738  1.00  0.00    -0.395 OA
HETATM   31  H   UNL     1     -16.612 -11.573   2.302  1.00  0.00     0.210 HD
ENDBRANCH  16  30
TORSDOF 7
BEGIN_RES ARG D 557
REMARK  4 active torsions:
REMARK  status: ('A' for Active; 'I' for Inactive)
REMARK    1  A    between atoms: CA   and  CB  
REMARK    2  A    between atoms: CB   and  CG  
REMARK    3  A    between atoms: CG   and  CD  
REMARK    4  A    between atoms: CD   and  NE  
REMARK       I    between atoms: NE   and  CZ  
REMARK       I    between atoms: CZ   and  NH1 
REMARK       I    between atoms: CZ   and  NH2 
ROOT
ATOM      1  CA  ARG D 557     -26.217   2.705 -17.014  1.00 35.49     0.159 C 
ENDROOT
BRANCH   1   2
ATOM      2  CB  ARG D 557     -26.789   1.319 -17.183  1.00 35.49     0.034 C 
BRANCH   2   3
ATOM      3  CG  ARG D 557     -28.156   1.104 -16.693  1.00 35.49     0.027 C 
BRANCH   3   4
ATOM      4  CD  ARG D 557     -28.791  -0.089 -17.297  1.00 35.49     0.116 C 
BRANCH   4   5
ATOM      5  NE  ARG D 557     -28.180  -1.314 -16.851  1.00 35.49    -0.212 N 
ATOM      6  CZ  ARG D 557     -28.662  -2.523 -17.032  1.00 35.49     0.666 C 
ATOM      7  NH1 ARG D 557     -29.806  -2.745 -17.652  1.00 35.49    -0.235 N 
ATOM      8  NH2 ARG D 557     -27.963  -3.522 -16.577  1.00 35.49    -0.235 N 
ATOM      9  HH  ARG D 557     -30.282  -2.102 -17.961  1.00 35.49     0.174 HD
ATOM     10  HH  ARG D 557     -30.069  -3.555 -17.743  1.00 35.49     0.174 HD
ATOM     11  HH  ARG D 557     -27.225  -3.349 -16.187  1.00 35.49     0.174 HD
ATOM     12  HH  ARG D 557     -28.240  -4.317 -16.679  1.00 35.49     0.174 HD
ATOM     13  HE  ARG D 557     -27.476  -1.259 -16.378  1.00 35.49     0.178 HD
ENDBRANCH   4   5
ENDBRANCH   3   4
ENDBRANCH   2   3
ENDBRANCH   1   2
END_RES ARG D 557
BEGIN_RES GLU D 570
REMARK  3 active torsions:
REMARK  status: ('A' for Active; 'I' for Inactive)
REMARK    5  A    between atoms: CA   and  CB  
REMARK    6  A    between atoms: CB   and  CG  
REMARK    7  A    between atoms: CG   and  CD  
ROOT
ATOM     14  CA  GLU D 570     -18.033  -6.348 -13.375  1.00 32.92     0.160 C 
ENDROOT
BRANCH  14  15
ATOM     15  CB  GLU D 570     -19.500  -6.345 -13.794  1.00 32.92     0.043 C 
BRANCH  15  16
ATOM     16  CG  GLU D 570     -19.802  -6.093 -15.227  1.00 32.92     0.100 C 
BRANCH  16  17
ATOM     17  CD  GLU D 570     -21.268  -5.831 -15.483  1.00 32.92     0.185 C 
ATOM     18  OE1 GLU D 570     -22.108  -6.669 -15.101  1.00 32.92    -0.647 OA
ATOM     19  OE2 GLU D 570     -21.578  -4.786 -16.087  1.00 32.92    -0.647 OA
ENDBRANCH  16  17
ENDBRANCH  15  16
ENDBRANCH  14  15
END_RES GLU D 570
ENDMDL
MODEL 7
REMARK VINA RESULT:      -6.7      3.668      6.536
REMARK  7 active torsions:
REMARK  status: ('A' for Active; 'I' for Inactive)
REMARK    1  A    between atoms: C_2  and  C_3 
REMARK    2  A    between atoms: C_3  and  C_4 
REMARK    3  A    between atoms: C_3  and  C_28 
REMARK    4  A    between atoms: C_4  and  C_5 
REMARK    5  A    between atoms: C_5  and  C_6 
REMARK    6  A    between atoms: C_6  and  C_8 
REMARK    7  A    between atoms: C_23  and  O_25 
ROOT
HETATM    1  C   UNL     1     -18.999 -11.230  -3.325  1.00  0.00    -0.002 C 
HETATM    2  C   UNL     1     -19.828 -11.389  -4.639  1.00  0.00     0.006 C 
HETATM    3  C   UNL     1     -19.129 -10.478  -5.675  1.00  0.00     0.006 C 
HETATM    4  C   UNL     1     -17.795 -10.089  -5.023  1.00  0.00    -0.001 C 
HETATM    5  C   UNL     1     -18.274  -9.845  -3.534  1.00  0.00    -0.036 C 
HETATM    6  C   UNL     1     -16.995  -9.321  -2.855  1.00  0.00     0.010 C 
HETATM    7  C   UNL     1     -15.773 -10.219  -2.796  1.00  0.00     0.007 C 
HETATM    8  C   UNL     1     -15.497 -11.145  -4.009  1.00  0.00     0.003 C 
HETATM    9  C   UNL     1     -16.698 -11.247  -5.004  1.00  0.00    -0.001 C 
HETATM   10  C   UNL     1     -16.374 -12.035  -6.265  1.00  0.00     0.033 C 
HETATM   11  C   UNL     1     -15.924 -13.407  -5.821  1.00  0.00    -0.023 C 
HETATM   12  C   UNL     1     -15.368 -13.703  -4.619  1.00  0.00    -0.072 C 
HETATM   13  C   UNL     1     -14.989 -12.618  -3.567  1.00  0.00    -0.017 C 
HETATM   14  C   UNL     1     -13.428 -12.705  -3.493  1.00  0.00     0.016 C 
HETATM   15  C   UNL     1     -12.924 -14.140  -3.188  1.00  0.00     0.033 C 
HETATM   16  C   UNL     1     -13.416 -15.131  -4.250  1.00  0.00     0.122 C 
HETATM   17  C   UNL     1     -14.949 -15.112  -4.322  1.00  0.00     0.066 C 
HETATM   18  C   UNL     1     -15.505 -13.001  -2.136  1.00  0.00     0.020 C 
HETATM   19  C   UNL     1     -19.332  -8.737  -3.298  1.00  0.00     0.016 C 
ENDROOT
BRANCH   1  20
HETATM   20  C   UNL     1     -19.479 -11.925  -2.052  1.00  0.00    -0.014 C 
HETATM   21  C   UNL     1     -20.586 -12.972  -2.441  1.00  0.00     0.010 C 
BRANCH  20  22
HETATM   22  C   UNL     1     -19.989 -11.047  -0.927  1.00  0.00     0.005 C 
BRANCH  22  23
HETATM   23  C   UNL     1     -21.442 -10.651  -1.233  1.00  0.00     0.005 C 
BRANCH  23  24
HETATM   24  C   UNL     1     -22.298 -10.308  -0.009  1.00  0.00    -0.012 C 
BRANCH  24  25
HETATM   25  C   UNL     1     -23.726 -10.885  -0.131  1.00  0.00     0.000 C 
HETATM   26  C   UNL     1     -23.937 -11.797  -1.339  1.00  0.00     0.005 C 
ENDBRANCH  24  25
BRANCH  24  27
HETATM   27  C   UNL     1     -22.294  -8.781   0.301  1.00  0.00    -0.019 C 
HETATM   28  C   UNL     1     -21.213  -8.412   1.328  1.00  0.00     0.010 C 
HETATM   29  C   UNL     1     -22.078  -7.925  -0.957  1.00  0.00     0.010 C 
ENDBRANCH  24  27
ENDBRANCH  23  24
ENDBRANCH  22  23
ENDBRANCH  20  22
ENDBRANCH   1  20
BRANCH  16  30
HETATM   30  O   UNL     1     -12.934 -16.440  -3.985  1.00  0.00    -0.395 OA
HETATM   31  H   UNL     1     -11.984 -16.463  -4.181  1.00  0.00     0.210 HD
ENDBRANCH  16  30
TORSDOF 7
BEGIN_RES ARG D 557
REMARK  4 active torsions:
REMARK  status: ('A' for Active; 'I' for Inactive)
REMARK    1  A    between atoms: CA   and  CB  
REMARK    2  A    between atoms: CB   and  CG  
REMARK    3  A    between atoms: CG   and  CD  
REMARK    4  A    between atoms: CD   and  NE  
REMARK       I    between atoms: NE   and  CZ  
REMARK       I    between atoms: CZ   and  NH1 
REMARK       I    between atoms: CZ   and  NH2 
ROOT
ATOM      1  CA  ARG D 557     -26.217   2.705 -17.014  1.00 35.49     0.159 C 
ENDROOT
BRANCH   1   2
ATOM      2  CB  ARG D 557     -26.789   1.319 -17.183  1.00 35.49     0.034 C 
BRANCH   2   3
ATOM      3  CG  ARG D 557     -25.864   0.195 -16.995  1.00 35.49     0.027 C 
BRANCH   3   4
ATOM      4  CD  ARG D 557     -26.269  -0.689 -15.879  1.00 35.49     0.116 C 
BRANCH   4   5
ATOM      5  NE  ARG D 557     -25.187  -0.934 -14.962  1.00 35.49    -0.212 N 
ATOM      6  CZ  ARG D 557     -24.973  -2.055 -14.308  1.00 35.49     0.666 C 
ATOM      7  NH1 ARG D 557     -25.767  -3.103 -14.420  1.00 35.49    -0.235 N 
ATOM      8  NH2 ARG D 557     -23.929  -2.107 -13.533  1.00 35.49    -0.235 N 
ATOM      9  HH  ARG D 557     -26.459  -3.091 -14.926  1.00 35.49     0.174 HD
ATOM     10  HH  ARG D 557     -25.576  -3.808 -13.971  1.00 35.49     0.174 HD
ATOM     11  HH  ARG D 557     -23.430  -1.417 -13.486  1.00 35.49     0.174 HD
ATOM     12  HH  ARG D 557     -23.756  -2.815 -13.098  1.00 35.49     0.174 HD
ATOM     13  HE  ARG D 557     -24.668  -0.288 -14.774  1.00 35.49     0.178 HD
ENDBRANCH   4   5
ENDBRANCH   3   4
ENDBRANCH   2   3
ENDBRANCH   1   2
END_RES ARG D 557
BEGIN_RES GLU D 570
REMARK  3 active torsions:
REMARK  status: ('A' for Active; 'I' for Inactive)
REMARK    5  A    between atoms: CA   and  CB  
REMARK    6  A    between atoms: CB   and  CG  
REMARK    7  A    between atoms: CG   and  CD  
ROOT
ATOM     14  CA  GLU D 570     -18.033  -6.348 -13.375  1.00 32.92     0.160 C 
ENDROOT
BRANCH  14  15
ATOM     15  CB  GLU D 570     -19.500  -6.345 -13.794  1.00 32.92     0.043 C 
BRANCH  15  16
ATOM     16  CG  GLU D 570     -20.446  -5.550 -12.969  1.00 32.92     0.100 C 
BRANCH  16  17
ATOM     17  CD  GLU D 570     -21.693  -5.150 -13.722  1.00 32.92     0.185 C 
ATOM     18  OE1 GLU D 570     -22.734  -4.904 -13.083  1.00 32.92    -0.647 OA
ATOM     19  OE2 GLU D 570     -21.633  -5.099 -14.967  1.00 32.92    -0.647 OA
ENDBRANCH  16  17
ENDBRANCH  15  16
ENDBRANCH  14  15
END_RES GLU D 570
ENDMDL
MODEL 8
REMARK VINA RESULT:      -6.6      3.574      6.972
REMARK  7 active torsions:
REMARK  status: ('A' for Active; 'I' for Inactive)
REMARK    1  A    between atoms: C_2  and  C_3 
REMARK    2  A    between atoms: C_3  and  C_4 
REMARK    3  A    between atoms: C_3  and  C_28 
REMARK    4  A    between atoms: C_4  and  C_5 
REMARK    5  A    between atoms: C_5  and  C_6 
REMARK    6  A    between atoms: C_6  and  C_8 
REMARK    7  A    between atoms: C_23  and  O_25 
ROOT
HETATM    1  C   UNL     1     -18.150 -11.436  -4.479  1.00  0.00    -0.002 C 
HETATM    2  C   UNL     1     -18.014 -12.548  -5.568  1.00  0.00     0.006 C 
HETATM    3  C   UNL     1     -16.500 -12.642  -5.868  1.00  0.00     0.006 C 
HETATM    4  C   UNL     1     -15.825 -11.828  -4.756  1.00  0.00    -0.001 C 
HETATM    5  C   UNL     1     -16.823 -10.604  -4.663  1.00  0.00    -0.036 C 
HETATM    6  C   UNL     1     -16.123  -9.681  -3.648  1.00  0.00     0.010 C 
HETATM    7  C   UNL     1     -15.891 -10.184  -2.235  1.00  0.00     0.007 C 
HETATM    8  C   UNL     1     -15.547 -11.685  -2.050  1.00  0.00     0.003 C 
HETATM    9  C   UNL     1     -15.790 -12.545  -3.331  1.00  0.00    -0.001 C 
HETATM   10  C   UNL     1     -15.314 -13.985  -3.195  1.00  0.00     0.033 C 
HETATM   11  C   UNL     1     -16.037 -14.573  -2.005  1.00  0.00    -0.023 C 
HETATM   12  C   UNL     1     -16.528 -13.869  -0.954  1.00  0.00    -0.072 C 
HETATM   13  C   UNL     1     -16.288 -12.341  -0.767  1.00  0.00    -0.017 C 
HETATM   14  C   UNL     1     -15.408 -12.260   0.525  1.00  0.00     0.016 C 
HETATM   15  C   UNL     1     -16.053 -12.991   1.732  1.00  0.00     0.033 C 
HETATM   16  C   UNL     1     -16.306 -14.469   1.408  1.00  0.00     0.122 C 
HETATM   17  C   UNL     1     -17.207 -14.592   0.171  1.00  0.00     0.066 C 
HETATM   18  C   UNL     1     -17.620 -11.588  -0.423  1.00  0.00     0.020 C 
HETATM   19  C   UNL     1     -17.004  -9.733  -5.932  1.00  0.00     0.016 C 
ENDROOT
BRANCH   1  20
HETATM   20  C   UNL     1     -19.543 -11.010  -4.018  1.00  0.00    -0.014 C 
HETATM   21  C   UNL     1     -20.535 -11.151  -5.230  1.00  0.00     0.010 C 
BRANCH  20  22
HETATM   22  C   UNL     1     -19.684  -9.630  -3.408  1.00  0.00     0.005 C 
BRANCH  22  23
HETATM   23  C   UNL     1     -20.297  -9.775  -2.005  1.00  0.00     0.005 C 
BRANCH  23  24
HETATM   24  C   UNL     1     -21.575  -8.963  -1.764  1.00  0.00    -0.012 C 
BRANCH  24  25
HETATM   25  C   UNL     1     -21.381  -7.473  -2.119  1.00  0.00     0.000 C 
HETATM   26  C   UNL     1     -22.288  -6.517  -1.346  1.00  0.00     0.005 C 
ENDBRANCH  24  25
BRANCH  24  27
HETATM   27  C   UNL     1     -22.137  -9.168  -0.325  1.00  0.00    -0.019 C 
HETATM   28  C   UNL     1     -23.359 -10.100  -0.318  1.00  0.00     0.010 C 
HETATM   29  C   UNL     1     -21.088  -9.738   0.641  1.00  0.00     0.010 C 
ENDBRANCH  24  27
ENDBRANCH  23  24
ENDBRANCH  22  23
ENDBRANCH  20  22
ENDBRANCH   1  20
BRANCH  16  30
HETATM   30  O   UNL     1     -16.874 -15.143   2.520  1.00  0.00    -0.395 OA
HETATM   31  H   UNL     1     -16.357 -15.946   2.688  1.00  0.00     0.210 HD
ENDBRANCH  16  30
TORSDOF 7
BEGIN_RES ARG D 557
REMARK  4 active torsions:
REMARK  status: ('A' for Active; 'I' for Inactive)
REMARK    1  A    between atoms: CA   and  CB  
REMARK    2  A    between atoms: CB   and  CG  
REMARK    3  A    between atoms: CG   and  CD  
REMARK    4  A    between atoms: CD   and  NE  
REMARK       I    between atoms: NE   and  CZ  
REMARK       I    between atoms: CZ   and  NH1 
REMARK       I    between atoms: CZ   and  NH2 
ROOT
ATOM      1  CA  ARG D 557     -26.217   2.705 -17.014  1.00 35.49     0.159 C 
ENDROOT
BRANCH   1   2
ATOM      2  CB  ARG D 557     -26.789   1.319 -17.183  1.00 35.49     0.034 C 
BRANCH   2   3
ATOM      3  CG  ARG D 557     -25.864   0.195 -16.992  1.00 35.49     0.027 C 
BRANCH   3   4
ATOM      4  CD  ARG D 557     -26.289  -0.704 -15.894  1.00 35.49     0.116 C 
BRANCH   4   5
ATOM      5  NE  ARG D 557     -25.240  -0.916 -14.931  1.00 35.49    -0.212 N 
ATOM      6  CZ  ARG D 557     -24.952  -2.059 -14.349  1.00 35.49     0.666 C 
ATOM      7  NH1 ARG D 557     -25.630  -3.166 -14.586  1.00 35.49    -0.235 N 
ATOM      8  NH2 ARG D 557     -23.953  -2.072 -13.515  1.00 35.49    -0.235 N 
ATOM      9  HH  ARG D 557     -26.290  -3.181 -15.132  1.00 35.49     0.174 HD
ATOM     10  HH  ARG D 557     -25.395  -3.883 -14.178  1.00 35.49     0.174 HD
ATOM     11  HH  ARG D 557     -23.528  -1.343 -13.387  1.00 35.49     0.174 HD
ATOM     12  HH  ARG D 557     -23.734  -2.791 -13.123  1.00 35.49     0.174 HD
ATOM     13  HE  ARG D 557     -24.800  -0.239 -14.665  1.00 35.49     0.178 HD
ENDBRANCH   4   5
ENDBRANCH   3   4
ENDBRANCH   2   3
ENDBRANCH   1   2
END_RES ARG D 557
BEGIN_RES GLU D 570
REMARK  3 active torsions:
REMARK  status: ('A' for Active; 'I' for Inactive)
REMARK    5  A    between atoms: CA   and  CB  
REMARK    6  A    between atoms: CB   and  CG  
REMARK    7  A    between atoms: CG   and  CD  
ROOT
ATOM     14  CA  GLU D 570     -18.033  -6.348 -13.375  1.00 32.92     0.160 C 
ENDROOT
BRANCH  14  15
ATOM     15  CB  GLU D 570     -19.500  -6.345 -13.794  1.00 32.92     0.043 C 
BRANCH  15  16
ATOM     16  CG  GLU D 570     -20.448  -5.561 -12.961  1.00 32.92     0.100 C 
BRANCH  16  17
ATOM     17  CD  GLU D 570     -21.674  -5.116 -13.724  1.00 32.92     0.185 C 
ATOM     18  OE1 GLU D 570     -22.726  -4.885 -13.097  1.00 32.92    -0.647 OA
ATOM     19  OE2 GLU D 570     -21.586  -5.014 -14.963  1.00 32.92    -0.647 OA
ENDBRANCH  16  17
ENDBRANCH  15  16
ENDBRANCH  14  15
END_RES GLU D 570
ENDMDL
MODEL 9
REMARK VINA RESULT:      -6.6      1.911      3.894
REMARK  7 active torsions:
REMARK  status: ('A' for Active; 'I' for Inactive)
REMARK    1  A    between atoms: C_2  and  C_3 
REMARK    2  A    between atoms: C_3  and  C_4 
REMARK    3  A    between atoms: C_3  and  C_28 
REMARK    4  A    between atoms: C_4  and  C_5 
REMARK    5  A    between atoms: C_5  and  C_6 
REMARK    6  A    between atoms: C_6  and  C_8 
REMARK    7  A    between atoms: C_23  and  O_25 
ROOT
HETATM    1  C   UNL     1     -19.132 -12.337  -1.654  1.00  0.00    -0.002 C 
HETATM    2  C   UNL     1     -19.547 -13.437  -2.683  1.00  0.00     0.006 C 
HETATM    3  C   UNL     1     -21.027 -13.753  -2.368  1.00  0.00     0.006 C 
HETATM    4  C   UNL     1     -21.475 -12.640  -1.410  1.00  0.00    -0.001 C 
HETATM    5  C   UNL     1     -20.187 -12.526  -0.496  1.00  0.00    -0.036 C 
HETATM    6  C   UNL     1     -20.628 -11.510   0.573  1.00  0.00     0.010 C 
HETATM    7  C   UNL     1     -21.002 -10.105   0.142  1.00  0.00     0.007 C 
HETATM    8  C   UNL     1     -21.736  -9.936  -1.214  1.00  0.00     0.003 C 
HETATM    9  C   UNL     1     -21.716 -11.222  -2.100  1.00  0.00    -0.001 C 
HETATM   10  C   UNL     1     -22.559 -11.103  -3.362  1.00  0.00     0.033 C 
HETATM   11  C   UNL     1     -22.034  -9.911  -4.128  1.00  0.00    -0.023 C 
HETATM   12  C   UNL     1     -21.386  -8.849  -3.587  1.00  0.00    -0.072 C 
HETATM   13  C   UNL     1     -21.212  -8.652  -2.051  1.00  0.00    -0.017 C 
HETATM   14  C   UNL     1     -22.053  -7.367  -1.746  1.00  0.00     0.016 C 
HETATM   15  C   UNL     1     -21.640  -6.161  -2.630  1.00  0.00     0.033 C 
HETATM   16  C   UNL     1     -21.786  -6.495  -4.119  1.00  0.00     0.122 C 
HETATM   17  C   UNL     1     -20.937  -7.724  -4.471  1.00  0.00     0.066 C 
HETATM   18  C   UNL     1     -19.732  -8.288  -1.682  1.00  0.00     0.020 C 
HETATM   19  C   UNL     1     -19.766 -13.787   0.302  1.00  0.00     0.016 C 
ENDROOT
BRANCH   1  20
HETATM   20  C   UNL     1     -17.682 -11.859  -1.617  1.00  0.00    -0.014 C 
HETATM   21  C   UNL     1     -17.152 -11.984  -0.142  1.00  0.00     0.010 C 
BRANCH  20  22
HETATM   22  C   UNL     1     -17.392 -10.467  -2.141  1.00  0.00     0.005 C 
BRANCH  22  23
HETATM   23  C   UNL     1     -16.166 -10.536  -3.067  1.00  0.00     0.005 C 
BRANCH  23  24
HETATM   24  C   UNL     1     -16.475 -10.467  -4.566  1.00  0.00    -0.012 C 
BRANCH  24  25
HETATM   25  C   UNL     1     -17.911  -9.962  -4.831  1.00  0.00     0.000 C 
HETATM   26  C   UNL     1     -18.828 -10.989  -5.495  1.00  0.00     0.005 C 
ENDBRANCH  24  25
BRANCH  24  27
HETATM   27  C   UNL     1     -16.171 -11.813  -5.291  1.00  0.00    -0.019 C 
HETATM   28  C   UNL     1     -15.281 -11.605  -6.527  1.00  0.00     0.010 C 
HETATM   29  C   UNL     1     -15.488 -12.836  -4.370  1.00  0.00     0.010 C 
ENDBRANCH  24  27
ENDBRANCH  23  24
ENDBRANCH  22  23
ENDBRANCH  20  22
ENDBRANCH   1  20
BRANCH  16  30
HETATM   30  O   UNL     1     -21.432  -5.383  -4.927  1.00  0.00    -0.395 OA
HETATM   31  H   UNL     1     -20.635  -5.612  -5.432  1.00  0.00     0.210 HD
ENDBRANCH  16  30
TORSDOF 7
BEGIN_RES ARG D 557
REMARK  4 active torsions:
REMARK  status: ('A' for Active; 'I' for Inactive)
REMARK    1  A    between atoms: CA   and  CB  
REMARK    2  A    between atoms: CB   and  CG  
REMARK    3  A    between atoms: CG   and  CD  
REMARK    4  A    between atoms: CD   and  NE  
REMARK       I    between atoms: NE   and  CZ  
REMARK       I    between atoms: CZ   and  NH1 
REMARK       I    between atoms: CZ   and  NH2 
ROOT
ATOM      1  CA  ARG D 557     -26.217   2.705 -17.014  1.00 35.49     0.159 C 
ENDROOT
BRANCH   1   2
ATOM      2  CB  ARG D 557     -26.789   1.319 -17.183  1.00 35.49     0.034 C 
BRANCH   2   3
ATOM      3  CG  ARG D 557     -25.937   0.198 -16.769  1.00 35.49     0.027 C 
BRANCH   3   4
ATOM      4  CD  ARG D 557     -26.697  -0.856 -16.058  1.00 35.49     0.116 C 
BRANCH   4   5
ATOM      5  NE  ARG D 557     -25.935  -1.445 -14.988  1.00 35.49    -0.212 N 
ATOM      6  CZ  ARG D 557     -25.921  -2.720 -14.667  1.00 35.49     0.666 C 
ATOM      7  NH1 ARG D 557     -26.642  -3.621 -15.309  1.00 35.49    -0.235 N 
ATOM      8  NH2 ARG D 557     -25.154  -3.082 -13.680  1.00 35.49    -0.235 N 
ATOM      9  HH  ARG D 557     -27.152  -3.405 -15.963  1.00 35.49     0.174 HD
ATOM     10  HH  ARG D 557     -26.590  -4.438 -15.057  1.00 35.49     0.174 HD
ATOM     11  HH  ARG D 557     -24.694  -2.479 -13.289  1.00 35.49     0.174 HD
ATOM     12  HH  ARG D 557     -25.115  -3.896 -13.447  1.00 35.49     0.174 HD
ATOM     13  HE  ARG D 557     -25.498  -0.926 -14.476  1.00 35.49     0.178 HD
ENDBRANCH   4   5
ENDBRANCH   3   4
ENDBRANCH   2   3
ENDBRANCH   1   2
END_RES ARG D 557
BEGIN_RES GLU D 570
REMARK  3 active torsions:
REMARK  status: ('A' for Active; 'I' for Inactive)
REMARK    5  A    between atoms: CA   and  CB  
REMARK    6  A    between atoms: CB   and  CG  
REMARK    7  A    between atoms: CG   and  CD  
ROOT
ATOM     14  CA  GLU D 570     -18.033  -6.348 -13.375  1.00 32.92     0.160 C 
ENDROOT
BRANCH  14  15
ATOM     15  CB  GLU D 570     -19.500  -6.345 -13.794  1.00 32.92     0.043 C 
BRANCH  15  16
ATOM     16  CG  GLU D 570     -20.440  -5.523 -12.989  1.00 32.92     0.100 C 
BRANCH  16  17
ATOM     17  CD  GLU D 570     -21.736  -5.234 -13.710  1.00 32.92     0.185 C 
ATOM     18  OE1 GLU D 570     -22.179  -6.073 -14.519  1.00 32.92    -0.647 OA
ATOM     19  OE2 GLU D 570     -22.307  -4.151 -13.476  1.00 32.92    -0.647 OA
ENDBRANCH  16  17
ENDBRANCH  15  16
ENDBRANCH  14  15
END_RES GLU D 570
ENDMDL
