MODEL 1
REMARK VINA RESULT:      -1.0      0.000      0.000
REMARK  4 active torsions:
REMARK  status: ('A' for Active; 'I' for Inactive)
REMARK    1  A    between atoms: N_5  and  C_23 
REMARK    2  A    between atoms: C_8  and  N_9 
REMARK    3  A    between atoms: N_11  and  C_13 
REMARK    4  A    between atoms: C_15  and  N_19 
ROOT
HETATM    1 CL   UNL     2     -33.256  -2.565 -10.957  1.00  0.00     0.000 Cl
ENDROOT
TORSDOF 4
BEGIN_RES ARG D 557
REMARK  4 active torsions:
REMARK  status: ('A' for Active; 'I' for Inactive)
REMARK    1  A    between atoms: CA   and  CB  
REMARK    2  A    between atoms: CB   and  CG  
REMARK    3  A    between atoms: CG   and  CD  
REMARK    4  A    between atoms: CD   and  NE  
REMARK       I    between atoms: NE   and  CZ  
REMARK       I    between atoms: CZ   and  NH1 
REMARK       I    between atoms: CZ   and  NH2 
ROOT
ATOM      1  CA  ARG D 557     -26.217   2.705 -17.014  1.00 35.49     0.159 C 
ENDROOT
BRANCH   1   2
ATOM      2  CB  ARG D 557     -26.789   1.319 -17.183  1.00 35.49     0.034 C 
BRANCH   2   3
ATOM      3  CG  ARG D 557     -25.835   0.203 -17.160  1.00 35.49     0.027 C 
BRANCH   3   4
ATOM      4  CD  ARG D 557     -24.750   0.409 -16.174  1.00 35.49     0.116 C 
BRANCH   4   5
ATOM      5  NE  ARG D 557     -24.898  -0.437 -15.020  1.00 35.49    -0.212 N 
ATOM      6  CZ  ARG D 557     -24.083  -1.406 -14.668  1.00 35.49     0.666 C 
ATOM      7  NH1 ARG D 557     -23.012  -1.722 -15.372  1.00 35.49    -0.235 N 
ATOM      8  NH2 ARG D 557     -24.361  -2.058 -13.576  1.00 35.49    -0.235 N 
ATOM      9  HH  ARG D 557     -22.808  -1.305 -16.092  1.00 35.49     0.174 HD
ATOM     10  HH  ARG D 557     -22.515  -2.362 -15.092  1.00 35.49     0.174 HD
ATOM     11  HH  ARG D 557     -25.055  -1.826 -13.138  1.00 35.49     0.174 HD
ATOM     12  HH  ARG D 557     -23.856  -2.687 -13.315  1.00 35.49     0.174 HD
ATOM     13  HE  ARG D 557     -25.601  -0.350 -14.549  1.00 35.49     0.178 HD
ENDBRANCH   4   5
ENDBRANCH   3   4
ENDBRANCH   2   3
ENDBRANCH   1   2
END_RES ARG D 557
BEGIN_RES GLU D 570
REMARK  3 active torsions:
REMARK  status: ('A' for Active; 'I' for Inactive)
REMARK    5  A    between atoms: CA   and  CB  
REMARK    6  A    between atoms: CB   and  CG  
REMARK    7  A    between atoms: CG   and  CD  
ROOT
ATOM     14  CA  GLU D 570     -18.033  -6.348 -13.375  1.00 32.92     0.160 C 
ENDROOT
BRANCH  14  15
ATOM     15  CB  GLU D 570     -19.500  -6.345 -13.794  1.00 32.92     0.043 C 
BRANCH  15  16
ATOM     16  CG  GLU D 570     -20.438  -5.511 -12.998  1.00 32.92     0.100 C 
BRANCH  16  17
ATOM     17  CD  GLU D 570     -21.731  -5.222 -13.724  1.00 32.92     0.185 C 
ATOM     18  OE1 GLU D 570     -22.305  -4.134 -13.528  1.00 32.92    -0.647 OA
ATOM     19  OE2 GLU D 570     -22.183  -6.101 -14.484  1.00 32.92    -0.647 OA
ENDBRANCH  16  17
ENDBRANCH  15  16
ENDBRANCH  14  15
END_RES GLU D 570
ENDMDL
MODEL 2
REMARK VINA RESULT:      -1.0      4.457      4.554
REMARK  4 active torsions:
REMARK  status: ('A' for Active; 'I' for Inactive)
REMARK    1  A    between atoms: N_5  and  C_23 
REMARK    2  A    between atoms: C_8  and  N_9 
REMARK    3  A    between atoms: N_11  and  C_13 
REMARK    4  A    between atoms: C_15  and  N_19 
ROOT
HETATM    1 CL   UNL     2     -22.252  -6.191  -1.778  1.00  0.00     0.000 Cl
ENDROOT
TORSDOF 4
BEGIN_RES ARG D 557
REMARK  4 active torsions:
REMARK  status: ('A' for Active; 'I' for Inactive)
REMARK    1  A    between atoms: CA   and  CB  
REMARK    2  A    between atoms: CB   and  CG  
REMARK    3  A    between atoms: CG   and  CD  
REMARK    4  A    between atoms: CD   and  NE  
REMARK       I    between atoms: NE   and  CZ  
REMARK       I    between atoms: CZ   and  NH1 
REMARK       I    between atoms: CZ   and  NH2 
ROOT
ATOM      1  CA  ARG D 557     -26.217   2.705 -17.014  1.00 35.49     0.159 C 
ENDROOT
BRANCH   1   2
ATOM      2  CB  ARG D 557     -26.789   1.319 -17.183  1.00 35.49     0.034 C 
BRANCH   2   3
ATOM      3  CG  ARG D 557     -25.835   0.203 -17.160  1.00 35.49     0.027 C 
BRANCH   3   4
ATOM      4  CD  ARG D 557     -24.751   0.408 -16.173  1.00 35.49     0.116 C 
BRANCH   4   5
ATOM      5  NE  ARG D 557     -24.903  -0.438 -15.018  1.00 35.49    -0.212 N 
ATOM      6  CZ  ARG D 557     -24.091  -1.409 -14.665  1.00 35.49     0.666 C 
ATOM      7  NH1 ARG D 557     -23.021  -1.729 -15.368  1.00 35.49    -0.235 N 
ATOM      8  NH2 ARG D 557     -24.372  -2.059 -13.573  1.00 35.49    -0.235 N 
ATOM      9  HH  ARG D 557     -22.815  -1.313 -16.088  1.00 35.49     0.174 HD
ATOM     10  HH  ARG D 557     -22.526  -2.370 -15.087  1.00 35.49     0.174 HD
ATOM     11  HH  ARG D 557     -25.066  -1.826 -13.135  1.00 35.49     0.174 HD
ATOM     12  HH  ARG D 557     -23.870  -2.690 -13.311  1.00 35.49     0.174 HD
ATOM     13  HE  ARG D 557     -25.606  -0.348 -14.547  1.00 35.49     0.178 HD
ENDBRANCH   4   5
ENDBRANCH   3   4
ENDBRANCH   2   3
ENDBRANCH   1   2
END_RES ARG D 557
BEGIN_RES GLU D 570
REMARK  3 active torsions:
REMARK  status: ('A' for Active; 'I' for Inactive)
REMARK    5  A    between atoms: CA   and  CB  
REMARK    6  A    between atoms: CB   and  CG  
REMARK    7  A    between atoms: CG   and  CD  
ROOT
ATOM     14  CA  GLU D 570     -18.033  -6.348 -13.375  1.00 32.92     0.160 C 
ENDROOT
BRANCH  14  15
ATOM     15  CB  GLU D 570     -19.500  -6.345 -13.794  1.00 32.92     0.043 C 
BRANCH  15  16
ATOM     16  CG  GLU D 570     -20.442  -5.530 -12.984  1.00 32.92     0.100 C 
BRANCH  16  17
ATOM     17  CD  GLU D 570     -21.745  -5.252 -13.697  1.00 32.92     0.185 C 
ATOM     18  OE1 GLU D 570     -22.227  -6.129 -14.440  1.00 32.92    -0.647 OA
ATOM     19  OE2 GLU D 570     -22.280  -4.140 -13.523  1.00 32.92    -0.647 OA
ENDBRANCH  16  17
ENDBRANCH  15  16
ENDBRANCH  14  15
END_RES GLU D 570
ENDMDL
MODEL 3
REMARK VINA RESULT:      -0.9      5.419      5.498
REMARK  4 active torsions:
REMARK  status: ('A' for Active; 'I' for Inactive)
REMARK    1  A    between atoms: N_5  and  C_23 
REMARK    2  A    between atoms: C_8  and  N_9 
REMARK    3  A    between atoms: N_11  and  C_13 
REMARK    4  A    between atoms: C_15  and  N_19 
ROOT
HETATM    1 CL   UNL     2     -29.178   6.523   4.001  1.00  0.00     0.000 Cl
ENDROOT
TORSDOF 4
BEGIN_RES ARG D 557
REMARK  4 active torsions:
REMARK  status: ('A' for Active; 'I' for Inactive)
REMARK    1  A    between atoms: CA   and  CB  
REMARK    2  A    between atoms: CB   and  CG  
REMARK    3  A    between atoms: CG   and  CD  
REMARK    4  A    between atoms: CD   and  NE  
REMARK       I    between atoms: NE   and  CZ  
REMARK       I    between atoms: CZ   and  NH1 
REMARK       I    between atoms: CZ   and  NH2 
ROOT
ATOM      1  CA  ARG D 557     -26.217   2.705 -17.014  1.00 35.49     0.159 C 
ENDROOT
BRANCH   1   2
ATOM      2  CB  ARG D 557     -26.789   1.319 -17.183  1.00 35.49     0.034 C 
BRANCH   2   3
ATOM      3  CG  ARG D 557     -25.835   0.203 -17.161  1.00 35.49     0.027 C 
BRANCH   3   4
ATOM      4  CD  ARG D 557     -24.748   0.410 -16.177  1.00 35.49     0.116 C 
BRANCH   4   5
ATOM      5  NE  ARG D 557     -24.894  -0.433 -15.021  1.00 35.49    -0.212 N 
ATOM      6  CZ  ARG D 557     -24.082  -1.406 -14.671  1.00 35.49     0.666 C 
ATOM      7  NH1 ARG D 557     -23.017  -1.729 -15.380  1.00 35.49    -0.235 N 
ATOM      8  NH2 ARG D 557     -24.358  -2.055 -13.577  1.00 35.49    -0.235 N 
ATOM      9  HH  ARG D 557     -22.815  -1.314 -16.102  1.00 35.49     0.174 HD
ATOM     10  HH  ARG D 557     -22.522  -2.371 -15.102  1.00 35.49     0.174 HD
ATOM     11  HH  ARG D 557     -25.049  -1.819 -13.136  1.00 35.49     0.174 HD
ATOM     12  HH  ARG D 557     -23.855  -2.686 -13.318  1.00 35.49     0.174 HD
ATOM     13  HE  ARG D 557     -25.594  -0.342 -14.546  1.00 35.49     0.178 HD
ENDBRANCH   4   5
ENDBRANCH   3   4
ENDBRANCH   2   3
ENDBRANCH   1   2
END_RES ARG D 557
BEGIN_RES GLU D 570
REMARK  3 active torsions:
REMARK  status: ('A' for Active; 'I' for Inactive)
REMARK    5  A    between atoms: CA   and  CB  
REMARK    6  A    between atoms: CB   and  CG  
REMARK    7  A    between atoms: CG   and  CD  
ROOT
ATOM     14  CA  GLU D 570     -18.033  -6.348 -13.375  1.00 32.92     0.160 C 
ENDROOT
BRANCH  14  15
ATOM     15  CB  GLU D 570     -19.500  -6.345 -13.794  1.00 32.92     0.043 C 
BRANCH  15  16
ATOM     16  CG  GLU D 570     -20.442  -5.531 -12.983  1.00 32.92     0.100 C 
BRANCH  16  17
ATOM     17  CD  GLU D 570     -21.740  -5.243 -13.700  1.00 32.92     0.185 C 
ATOM     18  OE1 GLU D 570     -22.222  -6.112 -14.452  1.00 32.92    -0.647 OA
ATOM     19  OE2 GLU D 570     -22.272  -4.129 -13.522  1.00 32.92    -0.647 OA
ENDBRANCH  16  17
ENDBRANCH  15  16
ENDBRANCH  14  15
END_RES GLU D 570
ENDMDL
MODEL 4
REMARK VINA RESULT:      -0.8      4.756      4.847
REMARK  4 active torsions:
REMARK  status: ('A' for Active; 'I' for Inactive)
REMARK    1  A    between atoms: N_5  and  C_23 
REMARK    2  A    between atoms: C_8  and  N_9 
REMARK    3  A    between atoms: N_11  and  C_13 
REMARK    4  A    between atoms: C_15  and  N_19 
ROOT
HETATM    1 CL   UNL     2     -23.847   5.858  -1.507  1.00  0.00     0.000 Cl
ENDROOT
TORSDOF 4
BEGIN_RES ARG D 557
REMARK  4 active torsions:
REMARK  status: ('A' for Active; 'I' for Inactive)
REMARK    1  A    between atoms: CA   and  CB  
REMARK    2  A    between atoms: CB   and  CG  
REMARK    3  A    between atoms: CG   and  CD  
REMARK    4  A    between atoms: CD   and  NE  
REMARK       I    between atoms: NE   and  CZ  
REMARK       I    between atoms: CZ   and  NH1 
REMARK       I    between atoms: CZ   and  NH2 
ROOT
ATOM      1  CA  ARG D 557     -26.217   2.705 -17.014  1.00 35.49     0.159 C 
ENDROOT
BRANCH   1   2
ATOM      2  CB  ARG D 557     -26.789   1.319 -17.183  1.00 35.49     0.034 C 
BRANCH   2   3
ATOM      3  CG  ARG D 557     -25.837   0.202 -17.145  1.00 35.49     0.027 C 
BRANCH   3   4
ATOM      4  CD  ARG D 557     -24.757   0.415 -16.155  1.00 35.49     0.116 C 
BRANCH   4   5
ATOM      5  NE  ARG D 557     -24.896  -0.443 -15.008  1.00 35.49    -0.212 N 
ATOM      6  CZ  ARG D 557     -24.074  -1.412 -14.669  1.00 35.49     0.666 C 
ATOM      7  NH1 ARG D 557     -23.005  -1.716 -15.381  1.00 35.49    -0.235 N 
ATOM      8  NH2 ARG D 557     -24.344  -2.076 -13.583  1.00 35.49    -0.235 N 
ATOM      9  HH  ARG D 557     -22.807  -1.291 -16.098  1.00 35.49     0.174 HD
ATOM     10  HH  ARG D 557     -22.504  -2.356 -15.110  1.00 35.49     0.174 HD
ATOM     11  HH  ARG D 557     -25.038  -1.852 -13.139  1.00 35.49     0.174 HD
ATOM     12  HH  ARG D 557     -23.835  -2.705 -13.330  1.00 35.49     0.174 HD
ATOM     13  HE  ARG D 557     -25.597  -0.365 -14.533  1.00 35.49     0.178 HD
ENDBRANCH   4   5
ENDBRANCH   3   4
ENDBRANCH   2   3
ENDBRANCH   1   2
END_RES ARG D 557
BEGIN_RES GLU D 570
REMARK  3 active torsions:
REMARK  status: ('A' for Active; 'I' for Inactive)
REMARK    5  A    between atoms: CA   and  CB  
REMARK    6  A    between atoms: CB   and  CG  
REMARK    7  A    between atoms: CG   and  CD  
ROOT
ATOM     14  CA  GLU D 570     -18.033  -6.348 -13.375  1.00 32.92     0.160 C 
ENDROOT
BRANCH  14  15
ATOM     15  CB  GLU D 570     -19.500  -6.345 -13.794  1.00 32.92     0.043 C 
BRANCH  15  16
ATOM     16  CG  GLU D 570     -20.445  -5.543 -12.974  1.00 32.92     0.100 C 
BRANCH  16  17
ATOM     17  CD  GLU D 570     -21.742  -5.248 -13.689  1.00 32.92     0.185 C 
ATOM     18  OE1 GLU D 570     -22.254  -6.130 -14.405  1.00 32.92    -0.647 OA
ATOM     19  OE2 GLU D 570     -22.243  -4.115 -13.547  1.00 32.92    -0.647 OA
ENDBRANCH  16  17
ENDBRANCH  15  16
ENDBRANCH  14  15
END_RES GLU D 570
ENDMDL
MODEL 5
REMARK VINA RESULT:      -0.8      8.519      8.570
REMARK  4 active torsions:
REMARK  status: ('A' for Active; 'I' for Inactive)
REMARK    1  A    between atoms: N_5  and  C_23 
REMARK    2  A    between atoms: C_8  and  N_9 
REMARK    3  A    between atoms: N_11  and  C_13 
REMARK    4  A    between atoms: C_15  and  N_19 
ROOT
HETATM    1 CL   UNL     2     -13.299   9.044   5.330  1.00  0.00     0.000 Cl
ENDROOT
TORSDOF 4
BEGIN_RES ARG D 557
REMARK  4 active torsions:
REMARK  status: ('A' for Active; 'I' for Inactive)
REMARK    1  A    between atoms: CA   and  CB  
REMARK    2  A    between atoms: CB   and  CG  
REMARK    3  A    between atoms: CG   and  CD  
REMARK    4  A    between atoms: CD   and  NE  
REMARK       I    between atoms: NE   and  CZ  
REMARK       I    between atoms: CZ   and  NH1 
REMARK       I    between atoms: CZ   and  NH2 
ROOT
ATOM      1  CA  ARG D 557     -26.217   2.705 -17.014  1.00 35.49     0.159 C 
ENDROOT
BRANCH   1   2
ATOM      2  CB  ARG D 557     -26.789   1.319 -17.183  1.00 35.49     0.034 C 
BRANCH   2   3
ATOM      3  CG  ARG D 557     -25.836   0.203 -17.157  1.00 35.49     0.027 C 
BRANCH   3   4
ATOM      4  CD  ARG D 557     -24.749   0.412 -16.172  1.00 35.49     0.116 C 
BRANCH   4   5
ATOM      5  NE  ARG D 557     -24.895  -0.434 -15.017  1.00 35.49    -0.212 N 
ATOM      6  CZ  ARG D 557     -24.082  -1.407 -14.670  1.00 35.49     0.666 C 
ATOM      7  NH1 ARG D 557     -23.017  -1.728 -15.380  1.00 35.49    -0.235 N 
ATOM      8  NH2 ARG D 557     -24.357  -2.057 -13.577  1.00 35.49    -0.235 N 
ATOM      9  HH  ARG D 557     -22.816  -1.312 -16.102  1.00 35.49     0.174 HD
ATOM     10  HH  ARG D 557     -22.522  -2.370 -15.103  1.00 35.49     0.174 HD
ATOM     11  HH  ARG D 557     -25.048  -1.823 -13.134  1.00 35.49     0.174 HD
ATOM     12  HH  ARG D 557     -23.854  -2.689 -13.318  1.00 35.49     0.174 HD
ATOM     13  HE  ARG D 557     -25.594  -0.344 -14.542  1.00 35.49     0.178 HD
ENDBRANCH   4   5
ENDBRANCH   3   4
ENDBRANCH   2   3
ENDBRANCH   1   2
END_RES ARG D 557
BEGIN_RES GLU D 570
REMARK  3 active torsions:
REMARK  status: ('A' for Active; 'I' for Inactive)
REMARK    5  A    between atoms: CA   and  CB  
REMARK    6  A    between atoms: CB   and  CG  
REMARK    7  A    between atoms: CG   and  CD  
ROOT
ATOM     14  CA  GLU D 570     -18.033  -6.348 -13.375  1.00 32.92     0.160 C 
ENDROOT
BRANCH  14  15
ATOM     15  CB  GLU D 570     -19.500  -6.345 -13.794  1.00 32.92     0.043 C 
BRANCH  15  16
ATOM     16  CG  GLU D 570     -20.439  -5.517 -12.994  1.00 32.92     0.100 C 
BRANCH  16  17
ATOM     17  CD  GLU D 570     -21.746  -5.254 -13.705  1.00 32.92     0.185 C 
ATOM     18  OE1 GLU D 570     -22.224  -6.140 -14.439  1.00 32.92    -0.647 OA
ATOM     19  OE2 GLU D 570     -22.288  -4.144 -13.539  1.00 32.92    -0.647 OA
ENDBRANCH  16  17
ENDBRANCH  15  16
ENDBRANCH  14  15
END_RES GLU D 570
ENDMDL
MODEL 6
REMARK VINA RESULT:      -0.8      3.324      3.439
REMARK  4 active torsions:
REMARK  status: ('A' for Active; 'I' for Inactive)
REMARK    1  A    between atoms: N_5  and  C_23 
REMARK    2  A    between atoms: C_8  and  N_9 
REMARK    3  A    between atoms: N_11  and  C_13 
REMARK    4  A    between atoms: C_15  and  N_19 
ROOT
HETATM    1 CL   UNL     2     -30.325   2.783 -18.543  1.00  0.00     0.000 Cl
ENDROOT
TORSDOF 4
BEGIN_RES ARG D 557
REMARK  4 active torsions:
REMARK  status: ('A' for Active; 'I' for Inactive)
REMARK    1  A    between atoms: CA   and  CB  
REMARK    2  A    between atoms: CB   and  CG  
REMARK    3  A    between atoms: CG   and  CD  
REMARK    4  A    between atoms: CD   and  NE  
REMARK       I    between atoms: NE   and  CZ  
REMARK       I    between atoms: CZ   and  NH1 
REMARK       I    between atoms: CZ   and  NH2 
ROOT
ATOM      1  CA  ARG D 557     -26.217   2.705 -17.014  1.00 35.49     0.159 C 
ENDROOT
BRANCH   1   2
ATOM      2  CB  ARG D 557     -26.789   1.319 -17.183  1.00 35.49     0.034 C 
BRANCH   2   3
ATOM      3  CG  ARG D 557     -25.924   0.196 -16.801  1.00 35.49     0.027 C 
BRANCH   3   4
ATOM      4  CD  ARG D 557     -26.664  -0.867 -16.083  1.00 35.49     0.116 C 
BRANCH   4   5
ATOM      5  NE  ARG D 557     -25.849  -1.520 -15.092  1.00 35.49    -0.212 N 
ATOM      6  CZ  ARG D 557     -25.896  -2.795 -14.779  1.00 35.49     0.666 C 
ATOM      7  NH1 ARG D 557     -26.736  -3.637 -15.353  1.00 35.49    -0.235 N 
ATOM      8  NH2 ARG D 557     -25.067  -3.220 -13.869  1.00 35.49    -0.235 N 
ATOM      9  HH  ARG D 557     -27.288  -3.379 -15.955  1.00 35.49     0.174 HD
ATOM     10  HH  ARG D 557     -26.719  -4.458 -15.110  1.00 35.49     0.174 HD
ATOM     11  HH  ARG D 557     -24.531  -2.656 -13.521  1.00 35.49     0.174 HD
ATOM     12  HH  ARG D 557     -25.065  -4.038 -13.643  1.00 35.49     0.174 HD
ATOM     13  HE  ARG D 557     -25.330  -1.038 -14.622  1.00 35.49     0.178 HD
ENDBRANCH   4   5
ENDBRANCH   3   4
ENDBRANCH   2   3
ENDBRANCH   1   2
END_RES ARG D 557
BEGIN_RES GLU D 570
REMARK  3 active torsions:
REMARK  status: ('A' for Active; 'I' for Inactive)
REMARK    5  A    between atoms: CA   and  CB  
REMARK    6  A    between atoms: CB   and  CG  
REMARK    7  A    between atoms: CG   and  CD  
ROOT
ATOM     14  CA  GLU D 570     -18.033  -6.348 -13.375  1.00 32.92     0.160 C 
ENDROOT
BRANCH  14  15
ATOM     15  CB  GLU D 570     -19.500  -6.345 -13.794  1.00 32.92     0.043 C 
BRANCH  15  16
ATOM     16  CG  GLU D 570     -20.444  -5.541 -12.976  1.00 32.92     0.100 C 
BRANCH  16  17
ATOM     17  CD  GLU D 570     -21.704  -5.170 -13.723  1.00 32.92     0.185 C 
ATOM     18  OE1 GLU D 570     -22.776  -5.079 -13.095  1.00 32.92    -0.647 OA
ATOM     19  OE2 GLU D 570     -21.620  -4.985 -14.953  1.00 32.92    -0.647 OA
ENDBRANCH  16  17
ENDBRANCH  15  16
ENDBRANCH  14  15
END_RES GLU D 570
ENDMDL
MODEL 7
REMARK VINA RESULT:      -0.8      3.390      3.479
REMARK  4 active torsions:
REMARK  status: ('A' for Active; 'I' for Inactive)
REMARK    1  A    between atoms: N_5  and  C_23 
REMARK    2  A    between atoms: C_8  and  N_9 
REMARK    3  A    between atoms: N_11  and  C_13 
REMARK    4  A    between atoms: C_15  and  N_19 
ROOT
HETATM    1 CL   UNL     2     -29.845   7.459 -12.757  1.00  0.00     0.000 Cl
ENDROOT
TORSDOF 4
BEGIN_RES ARG D 557
REMARK  4 active torsions:
REMARK  status: ('A' for Active; 'I' for Inactive)
REMARK    1  A    between atoms: CA   and  CB  
REMARK    2  A    between atoms: CB   and  CG  
REMARK    3  A    between atoms: CG   and  CD  
REMARK    4  A    between atoms: CD   and  NE  
REMARK       I    between atoms: NE   and  CZ  
REMARK       I    between atoms: CZ   and  NH1 
REMARK       I    between atoms: CZ   and  NH2 
ROOT
ATOM      1  CA  ARG D 557     -26.217   2.705 -17.014  1.00 35.49     0.159 C 
ENDROOT
BRANCH   1   2
ATOM      2  CB  ARG D 557     -26.789   1.319 -17.183  1.00 35.49     0.034 C 
BRANCH   2   3
ATOM      3  CG  ARG D 557     -25.865   0.195 -16.991  1.00 35.49     0.027 C 
BRANCH   3   4
ATOM      4  CD  ARG D 557     -26.291  -0.706 -15.896  1.00 35.49     0.116 C 
BRANCH   4   5
ATOM      5  NE  ARG D 557     -25.244  -0.923 -14.933  1.00 35.49    -0.212 N 
ATOM      6  CZ  ARG D 557     -24.958  -2.067 -14.353  1.00 35.49     0.666 C 
ATOM      7  NH1 ARG D 557     -25.638  -3.173 -14.594  1.00 35.49    -0.235 N 
ATOM      8  NH2 ARG D 557     -23.959  -2.085 -13.520  1.00 35.49    -0.235 N 
ATOM      9  HH  ARG D 557     -26.298  -3.185 -15.140  1.00 35.49     0.174 HD
ATOM     10  HH  ARG D 557     -25.404  -3.891 -14.188  1.00 35.49     0.174 HD
ATOM     11  HH  ARG D 557     -23.533  -1.357 -13.389  1.00 35.49     0.174 HD
ATOM     12  HH  ARG D 557     -23.742  -2.806 -13.129  1.00 35.49     0.174 HD
ATOM     13  HE  ARG D 557     -24.802  -0.247 -14.665  1.00 35.49     0.178 HD
ENDBRANCH   4   5
ENDBRANCH   3   4
ENDBRANCH   2   3
ENDBRANCH   1   2
END_RES ARG D 557
BEGIN_RES GLU D 570
REMARK  3 active torsions:
REMARK  status: ('A' for Active; 'I' for Inactive)
REMARK    5  A    between atoms: CA   and  CB  
REMARK    6  A    between atoms: CB   and  CG  
REMARK    7  A    between atoms: CG   and  CD  
ROOT
ATOM     14  CA  GLU D 570     -18.033  -6.348 -13.375  1.00 32.92     0.160 C 
ENDROOT
BRANCH  14  15
ATOM     15  CB  GLU D 570     -19.500  -6.345 -13.794  1.00 32.92     0.043 C 
BRANCH  15  16
ATOM     16  CG  GLU D 570     -20.450  -5.567 -12.957  1.00 32.92     0.100 C 
BRANCH  16  17
ATOM     17  CD  GLU D 570     -21.676  -5.120 -13.717  1.00 32.92     0.185 C 
ATOM     18  OE1 GLU D 570     -22.721  -4.868 -13.086  1.00 32.92    -0.647 OA
ATOM     19  OE2 GLU D 570     -21.597  -5.038 -14.958  1.00 32.92    -0.647 OA
ENDBRANCH  16  17
ENDBRANCH  15  16
ENDBRANCH  14  15
END_RES GLU D 570
ENDMDL
MODEL 8
REMARK VINA RESULT:      -0.7      3.910      4.020
REMARK  4 active torsions:
REMARK  status: ('A' for Active; 'I' for Inactive)
REMARK    1  A    between atoms: N_5  and  C_23 
REMARK    2  A    between atoms: C_8  and  N_9 
REMARK    3  A    between atoms: N_11  and  C_13 
REMARK    4  A    between atoms: C_15  and  N_19 
ROOT
HETATM    1 CL   UNL     2     -20.449  -4.102  -9.643  1.00  0.00     0.000 Cl
ENDROOT
TORSDOF 4
BEGIN_RES ARG D 557
REMARK  4 active torsions:
REMARK  status: ('A' for Active; 'I' for Inactive)
REMARK    1  A    between atoms: CA   and  CB  
REMARK    2  A    between atoms: CB   and  CG  
REMARK    3  A    between atoms: CG   and  CD  
REMARK    4  A    between atoms: CD   and  NE  
REMARK       I    between atoms: NE   and  CZ  
REMARK       I    between atoms: CZ   and  NH1 
REMARK       I    between atoms: CZ   and  NH2 
ROOT
ATOM      1  CA  ARG D 557     -26.217   2.705 -17.014  1.00 35.49     0.159 C 
ENDROOT
BRANCH   1   2
ATOM      2  CB  ARG D 557     -26.789   1.319 -17.183  1.00 35.49     0.034 C 
BRANCH   2   3
ATOM      3  CG  ARG D 557     -25.837   0.202 -17.145  1.00 35.49     0.027 C 
BRANCH   3   4
ATOM      4  CD  ARG D 557     -24.764   0.410 -16.145  1.00 35.49     0.116 C 
BRANCH   4   5
ATOM      5  NE  ARG D 557     -24.913  -0.452 -15.002  1.00 35.49    -0.212 N 
ATOM      6  CZ  ARG D 557     -24.097  -1.423 -14.661  1.00 35.49     0.666 C 
ATOM      7  NH1 ARG D 557     -23.023  -1.728 -15.366  1.00 35.49    -0.235 N 
ATOM      8  NH2 ARG D 557     -24.376  -2.090 -13.579  1.00 35.49    -0.235 N 
ATOM      9  HH  ARG D 557     -22.818  -1.301 -16.080  1.00 35.49     0.174 HD
ATOM     10  HH  ARG D 557     -22.525  -2.370 -15.093  1.00 35.49     0.174 HD
ATOM     11  HH  ARG D 557     -25.072  -1.866 -13.139  1.00 35.49     0.174 HD
ATOM     12  HH  ARG D 557     -23.870  -2.721 -13.324  1.00 35.49     0.174 HD
ATOM     13  HE  ARG D 557     -25.617  -0.373 -14.532  1.00 35.49     0.178 HD
ENDBRANCH   4   5
ENDBRANCH   3   4
ENDBRANCH   2   3
ENDBRANCH   1   2
END_RES ARG D 557
BEGIN_RES GLU D 570
REMARK  3 active torsions:
REMARK  status: ('A' for Active; 'I' for Inactive)
REMARK    5  A    between atoms: CA   and  CB  
REMARK    6  A    between atoms: CB   and  CG  
REMARK    7  A    between atoms: CG   and  CD  
ROOT
ATOM     14  CA  GLU D 570     -18.033  -6.348 -13.375  1.00 32.92     0.160 C 
ENDROOT
BRANCH  14  15
ATOM     15  CB  GLU D 570     -19.500  -6.345 -13.794  1.00 32.92     0.043 C 
BRANCH  15  16
ATOM     16  CG  GLU D 570     -20.444  -5.542 -12.975  1.00 32.92     0.100 C 
BRANCH  16  17
ATOM     17  CD  GLU D 570     -21.737  -5.236 -13.695  1.00 32.92     0.185 C 
ATOM     18  OE1 GLU D 570     -22.212  -6.086 -14.472  1.00 32.92    -0.647 OA
ATOM     19  OE2 GLU D 570     -22.270  -4.128 -13.493  1.00 32.92    -0.647 OA
ENDBRANCH  16  17
ENDBRANCH  15  16
ENDBRANCH  14  15
END_RES GLU D 570
ENDMDL
MODEL 9
REMARK VINA RESULT:      -0.7      6.050      6.121
REMARK  4 active torsions:
REMARK  status: ('A' for Active; 'I' for Inactive)
REMARK    1  A    between atoms: N_5  and  C_23 
REMARK    2  A    between atoms: C_8  and  N_9 
REMARK    3  A    between atoms: N_11  and  C_13 
REMARK    4  A    between atoms: C_15  and  N_19 
ROOT
HETATM    1 CL   UNL     2     -18.127 -14.842 -15.747  1.00  0.00     0.000 Cl
ENDROOT
TORSDOF 4
BEGIN_RES ARG D 557
REMARK  4 active torsions:
REMARK  status: ('A' for Active; 'I' for Inactive)
REMARK    1  A    between atoms: CA   and  CB  
REMARK    2  A    between atoms: CB   and  CG  
REMARK    3  A    between atoms: CG   and  CD  
REMARK    4  A    between atoms: CD   and  NE  
REMARK       I    between atoms: NE   and  CZ  
REMARK       I    between atoms: CZ   and  NH1 
REMARK       I    between atoms: CZ   and  NH2 
ROOT
ATOM      1  CA  ARG D 557     -26.217   2.705 -17.014  1.00 35.49     0.159 C 
ENDROOT
BRANCH   1   2
ATOM      2  CB  ARG D 557     -26.789   1.319 -17.183  1.00 35.49     0.034 C 
BRANCH   2   3
ATOM      3  CG  ARG D 557     -25.836   0.203 -17.157  1.00 35.49     0.027 C 
BRANCH   3   4
ATOM      4  CD  ARG D 557     -24.747   0.414 -16.175  1.00 35.49     0.116 C 
BRANCH   4   5
ATOM      5  NE  ARG D 557     -24.888  -0.432 -15.019  1.00 35.49    -0.212 N 
ATOM      6  CZ  ARG D 557     -24.072  -1.402 -14.674  1.00 35.49     0.666 C 
ATOM      7  NH1 ARG D 557     -23.008  -1.722 -15.386  1.00 35.49    -0.235 N 
ATOM      8  NH2 ARG D 557     -24.343  -2.053 -13.580  1.00 35.49    -0.235 N 
ATOM      9  HH  ARG D 557     -22.809  -1.305 -16.109  1.00 35.49     0.174 HD
ATOM     10  HH  ARG D 557     -22.510  -2.363 -15.110  1.00 35.49     0.174 HD
ATOM     11  HH  ARG D 557     -25.033  -1.820 -13.136  1.00 35.49     0.174 HD
ATOM     12  HH  ARG D 557     -23.838  -2.684 -13.322  1.00 35.49     0.174 HD
ATOM     13  HE  ARG D 557     -25.587  -0.343 -14.543  1.00 35.49     0.178 HD
ENDBRANCH   4   5
ENDBRANCH   3   4
ENDBRANCH   2   3
ENDBRANCH   1   2
END_RES ARG D 557
BEGIN_RES GLU D 570
REMARK  3 active torsions:
REMARK  status: ('A' for Active; 'I' for Inactive)
REMARK    5  A    between atoms: CA   and  CB  
REMARK    6  A    between atoms: CB   and  CG  
REMARK    7  A    between atoms: CG   and  CD  
ROOT
ATOM     14  CA  GLU D 570     -18.033  -6.348 -13.375  1.00 32.92     0.160 C 
ENDROOT
BRANCH  14  15
ATOM     15  CB  GLU D 570     -19.500  -6.345 -13.794  1.00 32.92     0.043 C 
BRANCH  15  16
ATOM     16  CG  GLU D 570     -20.444  -5.540 -12.976  1.00 32.92     0.100 C 
BRANCH  16  17
ATOM     17  CD  GLU D 570     -21.744  -5.253 -13.689  1.00 32.92     0.185 C 
ATOM     18  OE1 GLU D 570     -22.261  -6.144 -14.389  1.00 32.92    -0.647 OA
ATOM     19  OE2 GLU D 570     -22.243  -4.117 -13.560  1.00 32.92    -0.647 OA
ENDBRANCH  16  17
ENDBRANCH  15  16
ENDBRANCH  14  15
END_RES GLU D 570
ENDMDL
