MODEL 1
REMARK VINA RESULT:     -12.1      0.000      0.000
REMARK  12 active torsions:
REMARK  status: ('A' for Active; 'I' for Inactive)
REMARK    1  A    between atoms: C_3  and  C_10 
REMARK    2  A    between atoms: C_11  and  C_12 
REMARK    3  A    between atoms: C_13  and  C_14 
REMARK    4  A    between atoms: C_15  and  C_16 
REMARK    5  A    between atoms: C_17  and  C_18 
REMARK    6  A    between atoms: C_18  and  O_19 
REMARK    7  A    between atoms: O_19  and  C_20 
REMARK    8  A    between atoms: C_20  and  C_22 
REMARK    9  A    between atoms: C_23  and  C_25 
REMARK   10  A    between atoms: C_26  and  C_27 
REMARK   11  A    between atoms: C_28  and  C_30 
REMARK   12  A    between atoms: C_31  and  C_32 
ROOT
HETATM    1  O   UNL     1     -20.782  -3.977  -7.294  1.00  0.00    -0.314 OA
ENDROOT
BRANCH   1   2
HETATM    2  C   UNL     1     -20.498  -4.624  -6.025  1.00  0.00     0.207 C 
BRANCH   2   3
HETATM    3  C   UNL     1     -20.615  -6.120  -5.978  1.00  0.00     0.006 C 
HETATM    4  C   UNL     1     -21.167  -7.009  -5.129  1.00  0.00    -0.064 C 
HETATM    5  C   UNL     1     -21.041  -8.484  -5.486  1.00  0.00     0.048 C 
BRANCH   4   6
HETATM    6  C   UNL     1     -21.894  -6.760  -3.892  1.00  0.00     0.006 C 
HETATM    7  C   UNL     1     -21.378  -6.750  -2.653  1.00  0.00     0.001 C 
BRANCH   7   8
HETATM    8  C   UNL     1     -22.181  -6.681  -1.440  1.00  0.00     0.007 C 
HETATM    9  C   UNL     1     -22.427  -7.719  -0.612  1.00  0.00    -0.062 C 
HETATM   10  C   UNL     1     -23.160  -7.542   0.691  1.00  0.00     0.048 C 
BRANCH   9  11
HETATM   11  C   UNL     1     -22.019  -9.089  -0.892  1.00  0.00     0.007 C 
HETATM   12  C   UNL     1     -22.759 -10.159  -0.545  1.00  0.00     0.009 C 
BRANCH  12  13
HETATM   13  C   UNL     1     -22.475 -11.492  -1.062  1.00  0.00    -0.048 C 
HETATM   14  C   UNL     1     -22.631 -11.849  -2.357  1.00  0.00    -0.077 C 
HETATM   15  C   UNL     1     -22.898 -10.883  -3.485  1.00  0.00     0.044 C 
HETATM   16  C   UNL     1     -22.539 -13.293  -2.821  1.00  0.00     0.034 C 
HETATM   17  C   UNL     1     -22.328 -14.326  -1.719  1.00  0.00     0.005 C 
HETATM   18  C   UNL     1     -21.427 -13.760  -0.638  1.00  0.00     0.014 C 
HETATM   19  C   UNL     1     -22.055 -12.509   0.016  1.00  0.00    -0.020 C 
HETATM   20  C   UNL     1     -20.975 -11.942   0.969  1.00  0.00     0.020 C 
HETATM   21  C   UNL     1     -23.310 -12.904   0.820  1.00  0.00     0.020 C 
ENDBRANCH  12  13
ENDBRANCH   9  11
ENDBRANCH   7   8
ENDBRANCH   4   6
ENDBRANCH   2   3
ENDBRANCH   1   2
BRANCH   1  22
HETATM   22  C   UNL     1     -22.017  -4.273  -7.763  1.00  0.00     0.283 C 
HETATM   23  O   UNL     1     -22.999  -4.461  -7.052  1.00  0.00    -0.260 OA
BRANCH  22  24
HETATM   24  C   UNL     1     -22.246  -4.181  -9.228  1.00  0.00     0.089 C 
HETATM   25  C   UNL     1     -21.600  -4.225 -10.415  1.00  0.00    -0.056 C 
HETATM   26  C   UNL     1     -20.169  -4.525 -10.736  1.00  0.00     0.048 C 
BRANCH  25  27
HETATM   27  C   UNL     1     -22.348  -3.871 -11.621  1.00  0.00     0.007 C 
HETATM   28  C   UNL     1     -23.099  -4.776 -12.267  1.00  0.00     0.001 C 
BRANCH  28  29
HETATM   29  C   UNL     1     -24.068  -4.426 -13.280  1.00  0.00     0.007 C 
HETATM   30  C   UNL     1     -24.454  -5.201 -14.309  1.00  0.00    -0.062 C 
HETATM   31  C   UNL     1     -23.826  -6.518 -14.697  1.00  0.00     0.048 C 
BRANCH  30  32
HETATM   32  C   UNL     1     -25.567  -4.723 -15.133  1.00  0.00     0.007 C 
HETATM   33  C   UNL     1     -26.458  -5.475 -15.798  1.00  0.00     0.009 C 
BRANCH  33  34
HETATM   34  C   UNL     1     -27.482  -4.879 -16.655  1.00  0.00    -0.048 C 
HETATM   35  C   UNL     1     -27.837  -3.562 -16.508  1.00  0.00    -0.077 C 
HETATM   36  C   UNL     1     -28.952  -2.944 -17.291  1.00  0.00     0.034 C 
HETATM   37  C   UNL     1     -27.167  -2.593 -15.565  1.00  0.00     0.044 C 
HETATM   38  C   UNL     1     -29.834  -3.936 -18.036  1.00  0.00     0.005 C 
HETATM   39  C   UNL     1     -28.982  -4.994 -18.721  1.00  0.00     0.014 C 
HETATM   40  C   UNL     1     -28.122  -5.803 -17.711  1.00  0.00    -0.020 C 
HETATM   41  C   UNL     1     -27.064  -6.566 -18.546  1.00  0.00     0.020 C 
HETATM   42  C   UNL     1     -29.022  -6.852 -17.014  1.00  0.00     0.020 C 
ENDBRANCH  33  34
ENDBRANCH  30  32
ENDBRANCH  28  29
ENDBRANCH  25  27
ENDBRANCH  22  24
ENDBRANCH   1  22
TORSDOF 12
BEGIN_RES ARG D 557
REMARK  4 active torsions:
REMARK  status: ('A' for Active; 'I' for Inactive)
REMARK    1  A    between atoms: CA   and  CB  
REMARK    2  A    between atoms: CB   and  CG  
REMARK    3  A    between atoms: CG   and  CD  
REMARK    4  A    between atoms: CD   and  NE  
REMARK       I    between atoms: NE   and  CZ  
REMARK       I    between atoms: CZ   and  NH1 
REMARK       I    between atoms: CZ   and  NH2 
ROOT
ATOM      1  CA  ARG D 557     -26.217   2.705 -17.014  1.00 35.49     0.159 C 
ENDROOT
BRANCH   1   2
ATOM      2  CB  ARG D 557     -26.789   1.319 -17.183  1.00 35.49     0.034 C 
BRANCH   2   3
ATOM      3  CG  ARG D 557     -25.905   0.195 -16.851  1.00 35.49     0.027 C 
BRANCH   3   4
ATOM      4  CD  ARG D 557     -24.665   0.633 -16.171  1.00 35.49     0.116 C 
BRANCH   4   5
ATOM      5  NE  ARG D 557     -23.671  -0.407 -16.132  1.00 35.49    -0.212 N 
ATOM      6  CZ  ARG D 557     -23.503  -1.272 -15.157  1.00 35.49     0.666 C 
ATOM      7  NH1 ARG D 557     -24.248  -1.267 -14.067  1.00 35.49    -0.235 N 
ATOM      8  NH2 ARG D 557     -22.564  -2.162 -15.300  1.00 35.49    -0.235 N 
ATOM      9  HH  ARG D 557     -24.873  -0.691 -13.953  1.00 35.49     0.174 HD
ATOM     10  HH  ARG D 557     -24.094  -1.857 -13.466  1.00 35.49     0.174 HD
ATOM     11  HH  ARG D 557     -22.104  -2.147 -16.018  1.00 35.49     0.174 HD
ATOM     12  HH  ARG D 557     -22.428  -2.740 -14.694  1.00 35.49     0.174 HD
ATOM     13  HE  ARG D 557     -23.101  -0.438 -16.762  1.00 35.49     0.178 HD
ENDBRANCH   4   5
ENDBRANCH   3   4
ENDBRANCH   2   3
ENDBRANCH   1   2
END_RES ARG D 557
BEGIN_RES GLU D 570
REMARK  3 active torsions:
REMARK  status: ('A' for Active; 'I' for Inactive)
REMARK    5  A    between atoms: CA   and  CB  
REMARK    6  A    between atoms: CB   and  CG  
REMARK    7  A    between atoms: CG   and  CD  
ROOT
ATOM     14  CA  GLU D 570     -18.033  -6.348 -13.375  1.00 32.92     0.160 C 
ENDROOT
BRANCH  14  15
ATOM     15  CB  GLU D 570     -19.500  -6.345 -13.794  1.00 32.92     0.043 C 
BRANCH  15  16
ATOM     16  CG  GLU D 570     -19.819  -6.801 -15.171  1.00 32.92     0.100 C 
BRANCH  16  17
ATOM     17  CD  GLU D 570     -20.513  -5.743 -15.997  1.00 32.92     0.185 C 
ATOM     18  OE1 GLU D 570     -20.456  -5.811 -17.240  1.00 32.92    -0.647 OA
ATOM     19  OE2 GLU D 570     -21.106  -4.827 -15.394  1.00 32.92    -0.647 OA
ENDBRANCH  16  17
ENDBRANCH  15  16
ENDBRANCH  14  15
END_RES GLU D 570
ENDMDL
MODEL 2
REMARK VINA RESULT:     -12.0      3.996      7.549
REMARK  12 active torsions:
REMARK  status: ('A' for Active; 'I' for Inactive)
REMARK    1  A    between atoms: C_3  and  C_10 
REMARK    2  A    between atoms: C_11  and  C_12 
REMARK    3  A    between atoms: C_13  and  C_14 
REMARK    4  A    between atoms: C_15  and  C_16 
REMARK    5  A    between atoms: C_17  and  C_18 
REMARK    6  A    between atoms: C_18  and  O_19 
REMARK    7  A    between atoms: O_19  and  C_20 
REMARK    8  A    between atoms: C_20  and  C_22 
REMARK    9  A    between atoms: C_23  and  C_25 
REMARK   10  A    between atoms: C_26  and  C_27 
REMARK   11  A    between atoms: C_28  and  C_30 
REMARK   12  A    between atoms: C_31  and  C_32 
ROOT
HETATM    1  O   UNL     1     -23.584  -8.467   0.276  1.00  0.00    -0.314 OA
ENDROOT
BRANCH   1   2
HETATM    2  C   UNL     1     -23.539  -9.918   0.341  1.00  0.00     0.207 C 
BRANCH   2   3
HETATM    3  C   UNL     1     -23.090 -10.645  -0.893  1.00  0.00     0.006 C 
HETATM    4  C   UNL     1     -21.930 -11.189  -1.312  1.00  0.00    -0.064 C 
HETATM    5  C   UNL     1     -21.926 -11.847  -2.685  1.00  0.00     0.048 C 
BRANCH   4   6
HETATM    6  C   UNL     1     -20.648 -11.248  -0.624  1.00  0.00     0.006 C 
HETATM    7  C   UNL     1     -19.669 -12.140  -0.838  1.00  0.00     0.001 C 
BRANCH   7   8
HETATM    8  C   UNL     1     -18.488 -12.268   0.005  1.00  0.00     0.007 C 
HETATM    9  C   UNL     1     -17.217 -12.066  -0.404  1.00  0.00    -0.062 C 
HETATM   10  C   UNL     1     -16.059 -12.092   0.557  1.00  0.00     0.048 C 
BRANCH   9  11
HETATM   11  C   UNL     1     -16.846 -11.808  -1.788  1.00  0.00     0.007 C 
HETATM   12  C   UNL     1     -15.567 -11.693  -2.194  1.00  0.00     0.009 C 
BRANCH  12  13
HETATM   13  C   UNL     1     -15.202 -11.704  -3.605  1.00  0.00    -0.048 C 
HETATM   14  C   UNL     1     -15.640 -10.796  -4.506  1.00  0.00    -0.077 C 
HETATM   15  C   UNL     1     -16.372  -9.524  -4.152  1.00  0.00     0.044 C 
HETATM   16  C   UNL     1     -15.424 -10.960  -6.001  1.00  0.00     0.034 C 
HETATM   17  C   UNL     1     -14.739 -12.254  -6.427  1.00  0.00     0.005 C 
HETATM   18  C   UNL     1     -13.693 -12.655  -5.405  1.00  0.00     0.014 C 
HETATM   19  C   UNL     1     -14.331 -12.904  -4.020  1.00  0.00    -0.020 C 
HETATM   20  C   UNL     1     -13.150 -13.137  -3.046  1.00  0.00     0.020 C 
HETATM   21  C   UNL     1     -15.227 -14.158  -4.067  1.00  0.00     0.020 C 
ENDBRANCH  12  13
ENDBRANCH   9  11
ENDBRANCH   7   8
ENDBRANCH   4   6
ENDBRANCH   2   3
ENDBRANCH   1   2
BRANCH   1  22
HETATM   22  C   UNL     1     -22.371  -7.920   0.033  1.00  0.00     0.283 C 
HETATM   23  O   UNL     1     -21.420  -7.977   0.807  1.00  0.00    -0.260 OA
BRANCH  22  24
HETATM   24  C   UNL     1     -22.110  -7.379  -1.326  1.00  0.00     0.089 C 
HETATM   25  C   UNL     1     -21.236  -7.452  -2.355  1.00  0.00    -0.056 C 
HETATM   26  C   UNL     1     -20.045  -8.336  -2.563  1.00  0.00     0.048 C 
BRANCH  25  27
HETATM   27  C   UNL     1     -21.382  -6.497  -3.453  1.00  0.00     0.007 C 
HETATM   28  C   UNL     1     -21.216  -6.872  -4.730  1.00  0.00     0.001 C 
BRANCH  28  29
HETATM   29  C   UNL     1     -21.618  -6.059  -5.855  1.00  0.00     0.007 C 
HETATM   30  C   UNL     1     -20.924  -5.032  -6.379  1.00  0.00    -0.062 C 
HETATM   31  C   UNL     1     -19.673  -4.428  -5.787  1.00  0.00     0.048 C 
BRANCH  30  32
HETATM   32  C   UNL     1     -21.431  -4.439  -7.619  1.00  0.00     0.007 C 
HETATM   33  C   UNL     1     -21.852  -5.094  -8.712  1.00  0.00     0.009 C 
BRANCH  33  34
HETATM   34  C   UNL     1     -22.264  -4.386  -9.923  1.00  0.00    -0.048 C 
HETATM   35  C   UNL     1     -21.332  -3.959 -10.835  1.00  0.00    -0.077 C 
HETATM   36  C   UNL     1     -21.702  -3.139 -12.030  1.00  0.00     0.034 C 
HETATM   37  C   UNL     1     -19.854  -4.250 -10.751  1.00  0.00     0.044 C 
HETATM   38  C   UNL     1     -23.119  -2.584 -12.009  1.00  0.00     0.005 C 
HETATM   39  C   UNL     1     -24.100  -3.649 -11.541  1.00  0.00     0.014 C 
HETATM   40  C   UNL     1     -23.779  -4.158 -10.109  1.00  0.00    -0.020 C 
HETATM   41  C   UNL     1     -24.599  -5.456  -9.909  1.00  0.00     0.020 C 
HETATM   42  C   UNL     1     -24.281  -3.116  -9.081  1.00  0.00     0.020 C 
ENDBRANCH  33  34
ENDBRANCH  30  32
ENDBRANCH  28  29
ENDBRANCH  25  27
ENDBRANCH  22  24
ENDBRANCH   1  22
TORSDOF 12
BEGIN_RES ARG D 557
REMARK  4 active torsions:
REMARK  status: ('A' for Active; 'I' for Inactive)
REMARK    1  A    between atoms: CA   and  CB  
REMARK    2  A    between atoms: CB   and  CG  
REMARK    3  A    between atoms: CG   and  CD  
REMARK    4  A    between atoms: CD   and  NE  
REMARK       I    between atoms: NE   and  CZ  
REMARK       I    between atoms: CZ   and  NH1 
REMARK       I    between atoms: CZ   and  NH2 
ROOT
ATOM      1  CA  ARG D 557     -26.217   2.705 -17.014  1.00 35.49     0.159 C 
ENDROOT
BRANCH   1   2
ATOM      2  CB  ARG D 557     -26.789   1.319 -17.183  1.00 35.49     0.034 C 
BRANCH   2   3
ATOM      3  CG  ARG D 557     -28.236   1.172 -16.981  1.00 35.49     0.027 C 
BRANCH   3   4
ATOM      4  CD  ARG D 557     -28.617  -0.212 -16.620  1.00 35.49     0.116 C 
BRANCH   4   5
ATOM      5  NE  ARG D 557     -27.575  -0.891 -15.897  1.00 35.49    -0.212 N 
ATOM      6  CZ  ARG D 557     -27.296  -2.173 -15.974  1.00 35.49     0.666 C 
ATOM      7  NH1 ARG D 557     -27.979  -3.003 -16.740  1.00 35.49    -0.235 N 
ATOM      8  NH2 ARG D 557     -26.300  -2.615 -15.262  1.00 35.49    -0.235 N 
ATOM      9  HH  ARG D 557     -28.637  -2.734 -17.219  1.00 35.49     0.174 HD
ATOM     10  HH  ARG D 557     -27.750  -3.828 -16.752  1.00 35.49     0.174 HD
ATOM     11  HH  ARG D 557     -25.872  -2.055 -14.782  1.00 35.49     0.174 HD
ATOM     12  HH  ARG D 557     -26.088  -3.435 -15.288  1.00 35.49     0.174 HD
ATOM     13  HE  ARG D 557     -27.131  -0.446 -15.324  1.00 35.49     0.178 HD
ENDBRANCH   4   5
ENDBRANCH   3   4
ENDBRANCH   2   3
ENDBRANCH   1   2
END_RES ARG D 557
BEGIN_RES GLU D 570
REMARK  3 active torsions:
REMARK  status: ('A' for Active; 'I' for Inactive)
REMARK    5  A    between atoms: CA   and  CB  
REMARK    6  A    between atoms: CB   and  CG  
REMARK    7  A    between atoms: CG   and  CD  
ROOT
ATOM     14  CA  GLU D 570     -18.033  -6.348 -13.375  1.00 32.92     0.160 C 
ENDROOT
BRANCH  14  15
ATOM     15  CB  GLU D 570     -19.500  -6.345 -13.794  1.00 32.92     0.043 C 
BRANCH  15  16
ATOM     16  CG  GLU D 570     -19.796  -6.332 -15.250  1.00 32.92     0.100 C 
BRANCH  16  17
ATOM     17  CD  GLU D 570     -21.234  -5.985 -15.556  1.00 32.92     0.185 C 
ATOM     18  OE1 GLU D 570     -22.062  -6.906 -15.699  1.00 32.92    -0.647 OA
ATOM     19  OE2 GLU D 570     -21.533  -4.780 -15.670  1.00 32.92    -0.647 OA
ENDBRANCH  16  17
ENDBRANCH  15  16
ENDBRANCH  14  15
END_RES GLU D 570
ENDMDL
MODEL 3
REMARK VINA RESULT:     -12.0      3.022      7.001
REMARK  12 active torsions:
REMARK  status: ('A' for Active; 'I' for Inactive)
REMARK    1  A    between atoms: C_3  and  C_10 
REMARK    2  A    between atoms: C_11  and  C_12 
REMARK    3  A    between atoms: C_13  and  C_14 
REMARK    4  A    between atoms: C_15  and  C_16 
REMARK    5  A    between atoms: C_17  and  C_18 
REMARK    6  A    between atoms: C_18  and  O_19 
REMARK    7  A    between atoms: O_19  and  C_20 
REMARK    8  A    between atoms: C_20  and  C_22 
REMARK    9  A    between atoms: C_23  and  C_25 
REMARK   10  A    between atoms: C_26  and  C_27 
REMARK   11  A    between atoms: C_28  and  C_30 
REMARK   12  A    between atoms: C_31  and  C_32 
ROOT
HETATM    1  O   UNL     1     -22.705  -9.293   0.217  1.00  0.00    -0.314 OA
ENDROOT
BRANCH   1   2
HETATM    2  C   UNL     1     -23.850 -10.156  -0.017  1.00  0.00     0.207 C 
BRANCH   2   3
HETATM    3  C   UNL     1     -23.616 -11.402  -0.822  1.00  0.00     0.006 C 
HETATM    4  C   UNL     1     -23.026 -11.680  -2.001  1.00  0.00    -0.064 C 
HETATM    5  C   UNL     1     -23.021 -13.135  -2.451  1.00  0.00     0.048 C 
BRANCH   4   6
HETATM    6  C   UNL     1     -22.368 -10.772  -2.929  1.00  0.00     0.006 C 
HETATM    7  C   UNL     1     -21.681 -11.116  -4.029  1.00  0.00     0.001 C 
BRANCH   7   8
HETATM    8  C   UNL     1     -20.887 -10.182  -4.816  1.00  0.00     0.007 C 
HETATM    9  C   UNL     1     -19.539 -10.120  -4.819  1.00  0.00    -0.062 C 
HETATM   10  C   UNL     1     -18.785  -9.214  -5.755  1.00  0.00     0.048 C 
BRANCH   9  11
HETATM   11  C   UNL     1     -18.693 -10.906  -3.932  1.00  0.00     0.007 C 
HETATM   12  C   UNL     1     -18.383 -10.518  -2.680  1.00  0.00     0.009 C 
BRANCH  12  13
HETATM   13  C   UNL     1     -17.767 -11.427  -1.722  1.00  0.00    -0.048 C 
HETATM   14  C   UNL     1     -16.439 -11.669  -1.656  1.00  0.00    -0.077 C 
HETATM   15  C   UNL     1     -15.387 -10.880  -2.396  1.00  0.00     0.044 C 
HETATM   16  C   UNL     1     -15.853 -12.780  -0.801  1.00  0.00     0.034 C 
HETATM   17  C   UNL     1     -16.869 -13.653  -0.071  1.00  0.00     0.005 C 
HETATM   18  C   UNL     1     -18.051 -12.815   0.380  1.00  0.00     0.014 C 
HETATM   19  C   UNL     1     -18.773 -12.173  -0.825  1.00  0.00    -0.020 C 
HETATM   20  C   UNL     1     -19.838 -11.224  -0.223  1.00  0.00     0.020 C 
HETATM   21  C   UNL     1     -19.460 -13.262  -1.673  1.00  0.00     0.020 C 
ENDBRANCH  12  13
ENDBRANCH   9  11
ENDBRANCH   7   8
ENDBRANCH   4   6
ENDBRANCH   2   3
ENDBRANCH   1   2
BRANCH   1  22
HETATM   22  C   UNL     1     -22.981  -7.989  -0.018  1.00  0.00     0.283 C 
HETATM   23  O   UNL     1     -23.450  -7.222   0.818  1.00  0.00    -0.260 OA
BRANCH  22  24
HETATM   24  C   UNL     1     -22.519  -7.398  -1.300  1.00  0.00     0.089 C 
HETATM   25  C   UNL     1     -21.424  -7.267  -2.083  1.00  0.00    -0.056 C 
HETATM   26  C   UNL     1     -20.054  -7.858  -1.950  1.00  0.00     0.048 C 
BRANCH  25  27
HETATM   27  C   UNL     1     -21.501  -6.366  -3.232  1.00  0.00     0.007 C 
HETATM   28  C   UNL     1     -21.447  -6.832  -4.489  1.00  0.00     0.001 C 
BRANCH  28  29
HETATM   29  C   UNL     1     -21.797  -6.040  -5.645  1.00  0.00     0.007 C 
HETATM   30  C   UNL     1     -21.052  -5.062  -6.192  1.00  0.00    -0.062 C 
HETATM   31  C   UNL     1     -19.783  -4.495  -5.601  1.00  0.00     0.048 C 
BRANCH  30  32
HETATM   32  C   UNL     1     -21.515  -4.489  -7.457  1.00  0.00     0.007 C 
HETATM   33  C   UNL     1     -21.818  -5.157  -8.581  1.00  0.00     0.009 C 
BRANCH  33  34
HETATM   34  C   UNL     1     -22.196  -4.463  -9.812  1.00  0.00    -0.048 C 
HETATM   35  C   UNL     1     -21.239  -4.044 -10.701  1.00  0.00    -0.077 C 
HETATM   36  C   UNL     1     -21.576  -3.238 -11.915  1.00  0.00     0.034 C 
HETATM   37  C   UNL     1     -19.763  -4.332 -10.572  1.00  0.00     0.044 C 
HETATM   38  C   UNL     1     -22.994  -2.685 -11.940  1.00  0.00     0.005 C 
HETATM   39  C   UNL     1     -23.986  -3.746 -11.489  1.00  0.00     0.014 C 
HETATM   40  C   UNL     1     -23.705  -4.239 -10.043  1.00  0.00    -0.020 C 
HETATM   41  C   UNL     1     -24.529  -5.536  -9.851  1.00  0.00     0.020 C 
HETATM   42  C   UNL     1     -24.238  -3.187  -9.041  1.00  0.00     0.020 C 
ENDBRANCH  33  34
ENDBRANCH  30  32
ENDBRANCH  28  29
ENDBRANCH  25  27
ENDBRANCH  22  24
ENDBRANCH   1  22
TORSDOF 12
BEGIN_RES ARG D 557
REMARK  4 active torsions:
REMARK  status: ('A' for Active; 'I' for Inactive)
REMARK    1  A    between atoms: CA   and  CB  
REMARK    2  A    between atoms: CB   and  CG  
REMARK    3  A    between atoms: CG   and  CD  
REMARK    4  A    between atoms: CD   and  NE  
REMARK       I    between atoms: NE   and  CZ  
REMARK       I    between atoms: CZ   and  NH1 
REMARK       I    between atoms: CZ   and  NH2 
ROOT
ATOM      1  CA  ARG D 557     -26.217   2.705 -17.014  1.00 35.49     0.159 C 
ENDROOT
BRANCH   1   2
ATOM      2  CB  ARG D 557     -26.789   1.319 -17.183  1.00 35.49     0.034 C 
BRANCH   2   3
ATOM      3  CG  ARG D 557     -28.216   1.152 -16.883  1.00 35.49     0.027 C 
BRANCH   3   4
ATOM      4  CD  ARG D 557     -28.614  -0.272 -16.806  1.00 35.49     0.116 C 
BRANCH   4   5
ATOM      5  NE  ARG D 557     -27.639  -1.071 -16.111  1.00 35.49    -0.212 N 
ATOM      6  CZ  ARG D 557     -27.516  -2.377 -16.193  1.00 35.49     0.666 C 
ATOM      7  NH1 ARG D 557     -28.314  -3.118 -16.940  1.00 35.49    -0.235 N 
ATOM      8  NH2 ARG D 557     -26.560  -2.934 -15.509  1.00 35.49    -0.235 N 
ATOM      9  HH  ARG D 557     -28.948  -2.772 -17.400  1.00 35.49     0.174 HD
ATOM     10  HH  ARG D 557     -28.185  -3.965 -16.956  1.00 35.49     0.174 HD
ATOM     11  HH  ARG D 557     -26.056  -2.430 -15.041  1.00 35.49     0.174 HD
ATOM     12  HH  ARG D 557     -26.447  -3.774 -15.539  1.00 35.49     0.174 HD
ATOM     13  HE  ARG D 557     -27.130  -0.682 -15.551  1.00 35.49     0.178 HD
ENDBRANCH   4   5
ENDBRANCH   3   4
ENDBRANCH   2   3
ENDBRANCH   1   2
END_RES ARG D 557
BEGIN_RES GLU D 570
REMARK  3 active torsions:
REMARK  status: ('A' for Active; 'I' for Inactive)
REMARK    5  A    between atoms: CA   and  CB  
REMARK    6  A    between atoms: CB   and  CG  
REMARK    7  A    between atoms: CG   and  CD  
ROOT
ATOM     14  CA  GLU D 570     -18.033  -6.348 -13.375  1.00 32.92     0.160 C 
ENDROOT
BRANCH  14  15
ATOM     15  CB  GLU D 570     -19.500  -6.345 -13.794  1.00 32.92     0.043 C 
BRANCH  15  16
ATOM     16  CG  GLU D 570     -19.962  -5.229 -14.660  1.00 32.92     0.100 C 
BRANCH  16  17
ATOM     17  CD  GLU D 570     -21.414  -5.357 -15.060  1.00 32.92     0.185 C 
ATOM     18  OE1 GLU D 570     -22.216  -5.887 -14.267  1.00 32.92    -0.647 OA
ATOM     19  OE2 GLU D 570     -21.749  -4.936 -16.184  1.00 32.92    -0.647 OA
ENDBRANCH  16  17
ENDBRANCH  15  16
ENDBRANCH  14  15
END_RES GLU D 570
ENDMDL
MODEL 4
REMARK VINA RESULT:     -11.9      3.463      7.508
REMARK  12 active torsions:
REMARK  status: ('A' for Active; 'I' for Inactive)
REMARK    1  A    between atoms: C_3  and  C_10 
REMARK    2  A    between atoms: C_11  and  C_12 
REMARK    3  A    between atoms: C_13  and  C_14 
REMARK    4  A    between atoms: C_15  and  C_16 
REMARK    5  A    between atoms: C_17  and  C_18 
REMARK    6  A    between atoms: C_18  and  O_19 
REMARK    7  A    between atoms: O_19  and  C_20 
REMARK    8  A    between atoms: C_20  and  C_22 
REMARK    9  A    between atoms: C_23  and  C_25 
REMARK   10  A    between atoms: C_26  and  C_27 
REMARK   11  A    between atoms: C_28  and  C_30 
REMARK   12  A    between atoms: C_31  and  C_32 
ROOT
HETATM    1  O   UNL     1     -23.564  -8.855   0.374  1.00  0.00    -0.314 OA
ENDROOT
BRANCH   1   2
HETATM    2  C   UNL     1     -23.494 -10.069  -0.421  1.00  0.00     0.207 C 
BRANCH   2   3
HETATM    3  C   UNL     1     -22.973 -11.303   0.257  1.00  0.00     0.006 C 
HETATM    4  C   UNL     1     -21.765 -11.886   0.383  1.00  0.00    -0.064 C 
HETATM    5  C   UNL     1     -21.695 -13.178   1.185  1.00  0.00     0.048 C 
BRANCH   4   6
HETATM    6  C   UNL     1     -20.480 -11.446  -0.142  1.00  0.00     0.006 C 
HETATM    7  C   UNL     1     -19.428 -12.227  -0.434  1.00  0.00     0.001 C 
BRANCH   7   8
HETATM    8  C   UNL     1     -18.109 -11.716  -0.778  1.00  0.00     0.007 C 
HETATM    9  C   UNL     1     -17.665 -11.495  -2.034  1.00  0.00    -0.062 C 
HETATM   10  C   UNL     1     -16.335 -10.845  -2.306  1.00  0.00     0.048 C 
BRANCH   9  11
HETATM   11  C   UNL     1     -18.414 -11.858  -3.229  1.00  0.00     0.007 C 
HETATM   12  C   UNL     1     -18.316 -11.180  -4.389  1.00  0.00     0.009 C 
BRANCH  12  13
HETATM   13  C   UNL     1     -18.855 -11.706  -5.637  1.00  0.00    -0.048 C 
HETATM   14  C   UNL     1     -20.144 -11.568  -6.020  1.00  0.00    -0.077 C 
HETATM   15  C   UNL     1     -21.148 -10.670  -5.340  1.00  0.00     0.044 C 
HETATM   16  C   UNL     1     -20.724 -12.312  -7.212  1.00  0.00     0.034 C 
HETATM   17  C   UNL     1     -19.774 -13.280  -7.908  1.00  0.00     0.005 C 
HETATM   18  C   UNL     1     -18.364 -12.723  -7.905  1.00  0.00     0.014 C 
HETATM   19  C   UNL     1     -17.844 -12.522  -6.464  1.00  0.00    -0.020 C 
HETATM   20  C   UNL     1     -16.481 -11.802  -6.602  1.00  0.00     0.020 C 
HETATM   21  C   UNL     1     -17.649 -13.888  -5.776  1.00  0.00     0.020 C 
ENDBRANCH  12  13
ENDBRANCH   9  11
ENDBRANCH   7   8
ENDBRANCH   4   6
ENDBRANCH   2   3
ENDBRANCH   1   2
BRANCH   1  22
HETATM   22  C   UNL     1     -22.487  -8.055   0.197  1.00  0.00     0.283 C 
HETATM   23  O   UNL     1     -21.621  -7.866   1.046  1.00  0.00    -0.260 OA
BRANCH  22  24
HETATM   24  C   UNL     1     -22.233  -7.520  -1.165  1.00  0.00     0.089 C 
HETATM   25  C   UNL     1     -21.392  -7.632  -2.218  1.00  0.00    -0.056 C 
HETATM   26  C   UNL     1     -20.257  -8.578  -2.462  1.00  0.00     0.048 C 
BRANCH  25  27
HETATM   27  C   UNL     1     -21.514  -6.663  -3.306  1.00  0.00     0.007 C 
HETATM   28  C   UNL     1     -21.199  -6.988  -4.569  1.00  0.00     0.001 C 
BRANCH  28  29
HETATM   29  C   UNL     1     -21.561  -6.180  -5.710  1.00  0.00     0.007 C 
HETATM   30  C   UNL     1     -20.885  -5.113  -6.174  1.00  0.00    -0.062 C 
HETATM   31  C   UNL     1     -19.710  -4.457  -5.489  1.00  0.00     0.048 C 
BRANCH  30  32
HETATM   32  C   UNL     1     -21.332  -4.529  -7.439  1.00  0.00     0.007 C 
HETATM   33  C   UNL     1     -21.842  -5.184  -8.494  1.00  0.00     0.009 C 
BRANCH  33  34
HETATM   34  C   UNL     1     -22.181  -4.495  -9.739  1.00  0.00    -0.048 C 
HETATM   35  C   UNL     1     -21.199  -4.105 -10.613  1.00  0.00    -0.077 C 
HETATM   36  C   UNL     1     -21.495  -3.306 -11.842  1.00  0.00     0.034 C 
HETATM   37  C   UNL     1     -19.732  -4.423 -10.451  1.00  0.00     0.044 C 
HETATM   38  C   UNL     1     -22.900  -2.724 -11.900  1.00  0.00     0.005 C 
HETATM   39  C   UNL     1     -23.923  -3.759 -11.458  1.00  0.00     0.014 C 
HETATM   40  C   UNL     1     -23.681  -4.243 -10.002  1.00  0.00    -0.020 C 
HETATM   41  C   UNL     1     -24.535  -5.521  -9.814  1.00  0.00     0.020 C 
HETATM   42  C   UNL     1     -24.211  -3.170  -9.022  1.00  0.00     0.020 C 
ENDBRANCH  33  34
ENDBRANCH  30  32
ENDBRANCH  28  29
ENDBRANCH  25  27
ENDBRANCH  22  24
ENDBRANCH   1  22
TORSDOF 12
BEGIN_RES ARG D 557
REMARK  4 active torsions:
REMARK  status: ('A' for Active; 'I' for Inactive)
REMARK    1  A    between atoms: CA   and  CB  
REMARK    2  A    between atoms: CB   and  CG  
REMARK    3  A    between atoms: CG   and  CD  
REMARK    4  A    between atoms: CD   and  NE  
REMARK       I    between atoms: NE   and  CZ  
REMARK       I    between atoms: CZ   and  NH1 
REMARK       I    between atoms: CZ   and  NH2 
ROOT
ATOM      1  CA  ARG D 557     -26.217   2.705 -17.014  1.00 35.49     0.159 C 
ENDROOT
BRANCH   1   2
ATOM      2  CB  ARG D 557     -26.789   1.319 -17.183  1.00 35.49     0.034 C 
BRANCH   2   3
ATOM      3  CG  ARG D 557     -28.235   1.225 -17.420  1.00 35.49     0.027 C 
BRANCH   3   4
ATOM      4  CD  ARG D 557     -28.896   0.270 -16.502  1.00 35.49     0.116 C 
BRANCH   4   5
ATOM      5  NE  ARG D 557     -29.249  -0.960 -17.161  1.00 35.49    -0.212 N 
ATOM      6  CZ  ARG D 557     -28.618  -2.106 -17.038  1.00 35.49     0.666 C 
ATOM      7  NH1 ARG D 557     -27.546  -2.247 -16.280  1.00 35.49    -0.235 N 
ATOM      8  NH2 ARG D 557     -29.091  -3.125 -17.694  1.00 35.49    -0.235 N 
ATOM      9  HH  ARG D 557     -27.219  -1.590 -15.838  1.00 35.49     0.174 HD
ATOM     10  HH  ARG D 557     -27.177  -3.019 -16.236  1.00 35.49     0.174 HD
ATOM     11  HH  ARG D 557     -29.789  -3.006 -18.170  1.00 35.49     0.174 HD
ATOM     12  HH  ARG D 557     -28.713  -3.882 -17.637  1.00 35.49     0.174 HD
ATOM     13  HE  ARG D 557     -29.885  -0.942 -17.725  1.00 35.49     0.178 HD
ENDBRANCH   4   5
ENDBRANCH   3   4
ENDBRANCH   2   3
ENDBRANCH   1   2
END_RES ARG D 557
BEGIN_RES GLU D 570
REMARK  3 active torsions:
REMARK  status: ('A' for Active; 'I' for Inactive)
REMARK    5  A    between atoms: CA   and  CB  
REMARK    6  A    between atoms: CB   and  CG  
REMARK    7  A    between atoms: CG   and  CD  
ROOT
ATOM     14  CA  GLU D 570     -18.033  -6.348 -13.375  1.00 32.92     0.160 C 
ENDROOT
BRANCH  14  15
ATOM     15  CB  GLU D 570     -19.500  -6.345 -13.794  1.00 32.92     0.043 C 
BRANCH  15  16
ATOM     16  CG  GLU D 570     -20.138  -7.660 -14.062  1.00 32.92     0.100 C 
BRANCH  16  17
ATOM     17  CD  GLU D 570     -20.826  -7.718 -15.406  1.00 32.92     0.185 C 
ATOM     18  OE1 GLU D 570     -21.633  -6.819 -15.712  1.00 32.92    -0.647 OA
ATOM     19  OE2 GLU D 570     -20.569  -8.682 -16.153  1.00 32.92    -0.647 OA
ENDBRANCH  16  17
ENDBRANCH  15  16
ENDBRANCH  14  15
END_RES GLU D 570
ENDMDL
MODEL 5
REMARK VINA RESULT:     -11.9      4.630     11.321
REMARK  12 active torsions:
REMARK  status: ('A' for Active; 'I' for Inactive)
REMARK    1  A    between atoms: C_3  and  C_10 
REMARK    2  A    between atoms: C_11  and  C_12 
REMARK    3  A    between atoms: C_13  and  C_14 
REMARK    4  A    between atoms: C_15  and  C_16 
REMARK    5  A    between atoms: C_17  and  C_18 
REMARK    6  A    between atoms: C_18  and  O_19 
REMARK    7  A    between atoms: O_19  and  C_20 
REMARK    8  A    between atoms: C_20  and  C_22 
REMARK    9  A    between atoms: C_23  and  C_25 
REMARK   10  A    between atoms: C_26  and  C_27 
REMARK   11  A    between atoms: C_28  and  C_30 
REMARK   12  A    between atoms: C_31  and  C_32 
ROOT
HETATM    1  O   UNL     1     -21.425  -7.626  -0.326  1.00  0.00    -0.314 OA
ENDROOT
BRANCH   1   2
HETATM    2  C   UNL     1     -22.627  -7.951   0.422  1.00  0.00     0.207 C 
BRANCH   2   3
HETATM    3  C   UNL     1     -23.358  -9.203   0.033  1.00  0.00     0.006 C 
HETATM    4  C   UNL     1     -23.046 -10.513  -0.026  1.00  0.00    -0.064 C 
HETATM    5  C   UNL     1     -24.133 -11.468  -0.498  1.00  0.00     0.048 C 
BRANCH   4   6
HETATM    6  C   UNL     1     -21.790 -11.168   0.313  1.00  0.00     0.006 C 
HETATM    7  C   UNL     1     -20.574 -10.853  -0.160  1.00  0.00     0.001 C 
BRANCH   7   8
HETATM    8  C   UNL     1     -19.382 -11.658   0.068  1.00  0.00     0.007 C 
HETATM    9  C   UNL     1     -18.675 -12.287  -0.896  1.00  0.00    -0.062 C 
HETATM   10  C   UNL     1     -17.380 -12.994  -0.599  1.00  0.00     0.048 C 
BRANCH   9  11
HETATM   11  C   UNL     1     -19.087 -12.346  -2.291  1.00  0.00     0.007 C 
HETATM   12  C   UNL     1     -19.944 -13.271  -2.763  1.00  0.00     0.009 C 
BRANCH  12  13
HETATM   13  C   UNL     1     -20.550 -13.156  -4.084  1.00  0.00    -0.048 C 
HETATM   14  C   UNL     1     -19.858 -13.240  -5.243  1.00  0.00    -0.077 C 
HETATM   15  C   UNL     1     -18.420 -13.685  -5.350  1.00  0.00     0.044 C 
HETATM   16  C   UNL     1     -20.476 -12.899  -6.588  1.00  0.00     0.034 C 
HETATM   17  C   UNL     1     -21.912 -12.388  -6.541  1.00  0.00     0.005 C 
HETATM   18  C   UNL     1     -22.685 -13.099  -5.448  1.00  0.00     0.014 C 
HETATM   19  C   UNL     1     -22.058 -12.841  -4.060  1.00  0.00    -0.020 C 
HETATM   20  C   UNL     1     -22.831 -13.747  -3.071  1.00  0.00     0.020 C 
HETATM   21  C   UNL     1     -22.234 -11.361  -3.665  1.00  0.00     0.020 C 
ENDBRANCH  12  13
ENDBRANCH   9  11
ENDBRANCH   7   8
ENDBRANCH   4   6
ENDBRANCH   2   3
ENDBRANCH   1   2
BRANCH   1  22
HETATM   22  C   UNL     1     -21.690  -7.261  -1.603  1.00  0.00     0.283 C 
HETATM   23  O   UNL     1     -22.436  -6.339  -1.916  1.00  0.00    -0.260 OA
BRANCH  22  24
HETATM   24  C   UNL     1     -20.890  -7.888  -2.687  1.00  0.00     0.089 C 
HETATM   25  C   UNL     1     -20.834  -8.025  -4.030  1.00  0.00    -0.056 C 
HETATM   26  C   UNL     1     -21.665  -7.403  -5.110  1.00  0.00     0.048 C 
BRANCH  25  27
HETATM   27  C   UNL     1     -19.865  -8.968  -4.588  1.00  0.00     0.007 C 
HETATM   28  C   UNL     1     -18.625  -9.073  -4.086  1.00  0.00     0.001 C 
BRANCH  28  29
HETATM   29  C   UNL     1     -17.731 -10.163  -4.400  1.00  0.00     0.007 C 
HETATM   30  C   UNL     1     -16.596 -10.471  -3.747  1.00  0.00    -0.062 C 
HETATM   31  C   UNL     1     -15.956  -9.636  -2.663  1.00  0.00     0.048 C 
BRANCH  30  32
HETATM   32  C   UNL     1     -15.916 -11.712  -4.125  1.00  0.00     0.007 C 
HETATM   33  C   UNL     1     -14.707 -12.126  -3.714  1.00  0.00     0.009 C 
BRANCH  33  34
HETATM   34  C   UNL     1     -14.098 -13.352  -4.225  1.00  0.00    -0.048 C 
HETATM   35  C   UNL     1     -13.740 -13.458  -5.545  1.00  0.00    -0.077 C 
HETATM   36  C   UNL     1     -13.213 -14.730  -6.130  1.00  0.00     0.034 C 
HETATM   37  C   UNL     1     -13.829 -12.336  -6.550  1.00  0.00     0.044 C 
HETATM   38  C   UNL     1     -13.371 -15.954  -5.239  1.00  0.00     0.005 C 
HETATM   39  C   UNL     1     -12.995 -15.619  -3.804  1.00  0.00     0.014 C 
HETATM   40  C   UNL     1     -13.885 -14.494  -3.209  1.00  0.00    -0.020 C 
HETATM   41  C   UNL     1     -13.179 -14.009  -1.918  1.00  0.00     0.020 C 
HETATM   42  C   UNL     1     -15.251 -15.096  -2.804  1.00  0.00     0.020 C 
ENDBRANCH  33  34
ENDBRANCH  30  32
ENDBRANCH  28  29
ENDBRANCH  25  27
ENDBRANCH  22  24
ENDBRANCH   1  22
TORSDOF 12
BEGIN_RES ARG D 557
REMARK  4 active torsions:
REMARK  status: ('A' for Active; 'I' for Inactive)
REMARK    1  A    between atoms: CA   and  CB  
REMARK    2  A    between atoms: CB   and  CG  
REMARK    3  A    between atoms: CG   and  CD  
REMARK    4  A    between atoms: CD   and  NE  
REMARK       I    between atoms: NE   and  CZ  
REMARK       I    between atoms: CZ   and  NH1 
REMARK       I    between atoms: CZ   and  NH2 
ROOT
ATOM      1  CA  ARG D 557     -26.217   2.705 -17.014  1.00 35.49     0.159 C 
ENDROOT
BRANCH   1   2
ATOM      2  CB  ARG D 557     -26.789   1.319 -17.183  1.00 35.49     0.034 C 
BRANCH   2   3
ATOM      3  CG  ARG D 557     -25.859   0.196 -17.017  1.00 35.49     0.027 C 
BRANCH   3   4
ATOM      4  CD  ARG D 557     -26.325  -0.778 -16.003  1.00 35.49     0.116 C 
BRANCH   4   5
ATOM      5  NE  ARG D 557     -25.359  -0.973 -14.954  1.00 35.49    -0.212 N 
ATOM      6  CZ  ARG D 557     -25.142  -2.098 -14.309  1.00 35.49     0.666 C 
ATOM      7  NH1 ARG D 557     -25.824  -3.201 -14.558  1.00 35.49    -0.235 N 
ATOM      8  NH2 ARG D 557     -24.211  -2.098 -13.401  1.00 35.49    -0.235 N 
ATOM      9  HH  ARG D 557     -26.440  -3.223 -15.153  1.00 35.49     0.174 HD
ATOM     10  HH  ARG D 557     -25.637  -3.905 -14.108  1.00 35.49     0.174 HD
ATOM     11  HH  ARG D 557     -23.782  -1.373 -13.267  1.00 35.49     0.174 HD
ATOM     12  HH  ARG D 557     -24.039  -2.806 -12.966  1.00 35.49     0.174 HD
ATOM     13  HE  ARG D 557     -24.926  -0.295 -14.679  1.00 35.49     0.178 HD
ENDBRANCH   4   5
ENDBRANCH   3   4
ENDBRANCH   2   3
ENDBRANCH   1   2
END_RES ARG D 557
BEGIN_RES GLU D 570
REMARK  3 active torsions:
REMARK  status: ('A' for Active; 'I' for Inactive)
REMARK    5  A    between atoms: CA   and  CB  
REMARK    6  A    between atoms: CB   and  CG  
REMARK    7  A    between atoms: CG   and  CD  
ROOT
ATOM     14  CA  GLU D 570     -18.033  -6.348 -13.375  1.00 32.92     0.160 C 
ENDROOT
BRANCH  14  15
ATOM     15  CB  GLU D 570     -19.500  -6.345 -13.794  1.00 32.92     0.043 C 
BRANCH  15  16
ATOM     16  CG  GLU D 570     -20.445  -5.544 -12.973  1.00 32.92     0.100 C 
BRANCH  16  17
ATOM     17  CD  GLU D 570     -21.742  -5.248 -13.689  1.00 32.92     0.185 C 
ATOM     18  OE1 GLU D 570     -22.182  -6.073 -14.512  1.00 32.92    -0.647 OA
ATOM     19  OE2 GLU D 570     -22.316  -4.170 -13.436  1.00 32.92    -0.647 OA
ENDBRANCH  16  17
ENDBRANCH  15  16
ENDBRANCH  14  15
END_RES GLU D 570
ENDMDL
MODEL 6
REMARK VINA RESULT:     -11.9      1.325     13.610
REMARK  12 active torsions:
REMARK  status: ('A' for Active; 'I' for Inactive)
REMARK    1  A    between atoms: C_3  and  C_10 
REMARK    2  A    between atoms: C_11  and  C_12 
REMARK    3  A    between atoms: C_13  and  C_14 
REMARK    4  A    between atoms: C_15  and  C_16 
REMARK    5  A    between atoms: C_17  and  C_18 
REMARK    6  A    between atoms: C_18  and  O_19 
REMARK    7  A    between atoms: O_19  and  C_20 
REMARK    8  A    between atoms: C_20  and  C_22 
REMARK    9  A    between atoms: C_23  and  C_25 
REMARK   10  A    between atoms: C_26  and  C_27 
REMARK   11  A    between atoms: C_28  and  C_30 
REMARK   12  A    between atoms: C_31  and  C_32 
ROOT
HETATM    1  O   UNL     1     -20.454  -3.709  -8.472  1.00  0.00    -0.314 OA
ENDROOT
BRANCH   1   2
HETATM    2  C   UNL     1     -21.070  -4.430  -9.572  1.00  0.00     0.207 C 
BRANCH   2   3
HETATM    3  C   UNL     1     -22.415  -3.953 -10.036  1.00  0.00     0.006 C 
HETATM    4  C   UNL     1     -23.222  -4.236 -11.078  1.00  0.00    -0.064 C 
HETATM    5  C   UNL     1     -24.543  -3.484 -11.160  1.00  0.00     0.048 C 
BRANCH   4   6
HETATM    6  C   UNL     1     -23.015  -5.188 -12.161  1.00  0.00     0.006 C 
HETATM    7  C   UNL     1     -23.773  -5.321 -13.260  1.00  0.00     0.001 C 
BRANCH   7   8
HETATM    8  C   UNL     1     -23.630  -6.410 -14.217  1.00  0.00     0.007 C 
HETATM    9  C   UNL     1     -24.405  -6.590 -15.308  1.00  0.00    -0.062 C 
HETATM   10  C   UNL     1     -24.116  -7.666 -16.320  1.00  0.00     0.048 C 
BRANCH   9  11
HETATM   11  C   UNL     1     -25.576  -5.779 -15.609  1.00  0.00     0.007 C 
HETATM   12  C   UNL     1     -26.164  -5.762 -16.821  1.00  0.00     0.009 C 
BRANCH  12  13
HETATM   13  C   UNL     1     -27.476  -5.164 -17.033  1.00  0.00    -0.048 C 
HETATM   14  C   UNL     1     -27.876  -4.002 -16.469  1.00  0.00    -0.077 C 
HETATM   15  C   UNL     1     -26.965  -3.049 -15.733  1.00  0.00     0.044 C 
HETATM   16  C   UNL     1     -29.315  -3.519 -16.530  1.00  0.00     0.034 C 
HETATM   17  C   UNL     1     -30.298  -4.465 -17.211  1.00  0.00     0.005 C 
HETATM   18  C   UNL     1     -29.626  -5.169 -18.374  1.00  0.00     0.014 C 
HETATM   19  C   UNL     1     -28.424  -6.015 -17.898  1.00  0.00    -0.020 C 
HETATM   20  C   UNL     1     -27.737  -6.536 -19.184  1.00  0.00     0.020 C 
HETATM   21  C   UNL     1     -28.917  -7.204 -17.047  1.00  0.00     0.020 C 
ENDBRANCH  12  13
ENDBRANCH   9  11
ENDBRANCH   7   8
ENDBRANCH   4   6
ENDBRANCH   2   3
ENDBRANCH   1   2
BRANCH   1  22
HETATM   22  C   UNL     1     -19.674  -4.503  -7.701  1.00  0.00     0.283 C 
HETATM   23  O   UNL     1     -18.477  -4.315  -7.507  1.00  0.00    -0.260 OA
BRANCH  22  24
HETATM   24  C   UNL     1     -20.338  -5.555  -6.890  1.00  0.00     0.089 C 
HETATM   25  C   UNL     1     -21.527  -5.887  -6.337  1.00  0.00    -0.056 C 
HETATM   26  C   UNL     1     -22.868  -5.231  -6.442  1.00  0.00     0.048 C 
BRANCH  25  27
HETATM   27  C   UNL     1     -21.568  -7.031  -5.426  1.00  0.00     0.007 C 
HETATM   28  C   UNL     1     -20.515  -7.350  -4.659  1.00  0.00     0.001 C 
BRANCH  28  29
HETATM   29  C   UNL     1     -20.591  -8.276  -3.553  1.00  0.00     0.007 C 
HETATM   30  C   UNL     1     -21.204  -8.057  -2.375  1.00  0.00    -0.062 C 
HETATM   31  C   UNL     1     -21.787  -6.739  -1.924  1.00  0.00     0.048 C 
BRANCH  30  32
HETATM   32  C   UNL     1     -21.303  -9.185  -1.446  1.00  0.00     0.007 C 
HETATM   33  C   UNL     1     -21.693 -10.436  -1.736  1.00  0.00     0.009 C 
BRANCH  33  34
HETATM   34  C   UNL     1     -21.827 -11.461  -0.702  1.00  0.00    -0.048 C 
HETATM   35  C   UNL     1     -20.716 -12.031  -0.134  1.00  0.00    -0.077 C 
HETATM   36  C   UNL     1     -20.810 -13.156   0.848  1.00  0.00     0.034 C 
HETATM   37  C   UNL     1     -19.295 -11.609  -0.418  1.00  0.00     0.044 C 
HETATM   38  C   UNL     1     -22.185 -13.799   0.951  1.00  0.00     0.005 C 
HETATM   39  C   UNL     1     -23.270 -12.733   0.981  1.00  0.00     0.014 C 
HETATM   40  C   UNL     1     -23.264 -11.850  -0.297  1.00  0.00    -0.020 C 
HETATM   41  C   UNL     1     -24.143 -10.614   0.017  1.00  0.00     0.020 C 
HETATM   42  C   UNL     1     -23.939 -12.631  -1.450  1.00  0.00     0.020 C 
ENDBRANCH  33  34
ENDBRANCH  30  32
ENDBRANCH  28  29
ENDBRANCH  25  27
ENDBRANCH  22  24
ENDBRANCH   1  22
TORSDOF 12
BEGIN_RES ARG D 557
REMARK  4 active torsions:
REMARK  status: ('A' for Active; 'I' for Inactive)
REMARK    1  A    between atoms: CA   and  CB  
REMARK    2  A    between atoms: CB   and  CG  
REMARK    3  A    between atoms: CG   and  CD  
REMARK    4  A    between atoms: CD   and  NE  
REMARK       I    between atoms: NE   and  CZ  
REMARK       I    between atoms: CZ   and  NH1 
REMARK       I    between atoms: CZ   and  NH2 
ROOT
ATOM      1  CA  ARG D 557     -26.217   2.705 -17.014  1.00 35.49     0.159 C 
ENDROOT
BRANCH   1   2
ATOM      2  CB  ARG D 557     -26.789   1.319 -17.183  1.00 35.49     0.034 C 
BRANCH   2   3
ATOM      3  CG  ARG D 557     -25.830   0.209 -17.221  1.00 35.49     0.027 C 
BRANCH   3   4
ATOM      4  CD  ARG D 557     -24.647   0.455 -16.365  1.00 35.49     0.116 C 
BRANCH   4   5
ATOM      5  NE  ARG D 557     -24.696  -0.301 -15.141  1.00 35.49    -0.212 N 
ATOM      6  CZ  ARG D 557     -23.862  -1.255 -14.794  1.00 35.49     0.666 C 
ATOM      7  NH1 ARG D 557     -22.865  -1.642 -15.568  1.00 35.49    -0.235 N 
ATOM      8  NH2 ARG D 557     -24.045  -1.819 -13.635  1.00 35.49    -0.235 N 
ATOM      9  HH  ARG D 557     -22.725  -1.284 -16.333  1.00 35.49     0.174 HD
ATOM     10  HH  ARG D 557     -22.352  -2.269 -15.287  1.00 35.49     0.174 HD
ATOM     11  HH  ARG D 557     -24.692  -1.544 -13.154  1.00 35.49     0.174 HD
ATOM     12  HH  ARG D 557     -23.525  -2.436 -13.375  1.00 35.49     0.174 HD
ATOM     13  HE  ARG D 557     -25.351  -0.167 -14.616  1.00 35.49     0.178 HD
ENDBRANCH   4   5
ENDBRANCH   3   4
ENDBRANCH   2   3
ENDBRANCH   1   2
END_RES ARG D 557
BEGIN_RES GLU D 570
REMARK  3 active torsions:
REMARK  status: ('A' for Active; 'I' for Inactive)
REMARK    5  A    between atoms: CA   and  CB  
REMARK    6  A    between atoms: CB   and  CG  
REMARK    7  A    between atoms: CG   and  CD  
ROOT
ATOM     14  CA  GLU D 570     -18.033  -6.348 -13.375  1.00 32.92     0.160 C 
ENDROOT
BRANCH  14  15
ATOM     15  CB  GLU D 570     -19.500  -6.345 -13.794  1.00 32.92     0.043 C 
BRANCH  15  16
ATOM     16  CG  GLU D 570     -20.085  -7.633 -14.248  1.00 32.92     0.100 C 
BRANCH  16  17
ATOM     17  CD  GLU D 570     -20.529  -7.602 -15.692  1.00 32.92     0.185 C 
ATOM     18  OE1 GLU D 570     -20.608  -6.505 -16.278  1.00 32.92    -0.647 OA
ATOM     19  OE2 GLU D 570     -20.818  -8.685 -16.238  1.00 32.92    -0.647 OA
ENDBRANCH  16  17
ENDBRANCH  15  16
ENDBRANCH  14  15
END_RES GLU D 570
ENDMDL
MODEL 7
REMARK VINA RESULT:     -11.9      4.365     12.109
REMARK  12 active torsions:
REMARK  status: ('A' for Active; 'I' for Inactive)
REMARK    1  A    between atoms: C_3  and  C_10 
REMARK    2  A    between atoms: C_11  and  C_12 
REMARK    3  A    between atoms: C_13  and  C_14 
REMARK    4  A    between atoms: C_15  and  C_16 
REMARK    5  A    between atoms: C_17  and  C_18 
REMARK    6  A    between atoms: C_18  and  O_19 
REMARK    7  A    between atoms: O_19  and  C_20 
REMARK    8  A    between atoms: C_20  and  C_22 
REMARK    9  A    between atoms: C_23  and  C_25 
REMARK   10  A    between atoms: C_26  and  C_27 
REMARK   11  A    between atoms: C_28  and  C_30 
REMARK   12  A    between atoms: C_31  and  C_32 
ROOT
HETATM    1  O   UNL     1     -22.719  -6.977  -0.765  1.00  0.00    -0.314 OA
ENDROOT
BRANCH   1   2
HETATM    2  C   UNL     1     -22.050  -7.945   0.088  1.00  0.00     0.207 C 
BRANCH   2   3
HETATM    3  C   UNL     1     -22.732  -9.267   0.288  1.00  0.00     0.006 C 
HETATM    4  C   UNL     1     -23.121 -10.273  -0.520  1.00  0.00    -0.064 C 
HETATM    5  C   UNL     1     -23.805 -11.466   0.133  1.00  0.00     0.048 C 
BRANCH   4   6
HETATM    6  C   UNL     1     -22.973 -10.394  -1.964  1.00  0.00     0.006 C 
HETATM    7  C   UNL     1     -23.073 -11.522  -2.683  1.00  0.00     0.001 C 
BRANCH   7   8
HETATM    8  C   UNL     1     -22.731 -11.617  -4.096  1.00  0.00     0.007 C 
HETATM    9  C   UNL     1     -21.822 -12.468  -4.619  1.00  0.00    -0.062 C 
HETATM   10  C   UNL     1     -21.615 -12.597  -6.104  1.00  0.00     0.048 C 
BRANCH   9  11
HETATM   11  C   UNL     1     -20.965 -13.328  -3.815  1.00  0.00     0.007 C 
HETATM   12  C   UNL     1     -19.930 -12.860  -3.091  1.00  0.00     0.009 C 
BRANCH  12  13
HETATM   13  C   UNL     1     -19.257 -13.681  -2.092  1.00  0.00    -0.048 C 
HETATM   14  C   UNL     1     -18.448 -14.722  -2.390  1.00  0.00    -0.077 C 
HETATM   15  C   UNL     1     -17.945 -15.045  -3.775  1.00  0.00     0.044 C 
HETATM   16  C   UNL     1     -17.939 -15.688  -1.334  1.00  0.00     0.034 C 
HETATM   17  C   UNL     1     -18.458 -15.449   0.080  1.00  0.00     0.005 C 
HETATM   18  C   UNL     1     -18.603 -13.962   0.340  1.00  0.00     0.014 C 
HETATM   19  C   UNL     1     -19.611 -13.318  -0.637  1.00  0.00    -0.020 C 
HETATM   20  C   UNL     1     -19.537 -11.793  -0.378  1.00  0.00     0.020 C 
HETATM   21  C   UNL     1     -21.035 -13.832  -0.345  1.00  0.00     0.020 C 
ENDBRANCH  12  13
ENDBRANCH   9  11
ENDBRANCH   7   8
ENDBRANCH   4   6
ENDBRANCH   2   3
ENDBRANCH   1   2
BRANCH   1  22
HETATM   22  C   UNL     1     -21.988  -6.655  -1.858  1.00  0.00     0.283 C 
HETATM   23  O   UNL     1     -21.978  -5.544  -2.379  1.00  0.00    -0.260 OA
BRANCH  22  24
HETATM   24  C   UNL     1     -20.996  -7.646  -2.350  1.00  0.00     0.089 C 
HETATM   25  C   UNL     1     -20.627  -8.331  -3.455  1.00  0.00    -0.056 C 
HETATM   26  C   UNL     1     -21.128  -8.251  -4.864  1.00  0.00     0.048 C 
BRANCH  25  27
HETATM   27  C   UNL     1     -19.620  -9.381  -3.312  1.00  0.00     0.007 C 
HETATM   28  C   UNL     1     -18.365  -9.097  -2.933  1.00  0.00     0.001 C 
BRANCH  28  29
HETATM   29  C   UNL     1     -17.418 -10.101  -2.506  1.00  0.00     0.007 C 
HETATM   30  C   UNL     1     -16.302 -10.469  -3.161  1.00  0.00    -0.062 C 
HETATM   31  C   UNL     1     -15.914 -10.019  -4.550  1.00  0.00     0.048 C 
BRANCH  30  32
HETATM   32  C   UNL     1     -15.393 -11.393  -2.480  1.00  0.00     0.007 C 
HETATM   33  C   UNL     1     -15.695 -12.605  -1.988  1.00  0.00     0.009 C 
BRANCH  33  34
HETATM   34  C   UNL     1     -14.715 -13.405  -1.255  1.00  0.00    -0.048 C 
HETATM   35  C   UNL     1     -14.600 -13.295   0.107  1.00  0.00    -0.077 C 
HETATM   36  C   UNL     1     -13.541 -14.016   0.879  1.00  0.00     0.034 C 
HETATM   37  C   UNL     1     -15.502 -12.456   0.979  1.00  0.00     0.044 C 
HETATM   38  C   UNL     1     -12.444 -14.639   0.028  1.00  0.00     0.005 C 
HETATM   39  C   UNL     1     -13.045 -15.338  -1.183  1.00  0.00     0.014 C 
HETATM   40  C   UNL     1     -13.840 -14.362  -2.092  1.00  0.00    -0.020 C 
HETATM   41  C   UNL     1     -14.679 -15.239  -3.053  1.00  0.00     0.020 C 
HETATM   42  C   UNL     1     -12.842 -13.545  -2.947  1.00  0.00     0.020 C 
ENDBRANCH  33  34
ENDBRANCH  30  32
ENDBRANCH  28  29
ENDBRANCH  25  27
ENDBRANCH  22  24
ENDBRANCH   1  22
TORSDOF 12
BEGIN_RES ARG D 557
REMARK  4 active torsions:
REMARK  status: ('A' for Active; 'I' for Inactive)
REMARK    1  A    between atoms: CA   and  CB  
REMARK    2  A    between atoms: CB   and  CG  
REMARK    3  A    between atoms: CG   and  CD  
REMARK    4  A    between atoms: CD   and  NE  
REMARK       I    between atoms: NE   and  CZ  
REMARK       I    between atoms: CZ   and  NH1 
REMARK       I    between atoms: CZ   and  NH2 
ROOT
ATOM      1  CA  ARG D 557     -26.217   2.705 -17.014  1.00 35.49     0.159 C 
ENDROOT
BRANCH   1   2
ATOM      2  CB  ARG D 557     -26.789   1.319 -17.183  1.00 35.49     0.034 C 
BRANCH   2   3
ATOM      3  CG  ARG D 557     -28.219   1.155 -16.895  1.00 35.49     0.027 C 
BRANCH   3   4
ATOM      4  CD  ARG D 557     -28.584  -0.257 -16.634  1.00 35.49     0.116 C 
BRANCH   4   5
ATOM      5  NE  ARG D 557     -27.555  -0.958 -15.913  1.00 35.49    -0.212 N 
ATOM      6  CZ  ARG D 557     -27.306  -2.247 -15.989  1.00 35.49     0.666 C 
ATOM      7  NH1 ARG D 557     -28.011  -3.061 -16.752  1.00 35.49    -0.235 N 
ATOM      8  NH2 ARG D 557     -26.319  -2.710 -15.279  1.00 35.49    -0.235 N 
ATOM      9  HH  ARG D 557     -28.663  -2.778 -17.229  1.00 35.49     0.174 HD
ATOM     10  HH  ARG D 557     -27.801  -3.892 -16.763  1.00 35.49     0.174 HD
ATOM     11  HH  ARG D 557     -25.876  -2.159 -14.801  1.00 35.49     0.174 HD
ATOM     12  HH  ARG D 557     -26.125  -3.535 -15.304  1.00 35.49     0.174 HD
ATOM     13  HE  ARG D 557     -27.099  -0.523 -15.342  1.00 35.49     0.178 HD
ENDBRANCH   4   5
ENDBRANCH   3   4
ENDBRANCH   2   3
ENDBRANCH   1   2
END_RES ARG D 557
BEGIN_RES GLU D 570
REMARK  3 active torsions:
REMARK  status: ('A' for Active; 'I' for Inactive)
REMARK    5  A    between atoms: CA   and  CB  
REMARK    6  A    between atoms: CB   and  CG  
REMARK    7  A    between atoms: CG   and  CD  
ROOT
ATOM     14  CA  GLU D 570     -18.033  -6.348 -13.375  1.00 32.92     0.160 C 
ENDROOT
BRANCH  14  15
ATOM     15  CB  GLU D 570     -19.500  -6.345 -13.794  1.00 32.92     0.043 C 
BRANCH  15  16
ATOM     16  CG  GLU D 570     -20.448  -5.560 -12.962  1.00 32.92     0.100 C 
BRANCH  16  17
ATOM     17  CD  GLU D 570     -21.705  -5.174 -13.706  1.00 32.92     0.185 C 
ATOM     18  OE1 GLU D 570     -22.734  -4.906 -13.057  1.00 32.92    -0.647 OA
ATOM     19  OE2 GLU D 570     -21.664  -5.154 -14.952  1.00 32.92    -0.647 OA
ENDBRANCH  16  17
ENDBRANCH  15  16
ENDBRANCH  14  15
END_RES GLU D 570
ENDMDL
MODEL 8
REMARK VINA RESULT:     -11.8      3.252      7.161
REMARK  12 active torsions:
REMARK  status: ('A' for Active; 'I' for Inactive)
REMARK    1  A    between atoms: C_3  and  C_10 
REMARK    2  A    between atoms: C_11  and  C_12 
REMARK    3  A    between atoms: C_13  and  C_14 
REMARK    4  A    between atoms: C_15  and  C_16 
REMARK    5  A    between atoms: C_17  and  C_18 
REMARK    6  A    between atoms: C_18  and  O_19 
REMARK    7  A    between atoms: O_19  and  C_20 
REMARK    8  A    between atoms: C_20  and  C_22 
REMARK    9  A    between atoms: C_23  and  C_25 
REMARK   10  A    between atoms: C_26  and  C_27 
REMARK   11  A    between atoms: C_28  and  C_30 
REMARK   12  A    between atoms: C_31  and  C_32 
ROOT
HETATM    1  O   UNL     1     -21.269  -8.366   0.722  1.00  0.00    -0.314 OA
ENDROOT
BRANCH   1   2
HETATM    2  C   UNL     1     -20.907  -9.690   0.246  1.00  0.00     0.207 C 
BRANCH   2   3
HETATM    3  C   UNL     1     -21.923 -10.782   0.421  1.00  0.00     0.006 C 
HETATM    4  C   UNL     1     -22.760 -11.449  -0.398  1.00  0.00    -0.064 C 
HETATM    5  C   UNL     1     -23.649 -12.513   0.230  1.00  0.00     0.048 C 
BRANCH   4   6
HETATM    6  C   UNL     1     -22.938 -11.303  -1.836  1.00  0.00     0.006 C 
HETATM    7  C   UNL     1     -22.654 -12.222  -2.771  1.00  0.00     0.001 C 
BRANCH   7   8
HETATM    8  C   UNL     1     -22.675 -11.957  -4.203  1.00  0.00     0.007 C 
HETATM    9  C   UNL     1     -21.638 -11.469  -4.917  1.00  0.00    -0.062 C 
HETATM   10  C   UNL     1     -21.694 -11.342  -6.416  1.00  0.00     0.048 C 
BRANCH   9  11
HETATM   11  C   UNL     1     -20.386 -11.023  -4.321  1.00  0.00     0.007 C 
HETATM   12  C   UNL     1     -19.302 -11.815  -4.216  1.00  0.00     0.009 C 
BRANCH  12  13
HETATM   13  C   UNL     1     -17.990 -11.282  -3.869  1.00  0.00    -0.048 C 
HETATM   14  C   UNL     1     -17.292 -10.427  -4.649  1.00  0.00    -0.077 C 
HETATM   15  C   UNL     1     -17.850  -9.727  -5.864  1.00  0.00     0.044 C 
HETATM   16  C   UNL     1     -15.844 -10.064  -4.368  1.00  0.00     0.034 C 
HETATM   17  C   UNL     1     -15.204 -10.783  -3.185  1.00  0.00     0.005 C 
HETATM   18  C   UNL     1     -16.223 -10.980  -2.079  1.00  0.00     0.014 C 
HETATM   19  C   UNL     1     -17.409 -11.845  -2.558  1.00  0.00    -0.020 C 
HETATM   20  C   UNL     1     -18.440 -11.826  -1.403  1.00  0.00     0.020 C 
HETATM   21  C   UNL     1     -16.940 -13.290  -2.820  1.00  0.00     0.020 C 
ENDBRANCH  12  13
ENDBRANCH   9  11
ENDBRANCH   7   8
ENDBRANCH   4   6
ENDBRANCH   2   3
ENDBRANCH   1   2
BRANCH   1  22
HETATM   22  C   UNL     1     -22.386  -7.887   0.125  1.00  0.00     0.283 C 
HETATM   23  O   UNL     1     -23.468  -7.756   0.690  1.00  0.00    -0.260 OA
BRANCH  22  24
HETATM   24  C   UNL     1     -22.255  -7.308  -1.237  1.00  0.00     0.089 C 
HETATM   25  C   UNL     1     -21.475  -7.338  -2.340  1.00  0.00    -0.056 C 
HETATM   26  C   UNL     1     -20.293  -8.195  -2.675  1.00  0.00     0.048 C 
BRANCH  25  27
HETATM   27  C   UNL     1     -21.733  -6.359  -3.395  1.00  0.00     0.007 C 
HETATM   28  C   UNL     1     -21.134  -6.450  -4.593  1.00  0.00     0.001 C 
BRANCH  28  29
HETATM   29  C   UNL     1     -21.555  -5.694  -5.749  1.00  0.00     0.007 C 
HETATM   30  C   UNL     1     -20.775  -4.898  -6.503  1.00  0.00    -0.062 C 
HETATM   31  C   UNL     1     -19.349  -4.514  -6.184  1.00  0.00     0.048 C 
BRANCH  30  32
HETATM   32  C   UNL     1     -21.358  -4.345  -7.727  1.00  0.00     0.007 C 
HETATM   33  C   UNL     1     -21.749  -5.029  -8.814  1.00  0.00     0.009 C 
BRANCH  33  34
HETATM   34  C   UNL     1     -22.247  -4.354 -10.012  1.00  0.00    -0.048 C 
HETATM   35  C   UNL     1     -21.376  -3.875 -10.957  1.00  0.00    -0.077 C 
HETATM   36  C   UNL     1     -21.838  -3.086 -12.141  1.00  0.00     0.034 C 
HETATM   37  C   UNL     1     -19.880  -4.074 -10.925  1.00  0.00     0.044 C 
HETATM   38  C   UNL     1     -23.286  -2.619 -12.070  1.00  0.00     0.005 C 
HETATM   39  C   UNL     1     -24.181  -3.740 -11.565  1.00  0.00     0.014 C 
HETATM   40  C   UNL     1     -23.778  -4.222 -10.144  1.00  0.00    -0.020 C 
HETATM   41  C   UNL     1     -24.509  -5.567  -9.911  1.00  0.00     0.020 C 
HETATM   42  C   UNL     1     -24.307  -3.208  -9.102  1.00  0.00     0.020 C 
ENDBRANCH  33  34
ENDBRANCH  30  32
ENDBRANCH  28  29
ENDBRANCH  25  27
ENDBRANCH  22  24
ENDBRANCH   1  22
TORSDOF 12
BEGIN_RES ARG D 557
REMARK  4 active torsions:
REMARK  status: ('A' for Active; 'I' for Inactive)
REMARK    1  A    between atoms: CA   and  CB  
REMARK    2  A    between atoms: CB   and  CG  
REMARK    3  A    between atoms: CG   and  CD  
REMARK    4  A    between atoms: CD   and  NE  
REMARK       I    between atoms: NE   and  CZ  
REMARK       I    between atoms: CZ   and  NH1 
REMARK       I    between atoms: CZ   and  NH2 
ROOT
ATOM      1  CA  ARG D 557     -26.217   2.705 -17.014  1.00 35.49     0.159 C 
ENDROOT
BRANCH   1   2
ATOM      2  CB  ARG D 557     -26.789   1.319 -17.183  1.00 35.49     0.034 C 
BRANCH   2   3
ATOM      3  CG  ARG D 557     -25.957   0.200 -16.723  1.00 35.49     0.027 C 
BRANCH   3   4
ATOM      4  CD  ARG D 557     -26.750  -0.852 -16.046  1.00 35.49     0.116 C 
BRANCH   4   5
ATOM      5  NE  ARG D 557     -27.999  -1.104 -16.716  1.00 35.49    -0.212 N 
ATOM      6  CZ  ARG D 557     -28.518  -2.288 -16.952  1.00 35.49     0.666 C 
ATOM      7  NH1 ARG D 557     -27.916  -3.409 -16.599  1.00 35.49    -0.235 N 
ATOM      8  NH2 ARG D 557     -29.671  -2.329 -17.553  1.00 35.49    -0.235 N 
ATOM      9  HH  ARG D 557     -27.158  -3.406 -16.200  1.00 35.49     0.174 HD
ATOM     10  HH  ARG D 557     -28.304  -4.153 -16.777  1.00 35.49     0.174 HD
ATOM     11  HH  ARG D 557     -30.040  -1.589 -17.763  1.00 35.49     0.174 HD
ATOM     12  HH  ARG D 557     -30.039  -3.075 -17.719  1.00 35.49     0.174 HD
ATOM     13  HE  ARG D 557     -28.418  -0.441 -17.043  1.00 35.49     0.178 HD
ENDBRANCH   4   5
ENDBRANCH   3   4
ENDBRANCH   2   3
ENDBRANCH   1   2
END_RES ARG D 557
BEGIN_RES GLU D 570
REMARK  3 active torsions:
REMARK  status: ('A' for Active; 'I' for Inactive)
REMARK    5  A    between atoms: CA   and  CB  
REMARK    6  A    between atoms: CB   and  CG  
REMARK    7  A    between atoms: CG   and  CD  
ROOT
ATOM     14  CA  GLU D 570     -18.033  -6.348 -13.375  1.00 32.92     0.160 C 
ENDROOT
BRANCH  14  15
ATOM     15  CB  GLU D 570     -19.500  -6.345 -13.794  1.00 32.92     0.043 C 
BRANCH  15  16
ATOM     16  CG  GLU D 570     -19.800  -6.153 -15.237  1.00 32.92     0.100 C 
BRANCH  16  17
ATOM     17  CD  GLU D 570     -20.651  -7.260 -15.814  1.00 32.92     0.185 C 
ATOM     18  OE1 GLU D 570     -20.642  -8.379 -15.265  1.00 32.92    -0.647 OA
ATOM     19  OE2 GLU D 570     -21.320  -7.011 -16.836  1.00 32.92    -0.647 OA
ENDBRANCH  16  17
ENDBRANCH  15  16
ENDBRANCH  14  15
END_RES GLU D 570
ENDMDL
MODEL 9
REMARK VINA RESULT:     -11.7      4.312     12.163
REMARK  12 active torsions:
REMARK  status: ('A' for Active; 'I' for Inactive)
REMARK    1  A    between atoms: C_3  and  C_10 
REMARK    2  A    between atoms: C_11  and  C_12 
REMARK    3  A    between atoms: C_13  and  C_14 
REMARK    4  A    between atoms: C_15  and  C_16 
REMARK    5  A    between atoms: C_17  and  C_18 
REMARK    6  A    between atoms: C_18  and  O_19 
REMARK    7  A    between atoms: O_19  and  C_20 
REMARK    8  A    between atoms: C_20  and  C_22 
REMARK    9  A    between atoms: C_23  and  C_25 
REMARK   10  A    between atoms: C_26  and  C_27 
REMARK   11  A    between atoms: C_28  and  C_30 
REMARK   12  A    between atoms: C_31  and  C_32 
ROOT
HETATM    1  O   UNL     1     -22.308  -6.596  -0.751  1.00  0.00    -0.314 OA
ENDROOT
BRANCH   1   2
HETATM    2  C   UNL     1     -21.976  -7.809  -0.025  1.00  0.00     0.207 C 
BRANCH   2   3
HETATM    3  C   UNL     1     -22.984  -8.921  -0.051  1.00  0.00     0.006 C 
HETATM    4  C   UNL     1     -22.923 -10.267  -0.028  1.00  0.00    -0.064 C 
HETATM    5  C   UNL     1     -24.242 -11.025  -0.077  1.00  0.00     0.048 C 
BRANCH   4   6
HETATM    6  C   UNL     1     -21.750 -11.126   0.048  1.00  0.00     0.006 C 
HETATM    7  C   UNL     1     -21.735 -12.465  -0.039  1.00  0.00     0.001 C 
BRANCH   7   8
HETATM    8  C   UNL     1     -20.561 -13.284   0.230  1.00  0.00     0.007 C 
HETATM    9  C   UNL     1     -19.549 -13.497  -0.638  1.00  0.00    -0.062 C 
HETATM   10  C   UNL     1     -18.308 -14.251  -0.243  1.00  0.00     0.048 C 
BRANCH   9  11
HETATM   11  C   UNL     1     -19.557 -13.031  -2.018  1.00  0.00     0.007 C 
HETATM   12  C   UNL     1     -20.207 -13.677  -3.005  1.00  0.00     0.009 C 
BRANCH  12  13
HETATM   13  C   UNL     1     -20.430 -13.065  -4.309  1.00  0.00    -0.048 C 
HETATM   14  C   UNL     1     -21.508 -12.309  -4.615  1.00  0.00    -0.077 C 
HETATM   15  C   UNL     1     -22.511 -11.802  -3.608  1.00  0.00     0.044 C 
HETATM   16  C   UNL     1     -21.820 -11.870  -6.035  1.00  0.00     0.034 C 
HETATM   17  C   UNL     1     -20.874 -12.397  -7.109  1.00  0.00     0.005 C 
HETATM   18  C   UNL     1     -19.458 -12.465  -6.571  1.00  0.00     0.014 C 
HETATM   19  C   UNL     1     -19.363 -13.421  -5.362  1.00  0.00    -0.020 C 
HETATM   20  C   UNL     1     -17.923 -13.269  -4.814  1.00  0.00     0.020 C 
HETATM   21  C   UNL     1     -19.601 -14.876  -5.816  1.00  0.00     0.020 C 
ENDBRANCH  12  13
ENDBRANCH   9  11
ENDBRANCH   7   8
ENDBRANCH   4   6
ENDBRANCH   2   3
ENDBRANCH   1   2
BRANCH   1  22
HETATM   22  C   UNL     1     -22.058  -6.700  -2.078  1.00  0.00     0.283 C 
HETATM   23  O   UNL     1     -22.479  -5.915  -2.922  1.00  0.00    -0.260 OA
BRANCH  22  24
HETATM   24  C   UNL     1     -21.065  -7.710  -2.523  1.00  0.00     0.089 C 
HETATM   25  C   UNL     1     -20.690  -8.440  -3.598  1.00  0.00    -0.056 C 
HETATM   26  C   UNL     1     -21.184  -8.416  -5.012  1.00  0.00     0.048 C 
BRANCH  25  27
HETATM   27  C   UNL     1     -19.685  -9.485  -3.407  1.00  0.00     0.007 C 
HETATM   28  C   UNL     1     -18.425  -9.185  -3.059  1.00  0.00     0.001 C 
BRANCH  28  29
HETATM   29  C   UNL     1     -17.477 -10.167  -2.587  1.00  0.00     0.007 C 
HETATM   30  C   UNL     1     -16.301 -10.476  -3.164  1.00  0.00    -0.062 C 
HETATM   31  C   UNL     1     -15.826  -9.974  -4.506  1.00  0.00     0.048 C 
BRANCH  30  32
HETATM   32  C   UNL     1     -15.413 -11.387  -2.439  1.00  0.00     0.007 C 
HETATM   33  C   UNL     1     -15.711 -12.616  -1.989  1.00  0.00     0.009 C 
BRANCH  33  34
HETATM   34  C   UNL     1     -14.759 -13.402  -1.205  1.00  0.00    -0.048 C 
HETATM   35  C   UNL     1     -14.625 -13.195   0.144  1.00  0.00    -0.077 C 
HETATM   36  C   UNL     1     -13.589 -13.902   0.961  1.00  0.00     0.034 C 
HETATM   37  C   UNL     1     -15.479 -12.254   0.957  1.00  0.00     0.044 C 
HETATM   38  C   UNL     1     -12.530 -14.637   0.150  1.00  0.00     0.005 C 
HETATM   39  C   UNL     1     -13.174 -15.396  -0.999  1.00  0.00     0.014 C 
HETATM   40  C   UNL     1     -13.936 -14.457  -1.974  1.00  0.00    -0.020 C 
HETATM   41  C   UNL     1     -14.824 -15.366  -2.859  1.00  0.00     0.020 C 
HETATM   42  C   UNL     1     -12.912 -13.752  -2.895  1.00  0.00     0.020 C 
ENDBRANCH  33  34
ENDBRANCH  30  32
ENDBRANCH  28  29
ENDBRANCH  25  27
ENDBRANCH  22  24
ENDBRANCH   1  22
TORSDOF 12
BEGIN_RES ARG D 557
REMARK  4 active torsions:
REMARK  status: ('A' for Active; 'I' for Inactive)
REMARK    1  A    between atoms: CA   and  CB  
REMARK    2  A    between atoms: CB   and  CG  
REMARK    3  A    between atoms: CG   and  CD  
REMARK    4  A    between atoms: CD   and  NE  
REMARK       I    between atoms: NE   and  CZ  
REMARK       I    between atoms: CZ   and  NH1 
REMARK       I    between atoms: CZ   and  NH2 
ROOT
ATOM      1  CA  ARG D 557     -26.217   2.705 -17.014  1.00 35.49     0.159 C 
ENDROOT
BRANCH   1   2
ATOM      2  CB  ARG D 557     -26.789   1.319 -17.183  1.00 35.49     0.034 C 
BRANCH   2   3
ATOM      3  CG  ARG D 557     -25.901   0.194 -16.865  1.00 35.49     0.027 C 
BRANCH   3   4
ATOM      4  CD  ARG D 557     -26.593  -0.876 -16.112  1.00 35.49     0.116 C 
BRANCH   4   5
ATOM      5  NE  ARG D 557     -25.803  -1.366 -15.014  1.00 35.49    -0.212 N 
ATOM      6  CZ  ARG D 557     -25.778  -2.605 -14.578  1.00 35.49     0.666 C 
ATOM      7  NH1 ARG D 557     -26.514  -3.561 -15.115  1.00 35.49    -0.235 N 
ATOM      8  NH2 ARG D 557     -24.984  -2.876 -13.583  1.00 35.49    -0.235 N 
ATOM      9  HH  ARG D 557     -27.041  -3.406 -15.772  1.00 35.49     0.174 HD
ATOM     10  HH  ARG D 557     -26.454  -4.352 -14.790  1.00 35.49     0.174 HD
ATOM     11  HH  ARG D 557     -24.515  -2.240 -13.261  1.00 35.49     0.174 HD
ATOM     12  HH  ARG D 557     -24.937  -3.665 -13.277  1.00 35.49     0.174 HD
ATOM     13  HE  ARG D 557     -25.353  -0.802 -14.563  1.00 35.49     0.178 HD
ENDBRANCH   4   5
ENDBRANCH   3   4
ENDBRANCH   2   3
ENDBRANCH   1   2
END_RES ARG D 557
BEGIN_RES GLU D 570
REMARK  3 active torsions:
REMARK  status: ('A' for Active; 'I' for Inactive)
REMARK    5  A    between atoms: CA   and  CB  
REMARK    6  A    between atoms: CB   and  CG  
REMARK    7  A    between atoms: CG   and  CD  
ROOT
ATOM     14  CA  GLU D 570     -18.033  -6.348 -13.375  1.00 32.92     0.160 C 
ENDROOT
BRANCH  14  15
ATOM     15  CB  GLU D 570     -19.500  -6.345 -13.794  1.00 32.92     0.043 C 
BRANCH  15  16
ATOM     16  CG  GLU D 570     -20.445  -5.546 -12.972  1.00 32.92     0.100 C 
BRANCH  16  17
ATOM     17  CD  GLU D 570     -21.740  -5.244 -13.689  1.00 32.92     0.185 C 
ATOM     18  OE1 GLU D 570     -22.256  -6.125 -14.403  1.00 32.92    -0.647 OA
ATOM     19  OE2 GLU D 570     -22.235  -4.108 -13.549  1.00 32.92    -0.647 OA
ENDBRANCH  16  17
ENDBRANCH  15  16
ENDBRANCH  14  15
END_RES GLU D 570
ENDMDL
