MODEL 1
REMARK VINA RESULT:      -8.0      0.000      0.000
REMARK  18 active torsions:
REMARK  status: ('A' for Active; 'I' for Inactive)
REMARK    1  A    between atoms: C_3  and  C_45 
REMARK    2  A    between atoms: N_5  and  C_7 
REMARK    3  A    between atoms: C_8  and  O_44 
REMARK    4  A    between atoms: C_9  and  O_43 
REMARK    5  A    between atoms: C_10  and  C_12 
REMARK    6  A    between atoms: C_12  and  O_13 
REMARK    7  A    between atoms: O_13  and  P_14 
REMARK    8  A    between atoms: P_14  and  O_16 
REMARK    9  A    between atoms: P_14  and  O_17 
REMARK   10  A    between atoms: O_17  and  P_18 
REMARK   11  A    between atoms: P_18  and  O_20 
REMARK   12  A    between atoms: P_18  and  O_21 
REMARK   13  A    between atoms: O_21  and  C_22 
REMARK   14  A    between atoms: C_22  and  C_23 
REMARK   15  A    between atoms: C_24  and  O_42 
REMARK   16  A    between atoms: C_25  and  O_41 
REMARK   17  A    between atoms: C_26  and  N_28 
REMARK   18  A    between atoms: C_33  and  N_40 
REMARK       I    between atoms: C_45  and  N_47 
ROOT
HETATM    1  P   UNL     1     -21.202 -10.078   0.128  1.00  0.00     0.401 P 
HETATM    2  O   UNL     1     -20.548 -10.389   1.483  1.00  0.00    -0.631 OA
ENDROOT
BRANCH   1   3
HETATM    3  O   UNL     1     -21.373  -8.444   0.670  1.00  0.00    -0.195 OA
BRANCH   3   4
HETATM    4  P   UNL     1     -21.925  -7.457  -0.639  1.00  0.00     0.401 P 
HETATM    5  O   UNL     1     -23.335  -7.413  -0.056  1.00  0.00    -0.631 OA
BRANCH   4   6
HETATM    6  O   UNL     1     -22.476  -6.469  -1.948  1.00  0.00    -0.294 OA
BRANCH   6   7
HETATM    7  C   UNL     1     -21.556  -6.406  -3.032  1.00  0.00     0.215 C 
BRANCH   7   8
HETATM    8  C   UNL     1     -22.277  -6.653  -4.366  1.00  0.00     0.180 C 
HETATM    9  C   UNL     1     -21.804  -7.868  -5.167  1.00  0.00     0.182 C 
HETATM   10  C   UNL     1     -20.839  -7.320  -6.212  1.00  0.00     0.198 C 
HETATM   11  C   UNL     1     -20.919  -5.804  -6.030  1.00  0.00     0.259 C 
HETATM   12  O   UNL     1     -22.101  -5.526  -5.262  1.00  0.00    -0.353 OA
BRANCH   9  13
HETATM   13  O   UNL     1     -21.260  -8.945  -4.426  1.00  0.00    -0.390 OA
HETATM   14  H   UNL     1     -20.401  -8.691  -4.022  1.00  0.00     0.210 HD
ENDBRANCH   9  13
BRANCH  10  15
HETATM   15  O   UNL     1     -19.506  -7.787  -6.037  1.00  0.00    -0.388 OA
HETATM   16  H   UNL     1     -19.436  -8.650  -6.500  1.00  0.00     0.210 HD
ENDBRANCH  10  15
BRANCH  11  17
HETATM   17  N   UNL     1     -20.906  -5.087  -7.336  1.00  0.00    -0.336 N 
HETATM   18  C   UNL     1     -22.085  -4.601  -7.808  1.00  0.00     0.110 A 
HETATM   19  C   UNL     1     -22.184  -4.072  -9.096  1.00  0.00     0.047 A 
HETATM   20  C   UNL     1     -21.042  -4.010  -9.889  1.00  0.00     0.020 A 
HETATM   21  C   UNL     1     -19.835  -4.481  -9.378  1.00  0.00     0.018 A 
HETATM   22  C   UNL     1     -19.788  -5.023  -8.095  1.00  0.00     0.093 A 
BRANCH  19  23
HETATM   23  C   UNL     1     -23.533  -3.642  -9.530  1.00  0.00     0.250 C 
HETATM   24  O   UNL     1     -23.705  -3.285 -10.687  1.00  0.00    -0.268 OA
HETATM   25  N   UNL     1     -24.554  -3.628  -8.625  1.00  0.00    -0.366 N 
HETATM   26  H   UNL     1     -24.498  -3.869  -7.646  1.00  0.00     0.159 HD
HETATM   27  H   UNL     1     -25.453  -3.297  -8.956  1.00  0.00     0.159 HD
ENDBRANCH  19  23
ENDBRANCH  11  17
ENDBRANCH   7   8
ENDBRANCH   6   7
ENDBRANCH   4   6
BRANCH   4  28
HETATM   28  O   UNL     1     -21.857  -8.710  -1.680  1.00  0.00    -0.307 OA
HETATM   29  H   UNL     1     -21.730  -8.453  -2.615  1.00  0.00     0.222 HD
ENDBRANCH   4  28
ENDBRANCH   3   4
ENDBRANCH   1   3
BRANCH   1  30
HETATM   30  O   UNL     1     -22.815 -10.250   0.334  1.00  0.00    -0.307 OA
HETATM   31  H   UNL     1     -23.243 -10.438  -0.521  1.00  0.00     0.222 HD
ENDBRANCH   1  30
BRANCH   1  32
HETATM   32  O   UNL     1     -21.030 -11.712  -0.415  1.00  0.00    -0.294 OA
BRANCH  32  33
HETATM   33  C   UNL     1     -19.911 -11.910  -1.292  1.00  0.00     0.215 C 
BRANCH  33  34
HETATM   34  C   UNL     1     -20.345 -11.791  -2.720  1.00  0.00     0.180 C 
HETATM   35  C   UNL     1     -21.769 -12.208  -3.003  1.00  0.00     0.182 C 
HETATM   36  C   UNL     1     -21.696 -12.658  -4.466  1.00  0.00     0.198 C 
HETATM   37  C   UNL     1     -20.195 -12.832  -4.749  1.00  0.00     0.262 C 
HETATM   38  O   UNL     1     -19.517 -12.653  -3.503  1.00  0.00    -0.353 OA
BRANCH  35  39
HETATM   39  O   UNL     1     -22.679 -11.139  -2.779  1.00  0.00    -0.390 OA
HETATM   40  H   UNL     1     -22.337 -10.623  -2.024  1.00  0.00     0.210 HD
ENDBRANCH  35  39
BRANCH  36  41
HETATM   41  O   UNL     1     -22.451 -11.850  -5.353  1.00  0.00    -0.388 OA
HETATM   42  H   UNL     1     -23.270 -12.327  -5.578  1.00  0.00     0.210 HD
ENDBRANCH  36  41
BRANCH  37  43
HETATM   43  N   UNL     1     -19.423 -12.084  -5.722  1.00  0.00    -0.297 N 
HETATM   44  C   UNL     1     -19.028 -12.767  -6.868  1.00  0.00     0.188 C 
HETATM   45  N   UNL     1     -17.839 -12.421  -7.285  1.00  0.00    -0.346 N 
HETATM   46  C   UNL     1     -17.409 -11.524  -6.344  1.00  0.00     0.122 C 
ATOM     47  HN  UNL     1     -17.346 -12.743  -8.118  1.00  0.00     0.167 HD
HETATM   48  C   UNL     1     -16.123 -11.062  -6.068  1.00  0.00     0.131 C 
HETATM   49  C   UNL     1     -18.427 -11.152  -5.468  1.00  0.00     0.142 C 
HETATM   50  N   UNL     1     -15.939 -10.158  -5.105  1.00  0.00    -0.337 N 
HETATM   51  C   UNL     1     -17.047  -9.761  -4.408  1.00  0.00     0.183 C 
ATOM     52  HN  UNL     1     -15.015  -9.779  -4.898  1.00  0.00     0.168 HD
HETATM   53  N   UNL     1     -18.318 -10.238  -4.482  1.00  0.00    -0.336 N 
ATOM     54  HN  UNL     1     -19.084  -9.945  -3.876  1.00  0.00     0.168 HD
BRANCH  48  55
HETATM   55  N   UNL     1     -15.042 -11.654  -6.697  1.00  0.00    -0.383 N 
HETATM   56  H   UNL     1     -15.250 -12.436  -7.308  1.00  0.00     0.157 HD
HETATM   57  H   UNL     1     -14.100 -11.361  -6.507  1.00  0.00     0.157 HD
ENDBRANCH  48  55
ENDBRANCH  37  43
ENDBRANCH  33  34
ENDBRANCH  32  33
ENDBRANCH   1  32
TORSDOF 18
BEGIN_RES ARG D 557
REMARK  4 active torsions:
REMARK  status: ('A' for Active; 'I' for Inactive)
REMARK    1  A    between atoms: CA   and  CB  
REMARK    2  A    between atoms: CB   and  CG  
REMARK    3  A    between atoms: CG   and  CD  
REMARK    4  A    between atoms: CD   and  NE  
REMARK       I    between atoms: NE   and  CZ  
REMARK       I    between atoms: CZ   and  NH1 
REMARK       I    between atoms: CZ   and  NH2 
ROOT
ATOM      1  CA  ARG D 557     -26.217   2.705 -17.014  1.00 35.49     0.159 C 
ENDROOT
BRANCH   1   2
ATOM      2  CB  ARG D 557     -26.789   1.319 -17.183  1.00 35.49     0.034 C 
BRANCH   2   3
ATOM      3  CG  ARG D 557     -25.865   0.195 -16.990  1.00 35.49     0.027 C 
BRANCH   3   4
ATOM      4  CD  ARG D 557     -26.350  -0.767 -15.975  1.00 35.49     0.116 C 
BRANCH   4   5
ATOM      5  NE  ARG D 557     -25.391  -0.974 -14.922  1.00 35.49    -0.212 N 
ATOM      6  CZ  ARG D 557     -25.154  -2.114 -14.312  1.00 35.49     0.666 C 
ATOM      7  NH1 ARG D 557     -25.806  -3.224 -14.605  1.00 35.49    -0.235 N 
ATOM      8  NH2 ARG D 557     -24.232  -2.123 -13.393  1.00 35.49    -0.235 N 
ATOM      9  HH  ARG D 557     -26.415  -3.241 -15.207  1.00 35.49     0.174 HD
ATOM     10  HH  ARG D 557     -25.607  -3.938 -14.175  1.00 35.49     0.174 HD
ATOM     11  HH  ARG D 557     -23.822  -1.393 -13.230  1.00 35.49     0.174 HD
ATOM     12  HH  ARG D 557     -24.049  -2.840 -12.981  1.00 35.49     0.174 HD
ATOM     13  HE  ARG D 557     -24.977  -0.296 -14.620  1.00 35.49     0.178 HD
ENDBRANCH   4   5
ENDBRANCH   3   4
ENDBRANCH   2   3
ENDBRANCH   1   2
END_RES ARG D 557
BEGIN_RES GLU D 570
REMARK  3 active torsions:
REMARK  status: ('A' for Active; 'I' for Inactive)
REMARK    5  A    between atoms: CA   and  CB  
REMARK    6  A    between atoms: CB   and  CG  
REMARK    7  A    between atoms: CG   and  CD  
ROOT
ATOM     14  CA  GLU D 570     -18.033  -6.348 -13.375  1.00 32.92     0.160 C 
ENDROOT
BRANCH  14  15
ATOM     15  CB  GLU D 570     -19.500  -6.345 -13.794  1.00 32.92     0.043 C 
BRANCH  15  16
ATOM     16  CG  GLU D 570     -20.440  -5.521 -12.990  1.00 32.92     0.100 C 
BRANCH  16  17
ATOM     17  CD  GLU D 570     -21.740  -5.241 -13.708  1.00 32.92     0.185 C 
ATOM     18  OE1 GLU D 570     -22.201  -6.101 -14.482  1.00 32.92    -0.647 OA
ATOM     19  OE2 GLU D 570     -22.294  -4.143 -13.506  1.00 32.92    -0.647 OA
ENDBRANCH  16  17
ENDBRANCH  15  16
ENDBRANCH  14  15
END_RES GLU D 570
ENDMDL
MODEL 2
REMARK VINA RESULT:      -7.7      1.650      2.042
REMARK  18 active torsions:
REMARK  status: ('A' for Active; 'I' for Inactive)
REMARK    1  A    between atoms: C_3  and  C_45 
REMARK    2  A    between atoms: N_5  and  C_7 
REMARK    3  A    between atoms: C_8  and  O_44 
REMARK    4  A    between atoms: C_9  and  O_43 
REMARK    5  A    between atoms: C_10  and  C_12 
REMARK    6  A    between atoms: C_12  and  O_13 
REMARK    7  A    between atoms: O_13  and  P_14 
REMARK    8  A    between atoms: P_14  and  O_16 
REMARK    9  A    between atoms: P_14  and  O_17 
REMARK   10  A    between atoms: O_17  and  P_18 
REMARK   11  A    between atoms: P_18  and  O_20 
REMARK   12  A    between atoms: P_18  and  O_21 
REMARK   13  A    between atoms: O_21  and  C_22 
REMARK   14  A    between atoms: C_22  and  C_23 
REMARK   15  A    between atoms: C_24  and  O_42 
REMARK   16  A    between atoms: C_25  and  O_41 
REMARK   17  A    between atoms: C_26  and  N_28 
REMARK   18  A    between atoms: C_33  and  N_40 
REMARK       I    between atoms: C_45  and  N_47 
ROOT
HETATM    1  P   UNL     1     -21.578 -11.046  -0.902  1.00  0.00     0.401 P 
HETATM    2  O   UNL     1     -22.391 -11.324   0.371  1.00  0.00    -0.631 OA
ENDROOT
BRANCH   1   3
HETATM    3  O   UNL     1     -20.985  -9.620  -0.122  1.00  0.00    -0.195 OA
BRANCH   3   4
HETATM    4  P   UNL     1     -21.623  -8.221  -0.914  1.00  0.00     0.401 P 
HETATM    5  O   UNL     1     -20.245  -7.865  -1.468  1.00  0.00    -0.631 OA
BRANCH   4   6
HETATM    6  O   UNL     1     -22.261  -6.822  -1.707  1.00  0.00    -0.294 OA
BRANCH   6   7
HETATM    7  C   UNL     1     -21.501  -6.424  -2.844  1.00  0.00     0.215 C 
BRANCH   7   8
HETATM    8  C   UNL     1     -22.270  -6.728  -4.139  1.00  0.00     0.180 C 
HETATM    9  C   UNL     1     -21.758  -7.916  -4.956  1.00  0.00     0.182 C 
HETATM   10  C   UNL     1     -20.885  -7.314  -6.051  1.00  0.00     0.198 C 
HETATM   11  C   UNL     1     -21.055  -5.805  -5.872  1.00  0.00     0.259 C 
HETATM   12  O   UNL     1     -22.213  -5.599  -5.047  1.00  0.00    -0.353 OA
BRANCH   9  13
HETATM   13  O   UNL     1     -21.109  -8.949  -4.239  1.00  0.00    -0.390 OA
HETATM   14  H   UNL     1     -20.418  -8.580  -3.647  1.00  0.00     0.210 HD
ENDBRANCH   9  13
BRANCH  10  15
HETATM   15  O   UNL     1     -19.516  -7.691  -5.941  1.00  0.00    -0.388 OA
HETATM   16  H   UNL     1     -19.010  -7.139  -6.575  1.00  0.00     0.210 HD
ENDBRANCH  10  15
BRANCH  11  17
HETATM   17  N   UNL     1     -21.154  -5.099  -7.180  1.00  0.00    -0.336 N 
HETATM   18  C   UNL     1     -22.394  -4.831  -7.668  1.00  0.00     0.110 A 
HETATM   19  C   UNL     1     -22.571  -4.330  -8.959  1.00  0.00     0.047 A 
HETATM   20  C   UNL     1     -21.448  -4.066  -9.739  1.00  0.00     0.020 A 
HETATM   21  C   UNL     1     -20.183  -4.314  -9.212  1.00  0.00     0.018 A 
HETATM   22  C   UNL     1     -20.056  -4.838  -7.926  1.00  0.00     0.093 A 
BRANCH  19  23
HETATM   23  C   UNL     1     -23.969  -4.147  -9.410  1.00  0.00     0.250 C 
HETATM   24  O   UNL     1     -24.471  -4.974 -10.159  1.00  0.00    -0.268 OA
HETATM   25  N   UNL     1     -24.665  -3.047  -9.002  1.00  0.00    -0.366 N 
HETATM   26  H   UNL     1     -24.323  -2.298  -8.417  1.00  0.00     0.159 HD
HETATM   27  H   UNL     1     -25.608  -2.945  -9.359  1.00  0.00     0.159 HD
ENDBRANCH  19  23
ENDBRANCH  11  17
ENDBRANCH   7   8
ENDBRANCH   6   7
ENDBRANCH   4   6
BRANCH   4  28
HETATM   28  O   UNL     1     -21.806  -7.439   0.504  1.00  0.00    -0.307 OA
HETATM   29  H   UNL     1     -22.712  -7.111   0.672  1.00  0.00     0.222 HD
ENDBRANCH   4  28
ENDBRANCH   3   4
ENDBRANCH   1   3
BRANCH   1  30
HETATM   30  O   UNL     1     -22.496 -10.074  -1.843  1.00  0.00    -0.307 OA
HETATM   31  H   UNL     1     -22.900 -10.590  -2.563  1.00  0.00     0.222 HD
ENDBRANCH   1  30
BRANCH   1  32
HETATM   32  O   UNL     1     -22.170 -12.472  -1.682  1.00  0.00    -0.294 OA
BRANCH  32  33
HETATM   33  C   UNL     1     -21.157 -13.198  -2.394  1.00  0.00     0.215 C 
BRANCH  33  34
HETATM   34  C   UNL     1     -20.799 -12.484  -3.660  1.00  0.00     0.180 C 
HETATM   35  C   UNL     1     -21.921 -12.334  -4.661  1.00  0.00     0.182 C 
HETATM   36  C   UNL     1     -21.167 -12.267  -5.993  1.00  0.00     0.198 C 
HETATM   37  C   UNL     1     -19.752 -12.777  -5.670  1.00  0.00     0.262 C 
HETATM   38  O   UNL     1     -19.780 -13.238  -4.317  1.00  0.00    -0.353 OA
BRANCH  35  39
HETATM   39  O   UNL     1     -22.709 -11.182  -4.392  1.00  0.00    -0.390 OA
HETATM   40  H   UNL     1     -22.782 -11.104  -3.422  1.00  0.00     0.210 HD
ENDBRANCH  35  39
BRANCH  36  41
HETATM   41  O   UNL     1     -21.289 -11.022  -6.659  1.00  0.00    -0.388 OA
HETATM   42  H   UNL     1     -21.727 -10.396  -6.057  1.00  0.00     0.210 HD
ENDBRANCH  36  41
BRANCH  37  43
HETATM   43  N   UNL     1     -18.526 -12.014  -5.795  1.00  0.00    -0.297 N 
HETATM   44  C   UNL     1     -17.435 -12.669  -6.358  1.00  0.00     0.188 C 
HETATM   45  N   UNL     1     -16.298 -12.333  -5.809  1.00  0.00    -0.346 N 
HETATM   46  C   UNL     1     -16.659 -11.473  -4.807  1.00  0.00     0.122 C 
ATOM     47  HN  UNL     1     -15.359 -12.638  -6.068  1.00  0.00     0.167 HD
HETATM   48  C   UNL     1     -15.940 -11.044  -3.692  1.00  0.00     0.131 C 
HETATM   49  C   UNL     1     -18.002 -11.109  -4.884  1.00  0.00     0.142 C 
HETATM   50  N   UNL     1     -16.492 -10.173  -2.846  1.00  0.00    -0.337 N 
HETATM   51  C   UNL     1     -17.773  -9.778  -3.113  1.00  0.00     0.183 C 
ATOM     52  HN  UNL     1     -15.981  -9.819  -2.038  1.00  0.00     0.168 HD
HETATM   53  N   UNL     1     -18.623 -10.228  -4.073  1.00  0.00    -0.336 N 
ATOM     54  HN  UNL     1     -19.597  -9.940  -4.168  1.00  0.00     0.168 HD
BRANCH  48  55
HETATM   55  N   UNL     1     -14.723 -11.637  -3.402  1.00  0.00    -0.383 N 
HETATM   56  H   UNL     1     -14.420 -12.372  -4.032  1.00  0.00     0.157 HD
HETATM   57  H   UNL     1     -14.203 -11.391  -2.579  1.00  0.00     0.157 HD
ENDBRANCH  48  55
ENDBRANCH  37  43
ENDBRANCH  33  34
ENDBRANCH  32  33
ENDBRANCH   1  32
TORSDOF 18
BEGIN_RES ARG D 557
REMARK  4 active torsions:
REMARK  status: ('A' for Active; 'I' for Inactive)
REMARK    1  A    between atoms: CA   and  CB  
REMARK    2  A    between atoms: CB   and  CG  
REMARK    3  A    between atoms: CG   and  CD  
REMARK    4  A    between atoms: CD   and  NE  
REMARK       I    between atoms: NE   and  CZ  
REMARK       I    between atoms: CZ   and  NH1 
REMARK       I    between atoms: CZ   and  NH2 
ROOT
ATOM      1  CA  ARG D 557     -26.217   2.705 -17.014  1.00 35.49     0.159 C 
ENDROOT
BRANCH   1   2
ATOM      2  CB  ARG D 557     -26.789   1.319 -17.183  1.00 35.49     0.034 C 
BRANCH   2   3
ATOM      3  CG  ARG D 557     -28.234   1.226 -17.427  1.00 35.49     0.027 C 
BRANCH   3   4
ATOM      4  CD  ARG D 557     -28.903   0.286 -16.499  1.00 35.49     0.116 C 
BRANCH   4   5
ATOM      5  NE  ARG D 557     -29.260  -0.951 -17.143  1.00 35.49    -0.212 N 
ATOM      6  CZ  ARG D 557     -28.621  -2.093 -17.021  1.00 35.49     0.666 C 
ATOM      7  NH1 ARG D 557     -27.537  -2.223 -16.278  1.00 35.49    -0.235 N 
ATOM      8  NH2 ARG D 557     -29.099  -3.119 -17.662  1.00 35.49    -0.235 N 
ATOM      9  HH  ARG D 557     -27.206  -1.561 -15.846  1.00 35.49     0.174 HD
ATOM     10  HH  ARG D 557     -27.164  -2.993 -16.235  1.00 35.49     0.174 HD
ATOM     11  HH  ARG D 557     -29.804  -3.007 -18.128  1.00 35.49     0.174 HD
ATOM     12  HH  ARG D 557     -28.716  -3.874 -17.605  1.00 35.49     0.174 HD
ATOM     13  HE  ARG D 557     -29.904  -0.940 -17.698  1.00 35.49     0.178 HD
ENDBRANCH   4   5
ENDBRANCH   3   4
ENDBRANCH   2   3
ENDBRANCH   1   2
END_RES ARG D 557
BEGIN_RES GLU D 570
REMARK  3 active torsions:
REMARK  status: ('A' for Active; 'I' for Inactive)
REMARK    5  A    between atoms: CA   and  CB  
REMARK    6  A    between atoms: CB   and  CG  
REMARK    7  A    between atoms: CG   and  CD  
ROOT
ATOM     14  CA  GLU D 570     -18.033  -6.348 -13.375  1.00 32.92     0.160 C 
ENDROOT
BRANCH  14  15
ATOM     15  CB  GLU D 570     -19.500  -6.345 -13.794  1.00 32.92     0.043 C 
BRANCH  15  16
ATOM     16  CG  GLU D 570     -19.802  -6.095 -15.227  1.00 32.92     0.100 C 
BRANCH  16  17
ATOM     17  CD  GLU D 570     -21.137  -5.420 -15.439  1.00 32.92     0.185 C 
ATOM     18  OE1 GLU D 570     -21.789  -5.042 -14.446  1.00 32.92    -0.647 OA
ATOM     19  OE2 GLU D 570     -21.544  -5.283 -16.610  1.00 32.92    -0.647 OA
ENDBRANCH  16  17
ENDBRANCH  15  16
ENDBRANCH  14  15
END_RES GLU D 570
ENDMDL
MODEL 3
REMARK VINA RESULT:      -7.5      3.226      5.635
REMARK  18 active torsions:
REMARK  status: ('A' for Active; 'I' for Inactive)
REMARK    1  A    between atoms: C_3  and  C_45 
REMARK    2  A    between atoms: N_5  and  C_7 
REMARK    3  A    between atoms: C_8  and  O_44 
REMARK    4  A    between atoms: C_9  and  O_43 
REMARK    5  A    between atoms: C_10  and  C_12 
REMARK    6  A    between atoms: C_12  and  O_13 
REMARK    7  A    between atoms: O_13  and  P_14 
REMARK    8  A    between atoms: P_14  and  O_16 
REMARK    9  A    between atoms: P_14  and  O_17 
REMARK   10  A    between atoms: O_17  and  P_18 
REMARK   11  A    between atoms: P_18  and  O_20 
REMARK   12  A    between atoms: P_18  and  O_21 
REMARK   13  A    between atoms: O_21  and  C_22 
REMARK   14  A    between atoms: C_22  and  C_23 
REMARK   15  A    between atoms: C_24  and  O_42 
REMARK   16  A    between atoms: C_25  and  O_41 
REMARK   17  A    between atoms: C_26  and  N_28 
REMARK   18  A    between atoms: C_33  and  N_40 
REMARK       I    between atoms: C_45  and  N_47 
ROOT
HETATM    1  P   UNL     1     -21.069  -8.420  -5.325  1.00  0.00     0.401 P 
HETATM    2  O   UNL     1     -19.653  -8.224  -4.765  1.00  0.00    -0.631 OA
ENDROOT
BRANCH   1   3
HETATM    3  O   UNL     1     -21.479  -6.895  -4.620  1.00  0.00    -0.195 OA
BRANCH   3   4
HETATM    4  P   UNL     1     -21.324  -5.648  -5.810  1.00  0.00     0.401 P 
HETATM    5  O   UNL     1     -22.841  -5.490  -5.890  1.00  0.00    -0.631 OA
BRANCH   4   6
HETATM    6  O   UNL     1     -21.170  -4.402  -6.999  1.00  0.00    -0.294 OA
BRANCH   6   7
HETATM    7  C   UNL     1     -21.430  -4.852  -8.325  1.00  0.00     0.215 C 
BRANCH   7   8
HETATM    8  C   UNL     1     -22.074  -3.734  -9.157  1.00  0.00     0.180 C 
HETATM    9  C   UNL     1     -23.569  -3.507  -8.929  1.00  0.00     0.182 C 
HETATM   10  C   UNL     1     -24.274  -4.249 -10.059  1.00  0.00     0.198 C 
HETATM   11  C   UNL     1     -23.130  -4.749 -10.943  1.00  0.00     0.259 C 
HETATM   12  O   UNL     1     -21.951  -4.014 -10.575  1.00  0.00    -0.353 OA
BRANCH   9  13
HETATM   13  O   UNL     1     -24.076  -3.841  -7.650  1.00  0.00    -0.390 OA
HETATM   14  H   UNL     1     -23.753  -4.726  -7.369  1.00  0.00     0.210 HD
ENDBRANCH   9  13
BRANCH  10  15
HETATM   15  O   UNL     1     -25.075  -5.332  -9.598  1.00  0.00    -0.388 OA
HETATM   16  H   UNL     1     -25.872  -5.369 -10.170  1.00  0.00     0.210 HD
ENDBRANCH  10  15
BRANCH  11  17
HETATM   17  N   UNL     1     -23.451  -4.623 -12.391  1.00  0.00    -0.336 N 
HETATM   18  C   UNL     1     -23.928  -3.431 -12.837  1.00  0.00     0.110 A 
HETATM   19  C   UNL     1     -24.412  -3.287 -14.139  1.00  0.00     0.047 A 
HETATM   20  C   UNL     1     -24.365  -4.380 -15.000  1.00  0.00     0.020 A 
HETATM   21  C   UNL     1     -23.842  -5.585 -14.538  1.00  0.00     0.018 A 
HETATM   22  C   UNL     1     -23.393  -5.689 -13.223  1.00  0.00     0.093 A 
BRANCH  19  23
HETATM   23  C   UNL     1     -24.975  -1.964 -14.491  1.00  0.00     0.250 C 
HETATM   24  O   UNL     1     -26.188  -1.834 -14.583  1.00  0.00    -0.268 OA
HETATM   25  N   UNL     1     -24.131  -0.919 -14.730  1.00  0.00    -0.366 N 
HETATM   26  H   UNL     1     -23.121  -0.942 -14.712  1.00  0.00     0.159 HD
HETATM   27  H   UNL     1     -24.556  -0.039 -14.998  1.00  0.00     0.159 HD
ENDBRANCH  19  23
ENDBRANCH  11  17
ENDBRANCH   7   8
ENDBRANCH   6   7
ENDBRANCH   4   6
BRANCH   4  28
HETATM   28  O   UNL     1     -20.875  -6.723  -6.950  1.00  0.00    -0.307 OA
HETATM   29  H   UNL     1     -21.568  -7.369  -7.193  1.00  0.00     0.222 HD
ENDBRANCH   4  28
ENDBRANCH   3   4
ENDBRANCH   1   3
BRANCH   1  30
HETATM   30  O   UNL     1     -21.948  -9.132  -4.143  1.00  0.00    -0.307 OA
HETATM   31  H   UNL     1     -21.723 -10.078  -4.083  1.00  0.00     0.222 HD
ENDBRANCH   1  30
BRANCH   1  32
HETATM   32  O   UNL     1     -20.661  -9.946  -6.031  1.00  0.00    -0.294 OA
BRANCH  32  33
HETATM   33  C   UNL     1     -20.997 -11.069  -5.204  1.00  0.00     0.215 C 
BRANCH  33  34
HETATM   34  C   UNL     1     -20.156 -11.073  -3.966  1.00  0.00     0.180 C 
HETATM   35  C   UNL     1     -18.783 -11.685  -4.116  1.00  0.00     0.182 C 
HETATM   36  C   UNL     1     -18.489 -12.187  -2.698  1.00  0.00     0.198 C 
HETATM   37  C   UNL     1     -19.852 -12.175  -1.987  1.00  0.00     0.262 C 
HETATM   38  O   UNL     1     -20.831 -11.853  -2.978  1.00  0.00    -0.353 OA
BRANCH  35  39
HETATM   39  O   UNL     1     -17.838 -10.736  -4.593  1.00  0.00    -0.390 OA
HETATM   40  H   UNL     1     -16.964 -11.170  -4.584  1.00  0.00     0.210 HD
ENDBRANCH  35  39
BRANCH  36  41
HETATM   41  O   UNL     1     -17.405 -11.526  -2.069  1.00  0.00    -0.388 OA
HETATM   42  H   UNL     1     -17.658 -10.598  -1.920  1.00  0.00     0.210 HD
ENDBRANCH  36  41
BRANCH  37  43
HETATM   43  N   UNL     1     -20.197 -11.376  -0.827  1.00  0.00    -0.297 N 
HETATM   44  C   UNL     1     -21.003 -11.981   0.133  1.00  0.00     0.188 C 
HETATM   45  N   UNL     1     -21.859 -11.156   0.675  1.00  0.00    -0.346 N 
HETATM   46  C   UNL     1     -21.654  -9.982   0.002  1.00  0.00     0.122 C 
ATOM     47  HN  UNL     1     -22.525 -11.343   1.425  1.00  0.00     0.167 HD
HETATM   48  C   UNL     1     -22.464  -8.851  -0.094  1.00  0.00     0.131 C 
HETATM   49  C   UNL     1     -20.515 -10.026  -0.801  1.00  0.00     0.142 C 
HETATM   50  N   UNL     1     -22.045  -7.797  -0.796  1.00  0.00    -0.337 N 
HETATM   51  C   UNL     1     -20.836  -7.912  -1.424  1.00  0.00     0.183 C 
ATOM     52  HN  UNL     1     -22.602  -6.945  -0.863  1.00  0.00     0.168 HD
HETATM   53  N   UNL     1     -20.027  -9.000  -1.526  1.00  0.00    -0.336 N 
ATOM     54  HN  UNL     1     -19.169  -9.035  -2.076  1.00  0.00     0.168 HD
BRANCH  48  55
HETATM   55  N   UNL     1     -23.749  -8.893   0.418  1.00  0.00    -0.383 N 
HETATM   56  H   UNL     1     -23.833  -9.123   1.403  1.00  0.00     0.157 HD
HETATM   57  H   UNL     1     -24.553  -8.763  -0.169  1.00  0.00     0.157 HD
ENDBRANCH  48  55
ENDBRANCH  37  43
ENDBRANCH  33  34
ENDBRANCH  32  33
ENDBRANCH   1  32
TORSDOF 18
BEGIN_RES ARG D 557
REMARK  4 active torsions:
REMARK  status: ('A' for Active; 'I' for Inactive)
REMARK    1  A    between atoms: CA   and  CB  
REMARK    2  A    between atoms: CB   and  CG  
REMARK    3  A    between atoms: CG   and  CD  
REMARK    4  A    between atoms: CD   and  NE  
REMARK       I    between atoms: NE   and  CZ  
REMARK       I    between atoms: CZ   and  NH1 
REMARK       I    between atoms: CZ   and  NH2 
ROOT
ATOM      1  CA  ARG D 557     -26.217   2.705 -17.014  1.00 35.49     0.159 C 
ENDROOT
BRANCH   1   2
ATOM      2  CB  ARG D 557     -26.789   1.319 -17.183  1.00 35.49     0.034 C 
BRANCH   2   3
ATOM      3  CG  ARG D 557     -28.212   1.230 -17.532  1.00 35.49     0.027 C 
BRANCH   3   4
ATOM      4  CD  ARG D 557     -28.943   0.265 -16.677  1.00 35.49     0.116 C 
BRANCH   4   5
ATOM      5  NE  ARG D 557     -28.221  -0.969 -16.513  1.00 35.49    -0.212 N 
ATOM      6  CZ  ARG D 557     -28.617  -2.151 -16.927  1.00 35.49     0.666 C 
ATOM      7  NH1 ARG D 557     -29.768  -2.337 -17.547  1.00 35.49    -0.235 N 
ATOM      8  NH2 ARG D 557     -27.823  -3.160 -16.711  1.00 35.49    -0.235 N 
ATOM      9  HH  ARG D 557     -30.304  -1.687 -17.702  1.00 35.49     0.174 HD
ATOM     10  HH  ARG D 557     -29.972  -3.130 -17.797  1.00 35.49     0.174 HD
ATOM     11  HH  ARG D 557     -27.083  -3.009 -16.314  1.00 35.49     0.174 HD
ATOM     12  HH  ARG D 557     -28.043  -3.938 -16.967  1.00 35.49     0.174 HD
ATOM     13  HE  ARG D 557     -27.502  -0.953 -16.059  1.00 35.49     0.178 HD
ENDBRANCH   4   5
ENDBRANCH   3   4
ENDBRANCH   2   3
ENDBRANCH   1   2
END_RES ARG D 557
BEGIN_RES GLU D 570
REMARK  3 active torsions:
REMARK  status: ('A' for Active; 'I' for Inactive)
REMARK    5  A    between atoms: CA   and  CB  
REMARK    6  A    between atoms: CB   and  CG  
REMARK    7  A    between atoms: CG   and  CD  
ROOT
ATOM     14  CA  GLU D 570     -18.033  -6.348 -13.375  1.00 32.92     0.160 C 
ENDROOT
BRANCH  14  15
ATOM     15  CB  GLU D 570     -19.500  -6.345 -13.794  1.00 32.92     0.043 C 
BRANCH  15  16
ATOM     16  CG  GLU D 570     -20.081  -7.630 -14.261  1.00 32.92     0.100 C 
BRANCH  16  17
ATOM     17  CD  GLU D 570     -20.726  -7.525 -15.623  1.00 32.92     0.185 C 
ATOM     18  OE1 GLU D 570     -21.237  -8.542 -16.130  1.00 32.92    -0.647 OA
ATOM     19  OE2 GLU D 570     -20.706  -6.418 -16.196  1.00 32.92    -0.647 OA
ENDBRANCH  16  17
ENDBRANCH  15  16
ENDBRANCH  14  15
END_RES GLU D 570
ENDMDL
MODEL 4
REMARK VINA RESULT:      -7.4      1.625      2.811
REMARK  18 active torsions:
REMARK  status: ('A' for Active; 'I' for Inactive)
REMARK    1  A    between atoms: C_3  and  C_45 
REMARK    2  A    between atoms: N_5  and  C_7 
REMARK    3  A    between atoms: C_8  and  O_44 
REMARK    4  A    between atoms: C_9  and  O_43 
REMARK    5  A    between atoms: C_10  and  C_12 
REMARK    6  A    between atoms: C_12  and  O_13 
REMARK    7  A    between atoms: O_13  and  P_14 
REMARK    8  A    between atoms: P_14  and  O_16 
REMARK    9  A    between atoms: P_14  and  O_17 
REMARK   10  A    between atoms: O_17  and  P_18 
REMARK   11  A    between atoms: P_18  and  O_20 
REMARK   12  A    between atoms: P_18  and  O_21 
REMARK   13  A    between atoms: O_21  and  C_22 
REMARK   14  A    between atoms: C_22  and  C_23 
REMARK   15  A    between atoms: C_24  and  O_42 
REMARK   16  A    between atoms: C_25  and  O_41 
REMARK   17  A    between atoms: C_26  and  N_28 
REMARK   18  A    between atoms: C_33  and  N_40 
REMARK       I    between atoms: C_45  and  N_47 
ROOT
HETATM    1  P   UNL     1     -21.118 -10.433   0.063  1.00  0.00     0.401 P 
HETATM    2  O   UNL     1     -21.897 -11.719   0.373  1.00  0.00    -0.631 OA
ENDROOT
BRANCH   1   3
HETATM    3  O   UNL     1     -22.638  -9.683  -0.282  1.00  0.00    -0.195 OA
BRANCH   3   4
HETATM    4  P   UNL     1     -22.368  -8.097  -0.917  1.00  0.00     0.401 P 
HETATM    5  O   UNL     1     -21.018  -8.007  -0.209  1.00  0.00    -0.631 OA
BRANCH   4   6
HETATM    6  O   UNL     1     -22.098  -6.511  -1.553  1.00  0.00    -0.294 OA
BRANCH   6   7
HETATM    7  C   UNL     1     -21.262  -6.500  -2.705  1.00  0.00     0.215 C 
BRANCH   7   8
HETATM    8  C   UNL     1     -22.092  -6.736  -3.976  1.00  0.00     0.180 C 
HETATM    9  C   UNL     1     -21.667  -7.923  -4.842  1.00  0.00     0.182 C 
HETATM   10  C   UNL     1     -20.810  -7.333  -5.955  1.00  0.00     0.198 C 
HETATM   11  C   UNL     1     -20.904  -5.822  -5.733  1.00  0.00     0.259 C 
HETATM   12  O   UNL     1     -22.019  -5.587  -4.857  1.00  0.00    -0.353 OA
BRANCH   9  13
HETATM   13  O   UNL     1     -21.039  -9.003  -4.176  1.00  0.00    -0.390 OA
HETATM   14  H   UNL     1     -20.062  -8.948  -4.268  1.00  0.00     0.210 HD
ENDBRANCH   9  13
BRANCH  10  15
HETATM   15  O   UNL     1     -19.457  -7.773  -5.908  1.00  0.00    -0.388 OA
HETATM   16  H   UNL     1     -19.104  -7.535  -5.023  1.00  0.00     0.210 HD
ENDBRANCH  10  15
BRANCH  11  17
HETATM   17  N   UNL     1     -21.021  -5.078  -7.018  1.00  0.00    -0.336 N 
HETATM   18  C   UNL     1     -22.264  -4.886  -7.532  1.00  0.00     0.110 A 
HETATM   19  C   UNL     1     -22.443  -4.352  -8.810  1.00  0.00     0.047 A 
HETATM   20  C   UNL     1     -21.323  -3.978  -9.547  1.00  0.00     0.020 A 
HETATM   21  C   UNL     1     -20.057  -4.151  -8.992  1.00  0.00     0.018 A 
HETATM   22  C   UNL     1     -19.926  -4.710  -7.722  1.00  0.00     0.093 A 
BRANCH  19  23
HETATM   23  C   UNL     1     -23.838  -4.258  -9.295  1.00  0.00     0.250 C 
HETATM   24  O   UNL     1     -24.268  -5.113 -10.057  1.00  0.00    -0.268 OA
HETATM   25  N   UNL     1     -24.613  -3.205  -8.904  1.00  0.00    -0.366 N 
HETATM   26  H   UNL     1     -24.334  -2.437  -8.310  1.00  0.00     0.159 HD
HETATM   27  H   UNL     1     -25.552  -3.162  -9.284  1.00  0.00     0.159 HD
ENDBRANCH  19  23
ENDBRANCH  11  17
ENDBRANCH   7   8
ENDBRANCH   6   7
ENDBRANCH   4   6
BRANCH   4  28
HETATM   28  O   UNL     1     -23.493  -7.454   0.073  1.00  0.00    -0.307 OA
HETATM   29  H   UNL     1     -24.267  -8.030   0.234  1.00  0.00     0.222 HD
ENDBRANCH   4  28
ENDBRANCH   3   4
ENDBRANCH   1   3
BRANCH   1  30
HETATM   30  O   UNL     1     -20.825 -10.437  -1.546  1.00  0.00    -0.307 OA
HETATM   31  H   UNL     1     -20.358  -9.621  -1.803  1.00  0.00     0.222 HD
ENDBRANCH   1  30
BRANCH   1  32
HETATM   32  O   UNL     1     -19.597 -11.181   0.409  1.00  0.00    -0.294 OA
BRANCH  32  33
HETATM   33  C   UNL     1     -19.459 -12.492  -0.161  1.00  0.00     0.215 C 
BRANCH  33  34
HETATM   34  C   UNL     1     -18.266 -12.543  -1.063  1.00  0.00     0.180 C 
HETATM   35  C   UNL     1     -17.040 -13.208  -0.480  1.00  0.00     0.182 C 
HETATM   36  C   UNL     1     -15.900 -12.514  -1.232  1.00  0.00     0.198 C 
HETATM   37  C   UNL     1     -16.545 -11.268  -1.862  1.00  0.00     0.262 C 
HETATM   38  O   UNL     1     -17.883 -11.199  -1.361  1.00  0.00    -0.353 OA
BRANCH  35  39
HETATM   39  O   UNL     1     -17.074 -14.617  -0.668  1.00  0.00    -0.390 OA
HETATM   40  H   UNL     1     -16.155 -14.939  -0.591  1.00  0.00     0.210 HD
ENDBRANCH  35  39
BRANCH  36  41
HETATM   41  O   UNL     1     -15.160 -13.379  -2.077  1.00  0.00    -0.388 OA
HETATM   42  H   UNL     1     -15.789 -13.937  -2.567  1.00  0.00     0.210 HD
ENDBRANCH  36  41
BRANCH  37  43
HETATM   43  N   UNL     1     -16.648 -10.991  -3.281  1.00  0.00    -0.297 N 
HETATM   44  C   UNL     1     -17.049  -9.708  -3.642  1.00  0.00     0.188 C 
HETATM   45  N   UNL     1     -17.818  -9.692  -4.698  1.00  0.00    -0.346 N 
HETATM   46  C   UNL     1     -17.982 -11.016  -5.006  1.00  0.00     0.122 C 
ATOM     47  HN  UNL     1     -18.206  -8.881  -5.181  1.00  0.00     0.167 HD
HETATM   48  C   UNL     1     -18.935 -11.637  -5.812  1.00  0.00     0.131 C 
HETATM   49  C   UNL     1     -17.130 -11.837  -4.270  1.00  0.00     0.142 C 
HETATM   50  N   UNL     1     -18.888 -12.958  -5.990  1.00  0.00    -0.337 N 
HETATM   51  C   UNL     1     -17.908 -13.639  -5.323  1.00  0.00     0.183 C 
ATOM     52  HN  UNL     1     -19.553 -13.438  -6.596  1.00  0.00     0.168 HD
HETATM   53  N   UNL     1     -17.020 -13.174  -4.405  1.00  0.00    -0.336 N 
ATOM     54  HN  UNL     1     -16.361 -13.756  -3.888  1.00  0.00     0.168 HD
BRANCH  48  55
HETATM   55  N   UNL     1     -19.998 -10.896  -6.298  1.00  0.00    -0.383 N 
HETATM   56  H   UNL     1     -20.913 -11.122  -5.922  1.00  0.00     0.157 HD
HETATM   57  H   UNL     1     -19.874 -10.215  -7.026  1.00  0.00     0.157 HD
ENDBRANCH  48  55
ENDBRANCH  37  43
ENDBRANCH  33  34
ENDBRANCH  32  33
ENDBRANCH   1  32
TORSDOF 18
BEGIN_RES ARG D 557
REMARK  4 active torsions:
REMARK  status: ('A' for Active; 'I' for Inactive)
REMARK    1  A    between atoms: CA   and  CB  
REMARK    2  A    between atoms: CB   and  CG  
REMARK    3  A    between atoms: CG   and  CD  
REMARK    4  A    between atoms: CD   and  NE  
REMARK       I    between atoms: NE   and  CZ  
REMARK       I    between atoms: CZ   and  NH1 
REMARK       I    between atoms: CZ   and  NH2 
ROOT
ATOM      1  CA  ARG D 557     -26.217   2.705 -17.014  1.00 35.49     0.159 C 
ENDROOT
BRANCH   1   2
ATOM      2  CB  ARG D 557     -26.789   1.319 -17.183  1.00 35.49     0.034 C 
BRANCH   2   3
ATOM      3  CG  ARG D 557     -26.004   0.208 -16.631  1.00 35.49     0.027 C 
BRANCH   3   4
ATOM      4  CD  ARG D 557     -26.856  -0.831 -16.010  1.00 35.49     0.116 C 
BRANCH   4   5
ATOM      5  NE  ARG D 557     -26.088  -1.956 -15.546  1.00 35.49    -0.212 N 
ATOM      6  CZ  ARG D 557     -25.007  -1.894 -14.801  1.00 35.49     0.666 C 
ATOM      7  NH1 ARG D 557     -24.489  -0.748 -14.398  1.00 35.49    -0.235 N 
ATOM      8  NH2 ARG D 557     -24.450  -3.018 -14.455  1.00 35.49    -0.235 N 
ATOM      9  HH  ARG D 557     -24.840   0.004 -14.612  1.00 35.49     0.174 HD
ATOM     10  HH  ARG D 557     -23.784  -0.769 -13.911  1.00 35.49     0.174 HD
ATOM     11  HH  ARG D 557     -24.811  -3.742 -14.723  1.00 35.49     0.174 HD
ATOM     12  HH  ARG D 557     -23.754  -3.018 -13.971  1.00 35.49     0.174 HD
ATOM     13  HE  ARG D 557     -26.309  -2.731 -15.819  1.00 35.49     0.178 HD
ENDBRANCH   4   5
ENDBRANCH   3   4
ENDBRANCH   2   3
ENDBRANCH   1   2
END_RES ARG D 557
BEGIN_RES GLU D 570
REMARK  3 active torsions:
REMARK  status: ('A' for Active; 'I' for Inactive)
REMARK    5  A    between atoms: CA   and  CB  
REMARK    6  A    between atoms: CB   and  CG  
REMARK    7  A    between atoms: CG   and  CD  
ROOT
ATOM     14  CA  GLU D 570     -18.033  -6.348 -13.375  1.00 32.92     0.160 C 
ENDROOT
BRANCH  14  15
ATOM     15  CB  GLU D 570     -19.500  -6.345 -13.794  1.00 32.92     0.043 C 
BRANCH  15  16
ATOM     16  CG  GLU D 570     -20.451  -5.573 -12.953  1.00 32.92     0.100 C 
BRANCH  16  17
ATOM     17  CD  GLU D 570     -21.718  -5.200 -13.686  1.00 32.92     0.185 C 
ATOM     18  OE1 GLU D 570     -22.799  -5.204 -13.066  1.00 32.92    -0.647 OA
ATOM     19  OE2 GLU D 570     -21.631  -4.919 -14.898  1.00 32.92    -0.647 OA
ENDBRANCH  16  17
ENDBRANCH  15  16
ENDBRANCH  14  15
END_RES GLU D 570
ENDMDL
MODEL 5
REMARK VINA RESULT:      -7.4      2.406      3.786
REMARK  18 active torsions:
REMARK  status: ('A' for Active; 'I' for Inactive)
REMARK    1  A    between atoms: C_3  and  C_45 
REMARK    2  A    between atoms: N_5  and  C_7 
REMARK    3  A    between atoms: C_8  and  O_44 
REMARK    4  A    between atoms: C_9  and  O_43 
REMARK    5  A    between atoms: C_10  and  C_12 
REMARK    6  A    between atoms: C_12  and  O_13 
REMARK    7  A    between atoms: O_13  and  P_14 
REMARK    8  A    between atoms: P_14  and  O_16 
REMARK    9  A    between atoms: P_14  and  O_17 
REMARK   10  A    between atoms: O_17  and  P_18 
REMARK   11  A    between atoms: P_18  and  O_20 
REMARK   12  A    between atoms: P_18  and  O_21 
REMARK   13  A    between atoms: O_21  and  C_22 
REMARK   14  A    between atoms: C_22  and  C_23 
REMARK   15  A    between atoms: C_24  and  O_42 
REMARK   16  A    between atoms: C_25  and  O_41 
REMARK   17  A    between atoms: C_26  and  N_28 
REMARK   18  A    between atoms: C_33  and  N_40 
REMARK       I    between atoms: C_45  and  N_47 
ROOT
HETATM    1  P   UNL     1     -21.026 -11.414  -1.889  1.00  0.00     0.401 P 
HETATM    2  O   UNL     1     -22.171 -12.134  -2.615  1.00  0.00    -0.631 OA
ENDROOT
BRANCH   1   3
HETATM    3  O   UNL     1     -21.742  -9.923  -2.395  1.00  0.00    -0.195 OA
BRANCH   3   4
HETATM    4  P   UNL     1     -20.669  -9.105  -3.478  1.00  0.00     0.401 P 
HETATM    5  O   UNL     1     -20.298  -8.091  -2.398  1.00  0.00    -0.631 OA
BRANCH   4   6
HETATM    6  O   UNL     1     -19.595  -8.288  -4.560  1.00  0.00    -0.294 OA
BRANCH   6   7
HETATM    7  C   UNL     1     -20.231  -7.840  -5.752  1.00  0.00     0.215 C 
BRANCH   7   8
HETATM    8  C   UNL     1     -19.865  -6.376  -6.041  1.00  0.00     0.180 C 
HETATM    9  C   UNL     1     -20.726  -5.322  -5.341  1.00  0.00     0.182 C 
HETATM   10  C   UNL     1     -21.756  -4.883  -6.375  1.00  0.00     0.198 C 
HETATM   11  C   UNL     1     -21.340  -5.620  -7.649  1.00  0.00     0.259 C 
HETATM   12  O   UNL     1     -19.994  -6.083  -7.455  1.00  0.00    -0.353 OA
BRANCH   9  13
HETATM   13  O   UNL     1     -21.308  -5.694  -4.106  1.00  0.00    -0.390 OA
HETATM   14  H   UNL     1     -20.783  -6.403  -3.673  1.00  0.00     0.210 HD
ENDBRANCH   9  13
BRANCH  10  15
HETATM   15  O   UNL     1     -23.091  -5.215  -6.005  1.00  0.00    -0.388 OA
HETATM   16  H   UNL     1     -23.062  -5.555  -5.085  1.00  0.00     0.210 HD
ENDBRANCH  10  15
BRANCH  11  17
HETATM   17  N   UNL     1     -21.479  -4.761  -8.858  1.00  0.00    -0.336 N 
HETATM   18  C   UNL     1     -22.727  -4.358  -9.214  1.00  0.00     0.110 A 
HETATM   19  C   UNL     1     -22.956  -3.699 -10.423  1.00  0.00     0.047 A 
HETATM   20  C   UNL     1     -21.875  -3.420 -11.254  1.00  0.00     0.020 A 
HETATM   21  C   UNL     1     -20.597  -3.810 -10.859  1.00  0.00     0.018 A 
HETATM   22  C   UNL     1     -20.420  -4.487  -9.654  1.00  0.00     0.093 A 
BRANCH  19  23
HETATM   23  C   UNL     1     -24.365  -3.375 -10.741  1.00  0.00     0.250 C 
HETATM   24  O   UNL     1     -24.650  -2.968 -11.859  1.00  0.00    -0.268 OA
HETATM   25  N   UNL     1     -25.318  -3.512  -9.773  1.00  0.00    -0.366 N 
HETATM   26  H   UNL     1     -25.171  -3.804  -8.818  1.00  0.00     0.159 HD
HETATM   27  H   UNL     1     -26.264  -3.249 -10.024  1.00  0.00     0.159 HD
ENDBRANCH  19  23
ENDBRANCH  11  17
ENDBRANCH   7   8
ENDBRANCH   6   7
ENDBRANCH   4   6
BRANCH   4  28
HETATM   28  O   UNL     1     -21.915  -8.491  -4.330  1.00  0.00    -0.307 OA
HETATM   29  H   UNL     1     -22.489  -7.881  -3.825  1.00  0.00     0.222 HD
ENDBRANCH   4  28
ENDBRANCH   3   4
ENDBRANCH   1   3
BRANCH   1  30
HETATM   30  O   UNL     1     -19.853 -11.156  -2.999  1.00  0.00    -0.307 OA
HETATM   31  H   UNL     1     -19.310 -11.957  -3.104  1.00  0.00     0.222 HD
ENDBRANCH   1  30
BRANCH   1  32
HETATM   32  O   UNL     1     -20.309 -12.905  -1.381  1.00  0.00    -0.294 OA
BRANCH  32  33
HETATM   33  C   UNL     1     -19.296 -12.742  -0.378  1.00  0.00     0.215 C 
BRANCH  33  34
HETATM   34  C   UNL     1     -17.938 -12.728  -1.008  1.00  0.00     0.180 C 
HETATM   35  C   UNL     1     -16.862 -13.469  -0.249  1.00  0.00     0.182 C 
HETATM   36  C   UNL     1     -15.590 -12.726  -0.672  1.00  0.00     0.198 C 
HETATM   37  C   UNL     1     -16.091 -11.414  -1.299  1.00  0.00     0.262 C 
HETATM   38  O   UNL     1     -17.504 -11.369  -1.087  1.00  0.00    -0.353 OA
BRANCH  35  39
HETATM   39  O   UNL     1     -16.852 -14.852  -0.576  1.00  0.00    -0.390 OA
HETATM   40  H   UNL     1     -17.782 -15.132  -0.671  1.00  0.00     0.210 HD
ENDBRANCH  35  39
BRANCH  36  41
HETATM   41  O   UNL     1     -14.686 -13.519  -1.423  1.00  0.00    -0.388 OA
HETATM   42  H   UNL     1     -14.700 -14.422  -1.061  1.00  0.00     0.210 HD
ENDBRANCH  36  41
BRANCH  37  43
HETATM   43  N   UNL     1     -15.892 -11.000  -2.674  1.00  0.00    -0.297 N 
HETATM   44  C   UNL     1     -16.269  -9.700  -2.998  1.00  0.00     0.188 C 
HETATM   45  N   UNL     1     -16.786  -9.601  -4.194  1.00  0.00    -0.346 N 
HETATM   46  C   UNL     1     -16.809 -10.892  -4.649  1.00  0.00     0.122 C 
ATOM     47  HN  UNL     1     -17.098  -8.758  -4.676  1.00  0.00     0.167 HD
HETATM   48  C   UNL     1     -17.528 -11.458  -5.702  1.00  0.00     0.131 C 
HETATM   49  C   UNL     1     -16.100 -11.757  -3.818  1.00  0.00     0.142 C 
HETATM   50  N   UNL     1     -17.376 -12.752  -5.984  1.00  0.00    -0.337 N 
HETATM   51  C   UNL     1     -16.533 -13.467  -5.177  1.00  0.00     0.183 C 
ATOM     52  HN  UNL     1     -17.865 -13.189  -6.764  1.00  0.00     0.168 HD
HETATM   53  N   UNL     1     -15.895 -13.070  -4.045  1.00  0.00    -0.336 N 
ATOM     54  HN  UNL     1     -15.337 -13.681  -3.449  1.00  0.00     0.168 HD
BRANCH  48  55
HETATM   55  N   UNL     1     -18.494 -10.704  -6.344  1.00  0.00    -0.383 N 
HETATM   56  H   UNL     1     -18.162  -9.905  -6.876  1.00  0.00     0.157 HD
HETATM   57  H   UNL     1     -19.472 -10.903  -6.238  1.00  0.00     0.157 HD
ENDBRANCH  48  55
ENDBRANCH  37  43
ENDBRANCH  33  34
ENDBRANCH  32  33
ENDBRANCH   1  32
TORSDOF 18
BEGIN_RES ARG D 557
REMARK  4 active torsions:
REMARK  status: ('A' for Active; 'I' for Inactive)
REMARK    1  A    between atoms: CA   and  CB  
REMARK    2  A    between atoms: CB   and  CG  
REMARK    3  A    between atoms: CG   and  CD  
REMARK    4  A    between atoms: CD   and  NE  
REMARK       I    between atoms: NE   and  CZ  
REMARK       I    between atoms: CZ   and  NH1 
REMARK       I    between atoms: CZ   and  NH2 
ROOT
ATOM      1  CA  ARG D 557     -26.217   2.705 -17.014  1.00 35.49     0.159 C 
ENDROOT
BRANCH   1   2
ATOM      2  CB  ARG D 557     -26.789   1.319 -17.183  1.00 35.49     0.034 C 
BRANCH   2   3
ATOM      3  CG  ARG D 557     -28.234   1.225 -17.424  1.00 35.49     0.027 C 
BRANCH   3   4
ATOM      4  CD  ARG D 557     -28.900   0.280 -16.499  1.00 35.49     0.116 C 
BRANCH   4   5
ATOM      5  NE  ARG D 557     -29.257  -0.953 -17.149  1.00 35.49    -0.212 N 
ATOM      6  CZ  ARG D 557     -28.620  -2.096 -17.030  1.00 35.49     0.666 C 
ATOM      7  NH1 ARG D 557     -27.538  -2.231 -16.285  1.00 35.49    -0.235 N 
ATOM      8  NH2 ARG D 557     -29.097  -3.120 -17.676  1.00 35.49    -0.235 N 
ATOM      9  HH  ARG D 557     -27.207  -1.571 -15.850  1.00 35.49     0.174 HD
ATOM     10  HH  ARG D 557     -27.166  -3.002 -16.244  1.00 35.49     0.174 HD
ATOM     11  HH  ARG D 557     -29.802  -3.006 -18.143  1.00 35.49     0.174 HD
ATOM     12  HH  ARG D 557     -28.716  -3.875 -17.621  1.00 35.49     0.174 HD
ATOM     13  HE  ARG D 557     -29.900  -0.940 -17.706  1.00 35.49     0.178 HD
ENDBRANCH   4   5
ENDBRANCH   3   4
ENDBRANCH   2   3
ENDBRANCH   1   2
END_RES ARG D 557
BEGIN_RES GLU D 570
REMARK  3 active torsions:
REMARK  status: ('A' for Active; 'I' for Inactive)
REMARK    5  A    between atoms: CA   and  CB  
REMARK    6  A    between atoms: CB   and  CG  
REMARK    7  A    between atoms: CG   and  CD  
ROOT
ATOM     14  CA  GLU D 570     -18.033  -6.348 -13.375  1.00 32.92     0.160 C 
ENDROOT
BRANCH  14  15
ATOM     15  CB  GLU D 570     -19.500  -6.345 -13.794  1.00 32.92     0.043 C 
BRANCH  15  16
ATOM     16  CG  GLU D 570     -19.796  -6.350 -15.250  1.00 32.92     0.100 C 
BRANCH  16  17
ATOM     17  CD  GLU D 570     -20.891  -7.321 -15.626  1.00 32.92     0.185 C 
ATOM     18  OE1 GLU D 570     -22.008  -6.877 -15.953  1.00 32.92    -0.647 OA
ATOM     19  OE2 GLU D 570     -20.633  -8.540 -15.576  1.00 32.92    -0.647 OA
ENDBRANCH  16  17
ENDBRANCH  15  16
ENDBRANCH  14  15
END_RES GLU D 570
ENDMDL
MODEL 6
REMARK VINA RESULT:      -7.4      3.264      4.828
REMARK  18 active torsions:
REMARK  status: ('A' for Active; 'I' for Inactive)
REMARK    1  A    between atoms: C_3  and  C_45 
REMARK    2  A    between atoms: N_5  and  C_7 
REMARK    3  A    between atoms: C_8  and  O_44 
REMARK    4  A    between atoms: C_9  and  O_43 
REMARK    5  A    between atoms: C_10  and  C_12 
REMARK    6  A    between atoms: C_12  and  O_13 
REMARK    7  A    between atoms: O_13  and  P_14 
REMARK    8  A    between atoms: P_14  and  O_16 
REMARK    9  A    between atoms: P_14  and  O_17 
REMARK   10  A    between atoms: O_17  and  P_18 
REMARK   11  A    between atoms: P_18  and  O_20 
REMARK   12  A    between atoms: P_18  and  O_21 
REMARK   13  A    between atoms: O_21  and  C_22 
REMARK   14  A    between atoms: C_22  and  C_23 
REMARK   15  A    between atoms: C_24  and  O_42 
REMARK   16  A    between atoms: C_25  and  O_41 
REMARK   17  A    between atoms: C_26  and  N_28 
REMARK   18  A    between atoms: C_33  and  N_40 
REMARK       I    between atoms: C_45  and  N_47 
ROOT
HETATM    1  P   UNL     1     -16.865 -11.600  -3.977  1.00  0.00     0.401 P 
HETATM    2  O   UNL     1     -17.222 -10.163  -3.573  1.00  0.00    -0.631 OA
ENDROOT
BRANCH   1   3
HETATM    3  O   UNL     1     -17.046 -11.104  -5.624  1.00  0.00    -0.195 OA
BRANCH   3   4
HETATM    4  P   UNL     1     -18.601 -10.377  -5.840  1.00  0.00     0.401 P 
HETATM    5  O   UNL     1     -18.954 -11.378  -6.938  1.00  0.00    -0.631 OA
BRANCH   4   6
HETATM    6  O   UNL     1     -20.156  -9.651  -6.056  1.00  0.00    -0.294 OA
BRANCH   6   7
HETATM    7  C   UNL     1     -20.602  -8.924  -4.916  1.00  0.00     0.215 C 
BRANCH   7   8
HETATM    8  C   UNL     1     -20.128  -7.464  -4.988  1.00  0.00     0.180 C 
HETATM    9  C   UNL     1     -20.999  -6.442  -4.255  1.00  0.00     0.182 C 
HETATM   10  C   UNL     1     -21.888  -5.819  -5.325  1.00  0.00     0.198 C 
HETATM   11  C   UNL     1     -21.380  -6.433  -6.631  1.00  0.00     0.259 C 
HETATM   12  O   UNL     1     -20.089  -7.004  -6.362  1.00  0.00    -0.353 OA
BRANCH   9  13
HETATM   13  O   UNL     1     -21.729  -6.913  -3.137  1.00  0.00    -0.390 OA
HETATM   14  H   UNL     1     -21.796  -7.893  -3.154  1.00  0.00     0.210 HD
ENDBRANCH   9  13
BRANCH  10  15
HETATM   15  O   UNL     1     -23.271  -6.101  -5.132  1.00  0.00    -0.388 OA
HETATM   16  H   UNL     1     -23.347  -6.640  -4.315  1.00  0.00     0.210 HD
ENDBRANCH  10  15
BRANCH  11  17
HETATM   17  N   UNL     1     -21.343  -5.434  -7.735  1.00  0.00    -0.336 N 
HETATM   18  C   UNL     1     -22.526  -5.001  -8.245  1.00  0.00     0.110 A 
HETATM   19  C   UNL     1     -22.572  -4.201  -9.388  1.00  0.00     0.047 A 
HETATM   20  C   UNL     1     -21.377  -3.813  -9.987  1.00  0.00     0.020 A 
HETATM   21  C   UNL     1     -20.171  -4.238  -9.434  1.00  0.00     0.018 A 
HETATM   22  C   UNL     1     -20.175  -5.056  -8.305  1.00  0.00     0.093 A 
BRANCH  19  23
HETATM   23  C   UNL     1     -23.918  -3.851  -9.895  1.00  0.00     0.250 C 
HETATM   24  O   UNL     1     -24.037  -2.943 -10.705  1.00  0.00    -0.268 OA
HETATM   25  N   UNL     1     -25.005  -4.532  -9.430  1.00  0.00    -0.366 N 
HETATM   26  H   UNL     1     -25.008  -5.268  -8.739  1.00  0.00     0.159 HD
HETATM   27  H   UNL     1     -25.911  -4.241  -9.780  1.00  0.00     0.159 HD
ENDBRANCH  19  23
ENDBRANCH  11  17
ENDBRANCH   7   8
ENDBRANCH   6   7
ENDBRANCH   4   6
BRANCH   4  28
HETATM   28  O   UNL     1     -17.945  -9.066  -6.555  1.00  0.00    -0.307 OA
HETATM   29  H   UNL     1     -17.026  -9.192  -6.864  1.00  0.00     0.222 HD
ENDBRANCH   4  28
ENDBRANCH   3   4
ENDBRANCH   1   3
BRANCH   1  30
HETATM   30  O   UNL     1     -18.278 -12.410  -4.131  1.00  0.00    -0.307 OA
HETATM   31  H   UNL     1     -18.387 -12.721  -5.048  1.00  0.00     0.222 HD
ENDBRANCH   1  30
BRANCH   1  32
HETATM   32  O   UNL     1     -16.683 -12.098  -2.330  1.00  0.00    -0.294 OA
BRANCH  32  33
HETATM   33  C   UNL     1     -17.296 -11.204  -1.389  1.00  0.00     0.215 C 
BRANCH  33  34
HETATM   34  C   UNL     1     -18.487 -11.854  -0.756  1.00  0.00     0.180 C 
HETATM   35  C   UNL     1     -18.378 -13.347  -0.549  1.00  0.00     0.182 C 
HETATM   36  C   UNL     1     -19.843 -13.793  -0.598  1.00  0.00     0.198 C 
HETATM   37  C   UNL     1     -20.597 -12.603  -1.214  1.00  0.00     0.262 C 
HETATM   38  O   UNL     1     -19.607 -11.654  -1.619  1.00  0.00    -0.353 OA
BRANCH  35  39
HETATM   39  O   UNL     1     -17.726 -13.657   0.675  1.00  0.00    -0.390 OA
HETATM   40  H   UNL     1     -17.251 -14.499   0.542  1.00  0.00     0.210 HD
ENDBRANCH  35  39
BRANCH  36  41
HETATM   41  O   UNL     1     -20.322 -14.321   0.628  1.00  0.00    -0.388 OA
HETATM   42  H   UNL     1     -21.221 -13.979   0.777  1.00  0.00     0.210 HD
ENDBRANCH  36  41
BRANCH  37  43
HETATM   43  N   UNL     1     -21.635 -11.827  -0.563  1.00  0.00    -0.297 N 
HETATM   44  C   UNL     1     -22.739 -11.484  -1.337  1.00  0.00     0.188 C 
HETATM   45  N   UNL     1     -23.204 -10.294  -1.066  1.00  0.00    -0.346 N 
HETATM   46  C   UNL     1     -22.335  -9.809  -0.125  1.00  0.00     0.122 C 
ATOM     47  HN  UNL     1     -24.023  -9.833  -1.462  1.00  0.00     0.167 HD
HETATM   48  C   UNL     1     -22.119  -8.501   0.305  1.00  0.00     0.131 C 
HETATM   49  C   UNL     1     -21.465 -10.792   0.345  1.00  0.00     0.142 C 
HETATM   50  N   UNL     1     -21.225  -8.261   1.265  1.00  0.00    -0.337 N 
HETATM   51  C   UNL     1     -20.533  -9.336   1.750  1.00  0.00     0.183 C 
ATOM     52  HN  UNL     1     -21.064  -7.319   1.620  1.00  0.00     0.168 HD
HETATM   53  N   UNL     1     -20.548 -10.625   1.318  1.00  0.00    -0.336 N 
ATOM     54  HN  UNL     1     -19.947 -11.365   1.681  1.00  0.00     0.168 HD
BRANCH  48  55
HETATM   55  N   UNL     1     -22.729  -7.457  -0.369  1.00  0.00    -0.383 N 
HETATM   56  H   UNL     1     -22.222  -7.077  -1.162  1.00  0.00     0.157 HD
HETATM   57  H   UNL     1     -23.595  -7.061  -0.051  1.00  0.00     0.157 HD
ENDBRANCH  48  55
ENDBRANCH  37  43
ENDBRANCH  33  34
ENDBRANCH  32  33
ENDBRANCH   1  32
TORSDOF 18
BEGIN_RES ARG D 557
REMARK  4 active torsions:
REMARK  status: ('A' for Active; 'I' for Inactive)
REMARK    1  A    between atoms: CA   and  CB  
REMARK    2  A    between atoms: CB   and  CG  
REMARK    3  A    between atoms: CG   and  CD  
REMARK    4  A    between atoms: CD   and  NE  
REMARK       I    between atoms: NE   and  CZ  
REMARK       I    between atoms: CZ   and  NH1 
REMARK       I    between atoms: CZ   and  NH2 
ROOT
ATOM      1  CA  ARG D 557     -26.217   2.705 -17.014  1.00 35.49     0.159 C 
ENDROOT
BRANCH   1   2
ATOM      2  CB  ARG D 557     -26.789   1.319 -17.183  1.00 35.49     0.034 C 
BRANCH   2   3
ATOM      3  CG  ARG D 557     -25.915   0.195 -16.825  1.00 35.49     0.027 C 
BRANCH   3   4
ATOM      4  CD  ARG D 557     -26.635  -0.866 -16.085  1.00 35.49     0.116 C 
BRANCH   4   5
ATOM      5  NE  ARG D 557     -25.869  -1.369 -14.975  1.00 35.49    -0.212 N 
ATOM      6  CZ  ARG D 557     -25.835  -2.618 -14.569  1.00 35.49     0.666 C 
ATOM      7  NH1 ARG D 557     -26.537  -3.573 -15.151  1.00 35.49    -0.235 N 
ATOM      8  NH2 ARG D 557     -25.067  -2.899 -13.557  1.00 35.49    -0.235 N 
ATOM      9  HH  ARG D 557     -27.047  -3.411 -15.820  1.00 35.49     0.174 HD
ATOM     10  HH  ARG D 557     -26.473  -4.370 -14.844  1.00 35.49     0.174 HD
ATOM     11  HH  ARG D 557     -24.619  -2.264 -13.205  1.00 35.49     0.174 HD
ATOM     12  HH  ARG D 557     -25.015  -3.695 -13.268  1.00 35.49     0.174 HD
ATOM     13  HE  ARG D 557     -25.443  -0.809 -14.498  1.00 35.49     0.178 HD
ENDBRANCH   4   5
ENDBRANCH   3   4
ENDBRANCH   2   3
ENDBRANCH   1   2
END_RES ARG D 557
BEGIN_RES GLU D 570
REMARK  3 active torsions:
REMARK  status: ('A' for Active; 'I' for Inactive)
REMARK    5  A    between atoms: CA   and  CB  
REMARK    6  A    between atoms: CB   and  CG  
REMARK    7  A    between atoms: CG   and  CD  
ROOT
ATOM     14  CA  GLU D 570     -18.033  -6.348 -13.375  1.00 32.92     0.160 C 
ENDROOT
BRANCH  14  15
ATOM     15  CB  GLU D 570     -19.500  -6.345 -13.794  1.00 32.92     0.043 C 
BRANCH  15  16
ATOM     16  CG  GLU D 570     -20.446  -5.552 -12.967  1.00 32.92     0.100 C 
BRANCH  16  17
ATOM     17  CD  GLU D 570     -21.704  -5.172 -13.713  1.00 32.92     0.185 C 
ATOM     18  OE1 GLU D 570     -22.735  -4.908 -13.065  1.00 32.92    -0.647 OA
ATOM     19  OE2 GLU D 570     -21.663  -5.154 -14.959  1.00 32.92    -0.647 OA
ENDBRANCH  16  17
ENDBRANCH  15  16
ENDBRANCH  14  15
END_RES GLU D 570
ENDMDL
MODEL 7
REMARK VINA RESULT:      -7.3      2.962      4.796
REMARK  18 active torsions:
REMARK  status: ('A' for Active; 'I' for Inactive)
REMARK    1  A    between atoms: C_3  and  C_45 
REMARK    2  A    between atoms: N_5  and  C_7 
REMARK    3  A    between atoms: C_8  and  O_44 
REMARK    4  A    between atoms: C_9  and  O_43 
REMARK    5  A    between atoms: C_10  and  C_12 
REMARK    6  A    between atoms: C_12  and  O_13 
REMARK    7  A    between atoms: O_13  and  P_14 
REMARK    8  A    between atoms: P_14  and  O_16 
REMARK    9  A    between atoms: P_14  and  O_17 
REMARK   10  A    between atoms: O_17  and  P_18 
REMARK   11  A    between atoms: P_18  and  O_20 
REMARK   12  A    between atoms: P_18  and  O_21 
REMARK   13  A    between atoms: O_21  and  C_22 
REMARK   14  A    between atoms: C_22  and  C_23 
REMARK   15  A    between atoms: C_24  and  O_42 
REMARK   16  A    between atoms: C_25  and  O_41 
REMARK   17  A    between atoms: C_26  and  N_28 
REMARK   18  A    between atoms: C_33  and  N_40 
REMARK       I    between atoms: C_45  and  N_47 
ROOT
HETATM    1  P   UNL     1     -20.123 -13.616  -4.606  1.00  0.00     0.401 P 
HETATM    2  O   UNL     1     -21.486 -13.594  -3.898  1.00  0.00    -0.631 OA
ENDROOT
BRANCH   1   3
HETATM    3  O   UNL     1     -20.835 -12.643  -5.846  1.00  0.00    -0.195 OA
BRANCH   3   4
HETATM    4  P   UNL     1     -20.348 -10.996  -5.640  1.00  0.00     0.401 P 
HETATM    5  O   UNL     1     -21.517 -10.508  -6.493  1.00  0.00    -0.631 OA
BRANCH   4   6
HETATM    6  O   UNL     1     -19.861  -9.349  -5.433  1.00  0.00    -0.294 OA
BRANCH   6   7
HETATM    7  C   UNL     1     -20.955  -8.438  -5.399  1.00  0.00     0.215 C 
BRANCH   7   8
HETATM    8  C   UNL     1     -20.454  -6.989  -5.496  1.00  0.00     0.180 C 
HETATM    9  C   UNL     1     -21.302  -5.939  -4.777  1.00  0.00     0.182 C 
HETATM   10  C   UNL     1     -22.184  -5.317  -5.854  1.00  0.00     0.198 C 
HETATM   11  C   UNL     1     -21.693  -5.960  -7.151  1.00  0.00     0.259 C 
HETATM   12  O   UNL     1     -20.412  -6.552  -6.878  1.00  0.00    -0.353 OA
BRANCH   9  13
HETATM   13  O   UNL     1     -22.037  -6.378  -3.649  1.00  0.00    -0.390 OA
HETATM   14  H   UNL     1     -21.569  -6.143  -2.817  1.00  0.00     0.210 HD
ENDBRANCH   9  13
BRANCH  10  15
HETATM   15  O   UNL     1     -23.571  -5.569  -5.651  1.00  0.00    -0.388 OA
HETATM   16  H   UNL     1     -24.049  -5.203  -6.426  1.00  0.00     0.210 HD
ENDBRANCH  10  15
BRANCH  11  17
HETATM   17  N   UNL     1     -21.640  -4.981  -8.272  1.00  0.00    -0.336 N 
HETATM   18  C   UNL     1     -22.816  -4.499  -8.754  1.00  0.00     0.110 A 
HETATM   19  C   UNL     1     -22.857  -3.715  -9.908  1.00  0.00     0.047 A 
HETATM   20  C   UNL     1     -21.663  -3.393 -10.547  1.00  0.00     0.020 A 
HETATM   21  C   UNL     1     -20.464  -3.866 -10.021  1.00  0.00     0.018 A 
HETATM   22  C   UNL     1     -20.473  -4.667  -8.880  1.00  0.00     0.093 A 
BRANCH  19  23
HETATM   23  C   UNL     1     -24.200  -3.310 -10.382  1.00  0.00     0.250 C 
HETATM   24  O   UNL     1     -25.039  -2.945  -9.570  1.00  0.00    -0.268 OA
HETATM   25  N   UNL     1     -24.486  -3.374 -11.715  1.00  0.00    -0.366 N 
HETATM   26  H   UNL     1     -23.872  -3.694 -12.451  1.00  0.00     0.159 HD
HETATM   27  H   UNL     1     -25.426  -3.117 -11.994  1.00  0.00     0.159 HD
ENDBRANCH  19  23
ENDBRANCH  11  17
ENDBRANCH   7   8
ENDBRANCH   6   7
ENDBRANCH   4   6
BRANCH   4  28
HETATM   28  O   UNL     1     -19.065 -11.199  -6.624  1.00  0.00    -0.307 OA
HETATM   29  H   UNL     1     -18.504 -11.970  -6.404  1.00  0.00     0.222 HD
ENDBRANCH   4  28
ENDBRANCH   3   4
ENDBRANCH   1   3
BRANCH   1  30
HETATM   30  O   UNL     1     -20.158 -14.870  -5.655  1.00  0.00    -0.307 OA
HETATM   31  H   UNL     1     -20.386 -14.553  -6.548  1.00  0.00     0.222 HD
ENDBRANCH   1  30
BRANCH   1  32
HETATM   32  O   UNL     1     -19.410 -14.588  -3.365  1.00  0.00    -0.294 OA
BRANCH  32  33
HETATM   33  C   UNL     1     -18.453 -13.882  -2.562  1.00  0.00     0.215 C 
BRANCH  33  34
HETATM   34  C   UNL     1     -18.551 -12.409  -2.813  1.00  0.00     0.180 C 
HETATM   35  C   UNL     1     -17.243 -11.713  -3.111  1.00  0.00     0.182 C 
HETATM   36  C   UNL     1     -17.511 -10.286  -2.620  1.00  0.00     0.198 C 
HETATM   37  C   UNL     1     -18.769 -10.401  -1.744  1.00  0.00     0.262 C 
HETATM   38  O   UNL     1     -19.067 -11.795  -1.631  1.00  0.00    -0.353 OA
BRANCH  35  39
HETATM   39  O   UNL     1     -16.914 -11.791  -4.491  1.00  0.00    -0.390 OA
HETATM   40  H   UNL     1     -17.289 -12.626  -4.830  1.00  0.00     0.210 HD
ENDBRANCH  35  39
BRANCH  36  41
HETATM   41  O   UNL     1     -17.505  -9.315  -3.652  1.00  0.00    -0.388 OA
HETATM   42  H   UNL     1     -17.981  -8.528  -3.333  1.00  0.00     0.210 HD
ENDBRANCH  36  41
BRANCH  37  43
HETATM   43  N   UNL     1     -20.041  -9.752  -1.996  1.00  0.00    -0.297 N 
HETATM   44  C   UNL     1     -20.084  -8.371  -1.829  1.00  0.00     0.188 C 
HETATM   45  N   UNL     1     -21.214  -7.952  -1.326  1.00  0.00    -0.346 N 
HETATM   46  C   UNL     1     -21.917  -9.104  -1.093  1.00  0.00     0.122 C 
ATOM     47  HN  UNL     1     -21.506  -6.991  -1.149  1.00  0.00     0.167 HD
HETATM   48  C   UNL     1     -23.032  -9.326  -0.286  1.00  0.00     0.131 C 
HETATM   49  C   UNL     1     -21.303 -10.219  -1.662  1.00  0.00     0.142 C 
HETATM   50  N   UNL     1     -23.572 -10.544  -0.228  1.00  0.00    -0.337 N 
HETATM   51  C   UNL     1     -22.959 -11.529  -0.951  1.00  0.00     0.183 C 
ATOM     52  HN  UNL     1     -24.404 -10.731   0.331  1.00  0.00     0.168 HD
HETATM   53  N   UNL     1     -21.796 -11.474  -1.653  1.00  0.00    -0.336 N 
ATOM     54  HN  UNL     1     -21.357 -12.273  -2.110  1.00  0.00     0.168 HD
BRANCH  48  55
HETATM   55  N   UNL     1     -23.472  -8.317   0.552  1.00  0.00    -0.383 N 
HETATM   56  H   UNL     1     -23.729  -7.442   0.106  1.00  0.00     0.157 HD
HETATM   57  H   UNL     1     -23.478  -8.428   1.550  1.00  0.00     0.157 HD
ENDBRANCH  48  55
ENDBRANCH  37  43
ENDBRANCH  33  34
ENDBRANCH  32  33
ENDBRANCH   1  32
TORSDOF 18
BEGIN_RES ARG D 557
REMARK  4 active torsions:
REMARK  status: ('A' for Active; 'I' for Inactive)
REMARK    1  A    between atoms: CA   and  CB  
REMARK    2  A    between atoms: CB   and  CG  
REMARK    3  A    between atoms: CG   and  CD  
REMARK    4  A    between atoms: CD   and  NE  
REMARK       I    between atoms: NE   and  CZ  
REMARK       I    between atoms: CZ   and  NH1 
REMARK       I    between atoms: CZ   and  NH2 
ROOT
ATOM      1  CA  ARG D 557     -26.217   2.705 -17.014  1.00 35.49     0.159 C 
ENDROOT
BRANCH   1   2
ATOM      2  CB  ARG D 557     -26.789   1.319 -17.183  1.00 35.49     0.034 C 
BRANCH   2   3
ATOM      3  CG  ARG D 557     -28.195   1.134 -16.803  1.00 35.49     0.027 C 
BRANCH   3   4
ATOM      4  CD  ARG D 557     -28.529  -0.287 -16.551  1.00 35.49     0.116 C 
BRANCH   4   5
ATOM      5  NE  ARG D 557     -27.470  -0.979 -15.865  1.00 35.49    -0.212 N 
ATOM      6  CZ  ARG D 557     -27.222  -2.268 -15.936  1.00 35.49     0.666 C 
ATOM      7  NH1 ARG D 557     -27.955  -3.092 -16.662  1.00 35.49    -0.235 N 
ATOM      8  NH2 ARG D 557     -26.206  -2.722 -15.262  1.00 35.49    -0.235 N 
ATOM      9  HH  ARG D 557     -28.627  -2.814 -17.115  1.00 35.49     0.174 HD
ATOM     10  HH  ARG D 557     -27.744  -3.922 -16.672  1.00 35.49     0.174 HD
ATOM     11  HH  ARG D 557     -25.745  -2.165 -14.808  1.00 35.49     0.174 HD
ATOM     12  HH  ARG D 557     -26.012  -3.547 -15.287  1.00 35.49     0.174 HD
ATOM     13  HE  ARG D 557     -26.993  -0.536 -15.317  1.00 35.49     0.178 HD
ENDBRANCH   4   5
ENDBRANCH   3   4
ENDBRANCH   2   3
ENDBRANCH   1   2
END_RES ARG D 557
BEGIN_RES GLU D 570
REMARK  3 active torsions:
REMARK  status: ('A' for Active; 'I' for Inactive)
REMARK    5  A    between atoms: CA   and  CB  
REMARK    6  A    between atoms: CB   and  CG  
REMARK    7  A    between atoms: CG   and  CD  
ROOT
ATOM     14  CA  GLU D 570     -18.033  -6.348 -13.375  1.00 32.92     0.160 C 
ENDROOT
BRANCH  14  15
ATOM     15  CB  GLU D 570     -19.500  -6.345 -13.794  1.00 32.92     0.043 C 
BRANCH  15  16
ATOM     16  CG  GLU D 570     -20.433  -5.491 -13.014  1.00 32.92     0.100 C 
BRANCH  16  17
ATOM     17  CD  GLU D 570     -21.711  -5.183 -13.758  1.00 32.92     0.185 C 
ATOM     18  OE1 GLU D 570     -21.645  -4.778 -14.935  1.00 32.92    -0.647 OA
ATOM     19  OE2 GLU D 570     -22.791  -5.333 -13.152  1.00 32.92    -0.647 OA
ENDBRANCH  16  17
ENDBRANCH  15  16
ENDBRANCH  14  15
END_RES GLU D 570
ENDMDL
MODEL 8
REMARK VINA RESULT:      -7.3      2.961      5.056
REMARK  18 active torsions:
REMARK  status: ('A' for Active; 'I' for Inactive)
REMARK    1  A    between atoms: C_3  and  C_45 
REMARK    2  A    between atoms: N_5  and  C_7 
REMARK    3  A    between atoms: C_8  and  O_44 
REMARK    4  A    between atoms: C_9  and  O_43 
REMARK    5  A    between atoms: C_10  and  C_12 
REMARK    6  A    between atoms: C_12  and  O_13 
REMARK    7  A    between atoms: O_13  and  P_14 
REMARK    8  A    between atoms: P_14  and  O_16 
REMARK    9  A    between atoms: P_14  and  O_17 
REMARK   10  A    between atoms: O_17  and  P_18 
REMARK   11  A    between atoms: P_18  and  O_20 
REMARK   12  A    between atoms: P_18  and  O_21 
REMARK   13  A    between atoms: O_21  and  C_22 
REMARK   14  A    between atoms: C_22  and  C_23 
REMARK   15  A    between atoms: C_24  and  O_42 
REMARK   16  A    between atoms: C_25  and  O_41 
REMARK   17  A    between atoms: C_26  and  N_28 
REMARK   18  A    between atoms: C_33  and  N_40 
REMARK       I    between atoms: C_45  and  N_47 
ROOT
HETATM    1  P   UNL     1     -21.160  -8.560  -5.170  1.00  0.00     0.401 P 
HETATM    2  O   UNL     1     -19.698  -8.223  -4.845  1.00  0.00    -0.631 OA
ENDROOT
BRANCH   1   3
HETATM    3  O   UNL     1     -21.589  -7.036  -4.474  1.00  0.00    -0.195 OA
BRANCH   3   4
HETATM    4  P   UNL     1     -21.405  -5.788  -5.659  1.00  0.00     0.401 P 
HETATM    5  O   UNL     1     -22.914  -5.557  -5.699  1.00  0.00    -0.631 OA
BRANCH   4   6
HETATM    6  O   UNL     1     -21.220  -4.541  -6.843  1.00  0.00    -0.294 OA
BRANCH   6   7
HETATM    7  C   UNL     1     -21.372  -5.006  -8.180  1.00  0.00     0.215 C 
BRANCH   7   8
HETATM    8  C   UNL     1     -21.862  -3.871  -9.093  1.00  0.00     0.180 C 
HETATM    9  C   UNL     1     -23.341  -3.504  -8.968  1.00  0.00     0.182 C 
HETATM   10  C   UNL     1     -24.041  -4.229 -10.112  1.00  0.00     0.198 C 
HETATM   11  C   UNL     1     -22.897  -4.866 -10.902  1.00  0.00     0.259 C 
HETATM   12  O   UNL     1     -21.681  -4.221 -10.488  1.00  0.00    -0.353 OA
BRANCH   9  13
HETATM   13  O   UNL     1     -23.951  -3.738  -7.712  1.00  0.00    -0.390 OA
HETATM   14  H   UNL     1     -23.295  -4.079  -7.065  1.00  0.00     0.210 HD
ENDBRANCH   9  13
BRANCH  10  15
HETATM   15  O   UNL     1     -24.963  -5.218  -9.662  1.00  0.00    -0.388 OA
HETATM   16  H   UNL     1     -24.600  -5.598  -8.833  1.00  0.00     0.210 HD
ENDBRANCH  10  15
BRANCH  11  17
HETATM   17  N   UNL     1     -23.119  -4.774 -12.372  1.00  0.00    -0.336 N 
HETATM   18  C   UNL     1     -23.107  -3.540 -12.943  1.00  0.00     0.110 A 
HETATM   19  C   UNL     1     -23.476  -3.358 -14.277  1.00  0.00     0.047 A 
HETATM   20  C   UNL     1     -23.823  -4.470 -15.039  1.00  0.00     0.020 A 
HETATM   21  C   UNL     1     -23.798  -5.731 -14.448  1.00  0.00     0.018 A 
HETATM   22  C   UNL     1     -23.446  -5.862 -13.105  1.00  0.00     0.093 A 
BRANCH  19  23
HETATM   23  C   UNL     1     -23.498  -1.962 -14.770  1.00  0.00     0.250 C 
HETATM   24  O   UNL     1     -22.647  -1.594 -15.569  1.00  0.00    -0.268 OA
HETATM   25  N   UNL     1     -24.451  -1.103 -14.306  1.00  0.00    -0.366 N 
HETATM   26  H   UNL     1     -25.167  -1.306 -13.623  1.00  0.00     0.159 HD
HETATM   27  H   UNL     1     -24.411  -0.149 -14.645  1.00  0.00     0.159 HD
ENDBRANCH  19  23
ENDBRANCH  11  17
ENDBRANCH   7   8
ENDBRANCH   6   7
ENDBRANCH   4   6
BRANCH   4  28
HETATM   28  O   UNL     1     -21.036  -6.873  -6.818  1.00  0.00    -0.307 OA
HETATM   29  H   UNL     1     -21.676  -6.909  -7.557  1.00  0.00     0.222 HD
ENDBRANCH   4  28
ENDBRANCH   3   4
ENDBRANCH   1   3
BRANCH   1  30
HETATM   30  O   UNL     1     -21.786  -9.274  -3.838  1.00  0.00    -0.307 OA
HETATM   31  H   UNL     1     -21.144  -9.236  -3.106  1.00  0.00     0.222 HD
ENDBRANCH   1  30
BRANCH   1  32
HETATM   32  O   UNL     1     -20.732 -10.085  -5.867  1.00  0.00    -0.294 OA
BRANCH  32  33
HETATM   33  C   UNL     1     -20.366 -11.077  -4.896  1.00  0.00     0.215 C 
BRANCH  33  34
HETATM   34  C   UNL     1     -18.924 -11.448  -5.053  1.00  0.00     0.180 C 
HETATM   35  C   UNL     1     -18.307 -11.104  -6.389  1.00  0.00     0.182 C 
HETATM   36  C   UNL     1     -17.203 -12.159  -6.523  1.00  0.00     0.198 C 
HETATM   37  C   UNL     1     -17.548 -13.225  -5.470  1.00  0.00     0.262 C 
HETATM   38  O   UNL     1     -18.820 -12.867  -4.922  1.00  0.00    -0.353 OA
BRANCH  35  39
HETATM   39  O   UNL     1     -17.825  -9.767  -6.411  1.00  0.00    -0.390 OA
HETATM   40  H   UNL     1     -18.583  -9.192  -6.628  1.00  0.00     0.210 HD
ENDBRANCH  35  39
BRANCH  36  41
HETATM   41  O   UNL     1     -15.892 -11.620  -6.520  1.00  0.00    -0.388 OA
HETATM   42  H   UNL     1     -15.277 -12.318  -6.235  1.00  0.00     0.210 HD
ENDBRANCH  36  41
BRANCH  37  43
HETATM   43  N   UNL     1     -16.726 -13.593  -4.334  1.00  0.00    -0.297 N 
HETATM   44  C   UNL     1     -17.049 -14.781  -3.685  1.00  0.00     0.188 C 
HETATM   45  N   UNL     1     -16.885 -14.717  -2.390  1.00  0.00    -0.346 N 
HETATM   46  C   UNL     1     -16.501 -13.421  -2.172  1.00  0.00     0.122 C 
ATOM     47  HN  UNL     1     -17.012 -15.459  -1.702  1.00  0.00     0.167 HD
HETATM   48  C   UNL     1     -16.494 -12.675  -0.994  1.00  0.00     0.131 C 
HETATM   49  C   UNL     1     -16.215 -12.749  -3.359  1.00  0.00     0.142 C 
HETATM   50  N   UNL     1     -16.051 -11.418  -1.011  1.00  0.00    -0.337 N 
HETATM   51  C   UNL     1     -15.658 -10.916  -2.222  1.00  0.00     0.183 C 
ATOM     52  HN  UNL     1     -16.006 -10.856  -0.162  1.00  0.00     0.168 HD
HETATM   53  N   UNL     1     -15.752 -11.486  -3.452  1.00  0.00    -0.336 N 
ATOM     54  HN  UNL     1     -15.506 -11.022  -4.327  1.00  0.00     0.168 HD
BRANCH  48  55
HETATM   55  N   UNL     1     -17.081 -13.201   0.144  1.00  0.00    -0.383 N 
HETATM   56  H   UNL     1     -17.250 -14.202   0.142  1.00  0.00     0.157 HD
HETATM   57  H   UNL     1     -17.377 -12.612   0.902  1.00  0.00     0.157 HD
ENDBRANCH  48  55
ENDBRANCH  37  43
ENDBRANCH  33  34
ENDBRANCH  32  33
ENDBRANCH   1  32
TORSDOF 18
BEGIN_RES ARG D 557
REMARK  4 active torsions:
REMARK  status: ('A' for Active; 'I' for Inactive)
REMARK    1  A    between atoms: CA   and  CB  
REMARK    2  A    between atoms: CB   and  CG  
REMARK    3  A    between atoms: CG   and  CD  
REMARK    4  A    between atoms: CD   and  NE  
REMARK       I    between atoms: NE   and  CZ  
REMARK       I    between atoms: CZ   and  NH1 
REMARK       I    between atoms: CZ   and  NH2 
ROOT
ATOM      1  CA  ARG D 557     -26.217   2.705 -17.014  1.00 35.49     0.159 C 
ENDROOT
BRANCH   1   2
ATOM      2  CB  ARG D 557     -26.789   1.319 -17.183  1.00 35.49     0.034 C 
BRANCH   2   3
ATOM      3  CG  ARG D 557     -28.231   1.226 -17.441  1.00 35.49     0.027 C 
BRANCH   3   4
ATOM      4  CD  ARG D 557     -28.911   0.290 -16.517  1.00 35.49     0.116 C 
BRANCH   4   5
ATOM      5  NE  ARG D 557     -29.257  -0.951 -17.159  1.00 35.49    -0.212 N 
ATOM      6  CZ  ARG D 557     -28.612  -2.089 -17.030  1.00 35.49     0.666 C 
ATOM      7  NH1 ARG D 557     -27.532  -2.211 -16.281  1.00 35.49    -0.235 N 
ATOM      8  NH2 ARG D 557     -29.080  -3.120 -17.671  1.00 35.49    -0.235 N 
ATOM      9  HH  ARG D 557     -27.207  -1.546 -15.848  1.00 35.49     0.174 HD
ATOM     10  HH  ARG D 557     -27.155  -2.978 -16.232  1.00 35.49     0.174 HD
ATOM     11  HH  ARG D 557     -29.783  -3.013 -18.141  1.00 35.49     0.174 HD
ATOM     12  HH  ARG D 557     -28.693  -3.872 -17.609  1.00 35.49     0.174 HD
ATOM     13  HE  ARG D 557     -29.898  -0.946 -17.718  1.00 35.49     0.178 HD
ENDBRANCH   4   5
ENDBRANCH   3   4
ENDBRANCH   2   3
ENDBRANCH   1   2
END_RES ARG D 557
BEGIN_RES GLU D 570
REMARK  3 active torsions:
REMARK  status: ('A' for Active; 'I' for Inactive)
REMARK    5  A    between atoms: CA   and  CB  
REMARK    6  A    between atoms: CB   and  CG  
REMARK    7  A    between atoms: CG   and  CD  
ROOT
ATOM     14  CA  GLU D 570     -18.033  -6.348 -13.375  1.00 32.92     0.160 C 
ENDROOT
BRANCH  14  15
ATOM     15  CB  GLU D 570     -19.500  -6.345 -13.794  1.00 32.92     0.043 C 
BRANCH  15  16
ATOM     16  CG  GLU D 570     -20.045  -7.594 -14.386  1.00 32.92     0.100 C 
BRANCH  16  17
ATOM     17  CD  GLU D 570     -20.778  -7.358 -15.686  1.00 32.92     0.185 C 
ATOM     18  OE1 GLU D 570     -21.539  -8.244 -16.121  1.00 32.92    -0.647 OA
ATOM     19  OE2 GLU D 570     -20.576  -6.283 -16.285  1.00 32.92    -0.647 OA
ENDBRANCH  16  17
ENDBRANCH  15  16
ENDBRANCH  14  15
END_RES GLU D 570
ENDMDL
MODEL 9
REMARK VINA RESULT:      -7.2      2.446      4.760
REMARK  18 active torsions:
REMARK  status: ('A' for Active; 'I' for Inactive)
REMARK    1  A    between atoms: C_3  and  C_45 
REMARK    2  A    between atoms: N_5  and  C_7 
REMARK    3  A    between atoms: C_8  and  O_44 
REMARK    4  A    between atoms: C_9  and  O_43 
REMARK    5  A    between atoms: C_10  and  C_12 
REMARK    6  A    between atoms: C_12  and  O_13 
REMARK    7  A    between atoms: O_13  and  P_14 
REMARK    8  A    between atoms: P_14  and  O_16 
REMARK    9  A    between atoms: P_14  and  O_17 
REMARK   10  A    between atoms: O_17  and  P_18 
REMARK   11  A    between atoms: P_18  and  O_20 
REMARK   12  A    between atoms: P_18  and  O_21 
REMARK   13  A    between atoms: O_21  and  C_22 
REMARK   14  A    between atoms: C_22  and  C_23 
REMARK   15  A    between atoms: C_24  and  O_42 
REMARK   16  A    between atoms: C_25  and  O_41 
REMARK   17  A    between atoms: C_26  and  N_28 
REMARK   18  A    between atoms: C_33  and  N_40 
REMARK       I    between atoms: C_45  and  N_47 
ROOT
HETATM    1  P   UNL     1     -21.060  -7.469  -3.526  1.00  0.00     0.401 P 
HETATM    2  O   UNL     1     -21.937  -6.267  -3.903  1.00  0.00    -0.631 OA
ENDROOT
BRANCH   1   3
HETATM    3  O   UNL     1     -20.070  -7.080  -4.890  1.00  0.00    -0.195 OA
BRANCH   3   4
HETATM    4  P   UNL     1     -20.902  -5.952  -5.904  1.00  0.00     0.401 P 
HETATM    5  O   UNL     1     -20.132  -6.436  -7.131  1.00  0.00    -0.631 OA
BRANCH   4   6
HETATM    6  O   UNL     1     -21.734  -4.825  -6.919  1.00  0.00    -0.294 OA
BRANCH   6   7
HETATM    7  C   UNL     1     -21.586  -5.101  -8.308  1.00  0.00     0.215 C 
BRANCH   7   8
HETATM    8  C   UNL     1     -22.097  -3.922  -9.150  1.00  0.00     0.180 C 
HETATM    9  C   UNL     1     -23.566  -3.543  -8.946  1.00  0.00     0.182 C 
HETATM   10  C   UNL     1     -24.323  -4.210 -10.089  1.00  0.00     0.198 C 
HETATM   11  C   UNL     1     -23.222  -4.824 -10.954  1.00  0.00     0.259 C 
HETATM   12  O   UNL     1     -21.980  -4.213 -10.566  1.00  0.00    -0.353 OA
BRANCH   9  13
HETATM   13  O   UNL     1     -24.125  -3.824  -7.677  1.00  0.00    -0.390 OA
HETATM   14  H   UNL     1     -24.956  -4.340  -7.769  1.00  0.00     0.210 HD
ENDBRANCH   9  13
BRANCH  10  15
HETATM   15  O   UNL     1     -25.238  -5.205  -9.644  1.00  0.00    -0.388 OA
HETATM   16  H   UNL     1     -26.027  -4.739  -9.291  1.00  0.00     0.210 HD
ENDBRANCH  10  15
BRANCH  11  17
HETATM   17  N   UNL     1     -23.504  -4.666 -12.408  1.00  0.00    -0.336 N 
HETATM   18  C   UNL     1     -24.001  -3.475 -12.835  1.00  0.00     0.110 A 
HETATM   19  C   UNL     1     -24.450  -3.307 -14.146  1.00  0.00     0.047 A 
HETATM   20  C   UNL     1     -24.347  -4.373 -15.035  1.00  0.00     0.020 A 
HETATM   21  C   UNL     1     -23.805  -5.577 -14.591  1.00  0.00     0.018 A 
HETATM   22  C   UNL     1     -23.392  -5.706 -13.266  1.00  0.00     0.093 A 
BRANCH  19  23
HETATM   23  C   UNL     1     -25.040  -1.991 -14.478  1.00  0.00     0.250 C 
HETATM   24  O   UNL     1     -26.247  -1.902 -14.658  1.00  0.00    -0.268 OA
HETATM   25  N   UNL     1     -24.224  -0.904 -14.601  1.00  0.00    -0.366 N 
HETATM   26  H   UNL     1     -23.218  -0.889 -14.507  1.00  0.00     0.159 HD
HETATM   27  H   UNL     1     -24.664  -0.029 -14.860  1.00  0.00     0.159 HD
ENDBRANCH  19  23
ENDBRANCH  11  17
ENDBRANCH   7   8
ENDBRANCH   6   7
ENDBRANCH   4   6
BRANCH   4  28
HETATM   28  O   UNL     1     -20.082  -4.696  -5.266  1.00  0.00    -0.307 OA
HETATM   29  H   UNL     1     -20.412  -3.817  -5.540  1.00  0.00     0.222 HD
ENDBRANCH   4  28
ENDBRANCH   3   4
ENDBRANCH   1   3
BRANCH   1  30
HETATM   30  O   UNL     1     -21.623  -8.747  -4.378  1.00  0.00    -0.307 OA
HETATM   31  H   UNL     1     -21.604  -9.551  -3.828  1.00  0.00     0.222 HD
ENDBRANCH   1  30
BRANCH   1  32
HETATM   32  O   UNL     1     -22.050  -7.860  -2.162  1.00  0.00    -0.294 OA
BRANCH  32  33
HETATM   33  C   UNL     1     -21.304  -8.318  -1.025  1.00  0.00     0.215 C 
BRANCH  33  34
HETATM   34  C   UNL     1     -21.002  -9.779  -1.158  1.00  0.00     0.180 C 
HETATM   35  C   UNL     1     -21.144 -10.589   0.110  1.00  0.00     0.182 C 
HETATM   36  C   UNL     1     -20.153 -11.735  -0.120  1.00  0.00     0.198 C 
HETATM   37  C   UNL     1     -19.269 -11.264  -1.286  1.00  0.00     0.262 C 
HETATM   38  O   UNL     1     -19.638  -9.909  -1.561  1.00  0.00    -0.353 OA
BRANCH  35  39
HETATM   39  O   UNL     1     -22.484 -11.022   0.304  1.00  0.00    -0.390 OA
HETATM   40  H   UNL     1     -23.064 -10.272   0.074  1.00  0.00     0.210 HD
ENDBRANCH  35  39
BRANCH  36  41
HETATM   41  O   UNL     1     -20.765 -13.010  -0.222  1.00  0.00    -0.388 OA
HETATM   42  H   UNL     1     -20.286 -13.626   0.359  1.00  0.00     0.210 HD
ENDBRANCH  36  41
BRANCH  37  43
HETATM   43  N   UNL     1     -19.159 -11.906  -2.582  1.00  0.00    -0.297 N 
HETATM   44  C   UNL     1     -18.709 -13.223  -2.591  1.00  0.00     0.188 C 
HETATM   45  N   UNL     1     -17.942 -13.492  -3.615  1.00  0.00    -0.346 N 
HETATM   46  C   UNL     1     -17.832 -12.294  -4.267  1.00  0.00     0.122 C 
ATOM     47  HN  UNL     1     -17.524 -14.387  -3.869  1.00  0.00     0.167 HD
HETATM   48  C   UNL     1     -16.906 -11.876  -5.222  1.00  0.00     0.131 C 
HETATM   49  C   UNL     1     -18.714 -11.338  -3.766  1.00  0.00     0.142 C 
HETATM   50  N   UNL     1     -17.005 -10.653  -5.746  1.00  0.00    -0.337 N 
HETATM   51  C   UNL     1     -18.010  -9.856  -5.272  1.00  0.00     0.183 C 
ATOM     52  HN  UNL     1     -16.361 -10.328  -6.467  1.00  0.00     0.168 HD
HETATM   53  N   UNL     1     -18.876 -10.091  -4.252  1.00  0.00    -0.336 N 
ATOM     54  HN  UNL     1     -19.556  -9.416  -3.901  1.00  0.00     0.168 HD
BRANCH  48  55
HETATM   55  N   UNL     1     -15.816 -12.680  -5.506  1.00  0.00    -0.383 N 
HETATM   56  H   UNL     1     -15.584 -12.793  -6.488  1.00  0.00     0.157 HD
HETATM   57  H   UNL     1     -15.323 -13.171  -4.782  1.00  0.00     0.157 HD
ENDBRANCH  48  55
ENDBRANCH  37  43
ENDBRANCH  33  34
ENDBRANCH  32  33
ENDBRANCH   1  32
TORSDOF 18
BEGIN_RES ARG D 557
REMARK  4 active torsions:
REMARK  status: ('A' for Active; 'I' for Inactive)
REMARK    1  A    between atoms: CA   and  CB  
REMARK    2  A    between atoms: CB   and  CG  
REMARK    3  A    between atoms: CG   and  CD  
REMARK    4  A    between atoms: CD   and  NE  
REMARK       I    between atoms: NE   and  CZ  
REMARK       I    between atoms: CZ   and  NH1 
REMARK       I    between atoms: CZ   and  NH2 
ROOT
ATOM      1  CA  ARG D 557     -26.217   2.705 -17.014  1.00 35.49     0.159 C 
ENDROOT
BRANCH   1   2
ATOM      2  CB  ARG D 557     -26.789   1.319 -17.183  1.00 35.49     0.034 C 
BRANCH   2   3
ATOM      3  CG  ARG D 557     -28.225   1.228 -17.473  1.00 35.49     0.027 C 
BRANCH   3   4
ATOM      4  CD  ARG D 557     -28.931   0.314 -16.546  1.00 35.49     0.116 C 
BRANCH   4   5
ATOM      5  NE  ARG D 557     -28.258  -0.952 -16.415  1.00 35.49    -0.212 N 
ATOM      6  CZ  ARG D 557     -28.677  -2.099 -16.902  1.00 35.49     0.666 C 
ATOM      7  NH1 ARG D 557     -29.808  -2.213 -17.574  1.00 35.49    -0.235 N 
ATOM      8  NH2 ARG D 557     -27.927  -3.144 -16.706  1.00 35.49    -0.235 N 
ATOM      9  HH  ARG D 557     -30.316  -1.538 -17.716  1.00 35.49     0.174 HD
ATOM     10  HH  ARG D 557     -30.029  -2.986 -17.870  1.00 35.49     0.174 HD
ATOM     11  HH  ARG D 557     -27.199  -3.039 -16.276  1.00 35.49     0.174 HD
ATOM     12  HH  ARG D 557     -28.163  -3.900 -17.009  1.00 35.49     0.174 HD
ATOM     13  HE  ARG D 557     -27.557  -0.984 -15.935  1.00 35.49     0.178 HD
ENDBRANCH   4   5
ENDBRANCH   3   4
ENDBRANCH   2   3
ENDBRANCH   1   2
END_RES ARG D 557
BEGIN_RES GLU D 570
REMARK  3 active torsions:
REMARK  status: ('A' for Active; 'I' for Inactive)
REMARK    5  A    between atoms: CA   and  CB  
REMARK    6  A    between atoms: CB   and  CG  
REMARK    7  A    between atoms: CG   and  CD  
ROOT
ATOM     14  CA  GLU D 570     -18.033  -6.348 -13.375  1.00 32.92     0.160 C 
ENDROOT
BRANCH  14  15
ATOM     15  CB  GLU D 570     -19.500  -6.345 -13.794  1.00 32.92     0.043 C 
BRANCH  15  16
ATOM     16  CG  GLU D 570     -20.082  -7.631 -14.257  1.00 32.92     0.100 C 
BRANCH  16  17
ATOM     17  CD  GLU D 570     -20.725  -7.529 -15.621  1.00 32.92     0.185 C 
ATOM     18  OE1 GLU D 570     -21.199  -8.556 -16.144  1.00 32.92    -0.647 OA
ATOM     19  OE2 GLU D 570     -20.740  -6.414 -16.179  1.00 32.92    -0.647 OA
ENDBRANCH  16  17
ENDBRANCH  15  16
ENDBRANCH  14  15
END_RES GLU D 570
ENDMDL
