MODEL 1
REMARK VINA RESULT:      -7.4      0.000      0.000
REMARK  30 active torsions:
REMARK  status: ('A' for Active; 'I' for Inactive)
REMARK    1  A    between atoms: C_2  and  C_3 
REMARK    2  A    between atoms: C_3  and  C_4 
REMARK    3  A    between atoms: C_4  and  C_5 
REMARK    4  A    between atoms: C_5  and  C_6 
REMARK    5  A    between atoms: C_6  and  C_7 
REMARK    6  A    between atoms: C_7  and  C_8 
REMARK    7  A    between atoms: C_8  and  O_9 
REMARK    8  A    between atoms: O_9  and  C_10 
REMARK    9  A    between atoms: C_10  and  C_12 
REMARK   10  A    between atoms: C_12  and  C_13 
REMARK   11  A    between atoms: C_13  and  C_14 
REMARK   12  A    between atoms: C_13  and  C_26 
REMARK   13  A    between atoms: C_13  and  O_37 
REMARK   14  A    between atoms: C_14  and  C_15 
REMARK   15  A    between atoms: C_15  and  O_17 
REMARK   16  A    between atoms: O_17  and  C_18 
REMARK   17  A    between atoms: C_18  and  C_19 
REMARK   18  A    between atoms: C_19  and  C_20 
REMARK   19  A    between atoms: C_20  and  C_21 
REMARK   20  A    between atoms: C_21  and  C_22 
REMARK   21  A    between atoms: C_22  and  C_23 
REMARK   22  A    between atoms: C_23  and  C_24 
REMARK   23  A    between atoms: C_26  and  O_28 
REMARK   24  A    between atoms: O_28  and  C_29 
REMARK   25  A    between atoms: C_29  and  C_30 
REMARK   26  A    between atoms: C_30  and  C_31 
REMARK   27  A    between atoms: C_31  and  C_32 
REMARK   28  A    between atoms: C_32  and  C_33 
REMARK   29  A    between atoms: C_33  and  C_34 
REMARK   30  A    between atoms: C_34  and  C_35 
ROOT
HETATM    1  C   UNL     1     -23.894  -2.682 -13.526  1.00  0.00     0.162 C 
ENDROOT
BRANCH   1   2
HETATM    2  C   UNL     1     -22.881  -3.478 -14.374  1.00  0.00     0.160 C 
BRANCH   2   3
HETATM    3  C   UNL     1     -23.079  -4.966 -14.282  1.00  0.00     0.262 C 
HETATM    4  O   UNL     1     -22.930  -5.622 -13.262  1.00  0.00    -0.265 OA
BRANCH   3   5
HETATM    5  O   UNL     1     -23.400  -5.488 -15.501  1.00  0.00    -0.321 OA
BRANCH   5   6
HETATM    6  C   UNL     1     -24.169  -6.684 -15.387  1.00  0.00     0.178 C 
BRANCH   6   7
HETATM    7  C   UNL     1     -24.097  -7.516 -16.648  1.00  0.00     0.027 C 
BRANCH   7   8
HETATM    8  C   UNL     1     -24.840  -6.797 -17.770  1.00  0.00     0.002 C 
BRANCH   8   9
HETATM    9  C   UNL     1     -24.239  -7.144 -19.121  1.00  0.00     0.000 C 
BRANCH   9  10
HETATM   10  C   UNL     1     -25.250  -6.935 -20.243  1.00  0.00     0.000 C 
BRANCH  10  11
HETATM   11  C   UNL     1     -25.087  -8.016 -21.305  1.00  0.00    -0.000 C 
BRANCH  11  12
HETATM   12  C   UNL     1     -24.109  -7.584 -22.393  1.00  0.00    -0.005 C 
HETATM   13  C   UNL     1     -22.876  -8.470 -22.394  1.00  0.00     0.005 C 
ENDBRANCH  11  12
ENDBRANCH  10  11
ENDBRANCH   9  10
ENDBRANCH   8   9
ENDBRANCH   7   8
ENDBRANCH   6   7
ENDBRANCH   5   6
ENDBRANCH   3   5
ENDBRANCH   2   3
ENDBRANCH   1   2
BRANCH   1  14
HETATM   14  C   UNL     1     -25.358  -3.120 -13.635  1.00  0.00     0.160 C 
BRANCH  14  15
HETATM   15  C   UNL     1     -25.921  -2.732 -14.974  1.00  0.00     0.262 C 
HETATM   16  O   UNL     1     -26.135  -1.582 -15.300  1.00  0.00    -0.265 OA
BRANCH  15  17
HETATM   17  O   UNL     1     -26.268  -3.833 -15.699  1.00  0.00    -0.321 OA
BRANCH  17  18
HETATM   18  C   UNL     1     -26.993  -4.810 -14.934  1.00  0.00     0.178 C 
BRANCH  18  19
HETATM   19  C   UNL     1     -28.045  -5.505 -15.787  1.00  0.00     0.027 C 
BRANCH  19  20
HETATM   20  C   UNL     1     -27.825  -7.019 -15.810  1.00  0.00     0.002 C 
BRANCH  20  21
HETATM   21  C   UNL     1     -28.990  -7.737 -16.489  1.00  0.00     0.000 C 
BRANCH  21  22
HETATM   22  C   UNL     1     -29.588  -6.892 -17.615  1.00  0.00     0.000 C 
BRANCH  22  23
HETATM   23  C   UNL     1     -31.067  -6.610 -17.360  1.00  0.00    -0.000 C 
BRANCH  23  24
HETATM   24  C   UNL     1     -31.261  -5.327 -16.557  1.00  0.00    -0.005 C 
HETATM   25  C   UNL     1     -32.579  -4.657 -16.908  1.00  0.00     0.005 C 
ENDBRANCH  23  24
ENDBRANCH  22  23
ENDBRANCH  21  22
ENDBRANCH  20  21
ENDBRANCH  19  20
ENDBRANCH  18  19
ENDBRANCH  17  18
ENDBRANCH  15  17
ENDBRANCH  14  15
ENDBRANCH   1  14
BRANCH   1  26
HETATM   26  C   UNL     1     -23.470  -2.687 -12.037  1.00  0.00     0.294 C 
HETATM   27  O   UNL     1     -22.336  -2.492 -11.634  1.00  0.00    -0.262 OA
BRANCH  26  28
HETATM   28  O   UNL     1     -24.519  -3.072 -11.245  1.00  0.00    -0.319 OA
BRANCH  28  29
HETATM   29  C   UNL     1     -24.234  -3.198  -9.841  1.00  0.00     0.178 C 
BRANCH  29  30
HETATM   30  C   UNL     1     -23.522  -4.519  -9.570  1.00  0.00     0.027 C 
BRANCH  30  31
HETATM   31  C   UNL     1     -22.489  -4.383  -8.452  1.00  0.00     0.002 C 
BRANCH  31  32
HETATM   32  C   UNL     1     -21.065  -4.615  -8.961  1.00  0.00     0.000 C 
BRANCH  32  33
HETATM   33  C   UNL     1     -20.201  -5.275  -7.884  1.00  0.00     0.000 C 
BRANCH  33  34
HETATM   34  C   UNL     1     -20.272  -4.506  -6.565  1.00  0.00    -0.000 C 
BRANCH  34  35
HETATM   35  C   UNL     1     -20.644  -5.428  -5.403  1.00  0.00    -0.005 C 
HETATM   36  C   UNL     1     -20.981  -6.825  -5.899  1.00  0.00     0.005 C 
ENDBRANCH  34  35
ENDBRANCH  33  34
ENDBRANCH  32  33
ENDBRANCH  31  32
ENDBRANCH  30  31
ENDBRANCH  29  30
ENDBRANCH  28  29
ENDBRANCH  26  28
ENDBRANCH   1  26
BRANCH   1  37
HETATM   37  O   UNL     1     -23.829  -1.304 -13.939  1.00  0.00    -0.379 OA
HETATM   38  H   UNL     1     -24.059  -0.733 -13.178  1.00  0.00     0.211 HD
ENDBRANCH   1  37
TORSDOF 30
BEGIN_RES ARG D 557
REMARK  4 active torsions:
REMARK  status: ('A' for Active; 'I' for Inactive)
REMARK    1  A    between atoms: CA   and  CB  
REMARK    2  A    between atoms: CB   and  CG  
REMARK    3  A    between atoms: CG   and  CD  
REMARK    4  A    between atoms: CD   and  NE  
REMARK       I    between atoms: NE   and  CZ  
REMARK       I    between atoms: CZ   and  NH1 
REMARK       I    between atoms: CZ   and  NH2 
ROOT
ATOM      1  CA  ARG D 557     -26.217   2.705 -17.014  1.00 35.49     0.159 C 
ENDROOT
BRANCH   1   2
ATOM      2  CB  ARG D 557     -26.789   1.319 -17.183  1.00 35.49     0.034 C 
BRANCH   2   3
ATOM      3  CG  ARG D 557     -28.238   1.224 -17.401  1.00 35.49     0.027 C 
BRANCH   3   4
ATOM      4  CD  ARG D 557     -28.867   0.179 -16.563  1.00 35.49     0.116 C 
BRANCH   4   5
ATOM      5  NE  ARG D 557     -28.407  -1.141 -16.905  1.00 35.49    -0.212 N 
ATOM      6  CZ  ARG D 557     -29.162  -2.135 -17.318  1.00 35.49     0.666 C 
ATOM      7  NH1 ARG D 557     -30.470  -2.023 -17.453  1.00 35.49    -0.235 N 
ATOM      8  NH2 ARG D 557     -28.571  -3.258 -17.605  1.00 35.49    -0.235 N 
ATOM      9  HH  ARG D 557     -30.880  -1.292 -17.272  1.00 35.49     0.174 HD
ATOM     10  HH  ARG D 557     -30.911  -2.704 -17.729  1.00 35.49     0.174 HD
ATOM     11  HH  ARG D 557     -27.724  -3.299 -17.515  1.00 35.49     0.174 HD
ATOM     12  HH  ARG D 557     -29.024  -3.921 -17.878  1.00 35.49     0.174 HD
ATOM     13  HE  ARG D 557     -27.586  -1.323 -16.778  1.00 35.49     0.178 HD
ENDBRANCH   4   5
ENDBRANCH   3   4
ENDBRANCH   2   3
ENDBRANCH   1   2
END_RES ARG D 557
BEGIN_RES GLU D 570
REMARK  3 active torsions:
REMARK  status: ('A' for Active; 'I' for Inactive)
REMARK    5  A    between atoms: CA   and  CB  
REMARK    6  A    between atoms: CB   and  CG  
REMARK    7  A    between atoms: CG   and  CD  
ROOT
ATOM     14  CA  GLU D 570     -18.033  -6.348 -13.375  1.00 32.92     0.160 C 
ENDROOT
BRANCH  14  15
ATOM     15  CB  GLU D 570     -19.500  -6.345 -13.794  1.00 32.92     0.043 C 
BRANCH  15  16
ATOM     16  CG  GLU D 570     -20.086  -7.634 -14.242  1.00 32.92     0.100 C 
BRANCH  16  17
ATOM     17  CD  GLU D 570     -20.509  -7.617 -15.693  1.00 32.92     0.185 C 
ATOM     18  OE1 GLU D 570     -20.516  -6.533 -16.308  1.00 32.92    -0.647 OA
ATOM     19  OE2 GLU D 570     -20.853  -8.696 -16.215  1.00 32.92    -0.647 OA
ENDBRANCH  16  17
ENDBRANCH  15  16
ENDBRANCH  14  15
END_RES GLU D 570
ENDMDL
MODEL 2
REMARK VINA RESULT:      -7.2      2.067      8.639
REMARK  30 active torsions:
REMARK  status: ('A' for Active; 'I' for Inactive)
REMARK    1  A    between atoms: C_2  and  C_3 
REMARK    2  A    between atoms: C_3  and  C_4 
REMARK    3  A    between atoms: C_4  and  C_5 
REMARK    4  A    between atoms: C_5  and  C_6 
REMARK    5  A    between atoms: C_6  and  C_7 
REMARK    6  A    between atoms: C_7  and  C_8 
REMARK    7  A    between atoms: C_8  and  O_9 
REMARK    8  A    between atoms: O_9  and  C_10 
REMARK    9  A    between atoms: C_10  and  C_12 
REMARK   10  A    between atoms: C_12  and  C_13 
REMARK   11  A    between atoms: C_13  and  C_14 
REMARK   12  A    between atoms: C_13  and  C_26 
REMARK   13  A    between atoms: C_13  and  O_37 
REMARK   14  A    between atoms: C_14  and  C_15 
REMARK   15  A    between atoms: C_15  and  O_17 
REMARK   16  A    between atoms: O_17  and  C_18 
REMARK   17  A    between atoms: C_18  and  C_19 
REMARK   18  A    between atoms: C_19  and  C_20 
REMARK   19  A    between atoms: C_20  and  C_21 
REMARK   20  A    between atoms: C_21  and  C_22 
REMARK   21  A    between atoms: C_22  and  C_23 
REMARK   22  A    between atoms: C_23  and  C_24 
REMARK   23  A    between atoms: C_26  and  O_28 
REMARK   24  A    between atoms: O_28  and  C_29 
REMARK   25  A    between atoms: C_29  and  C_30 
REMARK   26  A    between atoms: C_30  and  C_31 
REMARK   27  A    between atoms: C_31  and  C_32 
REMARK   28  A    between atoms: C_32  and  C_33 
REMARK   29  A    between atoms: C_33  and  C_34 
REMARK   30  A    between atoms: C_34  and  C_35 
ROOT
HETATM    1  C   UNL     1     -23.064  -4.365 -12.335  1.00  0.00     0.162 C 
ENDROOT
BRANCH   1   2
HETATM    2  C   UNL     1     -22.785  -4.771 -10.875  1.00  0.00     0.160 C 
BRANCH   2   3
HETATM    3  C   UNL     1     -21.437  -4.317 -10.386  1.00  0.00     0.262 C 
HETATM    4  O   UNL     1     -20.377  -4.590 -10.928  1.00  0.00    -0.265 OA
BRANCH   3   5
HETATM    5  O   UNL     1     -21.557  -3.602  -9.230  1.00  0.00    -0.321 OA
BRANCH   5   6
HETATM    6  C   UNL     1     -22.707  -3.986  -8.478  1.00  0.00     0.178 C 
BRANCH   6   7
HETATM    7  C   UNL     1     -22.329  -4.518  -7.114  1.00  0.00     0.027 C 
BRANCH   7   8
HETATM    8  C   UNL     1     -20.956  -3.979  -6.724  1.00  0.00     0.002 C 
BRANCH   8   9
HETATM    9  C   UNL     1     -20.030  -5.112  -6.315  1.00  0.00     0.000 C 
BRANCH   9  10
HETATM   10  C   UNL     1     -20.776  -6.441  -6.263  1.00  0.00     0.000 C 
BRANCH  10  11
HETATM   11  C   UNL     1     -20.719  -7.021  -4.855  1.00  0.00    -0.000 C 
BRANCH  11  12
HETATM   12  C   UNL     1     -21.956  -6.645  -4.047  1.00  0.00    -0.005 C 
HETATM   13  C   UNL     1     -21.572  -6.197  -2.648  1.00  0.00     0.005 C 
ENDBRANCH  11  12
ENDBRANCH  10  11
ENDBRANCH   9  10
ENDBRANCH   8   9
ENDBRANCH   7   8
ENDBRANCH   6   7
ENDBRANCH   5   6
ENDBRANCH   3   5
ENDBRANCH   2   3
ENDBRANCH   1   2
BRANCH   1  14
HETATM   14  C   UNL     1     -23.060  -5.500 -13.365  1.00  0.00     0.160 C 
BRANCH  14  15
HETATM   15  C   UNL     1     -22.867  -4.948 -14.750  1.00  0.00     0.262 C 
HETATM   16  O   UNL     1     -22.082  -4.060 -15.011  1.00  0.00    -0.265 OA
BRANCH  15  17
HETATM   17  O   UNL     1     -23.769  -5.482 -15.622  1.00  0.00    -0.321 OA
BRANCH  17  18
HETATM   18  C   UNL     1     -24.028  -6.876 -15.387  1.00  0.00     0.178 C 
BRANCH  18  19
HETATM   19  C   UNL     1     -24.132  -7.644 -16.697  1.00  0.00     0.027 C 
BRANCH  19  20
HETATM   20  C   UNL     1     -24.949  -6.865 -17.731  1.00  0.00     0.002 C 
BRANCH  20  21
HETATM   21  C   UNL     1     -24.341  -6.995 -19.127  1.00  0.00     0.000 C 
BRANCH  21  22
HETATM   22  C   UNL     1     -25.394  -6.785 -20.215  1.00  0.00     0.000 C 
BRANCH  22  23
HETATM   23  C   UNL     1     -25.466  -7.994 -21.147  1.00  0.00    -0.000 C 
BRANCH  23  24
HETATM   24  C   UNL     1     -24.090  -8.350 -21.706  1.00  0.00    -0.005 C 
HETATM   25  C   UNL     1     -23.740  -7.469 -22.894  1.00  0.00     0.005 C 
ENDBRANCH  23  24
ENDBRANCH  22  23
ENDBRANCH  21  22
ENDBRANCH  20  21
ENDBRANCH  19  20
ENDBRANCH  18  19
ENDBRANCH  17  18
ENDBRANCH  15  17
ENDBRANCH  14  15
ENDBRANCH   1  14
BRANCH   1  26
HETATM   26  C   UNL     1     -24.401  -3.592 -12.432  1.00  0.00     0.294 C 
HETATM   27  O   UNL     1     -24.945  -3.017 -11.505  1.00  0.00    -0.262 OA
BRANCH  26  28
HETATM   28  O   UNL     1     -24.957  -3.756 -13.674  1.00  0.00    -0.319 OA
BRANCH  28  29
HETATM   29  C   UNL     1     -26.158  -3.008 -13.930  1.00  0.00     0.178 C 
BRANCH  29  30
HETATM   30  C   UNL     1     -26.355  -2.836 -15.432  1.00  0.00     0.027 C 
BRANCH  30  31
HETATM   31  C   UNL     1     -27.467  -3.742 -15.962  1.00  0.00     0.002 C 
BRANCH  31  32
HETATM   32  C   UNL     1     -27.299  -5.187 -15.488  1.00  0.00     0.000 C 
BRANCH  32  33
HETATM   33  C   UNL     1     -28.228  -6.126 -16.260  1.00  0.00     0.000 C 
BRANCH  33  34
HETATM   34  C   UNL     1     -28.447  -5.639 -17.692  1.00  0.00    -0.000 C 
BRANCH  34  35
HETATM   35  C   UNL     1     -29.491  -6.492 -18.415  1.00  0.00    -0.005 C 
HETATM   36  C   UNL     1     -30.560  -6.981 -17.452  1.00  0.00     0.005 C 
ENDBRANCH  34  35
ENDBRANCH  33  34
ENDBRANCH  32  33
ENDBRANCH  31  32
ENDBRANCH  30  31
ENDBRANCH  29  30
ENDBRANCH  28  29
ENDBRANCH  26  28
ENDBRANCH   1  26
BRANCH   1  37
HETATM   37  O   UNL     1     -22.048  -3.424 -12.733  1.00  0.00    -0.379 OA
HETATM   38  H   UNL     1     -22.002  -2.706 -12.069  1.00  0.00     0.211 HD
ENDBRANCH   1  37
TORSDOF 30
BEGIN_RES ARG D 557
REMARK  4 active torsions:
REMARK  status: ('A' for Active; 'I' for Inactive)
REMARK    1  A    between atoms: CA   and  CB  
REMARK    2  A    between atoms: CB   and  CG  
REMARK    3  A    between atoms: CG   and  CD  
REMARK    4  A    between atoms: CD   and  NE  
REMARK       I    between atoms: NE   and  CZ  
REMARK       I    between atoms: CZ   and  NH1 
REMARK       I    between atoms: CZ   and  NH2 
ROOT
ATOM      1  CA  ARG D 557     -26.217   2.705 -17.014  1.00 35.49     0.159 C 
ENDROOT
BRANCH   1   2
ATOM      2  CB  ARG D 557     -26.789   1.319 -17.183  1.00 35.49     0.034 C 
BRANCH   2   3
ATOM      3  CG  ARG D 557     -25.827   0.215 -17.283  1.00 35.49     0.027 C 
BRANCH   3   4
ATOM      4  CD  ARG D 557     -24.496   0.575 -16.741  1.00 35.49     0.116 C 
BRANCH   4   5
ATOM      5  NE  ARG D 557     -24.290   0.051 -15.417  1.00 35.49    -0.212 N 
ATOM      6  CZ  ARG D 557     -23.401  -0.856 -15.080  1.00 35.49     0.666 C 
ATOM      7  NH1 ARG D 557     -22.585  -1.410 -15.957  1.00 35.49    -0.235 N 
ATOM      8  NH2 ARG D 557     -23.338  -1.198 -13.826  1.00 35.49    -0.235 N 
ATOM      9  HH  ARG D 557     -22.607  -1.198 -16.787  1.00 35.49     0.174 HD
ATOM     10  HH  ARG D 557     -22.024  -1.994 -15.679  1.00 35.49     0.174 HD
ATOM     11  HH  ARG D 557     -23.872  -0.818 -13.280  1.00 35.49     0.174 HD
ATOM     12  HH  ARG D 557     -22.774  -1.777 -13.569  1.00 35.49     0.174 HD
ATOM     13  HE  ARG D 557     -24.821   0.300 -14.802  1.00 35.49     0.178 HD
ENDBRANCH   4   5
ENDBRANCH   3   4
ENDBRANCH   2   3
ENDBRANCH   1   2
END_RES ARG D 557
BEGIN_RES GLU D 570
REMARK  3 active torsions:
REMARK  status: ('A' for Active; 'I' for Inactive)
REMARK    5  A    between atoms: CA   and  CB  
REMARK    6  A    between atoms: CB   and  CG  
REMARK    7  A    between atoms: CG   and  CD  
ROOT
ATOM     14  CA  GLU D 570     -18.033  -6.348 -13.375  1.00 32.92     0.160 C 
ENDROOT
BRANCH  14  15
ATOM     15  CB  GLU D 570     -19.500  -6.345 -13.794  1.00 32.92     0.043 C 
BRANCH  15  16
ATOM     16  CG  GLU D 570     -20.101  -7.645 -14.190  1.00 32.92     0.100 C 
BRANCH  16  17
ATOM     17  CD  GLU D 570     -20.475  -7.700 -15.653  1.00 32.92     0.185 C 
ATOM     18  OE1 GLU D 570     -20.723  -8.804 -16.173  1.00 32.92    -0.647 OA
ATOM     19  OE2 GLU D 570     -20.504  -6.628 -16.290  1.00 32.92    -0.647 OA
ENDBRANCH  16  17
ENDBRANCH  15  16
ENDBRANCH  14  15
END_RES GLU D 570
ENDMDL
MODEL 3
REMARK VINA RESULT:      -7.2      1.280      2.128
REMARK  30 active torsions:
REMARK  status: ('A' for Active; 'I' for Inactive)
REMARK    1  A    between atoms: C_2  and  C_3 
REMARK    2  A    between atoms: C_3  and  C_4 
REMARK    3  A    between atoms: C_4  and  C_5 
REMARK    4  A    between atoms: C_5  and  C_6 
REMARK    5  A    between atoms: C_6  and  C_7 
REMARK    6  A    between atoms: C_7  and  C_8 
REMARK    7  A    between atoms: C_8  and  O_9 
REMARK    8  A    between atoms: O_9  and  C_10 
REMARK    9  A    between atoms: C_10  and  C_12 
REMARK   10  A    between atoms: C_12  and  C_13 
REMARK   11  A    between atoms: C_13  and  C_14 
REMARK   12  A    between atoms: C_13  and  C_26 
REMARK   13  A    between atoms: C_13  and  O_37 
REMARK   14  A    between atoms: C_14  and  C_15 
REMARK   15  A    between atoms: C_15  and  O_17 
REMARK   16  A    between atoms: O_17  and  C_18 
REMARK   17  A    between atoms: C_18  and  C_19 
REMARK   18  A    between atoms: C_19  and  C_20 
REMARK   19  A    between atoms: C_20  and  C_21 
REMARK   20  A    between atoms: C_21  and  C_22 
REMARK   21  A    between atoms: C_22  and  C_23 
REMARK   22  A    between atoms: C_23  and  C_24 
REMARK   23  A    between atoms: C_26  and  O_28 
REMARK   24  A    between atoms: O_28  and  C_29 
REMARK   25  A    between atoms: C_29  and  C_30 
REMARK   26  A    between atoms: C_30  and  C_31 
REMARK   27  A    between atoms: C_31  and  C_32 
REMARK   28  A    between atoms: C_32  and  C_33 
REMARK   29  A    between atoms: C_33  and  C_34 
REMARK   30  A    between atoms: C_34  and  C_35 
ROOT
HETATM    1  C   UNL     1     -23.605  -3.987 -12.469  1.00  0.00     0.162 C 
ENDROOT
BRANCH   1   2
HETATM    2  C   UNL     1     -23.201  -5.236 -13.278  1.00  0.00     0.160 C 
BRANCH   2   3
HETATM    3  C   UNL     1     -22.638  -4.901 -14.632  1.00  0.00     0.262 C 
HETATM    4  O   UNL     1     -21.701  -4.140 -14.823  1.00  0.00    -0.265 OA
BRANCH   3   5
HETATM    5  O   UNL     1     -23.347  -5.523 -15.619  1.00  0.00    -0.321 OA
BRANCH   5   6
HETATM    6  C   UNL     1     -23.874  -6.778 -15.191  1.00  0.00     0.178 C 
BRANCH   6   7
HETATM    7  C   UNL     1     -24.316  -7.625 -16.363  1.00  0.00     0.027 C 
BRANCH   7   8
HETATM    8  C   UNL     1     -23.637  -7.124 -17.633  1.00  0.00     0.002 C 
BRANCH   8   9
HETATM    9  C   UNL     1     -24.627  -7.066 -18.784  1.00  0.00     0.000 C 
BRANCH   9  10
HETATM   10  C   UNL     1     -24.026  -7.655 -20.056  1.00  0.00     0.000 C 
BRANCH  10  11
HETATM   11  C   UNL     1     -25.020  -7.545 -21.206  1.00  0.00    -0.000 C 
BRANCH  11  12
HETATM   12  C   UNL     1     -26.448  -7.388 -20.694  1.00  0.00    -0.005 C 
HETATM   13  C   UNL     1     -27.326  -8.527 -21.182  1.00  0.00     0.005 C 
ENDBRANCH  11  12
ENDBRANCH  10  11
ENDBRANCH   9  10
ENDBRANCH   8   9
ENDBRANCH   7   8
ENDBRANCH   6   7
ENDBRANCH   5   6
ENDBRANCH   3   5
ENDBRANCH   2   3
ENDBRANCH   1   2
BRANCH   1  14
HETATM   14  C   UNL     1     -24.869  -3.258 -12.936  1.00  0.00     0.160 C 
BRANCH  14  15
HETATM   15  C   UNL     1     -24.611  -2.547 -14.235  1.00  0.00     0.262 C 
HETATM   16  O   UNL     1     -23.901  -1.567 -14.330  1.00  0.00    -0.265 OA
BRANCH  15  17
HETATM   17  O   UNL     1     -25.372  -3.067 -15.239  1.00  0.00    -0.321 OA
BRANCH  17  18
HETATM   18  C   UNL     1     -26.304  -4.063 -14.787  1.00  0.00     0.178 C 
BRANCH  18  19
HETATM   19  C   UNL     1     -26.995  -4.743 -15.962  1.00  0.00     0.027 C 
BRANCH  19  20
HETATM   20  C   UNL     1     -27.563  -6.104 -15.555  1.00  0.00     0.002 C 
BRANCH  20  21
HETATM   21  C   UNL     1     -29.013  -5.981 -15.088  1.00  0.00     0.000 C 
BRANCH  21  22
HETATM   22  C   UNL     1     -29.878  -5.276 -16.133  1.00  0.00     0.000 C 
BRANCH  22  23
HETATM   23  C   UNL     1     -30.602  -6.290 -17.017  1.00  0.00    -0.000 C 
BRANCH  23  24
HETATM   24  C   UNL     1     -29.802  -6.600 -18.280  1.00  0.00    -0.005 C 
HETATM   25  C   UNL     1     -30.025  -8.035 -18.728  1.00  0.00     0.005 C 
ENDBRANCH  23  24
ENDBRANCH  22  23
ENDBRANCH  21  22
ENDBRANCH  20  21
ENDBRANCH  19  20
ENDBRANCH  18  19
ENDBRANCH  17  18
ENDBRANCH  15  17
ENDBRANCH  14  15
ENDBRANCH   1  14
BRANCH   1  26
HETATM   26  C   UNL     1     -23.745  -4.342 -10.969  1.00  0.00     0.294 C 
HETATM   27  O   UNL     1     -24.771  -4.233 -10.319  1.00  0.00    -0.262 OA
BRANCH  26  28
HETATM   28  O   UNL     1     -22.524  -4.668 -10.441  1.00  0.00    -0.319 OA
BRANCH  28  29
HETATM   29  C   UNL     1     -22.316  -4.304  -9.065  1.00  0.00     0.178 C 
BRANCH  29  30
HETATM   30  C   UNL     1     -20.937  -4.767  -8.606  1.00  0.00     0.027 C 
BRANCH  30  31
HETATM   31  C   UNL     1     -20.415  -3.918  -7.448  1.00  0.00     0.002 C 
BRANCH  31  32
HETATM   32  C   UNL     1     -20.504  -4.659  -6.113  1.00  0.00     0.000 C 
BRANCH  32  33
HETATM   33  C   UNL     1     -20.740  -6.154  -6.334  1.00  0.00     0.000 C 
BRANCH  33  34
HETATM   34  C   UNL     1     -20.648  -6.934  -5.022  1.00  0.00    -0.000 C 
BRANCH  34  35
HETATM   35  C   UNL     1     -21.912  -6.759  -4.181  1.00  0.00    -0.005 C 
HETATM   36  C   UNL     1     -21.583  -6.205  -2.804  1.00  0.00     0.005 C 
ENDBRANCH  34  35
ENDBRANCH  33  34
ENDBRANCH  32  33
ENDBRANCH  31  32
ENDBRANCH  30  31
ENDBRANCH  29  30
ENDBRANCH  28  29
ENDBRANCH  26  28
ENDBRANCH   1  26
BRANCH   1  37
HETATM   37  O   UNL     1     -22.518  -3.045 -12.540  1.00  0.00    -0.379 OA
HETATM   38  H   UNL     1     -22.843  -2.215 -12.945  1.00  0.00     0.211 HD
ENDBRANCH   1  37
TORSDOF 30
BEGIN_RES ARG D 557
REMARK  4 active torsions:
REMARK  status: ('A' for Active; 'I' for Inactive)
REMARK    1  A    between atoms: CA   and  CB  
REMARK    2  A    between atoms: CB   and  CG  
REMARK    3  A    between atoms: CG   and  CD  
REMARK    4  A    between atoms: CD   and  NE  
REMARK       I    between atoms: NE   and  CZ  
REMARK       I    between atoms: CZ   and  NH1 
REMARK       I    between atoms: CZ   and  NH2 
ROOT
ATOM      1  CA  ARG D 557     -26.217   2.705 -17.014  1.00 35.49     0.159 C 
ENDROOT
BRANCH   1   2
ATOM      2  CB  ARG D 557     -26.789   1.319 -17.183  1.00 35.49     0.034 C 
BRANCH   2   3
ATOM      3  CG  ARG D 557     -26.051   0.218 -16.552  1.00 35.49     0.027 C 
BRANCH   3   4
ATOM      4  CD  ARG D 557     -26.921  -0.637 -15.712  1.00 35.49     0.116 C 
BRANCH   4   5
ATOM      5  NE  ARG D 557     -27.716  -1.541 -16.500  1.00 35.49    -0.212 N 
ATOM      6  CZ  ARG D 557     -28.950  -1.329 -16.901  1.00 35.49     0.666 C 
ATOM      7  NH1 ARG D 557     -29.615  -0.230 -16.598  1.00 35.49    -0.235 N 
ATOM      8  NH2 ARG D 557     -29.511  -2.251 -17.628  1.00 35.49    -0.235 N 
ATOM      9  HH  ARG D 557     -29.264   0.391 -16.122  1.00 35.49     0.174 HD
ATOM     10  HH  ARG D 557     -30.416  -0.146 -16.889  1.00 35.49     0.174 HD
ATOM     11  HH  ARG D 557     -29.055  -2.947 -17.814  1.00 35.49     0.174 HD
ATOM     12  HH  ARG D 557     -30.305  -2.149 -17.908  1.00 35.49     0.174 HD
ATOM     13  HE  ARG D 557     -27.391  -2.306 -16.680  1.00 35.49     0.178 HD
ENDBRANCH   4   5
ENDBRANCH   3   4
ENDBRANCH   2   3
ENDBRANCH   1   2
END_RES ARG D 557
BEGIN_RES GLU D 570
REMARK  3 active torsions:
REMARK  status: ('A' for Active; 'I' for Inactive)
REMARK    5  A    between atoms: CA   and  CB  
REMARK    6  A    between atoms: CB   and  CG  
REMARK    7  A    between atoms: CG   and  CD  
ROOT
ATOM     14  CA  GLU D 570     -18.033  -6.348 -13.375  1.00 32.92     0.160 C 
ENDROOT
BRANCH  14  15
ATOM     15  CB  GLU D 570     -19.500  -6.345 -13.794  1.00 32.92     0.043 C 
BRANCH  15  16
ATOM     16  CG  GLU D 570     -20.097  -7.642 -14.206  1.00 32.92     0.100 C 
BRANCH  16  17
ATOM     17  CD  GLU D 570     -20.431  -7.695 -15.679  1.00 32.92     0.185 C 
ATOM     18  OE1 GLU D 570     -20.807  -8.774 -16.176  1.00 32.92    -0.647 OA
ATOM     19  OE2 GLU D 570     -20.300  -6.650 -16.346  1.00 32.92    -0.647 OA
ENDBRANCH  16  17
ENDBRANCH  15  16
ENDBRANCH  14  15
END_RES GLU D 570
ENDMDL
MODEL 4
REMARK VINA RESULT:      -7.0      6.265     12.502
REMARK  30 active torsions:
REMARK  status: ('A' for Active; 'I' for Inactive)
REMARK    1  A    between atoms: C_2  and  C_3 
REMARK    2  A    between atoms: C_3  and  C_4 
REMARK    3  A    between atoms: C_4  and  C_5 
REMARK    4  A    between atoms: C_5  and  C_6 
REMARK    5  A    between atoms: C_6  and  C_7 
REMARK    6  A    between atoms: C_7  and  C_8 
REMARK    7  A    between atoms: C_8  and  O_9 
REMARK    8  A    between atoms: O_9  and  C_10 
REMARK    9  A    between atoms: C_10  and  C_12 
REMARK   10  A    between atoms: C_12  and  C_13 
REMARK   11  A    between atoms: C_13  and  C_14 
REMARK   12  A    between atoms: C_13  and  C_26 
REMARK   13  A    between atoms: C_13  and  O_37 
REMARK   14  A    between atoms: C_14  and  C_15 
REMARK   15  A    between atoms: C_15  and  O_17 
REMARK   16  A    between atoms: O_17  and  C_18 
REMARK   17  A    between atoms: C_18  and  C_19 
REMARK   18  A    between atoms: C_19  and  C_20 
REMARK   19  A    between atoms: C_20  and  C_21 
REMARK   20  A    between atoms: C_21  and  C_22 
REMARK   21  A    between atoms: C_22  and  C_23 
REMARK   22  A    between atoms: C_23  and  C_24 
REMARK   23  A    between atoms: C_26  and  O_28 
REMARK   24  A    between atoms: O_28  and  C_29 
REMARK   25  A    between atoms: C_29  and  C_30 
REMARK   26  A    between atoms: C_30  and  C_31 
REMARK   27  A    between atoms: C_31  and  C_32 
REMARK   28  A    between atoms: C_32  and  C_33 
REMARK   29  A    between atoms: C_33  and  C_34 
REMARK   30  A    between atoms: C_34  and  C_35 
ROOT
HETATM    1  C   UNL     1     -21.039  -8.176  -3.779  1.00  0.00     0.162 C 
ENDROOT
BRANCH   1   2
HETATM    2  C   UNL     1     -20.741  -7.151  -2.667  1.00  0.00     0.160 C 
BRANCH   2   3
HETATM    3  C   UNL     1     -21.801  -7.116  -1.601  1.00  0.00     0.262 C 
HETATM    4  O   UNL     1     -22.690  -6.281  -1.536  1.00  0.00    -0.265 OA
BRANCH   3   5
HETATM    5  O   UNL     1     -21.605  -8.114  -0.690  1.00  0.00    -0.321 OA
BRANCH   5   6
HETATM    6  C   UNL     1     -22.609  -8.119   0.324  1.00  0.00     0.178 C 
BRANCH   6   7
HETATM    7  C   UNL     1     -23.487  -9.348   0.231  1.00  0.00     0.027 C 
BRANCH   7   8
HETATM    8  C   UNL     1     -22.742 -10.446  -0.521  1.00  0.00     0.002 C 
BRANCH   8   9
HETATM    9  C   UNL     1     -21.959 -11.321   0.442  1.00  0.00     0.000 C 
BRANCH   9  10
HETATM   10  C   UNL     1     -22.728 -12.593   0.780  1.00  0.00     0.000 C 
BRANCH  10  11
HETATM   11  C   UNL     1     -21.781 -13.647   1.341  1.00  0.00    -0.000 C 
BRANCH  11  12
HETATM   12  C   UNL     1     -22.360 -14.308   2.587  1.00  0.00    -0.005 C 
HETATM   13  C   UNL     1     -23.878 -14.262   2.567  1.00  0.00     0.005 C 
ENDBRANCH  11  12
ENDBRANCH  10  11
ENDBRANCH   9  10
ENDBRANCH   8   9
ENDBRANCH   7   8
ENDBRANCH   6   7
ENDBRANCH   5   6
ENDBRANCH   3   5
ENDBRANCH   2   3
ENDBRANCH   1   2
BRANCH   1  14
HETATM   14  C   UNL     1     -21.060  -7.631  -5.212  1.00  0.00     0.160 C 
BRANCH  14  15
HETATM   15  C   UNL     1     -21.871  -6.367  -5.279  1.00  0.00     0.262 C 
HETATM   16  O   UNL     1     -23.021  -6.291  -4.897  1.00  0.00    -0.265 OA
BRANCH  15  17
HETATM   17  O   UNL     1     -21.192  -5.382  -5.930  1.00  0.00    -0.321 OA
BRANCH  17  18
HETATM   18  C   UNL     1     -20.113  -5.876  -6.741  1.00  0.00     0.178 C 
BRANCH  18  19
HETATM   19  C   UNL     1     -19.139  -4.762  -7.100  1.00  0.00     0.027 C 
BRANCH  19  20
HETATM   20  C   UNL     1     -19.727  -3.838  -8.168  1.00  0.00     0.002 C 
BRANCH  20  21
HETATM   21  C   UNL     1     -20.244  -4.635  -9.365  1.00  0.00     0.000 C 
BRANCH  21  22
HETATM   22  C   UNL     1     -21.570  -4.075  -9.880  1.00  0.00     0.000 C 
BRANCH  22  23
HETATM   23  C   UNL     1     -22.502  -3.726  -8.721  1.00  0.00    -0.000 C 
BRANCH  23  24
HETATM   24  C   UNL     1     -23.967  -3.919  -9.105  1.00  0.00    -0.005 C 
HETATM   25  C   UNL     1     -24.237  -3.395 -10.506  1.00  0.00     0.005 C 
ENDBRANCH  23  24
ENDBRANCH  22  23
ENDBRANCH  21  22
ENDBRANCH  20  21
ENDBRANCH  19  20
ENDBRANCH  18  19
ENDBRANCH  17  18
ENDBRANCH  15  17
ENDBRANCH  14  15
ENDBRANCH   1  14
BRANCH   1  26
HETATM   26  C   UNL     1     -20.048  -9.361  -3.698  1.00  0.00     0.294 C 
HETATM   27  O   UNL     1     -19.821 -10.015  -2.695  1.00  0.00    -0.262 OA
BRANCH  26  28
HETATM   28  O   UNL     1     -19.362  -9.489  -4.878  1.00  0.00    -0.319 OA
BRANCH  28  29
HETATM   29  C   UNL     1     -18.024 -10.005  -4.775  1.00  0.00     0.178 C 
BRANCH  29  30
HETATM   30  C   UNL     1     -17.276  -9.781  -6.085  1.00  0.00     0.027 C 
BRANCH  30  31
HETATM   31  C   UNL     1     -15.767  -9.944  -5.907  1.00  0.00     0.002 C 
BRANCH  31  32
HETATM   32  C   UNL     1     -15.328 -11.399  -6.078  1.00  0.00     0.000 C 
BRANCH  32  33
HETATM   33  C   UNL     1     -14.509 -11.866  -4.873  1.00  0.00     0.000 C 
BRANCH  33  34
HETATM   34  C   UNL     1     -15.411 -12.231  -3.693  1.00  0.00    -0.000 C 
BRANCH  34  35
HETATM   35  C   UNL     1     -15.352 -11.166  -2.598  1.00  0.00    -0.005 C 
HETATM   36  C   UNL     1     -16.361 -11.454  -1.498  1.00  0.00     0.005 C 
ENDBRANCH  34  35
ENDBRANCH  33  34
ENDBRANCH  32  33
ENDBRANCH  31  32
ENDBRANCH  30  31
ENDBRANCH  29  30
ENDBRANCH  28  29
ENDBRANCH  26  28
ENDBRANCH   1  26
BRANCH   1  37
HETATM   37  O   UNL     1     -22.337  -8.743  -3.520  1.00  0.00    -0.379 OA
HETATM   38  H   UNL     1     -22.540  -9.403  -4.214  1.00  0.00     0.211 HD
ENDBRANCH   1  37
TORSDOF 30
BEGIN_RES ARG D 557
REMARK  4 active torsions:
REMARK  status: ('A' for Active; 'I' for Inactive)
REMARK    1  A    between atoms: CA   and  CB  
REMARK    2  A    between atoms: CB   and  CG  
REMARK    3  A    between atoms: CG   and  CD  
REMARK    4  A    between atoms: CD   and  NE  
REMARK       I    between atoms: NE   and  CZ  
REMARK       I    between atoms: CZ   and  NH1 
REMARK       I    between atoms: CZ   and  NH2 
ROOT
ATOM      1  CA  ARG D 557     -26.217   2.705 -17.014  1.00 35.49     0.159 C 
ENDROOT
BRANCH   1   2
ATOM      2  CB  ARG D 557     -26.789   1.319 -17.183  1.00 35.49     0.034 C 
BRANCH   2   3
ATOM      3  CG  ARG D 557     -25.938   0.198 -16.767  1.00 35.49     0.027 C 
BRANCH   3   4
ATOM      4  CD  ARG D 557     -26.705  -0.871 -16.087  1.00 35.49     0.116 C 
BRANCH   4   5
ATOM      5  NE  ARG D 557     -25.904  -1.588 -15.130  1.00 35.49    -0.212 N 
ATOM      6  CZ  ARG D 557     -25.984  -2.874 -14.872  1.00 35.49     0.666 C 
ATOM      7  NH1 ARG D 557     -26.850  -3.666 -15.476  1.00 35.49    -0.235 N 
ATOM      8  NH2 ARG D 557     -25.164  -3.361 -13.987  1.00 35.49    -0.235 N 
ATOM      9  HH  ARG D 557     -27.398  -3.368 -16.064  1.00 35.49     0.174 HD
ATOM     10  HH  ARG D 557     -26.855  -4.498 -15.269  1.00 35.49     0.174 HD
ATOM     11  HH  ARG D 557     -24.610  -2.827 -13.618  1.00 35.49     0.174 HD
ATOM     12  HH  ARG D 557     -25.183  -4.187 -13.796  1.00 35.49     0.174 HD
ATOM     13  HE  ARG D 557     -25.369  -1.142 -14.642  1.00 35.49     0.178 HD
ENDBRANCH   4   5
ENDBRANCH   3   4
ENDBRANCH   2   3
ENDBRANCH   1   2
END_RES ARG D 557
BEGIN_RES GLU D 570
REMARK  3 active torsions:
REMARK  status: ('A' for Active; 'I' for Inactive)
REMARK    5  A    between atoms: CA   and  CB  
REMARK    6  A    between atoms: CB   and  CG  
REMARK    7  A    between atoms: CG   and  CD  
ROOT
ATOM     14  CA  GLU D 570     -18.033  -6.348 -13.375  1.00 32.92     0.160 C 
ENDROOT
BRANCH  14  15
ATOM     15  CB  GLU D 570     -19.500  -6.345 -13.794  1.00 32.92     0.043 C 
BRANCH  15  16
ATOM     16  CG  GLU D 570     -20.439  -5.519 -12.992  1.00 32.92     0.100 C 
BRANCH  16  17
ATOM     17  CD  GLU D 570     -21.735  -5.231 -13.714  1.00 32.92     0.185 C 
ATOM     18  OE1 GLU D 570     -22.181  -6.074 -14.516  1.00 32.92    -0.647 OA
ATOM     19  OE2 GLU D 570     -22.302  -4.144 -13.488  1.00 32.92    -0.647 OA
ENDBRANCH  16  17
ENDBRANCH  15  16
ENDBRANCH  14  15
END_RES GLU D 570
ENDMDL
MODEL 5
REMARK VINA RESULT:      -6.9      1.872      8.692
REMARK  30 active torsions:
REMARK  status: ('A' for Active; 'I' for Inactive)
REMARK    1  A    between atoms: C_2  and  C_3 
REMARK    2  A    between atoms: C_3  and  C_4 
REMARK    3  A    between atoms: C_4  and  C_5 
REMARK    4  A    between atoms: C_5  and  C_6 
REMARK    5  A    between atoms: C_6  and  C_7 
REMARK    6  A    between atoms: C_7  and  C_8 
REMARK    7  A    between atoms: C_8  and  O_9 
REMARK    8  A    between atoms: O_9  and  C_10 
REMARK    9  A    between atoms: C_10  and  C_12 
REMARK   10  A    between atoms: C_12  and  C_13 
REMARK   11  A    between atoms: C_13  and  C_14 
REMARK   12  A    between atoms: C_13  and  C_26 
REMARK   13  A    between atoms: C_13  and  O_37 
REMARK   14  A    between atoms: C_14  and  C_15 
REMARK   15  A    between atoms: C_15  and  O_17 
REMARK   16  A    between atoms: O_17  and  C_18 
REMARK   17  A    between atoms: C_18  and  C_19 
REMARK   18  A    between atoms: C_19  and  C_20 
REMARK   19  A    between atoms: C_20  and  C_21 
REMARK   20  A    between atoms: C_21  and  C_22 
REMARK   21  A    between atoms: C_22  and  C_23 
REMARK   22  A    between atoms: C_23  and  C_24 
REMARK   23  A    between atoms: C_26  and  O_28 
REMARK   24  A    between atoms: O_28  and  C_29 
REMARK   25  A    between atoms: C_29  and  C_30 
REMARK   26  A    between atoms: C_30  and  C_31 
REMARK   27  A    between atoms: C_31  and  C_32 
REMARK   28  A    between atoms: C_32  and  C_33 
REMARK   29  A    between atoms: C_33  and  C_34 
REMARK   30  A    between atoms: C_34  and  C_35 
ROOT
HETATM    1  C   UNL     1     -23.703  -5.919 -15.025  1.00  0.00     0.162 C 
ENDROOT
BRANCH   1   2
HETATM    2  C   UNL     1     -23.368  -6.103 -13.531  1.00  0.00     0.160 C 
BRANCH   2   3
HETATM    3  C   UNL     1     -23.043  -4.808 -12.839  1.00  0.00     0.262 C 
HETATM    4  O   UNL     1     -21.936  -4.290 -12.825  1.00  0.00    -0.265 OA
BRANCH   3   5
HETATM    5  O   UNL     1     -24.138  -4.318 -12.188  1.00  0.00    -0.321 OA
BRANCH   5   6
HETATM    6  C   UNL     1     -23.779  -3.462 -11.105  1.00  0.00     0.178 C 
BRANCH   6   7
HETATM    7  C   UNL     1     -24.129  -4.079  -9.769  1.00  0.00     0.027 C 
BRANCH   7   8
HETATM    8  C   UNL     1     -23.052  -3.721  -8.750  1.00  0.00     0.002 C 
BRANCH   8   9
HETATM    9  C   UNL     1     -21.997  -4.811  -8.679  1.00  0.00     0.000 C 
BRANCH   9  10
HETATM   10  C   UNL     1     -20.677  -4.339  -9.279  1.00  0.00     0.000 C 
BRANCH  10  11
HETATM   11  C   UNL     1     -19.581  -4.357  -8.220  1.00  0.00    -0.000 C 
BRANCH  11  12
HETATM   12  C   UNL     1     -20.158  -4.585  -6.827  1.00  0.00    -0.005 C 
HETATM   13  C   UNL     1     -20.078  -6.053  -6.444  1.00  0.00     0.005 C 
ENDBRANCH  11  12
ENDBRANCH  10  11
ENDBRANCH   9  10
ENDBRANCH   8   9
ENDBRANCH   7   8
ENDBRANCH   6   7
ENDBRANCH   5   6
ENDBRANCH   3   5
ENDBRANCH   2   3
ENDBRANCH   1   2
BRANCH   1  14
HETATM   14  C   UNL     1     -23.423  -7.122 -15.933  1.00  0.00     0.160 C 
BRANCH  14  15
HETATM   15  C   UNL     1     -23.328  -6.682 -17.367  1.00  0.00     0.262 C 
HETATM   16  O   UNL     1     -22.307  -6.261 -17.871  1.00  0.00    -0.265 OA
BRANCH  15  17
HETATM   17  O   UNL     1     -24.552  -6.700 -17.968  1.00  0.00    -0.321 OA
BRANCH  17  18
HETATM   18  C   UNL     1     -24.535  -7.308 -19.270  1.00  0.00     0.178 C 
BRANCH  18  19
HETATM   19  C   UNL     1     -25.403  -6.531 -20.251  1.00  0.00     0.027 C 
BRANCH  19  20
HETATM   20  C   UNL     1     -24.812  -6.572 -21.662  1.00  0.00     0.002 C 
BRANCH  20  21
HETATM   21  C   UNL     1     -24.549  -8.009 -22.110  1.00  0.00     0.000 C 
BRANCH  21  22
HETATM   22  C   UNL     1     -23.099  -8.198 -22.557  1.00  0.00     0.000 C 
BRANCH  22  23
HETATM   23  C   UNL     1     -22.285  -8.915 -21.481  1.00  0.00    -0.000 C 
BRANCH  23  24
HETATM   24  C   UNL     1     -20.833  -9.102 -21.913  1.00  0.00    -0.005 C 
HETATM   25  C   UNL     1     -20.697 -10.261 -22.886  1.00  0.00     0.005 C 
ENDBRANCH  23  24
ENDBRANCH  22  23
ENDBRANCH  21  22
ENDBRANCH  20  21
ENDBRANCH  19  20
ENDBRANCH  18  19
ENDBRANCH  17  18
ENDBRANCH  15  17
ENDBRANCH  14  15
ENDBRANCH   1  14
BRANCH   1  26
HETATM   26  C   UNL     1     -25.178  -5.484 -15.195  1.00  0.00     0.294 C 
HETATM   27  O   UNL     1     -25.553  -4.336 -15.364  1.00  0.00    -0.262 OA
BRANCH  26  28
HETATM   28  O   UNL     1     -26.015  -6.551 -14.997  1.00  0.00    -0.319 OA
BRANCH  28  29
HETATM   29  C   UNL     1     -27.003  -6.773 -16.018  1.00  0.00     0.178 C 
BRANCH  29  30
HETATM   30  C   UNL     1     -28.391  -6.851 -15.392  1.00  0.00     0.027 C 
BRANCH  30  31
HETATM   31  C   UNL     1     -29.084  -5.489 -15.387  1.00  0.00     0.002 C 
BRANCH  31  32
HETATM   32  C   UNL     1     -28.815  -4.708 -16.675  1.00  0.00     0.000 C 
BRANCH  32  33
HETATM   33  C   UNL     1     -29.822  -5.086 -17.763  1.00  0.00     0.000 C 
BRANCH  33  34
HETATM   34  C   UNL     1     -31.110  -5.646 -17.160  1.00  0.00    -0.000 C 
BRANCH  34  35
HETATM   35  C   UNL     1     -31.397  -7.057 -17.675  1.00  0.00    -0.005 C 
HETATM   36  C   UNL     1     -30.233  -7.589 -18.495  1.00  0.00     0.005 C 
ENDBRANCH  34  35
ENDBRANCH  33  34
ENDBRANCH  32  33
ENDBRANCH  31  32
ENDBRANCH  30  31
ENDBRANCH  29  30
ENDBRANCH  28  29
ENDBRANCH  26  28
ENDBRANCH   1  26
BRANCH   1  37
HETATM   37  O   UNL     1     -22.918  -4.818 -15.521  1.00  0.00    -0.379 OA
HETATM   38  H   UNL     1     -21.988  -5.108 -15.614  1.00  0.00     0.211 HD
ENDBRANCH   1  37
TORSDOF 30
BEGIN_RES ARG D 557
REMARK  4 active torsions:
REMARK  status: ('A' for Active; 'I' for Inactive)
REMARK    1  A    between atoms: CA   and  CB  
REMARK    2  A    between atoms: CB   and  CG  
REMARK    3  A    between atoms: CG   and  CD  
REMARK    4  A    between atoms: CD   and  NE  
REMARK       I    between atoms: NE   and  CZ  
REMARK       I    between atoms: CZ   and  NH1 
REMARK       I    between atoms: CZ   and  NH2 
ROOT
ATOM      1  CA  ARG D 557     -26.217   2.705 -17.014  1.00 35.49     0.159 C 
ENDROOT
BRANCH   1   2
ATOM      2  CB  ARG D 557     -26.789   1.319 -17.183  1.00 35.49     0.034 C 
BRANCH   2   3
ATOM      3  CG  ARG D 557     -25.912   0.195 -16.832  1.00 35.49     0.027 C 
BRANCH   3   4
ATOM      4  CD  ARG D 557     -26.507  -0.682 -15.798  1.00 35.49     0.116 C 
BRANCH   4   5
ATOM      5  NE  ARG D 557     -25.519  -1.506 -15.153  1.00 35.49    -0.212 N 
ATOM      6  CZ  ARG D 557     -24.268  -1.172 -14.927  1.00 35.49     0.666 C 
ATOM      7  NH1 ARG D 557     -23.768  -0.007 -15.297  1.00 35.49    -0.235 N 
ATOM      8  NH2 ARG D 557     -23.517  -2.037 -14.309  1.00 35.49    -0.235 N 
ATOM      9  HH  ARG D 557     -24.244   0.578 -15.703  1.00 35.49     0.174 HD
ATOM     10  HH  ARG D 557     -22.946   0.157 -15.121  1.00 35.49     0.174 HD
ATOM     11  HH  ARG D 557     -23.869  -2.778 -14.076  1.00 35.49     0.174 HD
ATOM     12  HH  ARG D 557     -22.706  -1.855 -14.143  1.00 35.49     0.174 HD
ATOM     13  HE  ARG D 557     -25.736  -2.302 -14.946  1.00 35.49     0.178 HD
ENDBRANCH   4   5
ENDBRANCH   3   4
ENDBRANCH   2   3
ENDBRANCH   1   2
END_RES ARG D 557
BEGIN_RES GLU D 570
REMARK  3 active torsions:
REMARK  status: ('A' for Active; 'I' for Inactive)
REMARK    5  A    between atoms: CA   and  CB  
REMARK    6  A    between atoms: CB   and  CG  
REMARK    7  A    between atoms: CG   and  CD  
ROOT
ATOM     14  CA  GLU D 570     -18.033  -6.348 -13.375  1.00 32.92     0.160 C 
ENDROOT
BRANCH  14  15
ATOM     15  CB  GLU D 570     -19.500  -6.345 -13.794  1.00 32.92     0.043 C 
BRANCH  15  16
ATOM     16  CG  GLU D 570     -20.097  -7.642 -14.206  1.00 32.92     0.100 C 
BRANCH  16  17
ATOM     17  CD  GLU D 570     -20.162  -7.810 -15.706  1.00 32.92     0.185 C 
ATOM     18  OE1 GLU D 570     -20.474  -8.921 -16.177  1.00 32.92    -0.647 OA
ATOM     19  OE2 GLU D 570     -19.883  -6.825 -16.418  1.00 32.92    -0.647 OA
ENDBRANCH  16  17
ENDBRANCH  15  16
ENDBRANCH  14  15
END_RES GLU D 570
ENDMDL
MODEL 6
REMARK VINA RESULT:      -6.9      1.560      8.504
REMARK  30 active torsions:
REMARK  status: ('A' for Active; 'I' for Inactive)
REMARK    1  A    between atoms: C_2  and  C_3 
REMARK    2  A    between atoms: C_3  and  C_4 
REMARK    3  A    between atoms: C_4  and  C_5 
REMARK    4  A    between atoms: C_5  and  C_6 
REMARK    5  A    between atoms: C_6  and  C_7 
REMARK    6  A    between atoms: C_7  and  C_8 
REMARK    7  A    between atoms: C_8  and  O_9 
REMARK    8  A    between atoms: O_9  and  C_10 
REMARK    9  A    between atoms: C_10  and  C_12 
REMARK   10  A    between atoms: C_12  and  C_13 
REMARK   11  A    between atoms: C_13  and  C_14 
REMARK   12  A    between atoms: C_13  and  C_26 
REMARK   13  A    between atoms: C_13  and  O_37 
REMARK   14  A    between atoms: C_14  and  C_15 
REMARK   15  A    between atoms: C_15  and  O_17 
REMARK   16  A    between atoms: O_17  and  C_18 
REMARK   17  A    between atoms: C_18  and  C_19 
REMARK   18  A    between atoms: C_19  and  C_20 
REMARK   19  A    between atoms: C_20  and  C_21 
REMARK   20  A    between atoms: C_21  and  C_22 
REMARK   21  A    between atoms: C_22  and  C_23 
REMARK   22  A    between atoms: C_23  and  C_24 
REMARK   23  A    between atoms: C_26  and  O_28 
REMARK   24  A    between atoms: O_28  and  C_29 
REMARK   25  A    between atoms: C_29  and  C_30 
REMARK   26  A    between atoms: C_30  and  C_31 
REMARK   27  A    between atoms: C_31  and  C_32 
REMARK   28  A    between atoms: C_32  and  C_33 
REMARK   29  A    between atoms: C_33  and  C_34 
REMARK   30  A    between atoms: C_34  and  C_35 
ROOT
HETATM    1  C   UNL     1     -23.674  -4.298 -13.678  1.00  0.00     0.162 C 
ENDROOT
BRANCH   1   2
HETATM    2  C   UNL     1     -23.913  -4.957 -12.305  1.00  0.00     0.160 C 
BRANCH   2   3
HETATM    3  C   UNL     1     -23.927  -3.967 -11.173  1.00  0.00     0.262 C 
HETATM    4  O   UNL     1     -23.578  -2.800 -11.270  1.00  0.00    -0.265 OA
BRANCH   3   5
HETATM    5  O   UNL     1     -24.335  -4.562 -10.015  1.00  0.00    -0.321 OA
BRANCH   5   6
HETATM    6  C   UNL     1     -23.729  -3.970  -8.866  1.00  0.00     0.178 C 
BRANCH   6   7
HETATM    7  C   UNL     1     -22.342  -4.522  -8.622  1.00  0.00     0.027 C 
BRANCH   7   8
HETATM    8  C   UNL     1     -21.671  -3.728  -7.506  1.00  0.00     0.002 C 
BRANCH   8   9
HETATM    9  C   UNL     1     -20.204  -4.104  -7.385  1.00  0.00     0.000 C 
BRANCH   9  10
HETATM   10  C   UNL     1     -19.943  -4.896  -6.108  1.00  0.00     0.000 C 
BRANCH  10  11
HETATM   11  C   UNL     1     -20.014  -6.391  -6.394  1.00  0.00    -0.000 C 
BRANCH  11  12
HETATM   12  C   UNL     1     -20.788  -7.129  -5.307  1.00  0.00    -0.005 C 
HETATM   13  C   UNL     1     -22.072  -6.394  -4.965  1.00  0.00     0.005 C 
ENDBRANCH  11  12
ENDBRANCH  10  11
ENDBRANCH   9  10
ENDBRANCH   8   9
ENDBRANCH   7   8
ENDBRANCH   6   7
ENDBRANCH   5   6
ENDBRANCH   3   5
ENDBRANCH   2   3
ENDBRANCH   1   2
BRANCH   1  14
HETATM   14  C   UNL     1     -22.983  -5.168 -14.734  1.00  0.00     0.160 C 
BRANCH  14  15
HETATM   15  C   UNL     1     -22.127  -4.318 -15.632  1.00  0.00     0.262 C 
HETATM   16  O   UNL     1     -22.155  -3.105 -15.628  1.00  0.00    -0.265 OA
BRANCH  15  17
HETATM   17  O   UNL     1     -21.430  -5.086 -16.517  1.00  0.00    -0.321 OA
BRANCH  17  18
HETATM   18  C   UNL     1     -21.895  -6.444 -16.579  1.00  0.00     0.178 C 
BRANCH  18  19
HETATM   19  C   UNL     1     -22.252  -6.839 -18.005  1.00  0.00     0.027 C 
BRANCH  19  20
HETATM   20  C   UNL     1     -23.763  -7.017 -18.167  1.00  0.00     0.002 C 
BRANCH  20  21
HETATM   21  C   UNL     1     -24.121  -7.431 -19.594  1.00  0.00     0.000 C 
BRANCH  21  22
HETATM   22  C   UNL     1     -25.010  -6.388 -20.272  1.00  0.00     0.000 C 
BRANCH  22  23
HETATM   23  C   UNL     1     -26.447  -6.890 -20.393  1.00  0.00    -0.000 C 
BRANCH  23  24
HETATM   24  C   UNL     1     -26.512  -8.225 -21.130  1.00  0.00    -0.005 C 
HETATM   25  C   UNL     1     -27.913  -8.811 -21.076  1.00  0.00     0.005 C 
ENDBRANCH  23  24
ENDBRANCH  22  23
ENDBRANCH  21  22
ENDBRANCH  20  21
ENDBRANCH  19  20
ENDBRANCH  18  19
ENDBRANCH  17  18
ENDBRANCH  15  17
ENDBRANCH  14  15
ENDBRANCH   1  14
BRANCH   1  26
HETATM   26  C   UNL     1     -25.005  -3.758 -14.254  1.00  0.00     0.294 C 
HETATM   27  O   UNL     1     -25.705  -2.915 -13.721  1.00  0.00    -0.262 OA
BRANCH  26  28
HETATM   28  O   UNL     1     -25.354  -4.455 -15.381  1.00  0.00    -0.319 OA
BRANCH  28  29
HETATM   29  C   UNL     1     -26.565  -5.225 -15.294  1.00  0.00     0.178 C 
BRANCH  29  30
HETATM   30  C   UNL     1     -26.789  -5.993 -16.592  1.00  0.00     0.027 C 
BRANCH  30  31
HETATM   31  C   UNL     1     -28.101  -6.776 -16.565  1.00  0.00     0.002 C 
BRANCH  31  32
HETATM   32  C   UNL     1     -28.922  -6.555 -17.837  1.00  0.00     0.000 C 
BRANCH  32  33
HETATM   33  C   UNL     1     -30.110  -7.518 -17.893  1.00  0.00     0.000 C 
BRANCH  33  34
HETATM   34  C   UNL     1     -31.409  -6.825 -17.479  1.00  0.00    -0.000 C 
BRANCH  34  35
HETATM   35  C   UNL     1     -31.150  -5.394 -17.010  1.00  0.00    -0.005 C 
HETATM   36  C   UNL     1     -32.455  -4.650 -16.773  1.00  0.00     0.005 C 
ENDBRANCH  34  35
ENDBRANCH  33  34
ENDBRANCH  32  33
ENDBRANCH  31  32
ENDBRANCH  30  31
ENDBRANCH  29  30
ENDBRANCH  28  29
ENDBRANCH  26  28
ENDBRANCH   1  26
BRANCH   1  37
HETATM   37  O   UNL     1     -22.846  -3.138 -13.473  1.00  0.00    -0.379 OA
HETATM   38  H   UNL     1     -23.324  -2.346 -13.792  1.00  0.00     0.211 HD
ENDBRANCH   1  37
TORSDOF 30
BEGIN_RES ARG D 557
REMARK  4 active torsions:
REMARK  status: ('A' for Active; 'I' for Inactive)
REMARK    1  A    between atoms: CA   and  CB  
REMARK    2  A    between atoms: CB   and  CG  
REMARK    3  A    between atoms: CG   and  CD  
REMARK    4  A    between atoms: CD   and  NE  
REMARK       I    between atoms: NE   and  CZ  
REMARK       I    between atoms: CZ   and  NH1 
REMARK       I    between atoms: CZ   and  NH2 
ROOT
ATOM      1  CA  ARG D 557     -26.217   2.705 -17.014  1.00 35.49     0.159 C 
ENDROOT
BRANCH   1   2
ATOM      2  CB  ARG D 557     -26.789   1.319 -17.183  1.00 35.49     0.034 C 
BRANCH   2   3
ATOM      3  CG  ARG D 557     -28.229   1.227 -17.452  1.00 35.49     0.027 C 
BRANCH   3   4
ATOM      4  CD  ARG D 557     -28.919   0.305 -16.521  1.00 35.49     0.116 C 
BRANCH   4   5
ATOM      5  NE  ARG D 557     -29.203  -0.968 -17.129  1.00 35.49    -0.212 N 
ATOM      6  CZ  ARG D 557     -28.490  -2.063 -16.988  1.00 35.49     0.666 C 
ATOM      7  NH1 ARG D 557     -27.391  -2.104 -16.257  1.00 35.49    -0.235 N 
ATOM      8  NH2 ARG D 557     -28.908  -3.135 -17.596  1.00 35.49    -0.235 N 
ATOM      9  HH  ARG D 557     -27.099  -1.412 -15.846  1.00 35.49     0.174 HD
ATOM     10  HH  ARG D 557     -26.968  -2.847 -16.199  1.00 35.49     0.174 HD
ATOM     11  HH  ARG D 557     -29.625  -3.080 -18.055  1.00 35.49     0.174 HD
ATOM     12  HH  ARG D 557     -28.476  -3.861 -17.526  1.00 35.49     0.174 HD
ATOM     13  HE  ARG D 557     -29.853  -1.014 -17.675  1.00 35.49     0.178 HD
ENDBRANCH   4   5
ENDBRANCH   3   4
ENDBRANCH   2   3
ENDBRANCH   1   2
END_RES ARG D 557
BEGIN_RES GLU D 570
REMARK  3 active torsions:
REMARK  status: ('A' for Active; 'I' for Inactive)
REMARK    5  A    between atoms: CA   and  CB  
REMARK    6  A    between atoms: CB   and  CG  
REMARK    7  A    between atoms: CG   and  CD  
ROOT
ATOM     14  CA  GLU D 570     -18.033  -6.348 -13.375  1.00 32.92     0.160 C 
ENDROOT
BRANCH  14  15
ATOM     15  CB  GLU D 570     -19.500  -6.345 -13.794  1.00 32.92     0.043 C 
BRANCH  15  16
ATOM     16  CG  GLU D 570     -20.512  -6.062 -12.743  1.00 32.92     0.100 C 
BRANCH  16  17
ATOM     17  CD  GLU D 570     -20.099  -4.945 -11.813  1.00 32.92     0.185 C 
ATOM     18  OE1 GLU D 570     -20.406  -3.773 -12.102  1.00 32.92    -0.647 OA
ATOM     19  OE2 GLU D 570     -19.447  -5.244 -10.793  1.00 32.92    -0.647 OA
ENDBRANCH  16  17
ENDBRANCH  15  16
ENDBRANCH  14  15
END_RES GLU D 570
ENDMDL
MODEL 7
REMARK VINA RESULT:      -6.8      2.013      8.557
REMARK  30 active torsions:
REMARK  status: ('A' for Active; 'I' for Inactive)
REMARK    1  A    between atoms: C_2  and  C_3 
REMARK    2  A    between atoms: C_3  and  C_4 
REMARK    3  A    between atoms: C_4  and  C_5 
REMARK    4  A    between atoms: C_5  and  C_6 
REMARK    5  A    between atoms: C_6  and  C_7 
REMARK    6  A    between atoms: C_7  and  C_8 
REMARK    7  A    between atoms: C_8  and  O_9 
REMARK    8  A    between atoms: O_9  and  C_10 
REMARK    9  A    between atoms: C_10  and  C_12 
REMARK   10  A    between atoms: C_12  and  C_13 
REMARK   11  A    between atoms: C_13  and  C_14 
REMARK   12  A    between atoms: C_13  and  C_26 
REMARK   13  A    between atoms: C_13  and  O_37 
REMARK   14  A    between atoms: C_14  and  C_15 
REMARK   15  A    between atoms: C_15  and  O_17 
REMARK   16  A    between atoms: O_17  and  C_18 
REMARK   17  A    between atoms: C_18  and  C_19 
REMARK   18  A    between atoms: C_19  and  C_20 
REMARK   19  A    between atoms: C_20  and  C_21 
REMARK   20  A    between atoms: C_21  and  C_22 
REMARK   21  A    between atoms: C_22  and  C_23 
REMARK   22  A    between atoms: C_23  and  C_24 
REMARK   23  A    between atoms: C_26  and  O_28 
REMARK   24  A    between atoms: O_28  and  C_29 
REMARK   25  A    between atoms: C_29  and  C_30 
REMARK   26  A    between atoms: C_30  and  C_31 
REMARK   27  A    between atoms: C_31  and  C_32 
REMARK   28  A    between atoms: C_32  and  C_33 
REMARK   29  A    between atoms: C_33  and  C_34 
REMARK   30  A    between atoms: C_34  and  C_35 
ROOT
HETATM    1  C   UNL     1     -23.898  -6.268 -15.407  1.00  0.00     0.162 C 
ENDROOT
BRANCH   1   2
HETATM    2  C   UNL     1     -23.438  -6.362 -13.939  1.00  0.00     0.160 C 
BRANCH   2   3
HETATM    3  C   UNL     1     -22.997  -5.039 -13.376  1.00  0.00     0.262 C 
HETATM    4  O   UNL     1     -22.020  -4.415 -13.759  1.00  0.00    -0.265 OA
BRANCH   3   5
HETATM    5  O   UNL     1     -23.809  -4.656 -12.347  1.00  0.00    -0.321 OA
BRANCH   5   6
HETATM    6  C   UNL     1     -23.171  -4.797 -11.079  1.00  0.00     0.178 C 
BRANCH   6   7
HETATM    7  C   UNL     1     -24.179  -4.923  -9.959  1.00  0.00     0.027 C 
BRANCH   7   8
HETATM    8  C   UNL     1     -23.742  -4.054  -8.785  1.00  0.00     0.002 C 
BRANCH   8   9
HETATM    9  C   UNL     1     -22.300  -3.608  -8.954  1.00  0.00     0.000 C 
BRANCH   9  10
HETATM   10  C   UNL     1     -21.459  -3.996  -7.741  1.00  0.00     0.000 C 
BRANCH  10  11
HETATM   11  C   UNL     1     -21.320  -5.512  -7.662  1.00  0.00    -0.000 C 
BRANCH  11  12
HETATM   12  C   UNL     1     -20.530  -5.933  -6.428  1.00  0.00    -0.005 C 
HETATM   13  C   UNL     1     -20.056  -4.719  -5.648  1.00  0.00     0.005 C 
ENDBRANCH  11  12
ENDBRANCH  10  11
ENDBRANCH   9  10
ENDBRANCH   8   9
ENDBRANCH   7   8
ENDBRANCH   6   7
ENDBRANCH   5   6
ENDBRANCH   3   5
ENDBRANCH   2   3
ENDBRANCH   1   2
BRANCH   1  14
HETATM   14  C   UNL     1     -23.241  -7.248 -16.385  1.00  0.00     0.160 C 
BRANCH  14  15
HETATM   15  C   UNL     1     -22.551  -6.499 -17.491  1.00  0.00     0.262 C 
HETATM   16  O   UNL     1     -21.732  -5.624 -17.295  1.00  0.00    -0.265 OA
BRANCH  15  17
HETATM   17  O   UNL     1     -23.059  -6.842 -18.708  1.00  0.00    -0.321 OA
BRANCH  17  18
HETATM   18  C   UNL     1     -22.083  -7.424 -19.587  1.00  0.00     0.178 C 
BRANCH  18  19
HETATM   19  C   UNL     1     -22.668  -8.602 -20.355  1.00  0.00     0.027 C 
BRANCH  19  20
HETATM   20  C   UNL     1     -22.353  -8.499 -21.849  1.00  0.00     0.002 C 
BRANCH  20  21
HETATM   21  C   UNL     1     -23.515  -7.871 -22.616  1.00  0.00     0.000 C 
BRANCH  21  22
HETATM   22  C   UNL     1     -24.821  -7.964 -21.827  1.00  0.00     0.000 C 
BRANCH  22  23
HETATM   23  C   UNL     1     -25.285  -6.582 -21.373  1.00  0.00    -0.000 C 
BRANCH  23  24
HETATM   24  C   UNL     1     -25.953  -6.639 -20.001  1.00  0.00    -0.005 C 
HETATM   25  C   UNL     1     -27.411  -6.218 -20.085  1.00  0.00     0.005 C 
ENDBRANCH  23  24
ENDBRANCH  22  23
ENDBRANCH  21  22
ENDBRANCH  20  21
ENDBRANCH  19  20
ENDBRANCH  18  19
ENDBRANCH  17  18
ENDBRANCH  15  17
ENDBRANCH  14  15
ENDBRANCH   1  14
BRANCH   1  26
HETATM   26  C   UNL     1     -25.436  -6.411 -15.499  1.00  0.00     0.294 C 
HETATM   27  O   UNL     1     -26.047  -7.461 -15.400  1.00  0.00    -0.262 OA
BRANCH  26  28
HETATM   28  O   UNL     1     -26.006  -5.212 -15.839  1.00  0.00    -0.319 OA
BRANCH  28  29
HETATM   29  C   UNL     1     -27.203  -5.287 -16.631  1.00  0.00     0.178 C 
BRANCH  29  30
HETATM   30  C   UNL     1     -28.194  -4.218 -16.182  1.00  0.00     0.027 C 
BRANCH  30  31
HETATM   31  C   UNL     1     -28.819  -3.492 -17.372  1.00  0.00     0.002 C 
BRANCH  31  32
HETATM   32  C   UNL     1     -29.923  -4.323 -18.030  1.00  0.00     0.000 C 
BRANCH  32  33
HETATM   33  C   UNL     1     -30.947  -4.787 -16.992  1.00  0.00     0.000 C 
BRANCH  33  34
HETATM   34  C   UNL     1     -31.369  -6.236 -17.234  1.00  0.00    -0.000 C 
BRANCH  34  35
HETATM   35  C   UNL     1     -30.154  -7.144 -17.423  1.00  0.00    -0.005 C 
HETATM   36  C   UNL     1     -30.277  -7.965 -18.697  1.00  0.00     0.005 C 
ENDBRANCH  34  35
ENDBRANCH  33  34
ENDBRANCH  32  33
ENDBRANCH  31  32
ENDBRANCH  30  31
ENDBRANCH  29  30
ENDBRANCH  28  29
ENDBRANCH  26  28
ENDBRANCH   1  26
BRANCH   1  37
HETATM   37  O   UNL     1     -23.607  -4.938 -15.876  1.00  0.00    -0.379 OA
HETATM   38  H   UNL     1     -23.442  -4.358 -15.105  1.00  0.00     0.211 HD
ENDBRANCH   1  37
TORSDOF 30
BEGIN_RES ARG D 557
REMARK  4 active torsions:
REMARK  status: ('A' for Active; 'I' for Inactive)
REMARK    1  A    between atoms: CA   and  CB  
REMARK    2  A    between atoms: CB   and  CG  
REMARK    3  A    between atoms: CG   and  CD  
REMARK    4  A    between atoms: CD   and  NE  
REMARK       I    between atoms: NE   and  CZ  
REMARK       I    between atoms: CZ   and  NH1 
REMARK       I    between atoms: CZ   and  NH2 
ROOT
ATOM      1  CA  ARG D 557     -26.217   2.705 -17.014  1.00 35.49     0.159 C 
ENDROOT
BRANCH   1   2
ATOM      2  CB  ARG D 557     -26.789   1.319 -17.183  1.00 35.49     0.034 C 
BRANCH   2   3
ATOM      3  CG  ARG D 557     -25.852   0.197 -17.050  1.00 35.49     0.027 C 
BRANCH   3   4
ATOM      4  CD  ARG D 557     -26.172  -0.671 -15.893  1.00 35.49     0.116 C 
BRANCH   4   5
ATOM      5  NE  ARG D 557     -25.056  -0.810 -14.995  1.00 35.49    -0.212 N 
ATOM      6  CZ  ARG D 557     -24.793  -1.863 -14.253  1.00 35.49     0.666 C 
ATOM      7  NH1 ARG D 557     -25.564  -2.935 -14.246  1.00 35.49    -0.235 N 
ATOM      8  NH2 ARG D 557     -23.724  -1.824 -13.512  1.00 35.49    -0.235 N 
ATOM      9  HH  ARG D 557     -26.271  -2.983 -14.728  1.00 35.49     0.174 HD
ATOM     10  HH  ARG D 557     -25.341  -3.593 -13.745  1.00 35.49     0.174 HD
ATOM     11  HH  ARG D 557     -23.242  -1.122 -13.543  1.00 35.49     0.174 HD
ATOM     12  HH  ARG D 557     -23.520  -2.486 -13.024  1.00 35.49     0.174 HD
ATOM     13  HE  ARG D 557     -24.547  -0.138 -14.882  1.00 35.49     0.178 HD
ENDBRANCH   4   5
ENDBRANCH   3   4
ENDBRANCH   2   3
ENDBRANCH   1   2
END_RES ARG D 557
BEGIN_RES GLU D 570
REMARK  3 active torsions:
REMARK  status: ('A' for Active; 'I' for Inactive)
REMARK    5  A    between atoms: CA   and  CB  
REMARK    6  A    between atoms: CB   and  CG  
REMARK    7  A    between atoms: CG   and  CD  
ROOT
ATOM     14  CA  GLU D 570     -18.033  -6.348 -13.375  1.00 32.92     0.160 C 
ENDROOT
BRANCH  14  15
ATOM     15  CB  GLU D 570     -19.500  -6.345 -13.794  1.00 32.92     0.043 C 
BRANCH  15  16
ATOM     16  CG  GLU D 570     -19.822  -6.827 -15.162  1.00 32.92     0.100 C 
BRANCH  16  17
ATOM     17  CD  GLU D 570     -20.211  -8.286 -15.197  1.00 32.92     0.185 C 
ATOM     18  OE1 GLU D 570     -20.405  -8.835 -16.299  1.00 32.92    -0.647 OA
ATOM     19  OE2 GLU D 570     -20.338  -8.883 -14.110  1.00 32.92    -0.647 OA
ENDBRANCH  16  17
ENDBRANCH  15  16
ENDBRANCH  14  15
END_RES GLU D 570
ENDMDL
MODEL 8
REMARK VINA RESULT:      -6.6      7.315     13.431
REMARK  30 active torsions:
REMARK  status: ('A' for Active; 'I' for Inactive)
REMARK    1  A    between atoms: C_2  and  C_3 
REMARK    2  A    between atoms: C_3  and  C_4 
REMARK    3  A    between atoms: C_4  and  C_5 
REMARK    4  A    between atoms: C_5  and  C_6 
REMARK    5  A    between atoms: C_6  and  C_7 
REMARK    6  A    between atoms: C_7  and  C_8 
REMARK    7  A    between atoms: C_8  and  O_9 
REMARK    8  A    between atoms: O_9  and  C_10 
REMARK    9  A    between atoms: C_10  and  C_12 
REMARK   10  A    between atoms: C_12  and  C_13 
REMARK   11  A    between atoms: C_13  and  C_14 
REMARK   12  A    between atoms: C_13  and  C_26 
REMARK   13  A    between atoms: C_13  and  O_37 
REMARK   14  A    between atoms: C_14  and  C_15 
REMARK   15  A    between atoms: C_15  and  O_17 
REMARK   16  A    between atoms: O_17  and  C_18 
REMARK   17  A    between atoms: C_18  and  C_19 
REMARK   18  A    between atoms: C_19  and  C_20 
REMARK   19  A    between atoms: C_20  and  C_21 
REMARK   20  A    between atoms: C_21  and  C_22 
REMARK   21  A    between atoms: C_22  and  C_23 
REMARK   22  A    between atoms: C_23  and  C_24 
REMARK   23  A    between atoms: C_26  and  O_28 
REMARK   24  A    between atoms: O_28  and  C_29 
REMARK   25  A    between atoms: C_29  and  C_30 
REMARK   26  A    between atoms: C_30  and  C_31 
REMARK   27  A    between atoms: C_31  and  C_32 
REMARK   28  A    between atoms: C_32  and  C_33 
REMARK   29  A    between atoms: C_33  and  C_34 
REMARK   30  A    between atoms: C_34  and  C_35 
ROOT
HETATM    1  C   UNL     1     -21.003  -9.167  -1.358  1.00  0.00     0.162 C 
ENDROOT
BRANCH   1   2
HETATM    2  C   UNL     1     -20.865  -7.649  -1.586  1.00  0.00     0.160 C 
BRANCH   2   3
HETATM    3  C   UNL     1     -22.152  -6.903  -1.369  1.00  0.00     0.262 C 
HETATM    4  O   UNL     1     -22.880  -7.046  -0.398  1.00  0.00    -0.265 OA
BRANCH   3   5
HETATM    5  O   UNL     1     -22.421  -6.082  -2.426  1.00  0.00    -0.321 OA
BRANCH   5   6
HETATM    6  C   UNL     1     -21.515  -6.289  -3.509  1.00  0.00     0.178 C 
BRANCH   6   7
HETATM    7  C   UNL     1     -22.246  -6.640  -4.786  1.00  0.00     0.027 C 
BRANCH   7   8
HETATM    8  C   UNL     1     -21.727  -5.765  -5.922  1.00  0.00     0.002 C 
BRANCH   8   9
HETATM    9  C   UNL     1     -20.415  -5.105  -5.535  1.00  0.00     0.000 C 
BRANCH   9  10
HETATM   10  C   UNL     1     -19.605  -4.723  -6.770  1.00  0.00     0.000 C 
BRANCH  10  11
HETATM   11  C   UNL     1     -20.240  -5.322  -8.020  1.00  0.00    -0.000 C 
BRANCH  11  12
HETATM   12  C   UNL     1     -20.268  -4.317  -9.166  1.00  0.00    -0.005 C 
HETATM   13  C   UNL     1     -21.684  -4.125  -9.682  1.00  0.00     0.005 C 
ENDBRANCH  11  12
ENDBRANCH  10  11
ENDBRANCH   9  10
ENDBRANCH   8   9
ENDBRANCH   7   8
ENDBRANCH   6   7
ENDBRANCH   5   6
ENDBRANCH   3   5
ENDBRANCH   2   3
ENDBRANCH   1   2
BRANCH   1  14
HETATM   14  C   UNL     1     -22.207  -9.843  -2.022  1.00  0.00     0.160 C 
BRANCH  14  15
HETATM   15  C   UNL     1     -22.991 -10.628  -1.007  1.00  0.00     0.262 C 
HETATM   16  O   UNL     1     -23.834 -10.135  -0.286  1.00  0.00    -0.265 OA
BRANCH  15  17
HETATM   17  O   UNL     1     -22.539 -11.912  -0.924  1.00  0.00    -0.321 OA
BRANCH  17  18
HETATM   18  C   UNL     1     -23.326 -12.735  -0.049  1.00  0.00     0.178 C 
BRANCH  18  19
HETATM   19  C   UNL     1     -22.582 -13.031   1.246  1.00  0.00     0.027 C 
BRANCH  19  20
HETATM   20  C   UNL     1     -23.301 -14.107   2.063  1.00  0.00     0.002 C 
BRANCH  20  21
HETATM   21  C   UNL     1     -22.427 -14.605   3.213  1.00  0.00     0.000 C 
BRANCH  21  22
HETATM   22  C   UNL     1     -21.367 -15.591   2.722  1.00  0.00     0.000 C 
BRANCH  22  23
HETATM   23  C   UNL     1     -21.964 -16.583   1.725  1.00  0.00    -0.000 C 
BRANCH  23  24
HETATM   24  C   UNL     1     -21.056 -16.768   0.511  1.00  0.00    -0.005 C 
HETATM   25  C   UNL     1     -21.631 -16.070  -0.711  1.00  0.00     0.005 C 
ENDBRANCH  23  24
ENDBRANCH  22  23
ENDBRANCH  21  22
ENDBRANCH  20  21
ENDBRANCH  19  20
ENDBRANCH  18  19
ENDBRANCH  17  18
ENDBRANCH  15  17
ENDBRANCH  14  15
ENDBRANCH   1  14
BRANCH   1  26
HETATM   26  C   UNL     1     -19.707  -9.896  -1.788  1.00  0.00     0.294 C 
HETATM   27  O   UNL     1     -19.397 -11.025  -1.452  1.00  0.00    -0.262 OA
BRANCH  26  28
HETATM   28  O   UNL     1     -18.895  -9.045  -2.492  1.00  0.00    -0.319 OA
BRANCH  28  29
HETATM   29  C   UNL     1     -18.446  -9.521  -3.772  1.00  0.00     0.178 C 
BRANCH  29  30
HETATM   30  C   UNL     1     -19.437  -9.113  -4.857  1.00  0.00     0.027 C 
BRANCH  30  31
HETATM   31  C   UNL     1     -20.242 -10.310  -5.362  1.00  0.00     0.002 C 
BRANCH  31  32
HETATM   32  C   UNL     1     -19.545 -11.636  -5.055  1.00  0.00     0.000 C 
BRANCH  32  33
HETATM   33  C   UNL     1     -20.526 -12.639  -4.443  1.00  0.00     0.000 C 
BRANCH  33  34
HETATM   34  C   UNL     1     -21.976 -12.248  -4.730  1.00  0.00    -0.000 C 
BRANCH  34  35
HETATM   35  C   UNL     1     -22.777 -13.437  -5.260  1.00  0.00    -0.005 C 
HETATM   36  C   UNL     1     -22.146 -14.005  -6.521  1.00  0.00     0.005 C 
ENDBRANCH  34  35
ENDBRANCH  33  34
ENDBRANCH  32  33
ENDBRANCH  31  32
ENDBRANCH  30  31
ENDBRANCH  29  30
ENDBRANCH  28  29
ENDBRANCH  26  28
ENDBRANCH   1  26
BRANCH   1  37
HETATM   37  O   UNL     1     -21.116  -9.392   0.061  1.00  0.00    -0.379 OA
HETATM   38  H   UNL     1     -20.521  -8.771   0.529  1.00  0.00     0.211 HD
ENDBRANCH   1  37
TORSDOF 30
BEGIN_RES ARG D 557
REMARK  4 active torsions:
REMARK  status: ('A' for Active; 'I' for Inactive)
REMARK    1  A    between atoms: CA   and  CB  
REMARK    2  A    between atoms: CB   and  CG  
REMARK    3  A    between atoms: CG   and  CD  
REMARK    4  A    between atoms: CD   and  NE  
REMARK       I    between atoms: NE   and  CZ  
REMARK       I    between atoms: CZ   and  NH1 
REMARK       I    between atoms: CZ   and  NH2 
ROOT
ATOM      1  CA  ARG D 557     -26.217   2.705 -17.014  1.00 35.49     0.159 C 
ENDROOT
BRANCH   1   2
ATOM      2  CB  ARG D 557     -26.789   1.319 -17.183  1.00 35.49     0.034 C 
BRANCH   2   3
ATOM      3  CG  ARG D 557     -28.225   1.160 -16.922  1.00 35.49     0.027 C 
BRANCH   3   4
ATOM      4  CD  ARG D 557     -28.602  -0.251 -16.679  1.00 35.49     0.116 C 
BRANCH   4   5
ATOM      5  NE  ARG D 557     -27.575  -0.973 -15.974  1.00 35.49    -0.212 N 
ATOM      6  CZ  ARG D 557     -27.369  -2.269 -16.035  1.00 35.49     0.666 C 
ATOM      7  NH1 ARG D 557     -28.119  -3.074 -16.765  1.00 35.49    -0.235 N 
ATOM      8  NH2 ARG D 557     -26.377  -2.752 -15.344  1.00 35.49    -0.235 N 
ATOM      9  HH  ARG D 557     -28.776  -2.777 -17.229  1.00 35.49     0.174 HD
ATOM     10  HH  ARG D 557     -27.935  -3.911 -16.768  1.00 35.49     0.174 HD
ATOM     11  HH  ARG D 557     -25.905  -2.208 -14.888  1.00 35.49     0.174 HD
ATOM     12  HH  ARG D 557     -26.210  -3.583 -15.361  1.00 35.49     0.174 HD
ATOM     13  HE  ARG D 557     -27.091  -0.543 -15.423  1.00 35.49     0.178 HD
ENDBRANCH   4   5
ENDBRANCH   3   4
ENDBRANCH   2   3
ENDBRANCH   1   2
END_RES ARG D 557
BEGIN_RES GLU D 570
REMARK  3 active torsions:
REMARK  status: ('A' for Active; 'I' for Inactive)
REMARK    5  A    between atoms: CA   and  CB  
REMARK    6  A    between atoms: CB   and  CG  
REMARK    7  A    between atoms: CG   and  CD  
ROOT
ATOM     14  CA  GLU D 570     -18.033  -6.348 -13.375  1.00 32.92     0.160 C 
ENDROOT
BRANCH  14  15
ATOM     15  CB  GLU D 570     -19.500  -6.345 -13.794  1.00 32.92     0.043 C 
BRANCH  15  16
ATOM     16  CG  GLU D 570     -20.449  -5.564 -12.959  1.00 32.92     0.100 C 
BRANCH  16  17
ATOM     17  CD  GLU D 570     -21.694  -5.153 -13.710  1.00 32.92     0.185 C 
ATOM     18  OE1 GLU D 570     -21.673  -5.140 -14.955  1.00 32.92    -0.647 OA
ATOM     19  OE2 GLU D 570     -22.696  -4.824 -13.044  1.00 32.92    -0.647 OA
ENDBRANCH  16  17
ENDBRANCH  15  16
ENDBRANCH  14  15
END_RES GLU D 570
ENDMDL
MODEL 9
REMARK VINA RESULT:      -6.6     15.747     21.199
REMARK  30 active torsions:
REMARK  status: ('A' for Active; 'I' for Inactive)
REMARK    1  A    between atoms: C_2  and  C_3 
REMARK    2  A    between atoms: C_3  and  C_4 
REMARK    3  A    between atoms: C_4  and  C_5 
REMARK    4  A    between atoms: C_5  and  C_6 
REMARK    5  A    between atoms: C_6  and  C_7 
REMARK    6  A    between atoms: C_7  and  C_8 
REMARK    7  A    between atoms: C_8  and  O_9 
REMARK    8  A    between atoms: O_9  and  C_10 
REMARK    9  A    between atoms: C_10  and  C_12 
REMARK   10  A    between atoms: C_12  and  C_13 
REMARK   11  A    between atoms: C_13  and  C_14 
REMARK   12  A    between atoms: C_13  and  C_26 
REMARK   13  A    between atoms: C_13  and  O_37 
REMARK   14  A    between atoms: C_14  and  C_15 
REMARK   15  A    between atoms: C_15  and  O_17 
REMARK   16  A    between atoms: O_17  and  C_18 
REMARK   17  A    between atoms: C_18  and  C_19 
REMARK   18  A    between atoms: C_19  and  C_20 
REMARK   19  A    between atoms: C_20  and  C_21 
REMARK   20  A    between atoms: C_21  and  C_22 
REMARK   21  A    between atoms: C_22  and  C_23 
REMARK   22  A    between atoms: C_23  and  C_24 
REMARK   23  A    between atoms: C_26  and  O_28 
REMARK   24  A    between atoms: O_28  and  C_29 
REMARK   25  A    between atoms: C_29  and  C_30 
REMARK   26  A    between atoms: C_30  and  C_31 
REMARK   27  A    between atoms: C_31  and  C_32 
REMARK   28  A    between atoms: C_32  and  C_33 
REMARK   29  A    between atoms: C_33  and  C_34 
REMARK   30  A    between atoms: C_34  and  C_35 
ROOT
HETATM    1  C   UNL     1     -18.985   9.505   3.901  1.00  0.00     0.162 C 
ENDROOT
BRANCH   1   2
HETATM    2  C   UNL     1     -18.079   9.053   5.064  1.00  0.00     0.160 C 
BRANCH   2   3
HETATM    3  C   UNL     1     -18.004  10.063   6.176  1.00  0.00     0.262 C 
HETATM    4  O   UNL     1     -18.929  10.338   6.925  1.00  0.00    -0.265 OA
BRANCH   3   5
HETATM    5  O   UNL     1     -16.778  10.664   6.202  1.00  0.00    -0.321 OA
BRANCH   5   6
HETATM    6  C   UNL     1     -15.819   9.894   6.926  1.00  0.00     0.178 C 
BRANCH   6   7
HETATM    7  C   UNL     1     -14.415  10.417   6.718  1.00  0.00     0.027 C 
BRANCH   7   8
HETATM    8  C   UNL     1     -13.605   9.391   5.932  1.00  0.00     0.002 C 
BRANCH   8   9
HETATM    9  C   UNL     1     -14.470   8.202   5.551  1.00  0.00     0.000 C 
BRANCH   9  10
HETATM   10  C   UNL     1     -14.539   8.035   4.036  1.00  0.00     0.000 C 
BRANCH  10  11
HETATM   11  C   UNL     1     -13.719   9.122   3.350  1.00  0.00    -0.000 C 
BRANCH  11  12
HETATM   12  C   UNL     1     -14.067   9.230   1.870  1.00  0.00    -0.005 C 
HETATM   13  C   UNL     1     -14.973   8.088   1.443  1.00  0.00     0.005 C 
ENDBRANCH  11  12
ENDBRANCH  10  11
ENDBRANCH   9  10
ENDBRANCH   8   9
ENDBRANCH   7   8
ENDBRANCH   6   7
ENDBRANCH   5   6
ENDBRANCH   3   5
ENDBRANCH   2   3
ENDBRANCH   1   2
BRANCH   1  14
HETATM   14  C   UNL     1     -18.425   9.299   2.489  1.00  0.00     0.160 C 
BRANCH  14  15
HETATM   15  C   UNL     1     -18.233  10.623   1.805  1.00  0.00     0.262 C 
HETATM   16  O   UNL     1     -17.185  11.236   1.818  1.00  0.00    -0.265 OA
BRANCH  15  17
HETATM   17  O   UNL     1     -19.408  11.086   1.293  1.00  0.00    -0.321 OA
BRANCH  17  18
HETATM   18  C   UNL     1     -19.264  11.693  -0.002  1.00  0.00     0.178 C 
BRANCH  18  19
HETATM   19  C   UNL     1     -20.591  11.722  -0.747  1.00  0.00     0.027 C 
BRANCH  19  20
HETATM   20  C   UNL     1     -20.392  11.454  -2.240  1.00  0.00     0.002 C 
BRANCH  20  21
HETATM   21  C   UNL     1     -21.486  10.538  -2.788  1.00  0.00     0.000 C 
BRANCH  21  22
HETATM   22  C   UNL     1     -20.943   9.608  -3.873  1.00  0.00     0.000 C 
BRANCH  22  23
HETATM   23  C   UNL     1     -21.804   8.352  -3.997  1.00  0.00    -0.000 C 
BRANCH  23  24
HETATM   24  C   UNL     1     -22.952   8.360  -2.990  1.00  0.00    -0.005 C 
HETATM   25  C   UNL     1     -22.927   7.112  -2.123  1.00  0.00     0.005 C 
ENDBRANCH  23  24
ENDBRANCH  22  23
ENDBRANCH  21  22
ENDBRANCH  20  21
ENDBRANCH  19  20
ENDBRANCH  18  19
ENDBRANCH  17  18
ENDBRANCH  15  17
ENDBRANCH  14  15
ENDBRANCH   1  14
BRANCH   1  26
HETATM   26  C   UNL     1     -20.372   8.826   4.005  1.00  0.00     0.294 C 
HETATM   27  O   UNL     1     -20.880   8.432   5.040  1.00  0.00    -0.262 OA
BRANCH  26  28
HETATM   28  O   UNL     1     -20.890   8.610   2.755  1.00  0.00    -0.319 OA
BRANCH  28  29
HETATM   29  C   UNL     1     -22.087   9.341   2.436  1.00  0.00     0.178 C 
BRANCH  29  30
HETATM   30  C   UNL     1     -22.591   8.937   1.055  1.00  0.00     0.027 C 
BRANCH  30  31
HETATM   31  C   UNL     1     -24.094   8.660   1.063  1.00  0.00     0.002 C 
BRANCH  31  32
HETATM   32  C   UNL     1     -24.845   9.563   0.083  1.00  0.00     0.000 C 
BRANCH  32  33
HETATM   33  C   UNL     1     -26.358   9.421   0.260  1.00  0.00     0.000 C 
BRANCH  33  34
HETATM   34  C   UNL     1     -26.728   9.171   1.722  1.00  0.00    -0.000 C 
BRANCH  34  35
HETATM   35  C   UNL     1     -27.975   8.295   1.838  1.00  0.00    -0.005 C 
HETATM   36  C   UNL     1     -28.528   8.313   3.254  1.00  0.00     0.005 C 
ENDBRANCH  34  35
ENDBRANCH  33  34
ENDBRANCH  32  33
ENDBRANCH  31  32
ENDBRANCH  30  31
ENDBRANCH  29  30
ENDBRANCH  28  29
ENDBRANCH  26  28
ENDBRANCH   1  26
BRANCH   1  37
HETATM   37  O   UNL     1     -19.235  10.915   4.059  1.00  0.00    -0.379 OA
HETATM   38  H   UNL     1     -20.194  11.053   4.201  1.00  0.00     0.211 HD
ENDBRANCH   1  37
TORSDOF 30
BEGIN_RES ARG D 557
REMARK  4 active torsions:
REMARK  status: ('A' for Active; 'I' for Inactive)
REMARK    1  A    between atoms: CA   and  CB  
REMARK    2  A    between atoms: CB   and  CG  
REMARK    3  A    between atoms: CG   and  CD  
REMARK    4  A    between atoms: CD   and  NE  
REMARK       I    between atoms: NE   and  CZ  
REMARK       I    between atoms: CZ   and  NH1 
REMARK       I    between atoms: CZ   and  NH2 
ROOT
ATOM      1  CA  ARG D 557     -26.217   2.705 -17.014  1.00 35.49     0.159 C 
ENDROOT
BRANCH   1   2
ATOM      2  CB  ARG D 557     -26.789   1.319 -17.183  1.00 35.49     0.034 C 
BRANCH   2   3
ATOM      3  CG  ARG D 557     -28.234   1.225 -17.423  1.00 35.49     0.027 C 
BRANCH   3   4
ATOM      4  CD  ARG D 557     -28.904   0.300 -16.481  1.00 35.49     0.116 C 
BRANCH   4   5
ATOM      5  NE  ARG D 557     -29.330  -0.915 -17.124  1.00 35.49    -0.212 N 
ATOM      6  CZ  ARG D 557     -28.720  -2.076 -17.053  1.00 35.49     0.666 C 
ATOM      7  NH1 ARG D 557     -27.604  -2.251 -16.369  1.00 35.49    -0.235 N 
ATOM      8  NH2 ARG D 557     -29.261  -3.078 -17.683  1.00 35.49    -0.235 N 
ATOM      9  HH  ARG D 557     -27.232  -1.606 -15.944  1.00 35.49     0.174 HD
ATOM     10  HH  ARG D 557     -27.253  -3.032 -16.356  1.00 35.49     0.174 HD
ATOM     11  HH  ARG D 557     -29.985  -2.938 -18.111  1.00 35.49     0.174 HD
ATOM     12  HH  ARG D 557     -28.898  -3.844 -17.657  1.00 35.49     0.174 HD
ATOM     13  HE  ARG D 557     -30.001  -0.876 -17.645  1.00 35.49     0.178 HD
ENDBRANCH   4   5
ENDBRANCH   3   4
ENDBRANCH   2   3
ENDBRANCH   1   2
END_RES ARG D 557
BEGIN_RES GLU D 570
REMARK  3 active torsions:
REMARK  status: ('A' for Active; 'I' for Inactive)
REMARK    5  A    between atoms: CA   and  CB  
REMARK    6  A    between atoms: CB   and  CG  
REMARK    7  A    between atoms: CG   and  CD  
ROOT
ATOM     14  CA  GLU D 570     -18.033  -6.348 -13.375  1.00 32.92     0.160 C 
ENDROOT
BRANCH  14  15
ATOM     15  CB  GLU D 570     -19.500  -6.345 -13.794  1.00 32.92     0.043 C 
BRANCH  15  16
ATOM     16  CG  GLU D 570     -20.436  -5.504 -13.004  1.00 32.92     0.100 C 
BRANCH  16  17
ATOM     17  CD  GLU D 570     -21.704  -5.169 -13.754  1.00 32.92     0.185 C 
ATOM     18  OE1 GLU D 570     -22.775  -5.084 -13.124  1.00 32.92    -0.647 OA
ATOM     19  OE2 GLU D 570     -21.628  -5.008 -14.988  1.00 32.92    -0.647 OA
ENDBRANCH  16  17
ENDBRANCH  15  16
ENDBRANCH  14  15
END_RES GLU D 570
ENDMDL
