MODEL 1
REMARK VINA RESULT:      -7.2      0.000      0.000
REMARK WARNING: 32 MAX_TORS EXCEEDED!!!
REMARK  38 active torsions:
REMARK  status: ('A' for Active; 'I' for Inactive)
REMARK    1  A    between atoms: C_2  and  C_3 
REMARK    2  A    between atoms: C_3  and  C_4 
REMARK    3  A    between atoms: C_4  and  C_5 
REMARK    4  A    between atoms: C_5  and  C_6 
REMARK    5  A    between atoms: C_6  and  C_7 
REMARK    6  A    between atoms: C_7  and  C_8 
REMARK    7  A    between atoms: C_8  and  C_9 
REMARK    8  A    between atoms: C_9  and  C_10 
REMARK    9  A    between atoms: C_10  and  C_11 
REMARK   10  A    between atoms: C_11  and  C_12 
REMARK   11  A    between atoms: C_12  and  O_13 
REMARK   12  A    between atoms: O_13  and  C_14 
REMARK   13  A    between atoms: C_14  and  C_15 
REMARK   14  A    between atoms: C_15  and  O_16 
REMARK   15  A    between atoms: O_16  and  C_17 
REMARK   16  A    between atoms: C_17  and  C_18 
REMARK   17  A    between atoms: C_18  and  O_19 
REMARK   18  A    between atoms: O_19  and  C_20 
REMARK   19  A    between atoms: C_20  and  C_21 
REMARK   20  A    between atoms: C_21  and  O_22 
REMARK   21  A    between atoms: O_22  and  C_23 
REMARK   22  A    between atoms: C_23  and  C_24 
REMARK   23  A    between atoms: C_24  and  O_25 
REMARK   24  A    between atoms: O_25  and  C_26 
REMARK   25  A    between atoms: C_26  and  C_27 
REMARK   26  A    between atoms: C_27  and  O_28 
REMARK   27  A    between atoms: O_28  and  C_29 
REMARK   28  A    between atoms: C_29  and  C_30 
REMARK   29  A    between atoms: C_30  and  O_31 
REMARK   30  A    between atoms: O_31  and  C_32 
REMARK   31  A    between atoms: C_32  and  C_33 
REMARK   32  A    between atoms: C_33  and  O_34 
REMARK   33  A    between atoms: O_34  and  C_35 
REMARK   34  A    between atoms: C_35  and  C_36 
REMARK   35  A    between atoms: C_36  and  O_37 
REMARK   36  A    between atoms: O_37  and  C_38 
REMARK   37  A    between atoms: C_38  and  C_39 
REMARK   38  A    between atoms: C_39  and  O_40 
ROOT
HETATM    1  C   UNL     1     -29.269  -6.695 -17.150  1.00  0.00     0.193 C 
ENDROOT
BRANCH   1   2
HETATM    2  C   UNL     1     -30.433  -5.728 -17.036  1.00  0.00     0.193 C 
BRANCH   2   3
HETATM    3  O   UNL     1     -30.211  -4.678 -17.973  1.00  0.00    -0.387 OA
BRANCH   3   4
HETATM    4  C   UNL     1     -30.992  -3.531 -17.660  1.00  0.00     0.193 C 
BRANCH   4   5
HETATM    5  C   UNL     1     -32.376  -3.985 -17.234  1.00  0.00     0.193 C 
BRANCH   5   6
HETATM    6  O   UNL     1     -33.261  -2.868 -17.292  1.00  0.00    -0.387 OA
BRANCH   6   7
HETATM    7  C   UNL     1     -34.415  -3.071 -16.492  1.00  0.00     0.193 C 
BRANCH   7   8
HETATM    8  C   UNL     1     -35.303  -1.851 -16.643  1.00  0.00     0.193 C 
BRANCH   8   9
HETATM    9  O   UNL     1     -34.673  -0.752 -15.995  1.00  0.00    -0.389 OA
BRANCH   9  10
HETATM   10  C   UNL     1     -35.568  -0.140 -15.066  1.00  0.00     0.167 C 
BRANCH  10  11
HETATM   11  C   UNL     1     -34.763   0.783 -14.174  1.00  0.00     0.026 C 
BRANCH  11  12
HETATM   12  C   UNL     1     -34.922   0.375 -12.718  1.00  0.00     0.002 C 
BRANCH  12  13
HETATM   13  C   UNL     1     -34.905  -1.140 -12.564  1.00  0.00     0.000 C 
BRANCH  13  14
HETATM   14  C   UNL     1     -35.450  -1.535 -11.197  1.00  0.00     0.000 C 
BRANCH  14  15
HETATM   15  C   UNL     1     -34.418  -2.339 -10.416  1.00  0.00     0.000 C 
BRANCH  15  16
HETATM   16  C   UNL     1     -33.262  -2.748 -11.321  1.00  0.00     0.000 C 
BRANCH  16  17
HETATM   17  C   UNL     1     -33.116  -4.265 -11.351  1.00  0.00     0.000 C 
BRANCH  17  18
HETATM   18  C   UNL     1     -34.188  -4.931 -10.495  1.00  0.00     0.000 C 
BRANCH  18  19
HETATM   19  C   UNL     1     -34.477  -6.343 -10.997  1.00  0.00    -0.000 C 
BRANCH  19  20
HETATM   20  C   UNL     1     -34.875  -7.264  -9.849  1.00  0.00    -0.005 C 
HETATM   21  C   UNL     1     -33.964  -8.478  -9.784  1.00  0.00     0.005 C 
ENDBRANCH  19  20
ENDBRANCH  18  19
ENDBRANCH  17  18
ENDBRANCH  16  17
ENDBRANCH  15  16
ENDBRANCH  14  15
ENDBRANCH  13  14
ENDBRANCH  12  13
ENDBRANCH  11  12
ENDBRANCH  10  11
ENDBRANCH   9  10
ENDBRANCH   8   9
ENDBRANCH   7   8
ENDBRANCH   6   7
ENDBRANCH   5   6
ENDBRANCH   4   5
ENDBRANCH   3   4
ENDBRANCH   2   3
ENDBRANCH   1   2
BRANCH   1  22
HETATM   22  O   UNL     1     -28.211  -6.032 -17.843  1.00  0.00    -0.387 OA
BRANCH  22  23
HETATM   23  C   UNL     1     -26.987  -6.094 -17.113  1.00  0.00     0.193 C 
BRANCH  23  24
HETATM   24  C   UNL     1     -27.224  -6.821 -15.798  1.00  0.00     0.193 C 
BRANCH  24  25
HETATM   25  O   UNL     1     -26.019  -7.475 -15.413  1.00  0.00    -0.387 OA
BRANCH  25  26
HETATM   26  C   UNL     1     -24.874  -6.838 -15.966  1.00  0.00     0.193 C 
BRANCH  26  27
HETATM   27  C   UNL     1     -23.978  -6.377 -14.828  1.00  0.00     0.193 C 
BRANCH  27  28
HETATM   28  O   UNL     1     -24.036  -4.956 -14.750  1.00  0.00    -0.387 OA
BRANCH  28  29
HETATM   29  C   UNL     1     -22.779  -4.397 -14.370  1.00  0.00     0.193 C 
BRANCH  29  30
HETATM   30  C   UNL     1     -23.019  -3.091 -13.624  1.00  0.00     0.193 C 
BRANCH  30  31
HETATM   31  O   UNL     1     -24.326  -3.104 -13.054  1.00  0.00    -0.387 OA
BRANCH  31  32
HETATM   32  C   UNL     1     -24.274  -3.080 -11.635  1.00  0.00     0.193 C 
BRANCH  32  33
HETATM   33  C   UNL     1     -22.815  -3.031 -11.219  1.00  0.00     0.193 C 
BRANCH  33  34
HETATM   34  O   UNL     1     -22.648  -3.820 -10.050  1.00  0.00    -0.387 OA
BRANCH  34  35
HETATM   35  C   UNL     1     -21.291  -4.210  -9.873  1.00  0.00     0.193 C 
BRANCH  35  36
HETATM   36  C   UNL     1     -20.983  -4.246  -8.383  1.00  0.00     0.193 C 
BRANCH  36  37
HETATM   37  O   UNL     1     -19.709  -4.855  -8.178  1.00  0.00    -0.387 OA
BRANCH  37  38
HETATM   38  C   UNL     1     -19.691  -5.632  -6.971  1.00  0.00     0.193 C 
BRANCH  38  39
HETATM   39  C   UNL     1     -21.109  -6.115  -6.681  1.00  0.00     0.190 C 
BRANCH  39  40
HETATM   40  O   UNL     1     -21.095  -7.494  -6.315  1.00  0.00    -0.399 OA
HETATM   41  H   UNL     1     -21.932  -7.636  -5.831  1.00  0.00     0.209 HD
ENDBRANCH  39  40
ENDBRANCH  38  39
ENDBRANCH  37  38
ENDBRANCH  36  37
ENDBRANCH  35  36
ENDBRANCH  34  35
ENDBRANCH  33  34
ENDBRANCH  32  33
ENDBRANCH  31  32
ENDBRANCH  30  31
ENDBRANCH  29  30
ENDBRANCH  28  29
ENDBRANCH  27  28
ENDBRANCH  26  27
ENDBRANCH  25  26
ENDBRANCH  24  25
ENDBRANCH  23  24
ENDBRANCH  22  23
ENDBRANCH   1  22
TORSDOF 38
BEGIN_RES ARG D 557
REMARK  4 active torsions:
REMARK  status: ('A' for Active; 'I' for Inactive)
REMARK    1  A    between atoms: CA   and  CB  
REMARK    2  A    between atoms: CB   and  CG  
REMARK    3  A    between atoms: CG   and  CD  
REMARK    4  A    between atoms: CD   and  NE  
REMARK       I    between atoms: NE   and  CZ  
REMARK       I    between atoms: CZ   and  NH1 
REMARK       I    between atoms: CZ   and  NH2 
ROOT
ATOM      1  CA  ARG D 557     -26.217   2.705 -17.014  1.00 35.49     0.159 C 
ENDROOT
BRANCH   1   2
ATOM      2  CB  ARG D 557     -26.789   1.319 -17.183  1.00 35.49     0.034 C 
BRANCH   2   3
ATOM      3  CG  ARG D 557     -28.199   1.137 -16.817  1.00 35.49     0.027 C 
BRANCH   3   4
ATOM      4  CD  ARG D 557     -28.531  -0.278 -16.535  1.00 35.49     0.116 C 
BRANCH   4   5
ATOM      5  NE  ARG D 557     -27.456  -0.964 -15.867  1.00 35.49    -0.212 N 
ATOM      6  CZ  ARG D 557     -27.204  -2.252 -15.940  1.00 35.49     0.666 C 
ATOM      7  NH1 ARG D 557     -27.948  -3.081 -16.649  1.00 35.49    -0.235 N 
ATOM      8  NH2 ARG D 557     -26.173  -2.700 -15.285  1.00 35.49    -0.235 N 
ATOM      9  HH  ARG D 557     -28.630  -2.808 -17.090  1.00 35.49     0.174 HD
ATOM     10  HH  ARG D 557     -27.734  -3.911 -16.661  1.00 35.49     0.174 HD
ATOM     11  HH  ARG D 557     -25.706  -2.140 -14.842  1.00 35.49     0.174 HD
ATOM     12  HH  ARG D 557     -25.976  -3.524 -15.311  1.00 35.49     0.174 HD
ATOM     13  HE  ARG D 557     -26.970  -0.518 -15.331  1.00 35.49     0.178 HD
ENDBRANCH   4   5
ENDBRANCH   3   4
ENDBRANCH   2   3
ENDBRANCH   1   2
END_RES ARG D 557
BEGIN_RES GLU D 570
REMARK  3 active torsions:
REMARK  status: ('A' for Active; 'I' for Inactive)
REMARK    5  A    between atoms: CA   and  CB  
REMARK    6  A    between atoms: CB   and  CG  
REMARK    7  A    between atoms: CG   and  CD  
ROOT
ATOM     14  CA  GLU D 570     -18.033  -6.348 -13.375  1.00 32.92     0.160 C 
ENDROOT
BRANCH  14  15
ATOM     15  CB  GLU D 570     -19.500  -6.345 -13.794  1.00 32.92     0.043 C 
BRANCH  15  16
ATOM     16  CG  GLU D 570     -19.796  -6.274 -15.248  1.00 32.92     0.100 C 
BRANCH  16  17
ATOM     17  CD  GLU D 570     -20.610  -7.447 -15.742  1.00 32.92     0.185 C 
ATOM     18  OE1 GLU D 570     -20.586  -8.514 -15.099  1.00 32.92    -0.647 OA
ATOM     19  OE2 GLU D 570     -21.266  -7.303 -16.793  1.00 32.92    -0.647 OA
ENDBRANCH  16  17
ENDBRANCH  15  16
ENDBRANCH  14  15
END_RES GLU D 570
ENDMDL
MODEL 2
REMARK VINA RESULT:      -6.8      1.212      2.400
REMARK WARNING: 32 MAX_TORS EXCEEDED!!!
REMARK  38 active torsions:
REMARK  status: ('A' for Active; 'I' for Inactive)
REMARK    1  A    between atoms: C_2  and  C_3 
REMARK    2  A    between atoms: C_3  and  C_4 
REMARK    3  A    between atoms: C_4  and  C_5 
REMARK    4  A    between atoms: C_5  and  C_6 
REMARK    5  A    between atoms: C_6  and  C_7 
REMARK    6  A    between atoms: C_7  and  C_8 
REMARK    7  A    between atoms: C_8  and  C_9 
REMARK    8  A    between atoms: C_9  and  C_10 
REMARK    9  A    between atoms: C_10  and  C_11 
REMARK   10  A    between atoms: C_11  and  C_12 
REMARK   11  A    between atoms: C_12  and  O_13 
REMARK   12  A    between atoms: O_13  and  C_14 
REMARK   13  A    between atoms: C_14  and  C_15 
REMARK   14  A    between atoms: C_15  and  O_16 
REMARK   15  A    between atoms: O_16  and  C_17 
REMARK   16  A    between atoms: C_17  and  C_18 
REMARK   17  A    between atoms: C_18  and  O_19 
REMARK   18  A    between atoms: O_19  and  C_20 
REMARK   19  A    between atoms: C_20  and  C_21 
REMARK   20  A    between atoms: C_21  and  O_22 
REMARK   21  A    between atoms: O_22  and  C_23 
REMARK   22  A    between atoms: C_23  and  C_24 
REMARK   23  A    between atoms: C_24  and  O_25 
REMARK   24  A    between atoms: O_25  and  C_26 
REMARK   25  A    between atoms: C_26  and  C_27 
REMARK   26  A    between atoms: C_27  and  O_28 
REMARK   27  A    between atoms: O_28  and  C_29 
REMARK   28  A    between atoms: C_29  and  C_30 
REMARK   29  A    between atoms: C_30  and  O_31 
REMARK   30  A    between atoms: O_31  and  C_32 
REMARK   31  A    between atoms: C_32  and  C_33 
REMARK   32  A    between atoms: C_33  and  O_34 
REMARK   33  A    between atoms: O_34  and  C_35 
REMARK   34  A    between atoms: C_35  and  C_36 
REMARK   35  A    between atoms: C_36  and  O_37 
REMARK   36  A    between atoms: O_37  and  C_38 
REMARK   37  A    between atoms: C_38  and  C_39 
REMARK   38  A    between atoms: C_39  and  O_40 
ROOT
HETATM    1  C   UNL     1     -26.726  -6.641 -16.339  1.00  0.00     0.193 C 
ENDROOT
BRANCH   1   2
HETATM    2  C   UNL     1     -28.126  -6.700 -15.756  1.00  0.00     0.193 C 
BRANCH   2   3
HETATM    3  O   UNL     1     -28.985  -5.969 -16.626  1.00  0.00    -0.387 OA
BRANCH   3   4
HETATM    4  C   UNL     1     -30.154  -5.528 -15.949  1.00  0.00     0.193 C 
BRANCH   4   5
HETATM    5  C   UNL     1     -31.267  -5.347 -16.964  1.00  0.00     0.193 C 
BRANCH   5   6
HETATM    6  O   UNL     1     -31.873  -4.072 -16.757  1.00  0.00    -0.387 OA
BRANCH   6   7
HETATM    7  C   UNL     1     -33.260  -4.189 -16.480  1.00  0.00     0.193 C 
BRANCH   7   8
HETATM    8  C   UNL     1     -33.947  -2.958 -17.038  1.00  0.00     0.193 C 
BRANCH   8   9
HETATM    9  O   UNL     1     -34.944  -2.540 -16.112  1.00  0.00    -0.389 OA
BRANCH   9  10
HETATM   10  C   UNL     1     -35.354  -1.201 -16.390  1.00  0.00     0.167 C 
BRANCH  10  11
HETATM   11  C   UNL     1     -35.971  -0.627 -15.131  1.00  0.00     0.026 C 
BRANCH  11  12
HETATM   12  C   UNL     1     -35.004   0.340 -14.467  1.00  0.00     0.002 C 
BRANCH  12  13
HETATM   13  C   UNL     1     -34.864   0.047 -12.979  1.00  0.00     0.000 C 
BRANCH  13  14
HETATM   14  C   UNL     1     -35.012  -1.448 -12.722  1.00  0.00     0.000 C 
BRANCH  14  15
HETATM   15  C   UNL     1     -34.867  -1.758 -11.238  1.00  0.00     0.000 C 
BRANCH  15  16
HETATM   16  C   UNL     1     -33.433  -2.156 -10.912  1.00  0.00     0.000 C 
BRANCH  16  17
HETATM   17  C   UNL     1     -33.191  -3.620 -11.260  1.00  0.00     0.000 C 
BRANCH  17  18
HETATM   18  C   UNL     1     -34.309  -4.500 -10.711  1.00  0.00     0.000 C 
BRANCH  18  19
HETATM   19  C   UNL     1     -33.953  -5.977 -10.859  1.00  0.00    -0.000 C 
BRANCH  19  20
HETATM   20  C   UNL     1     -34.743  -6.835  -9.877  1.00  0.00    -0.005 C 
HETATM   21  C   UNL     1     -34.327  -8.293  -9.970  1.00  0.00     0.005 C 
ENDBRANCH  19  20
ENDBRANCH  18  19
ENDBRANCH  17  18
ENDBRANCH  16  17
ENDBRANCH  15  16
ENDBRANCH  14  15
ENDBRANCH  13  14
ENDBRANCH  12  13
ENDBRANCH  11  12
ENDBRANCH  10  11
ENDBRANCH   9  10
ENDBRANCH   8   9
ENDBRANCH   7   8
ENDBRANCH   6   7
ENDBRANCH   5   6
ENDBRANCH   4   5
ENDBRANCH   3   4
ENDBRANCH   2   3
ENDBRANCH   1   2
BRANCH   1  22
HETATM   22  O   UNL     1     -25.831  -7.234 -15.397  1.00  0.00    -0.387 OA
BRANCH  22  23
HETATM   23  C   UNL     1     -24.503  -6.736 -15.552  1.00  0.00     0.193 C 
BRANCH  23  24
HETATM   24  C   UNL     1     -24.281  -5.590 -14.577  1.00  0.00     0.193 C 
BRANCH  24  25
HETATM   25  O   UNL     1     -24.825  -4.399 -15.138  1.00  0.00    -0.387 OA
BRANCH  25  26
HETATM   26  C   UNL     1     -24.814  -3.325 -14.206  1.00  0.00     0.193 C 
BRANCH  26  27
HETATM   27  C   UNL     1     -23.889  -3.689 -13.057  1.00  0.00     0.193 C 
BRANCH  27  28
HETATM   28  O   UNL     1     -22.784  -2.791 -13.060  1.00  0.00    -0.387 OA
BRANCH  28  29
HETATM   29  C   UNL     1     -22.120  -2.767 -11.796  1.00  0.00     0.193 C 
BRANCH  29  30
HETATM   30  C   UNL     1     -22.388  -4.076 -11.066  1.00  0.00     0.193 C 
BRANCH  30  31
HETATM   31  O   UNL     1     -21.152  -4.748 -10.829  1.00  0.00    -0.387 OA
BRANCH  31  32
HETATM   32  C   UNL     1     -20.456  -4.183  -9.729  1.00  0.00     0.193 C 
BRANCH  32  33
HETATM   33  C   UNL     1     -21.444  -4.000  -8.591  1.00  0.00     0.193 C 
BRANCH  33  34
HETATM   34  O   UNL     1     -21.344  -5.116  -7.718  1.00  0.00    -0.387 OA
BRANCH  34  35
HETATM   35  C   UNL     1     -20.199  -5.019  -6.877  1.00  0.00     0.193 C 
BRANCH  35  36
HETATM   36  C   UNL     1     -20.582  -5.473  -5.477  1.00  0.00     0.193 C 
BRANCH  36  37
HETATM   37  O   UNL     1     -21.907  -6.003  -5.497  1.00  0.00    -0.387 OA
BRANCH  37  38
HETATM   38  C   UNL     1     -21.956  -7.308  -4.899  1.00  0.00     0.193 C 
BRANCH  38  39
HETATM   39  C   UNL     1     -20.532  -7.844  -4.781  1.00  0.00     0.190 C 
BRANCH  39  40
HETATM   40  O   UNL     1     -20.378  -9.013  -5.584  1.00  0.00    -0.399 OA
HETATM   41  H   UNL     1     -21.162  -9.562  -5.384  1.00  0.00     0.209 HD
ENDBRANCH  39  40
ENDBRANCH  38  39
ENDBRANCH  37  38
ENDBRANCH  36  37
ENDBRANCH  35  36
ENDBRANCH  34  35
ENDBRANCH  33  34
ENDBRANCH  32  33
ENDBRANCH  31  32
ENDBRANCH  30  31
ENDBRANCH  29  30
ENDBRANCH  28  29
ENDBRANCH  27  28
ENDBRANCH  26  27
ENDBRANCH  25  26
ENDBRANCH  24  25
ENDBRANCH  23  24
ENDBRANCH  22  23
ENDBRANCH   1  22
TORSDOF 38
BEGIN_RES ARG D 557
REMARK  4 active torsions:
REMARK  status: ('A' for Active; 'I' for Inactive)
REMARK    1  A    between atoms: CA   and  CB  
REMARK    2  A    between atoms: CB   and  CG  
REMARK    3  A    between atoms: CG   and  CD  
REMARK    4  A    between atoms: CD   and  NE  
REMARK       I    between atoms: NE   and  CZ  
REMARK       I    between atoms: CZ   and  NH1 
REMARK       I    between atoms: CZ   and  NH2 
ROOT
ATOM      1  CA  ARG D 557     -26.217   2.705 -17.014  1.00 35.49     0.159 C 
ENDROOT
BRANCH   1   2
ATOM      2  CB  ARG D 557     -26.789   1.319 -17.183  1.00 35.49     0.034 C 
BRANCH   2   3
ATOM      3  CG  ARG D 557     -28.203   1.230 -17.568  1.00 35.49     0.027 C 
BRANCH   3   4
ATOM      4  CD  ARG D 557     -28.953   0.257 -16.742  1.00 35.49     0.116 C 
BRANCH   4   5
ATOM      5  NE  ARG D 557     -28.163  -0.902 -16.418  1.00 35.49    -0.212 N 
ATOM      6  CZ  ARG D 557     -28.416  -2.134 -16.797  1.00 35.49     0.666 C 
ATOM      7  NH1 ARG D 557     -29.468  -2.449 -17.530  1.00 35.49    -0.235 N 
ATOM      8  NH2 ARG D 557     -27.579  -3.060 -16.429  1.00 35.49    -0.235 N 
ATOM      9  HH  ARG D 557     -30.031  -1.856 -17.786  1.00 35.49     0.174 HD
ATOM     10  HH  ARG D 557     -29.581  -3.269 -17.750  1.00 35.49     0.174 HD
ATOM     11  HH  ARG D 557     -26.904  -2.826 -15.962  1.00 35.49     0.174 HD
ATOM     12  HH  ARG D 557     -27.706  -3.866 -16.657  1.00 35.49     0.174 HD
ATOM     13  HE  ARG D 557     -27.505  -0.802 -15.888  1.00 35.49     0.178 HD
ENDBRANCH   4   5
ENDBRANCH   3   4
ENDBRANCH   2   3
ENDBRANCH   1   2
END_RES ARG D 557
BEGIN_RES GLU D 570
REMARK  3 active torsions:
REMARK  status: ('A' for Active; 'I' for Inactive)
REMARK    5  A    between atoms: CA   and  CB  
REMARK    6  A    between atoms: CB   and  CG  
REMARK    7  A    between atoms: CG   and  CD  
ROOT
ATOM     14  CA  GLU D 570     -18.033  -6.348 -13.375  1.00 32.92     0.160 C 
ENDROOT
BRANCH  14  15
ATOM     15  CB  GLU D 570     -19.500  -6.345 -13.794  1.00 32.92     0.043 C 
BRANCH  15  16
ATOM     16  CG  GLU D 570     -20.083  -7.632 -14.255  1.00 32.92     0.100 C 
BRANCH  16  17
ATOM     17  CD  GLU D 570     -20.811  -7.510 -15.573  1.00 32.92     0.185 C 
ATOM     18  OE1 GLU D 570     -21.189  -8.546 -16.153  1.00 32.92    -0.647 OA
ATOM     19  OE2 GLU D 570     -20.989  -6.368 -16.040  1.00 32.92    -0.647 OA
ENDBRANCH  16  17
ENDBRANCH  15  16
ENDBRANCH  14  15
END_RES GLU D 570
ENDMDL
MODEL 3
REMARK VINA RESULT:      -6.5      1.834      3.291
REMARK WARNING: 32 MAX_TORS EXCEEDED!!!
REMARK  38 active torsions:
REMARK  status: ('A' for Active; 'I' for Inactive)
REMARK    1  A    between atoms: C_2  and  C_3 
REMARK    2  A    between atoms: C_3  and  C_4 
REMARK    3  A    between atoms: C_4  and  C_5 
REMARK    4  A    between atoms: C_5  and  C_6 
REMARK    5  A    between atoms: C_6  and  C_7 
REMARK    6  A    between atoms: C_7  and  C_8 
REMARK    7  A    between atoms: C_8  and  C_9 
REMARK    8  A    between atoms: C_9  and  C_10 
REMARK    9  A    between atoms: C_10  and  C_11 
REMARK   10  A    between atoms: C_11  and  C_12 
REMARK   11  A    between atoms: C_12  and  O_13 
REMARK   12  A    between atoms: O_13  and  C_14 
REMARK   13  A    between atoms: C_14  and  C_15 
REMARK   14  A    between atoms: C_15  and  O_16 
REMARK   15  A    between atoms: O_16  and  C_17 
REMARK   16  A    between atoms: C_17  and  C_18 
REMARK   17  A    between atoms: C_18  and  O_19 
REMARK   18  A    between atoms: O_19  and  C_20 
REMARK   19  A    between atoms: C_20  and  C_21 
REMARK   20  A    between atoms: C_21  and  O_22 
REMARK   21  A    between atoms: O_22  and  C_23 
REMARK   22  A    between atoms: C_23  and  C_24 
REMARK   23  A    between atoms: C_24  and  O_25 
REMARK   24  A    between atoms: O_25  and  C_26 
REMARK   25  A    between atoms: C_26  and  C_27 
REMARK   26  A    between atoms: C_27  and  O_28 
REMARK   27  A    between atoms: O_28  and  C_29 
REMARK   28  A    between atoms: C_29  and  C_30 
REMARK   29  A    between atoms: C_30  and  O_31 
REMARK   30  A    between atoms: O_31  and  C_32 
REMARK   31  A    between atoms: C_32  and  C_33 
REMARK   32  A    between atoms: C_33  and  O_34 
REMARK   33  A    between atoms: O_34  and  C_35 
REMARK   34  A    between atoms: C_35  and  C_36 
REMARK   35  A    between atoms: C_36  and  O_37 
REMARK   36  A    between atoms: O_37  and  C_38 
REMARK   37  A    between atoms: C_38  and  C_39 
REMARK   38  A    between atoms: C_39  and  O_40 
ROOT
HETATM    1  C   UNL     1     -27.494  -7.114 -15.779  1.00  0.00     0.193 C 
ENDROOT
BRANCH   1   2
HETATM    2  C   UNL     1     -27.373  -5.721 -16.369  1.00  0.00     0.193 C 
BRANCH   2   3
HETATM    3  O   UNL     1     -28.272  -4.874 -15.659  1.00  0.00    -0.387 OA
BRANCH   3   4
HETATM    4  C   UNL     1     -29.529  -5.506 -15.458  1.00  0.00     0.193 C 
BRANCH   4   5
HETATM    5  C   UNL     1     -30.408  -5.241 -16.666  1.00  0.00     0.193 C 
BRANCH   5   6
HETATM    6  O   UNL     1     -31.417  -4.302 -16.299  1.00  0.00    -0.387 OA
BRANCH   6   7
HETATM    7  C   UNL     1     -31.967  -3.652 -17.435  1.00  0.00     0.193 C 
BRANCH   7   8
HETATM    8  C   UNL     1     -33.474  -3.633 -17.273  1.00  0.00     0.193 C 
BRANCH   8   9
HETATM    9  O   UNL     1     -33.905  -2.278 -17.218  1.00  0.00    -0.389 OA
BRANCH   9  10
HETATM   10  C   UNL     1     -34.952  -2.125 -16.260  1.00  0.00     0.167 C 
BRANCH  10  11
HETATM   11  C   UNL     1     -35.801  -0.940 -16.674  1.00  0.00     0.026 C 
BRANCH  11  12
HETATM   12  C   UNL     1     -36.194  -0.125 -15.453  1.00  0.00     0.002 C 
BRANCH  12  13
HETATM   13  C   UNL     1     -34.987   0.578 -14.846  1.00  0.00     0.000 C 
BRANCH  13  14
HETATM   14  C   UNL     1     -35.090   0.579 -13.326  1.00  0.00     0.000 C 
BRANCH  14  15
HETATM   15  C   UNL     1     -34.905  -0.827 -12.771  1.00  0.00     0.000 C 
BRANCH  15  16
HETATM   16  C   UNL     1     -35.748  -1.023 -11.518  1.00  0.00     0.000 C 
BRANCH  16  17
HETATM   17  C   UNL     1     -35.052  -1.969 -10.546  1.00  0.00     0.000 C 
BRANCH  17  18
HETATM   18  C   UNL     1     -33.644  -2.303 -11.028  1.00  0.00     0.000 C 
BRANCH  18  19
HETATM   19  C   UNL     1     -33.380  -3.802 -10.919  1.00  0.00    -0.000 C 
BRANCH  19  20
HETATM   20  C   UNL     1     -34.685  -4.586 -10.834  1.00  0.00    -0.005 C 
HETATM   21  C   UNL     1     -34.431  -6.024 -10.415  1.00  0.00     0.005 C 
ENDBRANCH  19  20
ENDBRANCH  18  19
ENDBRANCH  17  18
ENDBRANCH  16  17
ENDBRANCH  15  16
ENDBRANCH  14  15
ENDBRANCH  13  14
ENDBRANCH  12  13
ENDBRANCH  11  12
ENDBRANCH  10  11
ENDBRANCH   9  10
ENDBRANCH   8   9
ENDBRANCH   7   8
ENDBRANCH   6   7
ENDBRANCH   5   6
ENDBRANCH   4   5
ENDBRANCH   3   4
ENDBRANCH   2   3
ENDBRANCH   1   2
BRANCH   1  22
HETATM   22  O   UNL     1     -26.192  -7.531 -15.367  1.00  0.00    -0.387 OA
BRANCH  22  23
HETATM   23  C   UNL     1     -25.175  -6.965 -16.191  1.00  0.00     0.193 C 
BRANCH  23  24
HETATM   24  C   UNL     1     -23.924  -6.734 -15.357  1.00  0.00     0.193 C 
BRANCH  24  25
HETATM   25  O   UNL     1     -24.252  -5.878 -14.267  1.00  0.00    -0.387 OA
BRANCH  25  26
HETATM   26  C   UNL     1     -23.100  -5.517 -13.515  1.00  0.00     0.193 C 
BRANCH  26  27
HETATM   27  C   UNL     1     -23.547  -5.023 -12.149  1.00  0.00     0.193 C 
BRANCH  27  28
HETATM   28  O   UNL     1     -23.340  -3.616 -12.083  1.00  0.00    -0.387 OA
BRANCH  28  29
HETATM   29  C   UNL     1     -22.356  -3.272 -11.108  1.00  0.00     0.193 C 
BRANCH  29  30
HETATM   30  C   UNL     1     -22.777  -3.832  -9.756  1.00  0.00     0.193 C 
BRANCH  30  31
HETATM   31  O   UNL     1     -21.757  -4.701  -9.264  1.00  0.00    -0.387 OA
BRANCH  31  32
HETATM   32  C   UNL     1     -20.692  -3.970  -8.677  1.00  0.00     0.193 C 
BRANCH  32  33
HETATM   33  C   UNL     1     -20.926  -3.920  -7.178  1.00  0.00     0.193 C 
BRANCH  33  34
HETATM   34  O   UNL     1     -21.096  -5.246  -6.699  1.00  0.00    -0.387 OA
BRANCH  34  35
HETATM   35  C   UNL     1     -20.320  -5.483  -5.530  1.00  0.00     0.193 C 
BRANCH  35  36
HETATM   36  C   UNL     1     -21.245  -5.945  -4.414  1.00  0.00     0.193 C 
BRANCH  36  37
HETATM   37  O   UNL     1     -20.712  -7.128  -3.818  1.00  0.00    -0.387 OA
BRANCH  37  38
HETATM   38  C   UNL     1     -21.556  -7.602  -2.757  1.00  0.00     0.193 C 
BRANCH  38  39
HETATM   39  C   UNL     1     -22.325  -6.417  -2.179  1.00  0.00     0.190 C 
BRANCH  39  40
HETATM   40  O   UNL     1     -22.413  -6.533  -0.759  1.00  0.00    -0.399 OA
HETATM   41  H   UNL     1     -21.532  -6.850  -0.477  1.00  0.00     0.209 HD
ENDBRANCH  39  40
ENDBRANCH  38  39
ENDBRANCH  37  38
ENDBRANCH  36  37
ENDBRANCH  35  36
ENDBRANCH  34  35
ENDBRANCH  33  34
ENDBRANCH  32  33
ENDBRANCH  31  32
ENDBRANCH  30  31
ENDBRANCH  29  30
ENDBRANCH  28  29
ENDBRANCH  27  28
ENDBRANCH  26  27
ENDBRANCH  25  26
ENDBRANCH  24  25
ENDBRANCH  23  24
ENDBRANCH  22  23
ENDBRANCH   1  22
TORSDOF 38
BEGIN_RES ARG D 557
REMARK  4 active torsions:
REMARK  status: ('A' for Active; 'I' for Inactive)
REMARK    1  A    between atoms: CA   and  CB  
REMARK    2  A    between atoms: CB   and  CG  
REMARK    3  A    between atoms: CG   and  CD  
REMARK    4  A    between atoms: CD   and  NE  
REMARK       I    between atoms: NE   and  CZ  
REMARK       I    between atoms: CZ   and  NH1 
REMARK       I    between atoms: CZ   and  NH2 
ROOT
ATOM      1  CA  ARG D 557     -26.217   2.705 -17.014  1.00 35.49     0.159 C 
ENDROOT
BRANCH   1   2
ATOM      2  CB  ARG D 557     -26.789   1.319 -17.183  1.00 35.49     0.034 C 
BRANCH   2   3
ATOM      3  CG  ARG D 557     -25.837   0.202 -17.143  1.00 35.49     0.027 C 
BRANCH   3   4
ATOM      4  CD  ARG D 557     -25.327  -0.056 -15.777  1.00 35.49     0.116 C 
BRANCH   4   5
ATOM      5  NE  ARG D 557     -25.878  -1.259 -15.211  1.00 35.49    -0.212 N 
ATOM      6  CZ  ARG D 557     -25.190  -2.227 -14.646  1.00 35.49     0.666 C 
ATOM      7  NH1 ARG D 557     -23.874  -2.199 -14.550  1.00 35.49    -0.235 N 
ATOM      8  NH2 ARG D 557     -25.858  -3.236 -14.167  1.00 35.49    -0.235 N 
ATOM      9  HH  ARG D 557     -23.415  -1.543 -14.856  1.00 35.49     0.174 HD
ATOM     10  HH  ARG D 557     -23.480  -2.857 -14.168  1.00 35.49     0.174 HD
ATOM     11  HH  ARG D 557     -26.707  -3.224 -14.237  1.00 35.49     0.174 HD
ATOM     12  HH  ARG D 557     -25.449  -3.878 -13.792  1.00 35.49     0.174 HD
ATOM     13  HE  ARG D 557     -26.713  -1.394 -15.295  1.00 35.49     0.178 HD
ENDBRANCH   4   5
ENDBRANCH   3   4
ENDBRANCH   2   3
ENDBRANCH   1   2
END_RES ARG D 557
BEGIN_RES GLU D 570
REMARK  3 active torsions:
REMARK  status: ('A' for Active; 'I' for Inactive)
REMARK    5  A    between atoms: CA   and  CB  
REMARK    6  A    between atoms: CB   and  CG  
REMARK    7  A    between atoms: CG   and  CD  
ROOT
ATOM     14  CA  GLU D 570     -18.033  -6.348 -13.375  1.00 32.92     0.160 C 
ENDROOT
BRANCH  14  15
ATOM     15  CB  GLU D 570     -19.500  -6.345 -13.794  1.00 32.92     0.043 C 
BRANCH  15  16
ATOM     16  CG  GLU D 570     -20.084  -7.632 -14.252  1.00 32.92     0.100 C 
BRANCH  16  17
ATOM     17  CD  GLU D 570     -20.517  -7.601 -15.699  1.00 32.92     0.185 C 
ATOM     18  OE1 GLU D 570     -20.795  -8.672 -16.271  1.00 32.92    -0.647 OA
ATOM     19  OE2 GLU D 570     -20.562  -6.494 -16.272  1.00 32.92    -0.647 OA
ENDBRANCH  16  17
ENDBRANCH  15  16
ENDBRANCH  14  15
END_RES GLU D 570
ENDMDL
MODEL 4
REMARK VINA RESULT:      -6.2      1.280      2.382
REMARK WARNING: 32 MAX_TORS EXCEEDED!!!
REMARK  38 active torsions:
REMARK  status: ('A' for Active; 'I' for Inactive)
REMARK    1  A    between atoms: C_2  and  C_3 
REMARK    2  A    between atoms: C_3  and  C_4 
REMARK    3  A    between atoms: C_4  and  C_5 
REMARK    4  A    between atoms: C_5  and  C_6 
REMARK    5  A    between atoms: C_6  and  C_7 
REMARK    6  A    between atoms: C_7  and  C_8 
REMARK    7  A    between atoms: C_8  and  C_9 
REMARK    8  A    between atoms: C_9  and  C_10 
REMARK    9  A    between atoms: C_10  and  C_11 
REMARK   10  A    between atoms: C_11  and  C_12 
REMARK   11  A    between atoms: C_12  and  O_13 
REMARK   12  A    between atoms: O_13  and  C_14 
REMARK   13  A    between atoms: C_14  and  C_15 
REMARK   14  A    between atoms: C_15  and  O_16 
REMARK   15  A    between atoms: O_16  and  C_17 
REMARK   16  A    between atoms: C_17  and  C_18 
REMARK   17  A    between atoms: C_18  and  O_19 
REMARK   18  A    between atoms: O_19  and  C_20 
REMARK   19  A    between atoms: C_20  and  C_21 
REMARK   20  A    between atoms: C_21  and  O_22 
REMARK   21  A    between atoms: O_22  and  C_23 
REMARK   22  A    between atoms: C_23  and  C_24 
REMARK   23  A    between atoms: C_24  and  O_25 
REMARK   24  A    between atoms: O_25  and  C_26 
REMARK   25  A    between atoms: C_26  and  C_27 
REMARK   26  A    between atoms: C_27  and  O_28 
REMARK   27  A    between atoms: O_28  and  C_29 
REMARK   28  A    between atoms: C_29  and  C_30 
REMARK   29  A    between atoms: C_30  and  O_31 
REMARK   30  A    between atoms: O_31  and  C_32 
REMARK   31  A    between atoms: C_32  and  C_33 
REMARK   32  A    between atoms: C_33  and  O_34 
REMARK   33  A    between atoms: O_34  and  C_35 
REMARK   34  A    between atoms: C_35  and  C_36 
REMARK   35  A    between atoms: C_36  and  O_37 
REMARK   36  A    between atoms: O_37  and  C_38 
REMARK   37  A    between atoms: C_38  and  C_39 
REMARK   38  A    between atoms: C_39  and  O_40 
ROOT
HETATM    1  C   UNL     1     -31.148  -5.207 -16.280  1.00  0.00     0.193 C 
ENDROOT
BRANCH   1   2
HETATM    2  C   UNL     1     -32.395  -4.845 -17.065  1.00  0.00     0.193 C 
BRANCH   2   3
HETATM    3  O   UNL     1     -33.103  -3.862 -16.315  1.00  0.00    -0.387 OA
BRANCH   3   4
HETATM    4  C   UNL     1     -33.708  -2.898 -17.167  1.00  0.00     0.193 C 
BRANCH   4   5
HETATM    5  C   UNL     1     -35.069  -2.534 -16.603  1.00  0.00     0.193 C 
BRANCH   5   6
HETATM    6  O   UNL     1     -35.092  -1.134 -16.329  1.00  0.00    -0.387 OA
BRANCH   6   7
HETATM    7  C   UNL     1     -36.416  -0.626 -16.302  1.00  0.00     0.193 C 
BRANCH   7   8
HETATM    8  C   UNL     1     -36.433   0.569 -15.369  1.00  0.00     0.193 C 
BRANCH   8   9
HETATM    9  O   UNL     1     -36.365   0.096 -14.029  1.00  0.00    -0.389 OA
BRANCH   9  10
HETATM   10  C   UNL     1     -35.251   0.674 -13.350  1.00  0.00     0.167 C 
BRANCH  10  11
HETATM   11  C   UNL     1     -34.593  -0.407 -12.518  1.00  0.00     0.026 C 
BRANCH  11  12
HETATM   12  C   UNL     1     -35.598  -1.007 -11.548  1.00  0.00     0.002 C 
BRANCH  12  13
HETATM   13  C   UNL     1     -34.969  -2.116 -10.715  1.00  0.00     0.000 C 
BRANCH  13  14
HETATM   14  C   UNL     1     -33.461  -2.143 -10.931  1.00  0.00     0.000 C 
BRANCH  14  15
HETATM   15  C   UNL     1     -33.000  -3.534 -11.348  1.00  0.00     0.000 C 
BRANCH  15  16
HETATM   16  C   UNL     1     -33.795  -4.022 -12.553  1.00  0.00     0.000 C 
BRANCH  16  17
HETATM   17  C   UNL     1     -34.488  -5.343 -12.238  1.00  0.00     0.000 C 
BRANCH  17  18
HETATM   18  C   UNL     1     -33.883  -5.991 -10.998  1.00  0.00     0.000 C 
BRANCH  18  19
HETATM   19  C   UNL     1     -34.962  -6.266  -9.954  1.00  0.00    -0.000 C 
BRANCH  19  20
HETATM   20  C   UNL     1     -34.850  -7.685  -9.407  1.00  0.00    -0.005 C 
HETATM   21  C   UNL     1     -33.878  -8.512 -10.232  1.00  0.00     0.005 C 
ENDBRANCH  19  20
ENDBRANCH  18  19
ENDBRANCH  17  18
ENDBRANCH  16  17
ENDBRANCH  15  16
ENDBRANCH  14  15
ENDBRANCH  13  14
ENDBRANCH  12  13
ENDBRANCH  11  12
ENDBRANCH  10  11
ENDBRANCH   9  10
ENDBRANCH   8   9
ENDBRANCH   7   8
ENDBRANCH   6   7
ENDBRANCH   5   6
ENDBRANCH   4   5
ENDBRANCH   3   4
ENDBRANCH   2   3
ENDBRANCH   1   2
BRANCH   1  22
HETATM   22  O   UNL     1     -30.041  -5.195 -17.182  1.00  0.00    -0.387 OA
BRANCH  22  23
HETATM   23  C   UNL     1     -29.991  -6.387 -17.965  1.00  0.00     0.193 C 
BRANCH  23  24
HETATM   24  C   UNL     1     -28.591  -6.553 -18.537  1.00  0.00     0.193 C 
BRANCH  24  25
HETATM   25  O   UNL     1     -27.643  -6.165 -17.547  1.00  0.00    -0.387 OA
BRANCH  25  26
HETATM   26  C   UNL     1     -27.671  -7.033 -16.421  1.00  0.00     0.193 C 
BRANCH  26  27
HETATM   27  C   UNL     1     -26.664  -6.534 -15.399  1.00  0.00     0.193 C 
BRANCH  27  28
HETATM   28  O   UNL     1     -25.568  -7.443 -15.358  1.00  0.00    -0.387 OA
BRANCH  28  29
HETATM   29  C   UNL     1     -24.316  -6.759 -15.337  1.00  0.00     0.193 C 
BRANCH  29  30
HETATM   30  C   UNL     1     -24.556  -5.285 -15.038  1.00  0.00     0.193 C 
BRANCH  30  31
HETATM   31  O   UNL     1     -23.313  -4.654 -14.735  1.00  0.00    -0.387 OA
BRANCH  31  32
HETATM   32  C   UNL     1     -22.878  -4.967 -13.421  1.00  0.00     0.193 C 
BRANCH  32  33
HETATM   33  C   UNL     1     -23.425  -3.910 -12.480  1.00  0.00     0.193 C 
BRANCH  33  34
HETATM   34  O   UNL     1     -22.352  -3.086 -12.047  1.00  0.00    -0.387 OA
BRANCH  34  35
HETATM   35  C   UNL     1     -21.738  -3.603 -10.872  1.00  0.00     0.193 C 
BRANCH  35  36
HETATM   36  C   UNL     1     -22.794  -4.318 -10.043  1.00  0.00     0.193 C 
BRANCH  36  37
HETATM   37  O   UNL     1     -22.168  -4.970  -8.938  1.00  0.00    -0.387 OA
BRANCH  37  38
HETATM   38  C   UNL     1     -20.934  -4.326  -8.585  1.00  0.00     0.193 C 
BRANCH  38  39
HETATM   39  C   UNL     1     -20.933  -4.064  -7.082  1.00  0.00     0.190 C 
BRANCH  39  40
HETATM   40  O   UNL     1     -19.706  -4.509  -6.505  1.00  0.00    -0.399 OA
HETATM   41  H   UNL     1     -19.079  -4.561  -7.253  1.00  0.00     0.209 HD
ENDBRANCH  39  40
ENDBRANCH  38  39
ENDBRANCH  37  38
ENDBRANCH  36  37
ENDBRANCH  35  36
ENDBRANCH  34  35
ENDBRANCH  33  34
ENDBRANCH  32  33
ENDBRANCH  31  32
ENDBRANCH  30  31
ENDBRANCH  29  30
ENDBRANCH  28  29
ENDBRANCH  27  28
ENDBRANCH  26  27
ENDBRANCH  25  26
ENDBRANCH  24  25
ENDBRANCH  23  24
ENDBRANCH  22  23
ENDBRANCH   1  22
TORSDOF 38
BEGIN_RES ARG D 557
REMARK  4 active torsions:
REMARK  status: ('A' for Active; 'I' for Inactive)
REMARK    1  A    between atoms: CA   and  CB  
REMARK    2  A    between atoms: CB   and  CG  
REMARK    3  A    between atoms: CG   and  CD  
REMARK    4  A    between atoms: CD   and  NE  
REMARK       I    between atoms: NE   and  CZ  
REMARK       I    between atoms: CZ   and  NH1 
REMARK       I    between atoms: CZ   and  NH2 
ROOT
ATOM      1  CA  ARG D 557     -26.217   2.705 -17.014  1.00 35.49     0.159 C 
ENDROOT
BRANCH   1   2
ATOM      2  CB  ARG D 557     -26.789   1.319 -17.183  1.00 35.49     0.034 C 
BRANCH   2   3
ATOM      3  CG  ARG D 557     -25.979   0.204 -16.677  1.00 35.49     0.027 C 
BRANCH   3   4
ATOM      4  CD  ARG D 557     -26.800  -0.834 -16.014  1.00 35.49     0.116 C 
BRANCH   4   5
ATOM      5  NE  ARG D 557     -28.048  -1.058 -16.696  1.00 35.49    -0.212 N 
ATOM      6  CZ  ARG D 557     -28.579  -2.230 -16.962  1.00 35.49     0.666 C 
ATOM      7  NH1 ARG D 557     -27.993  -3.366 -16.629  1.00 35.49    -0.235 N 
ATOM      8  NH2 ARG D 557     -29.729  -2.244 -17.571  1.00 35.49    -0.235 N 
ATOM      9  HH  ARG D 557     -27.237  -3.380 -16.226  1.00 35.49     0.174 HD
ATOM     10  HH  ARG D 557     -28.388  -4.100 -16.826  1.00 35.49     0.174 HD
ATOM     11  HH  ARG D 557     -30.087  -1.495 -17.766  1.00 35.49     0.174 HD
ATOM     12  HH  ARG D 557     -30.105  -2.982 -17.755  1.00 35.49     0.174 HD
ATOM     13  HE  ARG D 557     -28.457  -0.382 -17.011  1.00 35.49     0.178 HD
ENDBRANCH   4   5
ENDBRANCH   3   4
ENDBRANCH   2   3
ENDBRANCH   1   2
END_RES ARG D 557
BEGIN_RES GLU D 570
REMARK  3 active torsions:
REMARK  status: ('A' for Active; 'I' for Inactive)
REMARK    5  A    between atoms: CA   and  CB  
REMARK    6  A    between atoms: CB   and  CG  
REMARK    7  A    between atoms: CG   and  CD  
ROOT
ATOM     14  CA  GLU D 570     -18.033  -6.348 -13.375  1.00 32.92     0.160 C 
ENDROOT
BRANCH  14  15
ATOM     15  CB  GLU D 570     -19.500  -6.345 -13.794  1.00 32.92     0.043 C 
BRANCH  15  16
ATOM     16  CG  GLU D 570     -19.798  -6.201 -15.242  1.00 32.92     0.100 C 
BRANCH  16  17
ATOM     17  CD  GLU D 570     -20.643  -7.330 -15.785  1.00 32.92     0.185 C 
ATOM     18  OE1 GLU D 570     -21.275  -7.157 -16.845  1.00 32.92    -0.647 OA
ATOM     19  OE2 GLU D 570     -20.686  -8.393 -15.135  1.00 32.92    -0.647 OA
ENDBRANCH  16  17
ENDBRANCH  15  16
ENDBRANCH  14  15
END_RES GLU D 570
ENDMDL
MODEL 5
REMARK VINA RESULT:      -6.0      4.555     13.535
REMARK WARNING: 32 MAX_TORS EXCEEDED!!!
REMARK  38 active torsions:
REMARK  status: ('A' for Active; 'I' for Inactive)
REMARK    1  A    between atoms: C_2  and  C_3 
REMARK    2  A    between atoms: C_3  and  C_4 
REMARK    3  A    between atoms: C_4  and  C_5 
REMARK    4  A    between atoms: C_5  and  C_6 
REMARK    5  A    between atoms: C_6  and  C_7 
REMARK    6  A    between atoms: C_7  and  C_8 
REMARK    7  A    between atoms: C_8  and  C_9 
REMARK    8  A    between atoms: C_9  and  C_10 
REMARK    9  A    between atoms: C_10  and  C_11 
REMARK   10  A    between atoms: C_11  and  C_12 
REMARK   11  A    between atoms: C_12  and  O_13 
REMARK   12  A    between atoms: O_13  and  C_14 
REMARK   13  A    between atoms: C_14  and  C_15 
REMARK   14  A    between atoms: C_15  and  O_16 
REMARK   15  A    between atoms: O_16  and  C_17 
REMARK   16  A    between atoms: C_17  and  C_18 
REMARK   17  A    between atoms: C_18  and  O_19 
REMARK   18  A    between atoms: O_19  and  C_20 
REMARK   19  A    between atoms: C_20  and  C_21 
REMARK   20  A    between atoms: C_21  and  O_22 
REMARK   21  A    between atoms: O_22  and  C_23 
REMARK   22  A    between atoms: C_23  and  C_24 
REMARK   23  A    between atoms: C_24  and  O_25 
REMARK   24  A    between atoms: O_25  and  C_26 
REMARK   25  A    between atoms: C_26  and  C_27 
REMARK   26  A    between atoms: C_27  and  O_28 
REMARK   27  A    between atoms: O_28  and  C_29 
REMARK   28  A    between atoms: C_29  and  C_30 
REMARK   29  A    between atoms: C_30  and  O_31 
REMARK   30  A    between atoms: O_31  and  C_32 
REMARK   31  A    between atoms: C_32  and  C_33 
REMARK   32  A    between atoms: C_33  and  O_34 
REMARK   33  A    between atoms: O_34  and  C_35 
REMARK   34  A    between atoms: C_35  and  C_36 
REMARK   35  A    between atoms: C_36  and  O_37 
REMARK   36  A    between atoms: O_37  and  C_38 
REMARK   37  A    between atoms: C_38  and  C_39 
REMARK   38  A    between atoms: C_39  and  O_40 
ROOT
HETATM    1  C   UNL     1     -20.714  -4.379  -8.171  1.00  0.00     0.193 C 
ENDROOT
BRANCH   1   2
HETATM    2  C   UNL     1     -19.851  -4.834  -7.007  1.00  0.00     0.193 C 
BRANCH   2   3
HETATM    3  O   UNL     1     -19.975  -6.250  -6.909  1.00  0.00    -0.387 OA
BRANCH   3   4
HETATM    4  C   UNL     1     -21.223  -6.623  -6.339  1.00  0.00     0.193 C 
BRANCH   4   5
HETATM    5  C   UNL     1     -21.057  -7.953  -5.629  1.00  0.00     0.193 C 
BRANCH   5   6
HETATM    6  O   UNL     1     -21.569  -7.831  -4.303  1.00  0.00    -0.387 OA
BRANCH   6   7
HETATM    7  C   UNL     1     -21.973  -6.501  -4.017  1.00  0.00     0.193 C 
BRANCH   7   8
HETATM    8  C   UNL     1     -21.532  -6.178  -2.603  1.00  0.00     0.193 C 
BRANCH   8   9
HETATM    9  O   UNL     1     -22.657  -6.307  -1.740  1.00  0.00    -0.389 OA
BRANCH   9  10
HETATM   10  C   UNL     1     -22.309  -7.050  -0.572  1.00  0.00     0.167 C 
BRANCH  10  11
HETATM   11  C   UNL     1     -21.223  -8.037  -0.948  1.00  0.00     0.026 C 
BRANCH  11  12
HETATM   12  C   UNL     1     -21.674  -9.456  -0.639  1.00  0.00     0.002 C 
BRANCH  12  13
HETATM   13  C   UNL     1     -20.583 -10.467  -0.968  1.00  0.00     0.000 C 
BRANCH  13  14
HETATM   14  C   UNL     1     -20.324 -11.367   0.234  1.00  0.00     0.000 C 
BRANCH  14  15
HETATM   15  C   UNL     1     -18.855 -11.767   0.301  1.00  0.00     0.000 C 
BRANCH  15  16
HETATM   16  C   UNL     1     -18.232 -11.752  -1.089  1.00  0.00     0.000 C 
BRANCH  16  17
HETATM   17  C   UNL     1     -16.712 -11.799  -0.995  1.00  0.00     0.000 C 
BRANCH  17  18
HETATM   18  C   UNL     1     -16.074 -11.462  -2.339  1.00  0.00     0.000 C 
BRANCH  18  19
HETATM   19  C   UNL     1     -15.951  -9.951  -2.512  1.00  0.00    -0.000 C 
BRANCH  19  20
HETATM   20  C   UNL     1     -15.971  -9.562  -3.986  1.00  0.00    -0.005 C 
HETATM   21  C   UNL     1     -17.331  -9.840  -4.604  1.00  0.00     0.005 C 
ENDBRANCH  19  20
ENDBRANCH  18  19
ENDBRANCH  17  18
ENDBRANCH  16  17
ENDBRANCH  15  16
ENDBRANCH  14  15
ENDBRANCH  13  14
ENDBRANCH  12  13
ENDBRANCH  11  12
ENDBRANCH  10  11
ENDBRANCH   9  10
ENDBRANCH   8   9
ENDBRANCH   7   8
ENDBRANCH   6   7
ENDBRANCH   5   6
ENDBRANCH   4   5
ENDBRANCH   3   4
ENDBRANCH   2   3
ENDBRANCH   1   2
BRANCH   1  22
HETATM   22  O   UNL     1     -20.038  -4.723  -9.380  1.00  0.00    -0.387 OA
BRANCH  22  23
HETATM   23  C   UNL     1     -20.767  -4.291 -10.528  1.00  0.00     0.193 C 
BRANCH  23  24
HETATM   24  C   UNL     1     -22.258  -4.412 -10.249  1.00  0.00     0.193 C 
BRANCH  24  25
HETATM   25  O   UNL     1     -22.854  -3.125 -10.384  1.00  0.00    -0.387 OA
BRANCH  25  26
HETATM   26  C   UNL     1     -24.201  -3.213 -10.834  1.00  0.00     0.193 C 
BRANCH  26  27
HETATM   27  C   UNL     1     -24.205  -3.777 -12.245  1.00  0.00     0.193 C 
BRANCH  27  28
HETATM   28  O   UNL     1     -23.761  -2.764 -13.141  1.00  0.00    -0.387 OA
BRANCH  28  29
HETATM   29  C   UNL     1     -22.802  -3.265 -14.072  1.00  0.00     0.193 C 
BRANCH  29  30
HETATM   30  C   UNL     1     -22.837  -4.787 -14.053  1.00  0.00     0.193 C 
BRANCH  30  31
HETATM   31  O   UNL     1     -23.382  -5.264 -15.283  1.00  0.00    -0.387 OA
BRANCH  31  32
HETATM   32  C   UNL     1     -24.522  -6.081 -15.063  1.00  0.00     0.193 C 
BRANCH  32  33
HETATM   33  C   UNL     1     -24.526  -7.176 -16.115  1.00  0.00     0.193 C 
BRANCH  33  34
HETATM   34  O   UNL     1     -25.079  -6.653 -17.314  1.00  0.00    -0.387 OA
BRANCH  34  35
HETATM   35  C   UNL     1     -26.393  -6.148 -17.105  1.00  0.00     0.193 C 
BRANCH  35  36
HETATM   36  C   UNL     1     -27.059  -5.944 -18.458  1.00  0.00     0.193 C 
BRANCH  36  37
HETATM   37  O   UNL     1     -28.475  -5.897 -18.286  1.00  0.00    -0.387 OA
BRANCH  37  38
HETATM   38  C   UNL     1     -28.896  -6.734 -17.198  1.00  0.00     0.193 C 
BRANCH  38  39
HETATM   39  C   UNL     1     -30.092  -7.565 -17.655  1.00  0.00     0.190 C 
BRANCH  39  40
HETATM   40  O   UNL     1     -29.668  -8.574 -18.571  1.00  0.00    -0.399 OA
HETATM   41  H   UNL     1     -28.859  -8.216 -18.985  1.00  0.00     0.209 HD
ENDBRANCH  39  40
ENDBRANCH  38  39
ENDBRANCH  37  38
ENDBRANCH  36  37
ENDBRANCH  35  36
ENDBRANCH  34  35
ENDBRANCH  33  34
ENDBRANCH  32  33
ENDBRANCH  31  32
ENDBRANCH  30  31
ENDBRANCH  29  30
ENDBRANCH  28  29
ENDBRANCH  27  28
ENDBRANCH  26  27
ENDBRANCH  25  26
ENDBRANCH  24  25
ENDBRANCH  23  24
ENDBRANCH  22  23
ENDBRANCH   1  22
TORSDOF 38
BEGIN_RES ARG D 557
REMARK  4 active torsions:
REMARK  status: ('A' for Active; 'I' for Inactive)
REMARK    1  A    between atoms: CA   and  CB  
REMARK    2  A    between atoms: CB   and  CG  
REMARK    3  A    between atoms: CG   and  CD  
REMARK    4  A    between atoms: CD   and  NE  
REMARK       I    between atoms: NE   and  CZ  
REMARK       I    between atoms: CZ   and  NH1 
REMARK       I    between atoms: CZ   and  NH2 
ROOT
ATOM      1  CA  ARG D 557     -26.217   2.705 -17.014  1.00 35.49     0.159 C 
ENDROOT
BRANCH   1   2
ATOM      2  CB  ARG D 557     -26.789   1.319 -17.183  1.00 35.49     0.034 C 
BRANCH   2   3
ATOM      3  CG  ARG D 557     -28.222   1.158 -16.910  1.00 35.49     0.027 C 
BRANCH   3   4
ATOM      4  CD  ARG D 557     -28.579  -0.238 -16.569  1.00 35.49     0.116 C 
BRANCH   4   5
ATOM      5  NE  ARG D 557     -27.506  -0.922 -15.896  1.00 35.49    -0.212 N 
ATOM      6  CZ  ARG D 557     -27.251  -2.209 -15.969  1.00 35.49     0.666 C 
ATOM      7  NH1 ARG D 557     -27.988  -3.039 -16.683  1.00 35.49    -0.235 N 
ATOM      8  NH2 ARG D 557     -26.223  -2.655 -15.307  1.00 35.49    -0.235 N 
ATOM      9  HH  ARG D 557     -28.668  -2.767 -17.128  1.00 35.49     0.174 HD
ATOM     10  HH  ARG D 557     -27.771  -3.868 -16.696  1.00 35.49     0.174 HD
ATOM     11  HH  ARG D 557     -25.760  -2.095 -14.860  1.00 35.49     0.174 HD
ATOM     12  HH  ARG D 557     -26.024  -3.479 -15.333  1.00 35.49     0.174 HD
ATOM     13  HE  ARG D 557     -27.025  -0.476 -15.355  1.00 35.49     0.178 HD
ENDBRANCH   4   5
ENDBRANCH   3   4
ENDBRANCH   2   3
ENDBRANCH   1   2
END_RES ARG D 557
BEGIN_RES GLU D 570
REMARK  3 active torsions:
REMARK  status: ('A' for Active; 'I' for Inactive)
REMARK    5  A    between atoms: CA   and  CB  
REMARK    6  A    between atoms: CB   and  CG  
REMARK    7  A    between atoms: CG   and  CD  
ROOT
ATOM     14  CA  GLU D 570     -18.033  -6.348 -13.375  1.00 32.92     0.160 C 
ENDROOT
BRANCH  14  15
ATOM     15  CB  GLU D 570     -19.500  -6.345 -13.794  1.00 32.92     0.043 C 
BRANCH  15  16
ATOM     16  CG  GLU D 570     -20.064  -7.615 -14.319  1.00 32.92     0.100 C 
BRANCH  16  17
ATOM     17  CD  GLU D 570     -20.644  -7.473 -15.708  1.00 32.92     0.185 C 
ATOM     18  OE1 GLU D 570     -20.458  -6.412 -16.335  1.00 32.92    -0.647 OA
ATOM     19  OE2 GLU D 570     -21.304  -8.426 -16.166  1.00 32.92    -0.647 OA
ENDBRANCH  16  17
ENDBRANCH  15  16
ENDBRANCH  14  15
END_RES GLU D 570
ENDMDL
MODEL 6
REMARK VINA RESULT:      -5.9      4.969     10.278
REMARK WARNING: 32 MAX_TORS EXCEEDED!!!
REMARK  38 active torsions:
REMARK  status: ('A' for Active; 'I' for Inactive)
REMARK    1  A    between atoms: C_2  and  C_3 
REMARK    2  A    between atoms: C_3  and  C_4 
REMARK    3  A    between atoms: C_4  and  C_5 
REMARK    4  A    between atoms: C_5  and  C_6 
REMARK    5  A    between atoms: C_6  and  C_7 
REMARK    6  A    between atoms: C_7  and  C_8 
REMARK    7  A    between atoms: C_8  and  C_9 
REMARK    8  A    between atoms: C_9  and  C_10 
REMARK    9  A    between atoms: C_10  and  C_11 
REMARK   10  A    between atoms: C_11  and  C_12 
REMARK   11  A    between atoms: C_12  and  O_13 
REMARK   12  A    between atoms: O_13  and  C_14 
REMARK   13  A    between atoms: C_14  and  C_15 
REMARK   14  A    between atoms: C_15  and  O_16 
REMARK   15  A    between atoms: O_16  and  C_17 
REMARK   16  A    between atoms: C_17  and  C_18 
REMARK   17  A    between atoms: C_18  and  O_19 
REMARK   18  A    between atoms: O_19  and  C_20 
REMARK   19  A    between atoms: C_20  and  C_21 
REMARK   20  A    between atoms: C_21  and  O_22 
REMARK   21  A    between atoms: O_22  and  C_23 
REMARK   22  A    between atoms: C_23  and  C_24 
REMARK   23  A    between atoms: C_24  and  O_25 
REMARK   24  A    between atoms: O_25  and  C_26 
REMARK   25  A    between atoms: C_26  and  C_27 
REMARK   26  A    between atoms: C_27  and  O_28 
REMARK   27  A    between atoms: O_28  and  C_29 
REMARK   28  A    between atoms: C_29  and  C_30 
REMARK   29  A    between atoms: C_30  and  O_31 
REMARK   30  A    between atoms: O_31  and  C_32 
REMARK   31  A    between atoms: C_32  and  C_33 
REMARK   32  A    between atoms: C_33  and  O_34 
REMARK   33  A    between atoms: O_34  and  C_35 
REMARK   34  A    between atoms: C_35  and  C_36 
REMARK   35  A    between atoms: C_36  and  O_37 
REMARK   36  A    between atoms: O_37  and  C_38 
REMARK   37  A    between atoms: C_38  and  C_39 
REMARK   38  A    between atoms: C_39  and  O_40 
ROOT
HETATM    1  C   UNL     1     -23.296  -4.152  -8.805  1.00  0.00     0.193 C 
ENDROOT
BRANCH   1   2
HETATM    2  C   UNL     1     -23.681  -3.242  -9.958  1.00  0.00     0.193 C 
BRANCH   2   3
HETATM    3  O   UNL     1     -24.363  -4.038 -10.923  1.00  0.00    -0.387 OA
BRANCH   3   4
HETATM    4  C   UNL     1     -23.517  -5.052 -11.449  1.00  0.00     0.193 C 
BRANCH   4   5
HETATM    5  C   UNL     1     -22.493  -4.408 -12.365  1.00  0.00     0.193 C 
BRANCH   5   6
HETATM    6  O   UNL     1     -22.868  -4.660 -13.718  1.00  0.00    -0.387 OA
BRANCH   6   7
HETATM    7  C   UNL     1     -23.446  -5.947 -13.871  1.00  0.00     0.193 C 
BRANCH   7   8
HETATM    8  C   UNL     1     -24.284  -5.930 -15.134  1.00  0.00     0.193 C 
BRANCH   8   9
HETATM    9  O   UNL     1     -25.170  -7.044 -15.104  1.00  0.00    -0.389 OA
BRANCH   9  10
HETATM   10  C   UNL     1     -26.441  -6.687 -15.644  1.00  0.00     0.167 C 
BRANCH  10  11
HETATM   11  C   UNL     1     -26.496  -5.177 -15.765  1.00  0.00     0.026 C 
BRANCH  11  12
HETATM   12  C   UNL     1     -27.934  -4.695 -15.667  1.00  0.00     0.002 C 
BRANCH  12  13
HETATM   13  C   UNL     1     -28.914  -5.857 -15.764  1.00  0.00     0.000 C 
BRANCH  13  14
HETATM   14  C   UNL     1     -29.911  -5.610 -16.889  1.00  0.00     0.000 C 
BRANCH  14  15
HETATM   15  C   UNL     1     -29.547  -6.428 -18.122  1.00  0.00     0.000 C 
BRANCH  15  16
HETATM   16  C   UNL     1     -28.550  -5.672 -18.991  1.00  0.00     0.000 C 
BRANCH  16  17
HETATM   17  C   UNL     1     -27.208  -6.396 -19.020  1.00  0.00     0.000 C 
BRANCH  17  18
HETATM   18  C   UNL     1     -26.828  -6.776 -20.447  1.00  0.00     0.000 C 
BRANCH  18  19
HETATM   19  C   UNL     1     -25.334  -6.567 -20.679  1.00  0.00    -0.000 C 
BRANCH  19  20
HETATM   20  C   UNL     1     -24.646  -7.876 -21.052  1.00  0.00    -0.005 C 
HETATM   21  C   UNL     1     -24.032  -7.793 -22.439  1.00  0.00     0.005 C 
ENDBRANCH  19  20
ENDBRANCH  18  19
ENDBRANCH  17  18
ENDBRANCH  16  17
ENDBRANCH  15  16
ENDBRANCH  14  15
ENDBRANCH  13  14
ENDBRANCH  12  13
ENDBRANCH  11  12
ENDBRANCH  10  11
ENDBRANCH   9  10
ENDBRANCH   8   9
ENDBRANCH   7   8
ENDBRANCH   6   7
ENDBRANCH   5   6
ENDBRANCH   4   5
ENDBRANCH   3   4
ENDBRANCH   2   3
ENDBRANCH   1   2
BRANCH   1  22
HETATM   22  O   UNL     1     -22.080  -3.658  -8.243  1.00  0.00    -0.387 OA
BRANCH  22  23
HETATM   23  C   UNL     1     -21.675  -4.428  -7.113  1.00  0.00     0.193 C 
BRANCH  23  24
HETATM   24  C   UNL     1     -20.726  -5.527  -7.568  1.00  0.00     0.193 C 
BRANCH  24  25
HETATM   25  O   UNL     1     -20.868  -6.644  -6.696  1.00  0.00    -0.387 OA
BRANCH  25  26
HETATM   26  C   UNL     1     -21.833  -6.401  -5.680  1.00  0.00     0.193 C 
BRANCH  26  27
HETATM   27  C   UNL     1     -21.261  -6.858  -4.348  1.00  0.00     0.193 C 
BRANCH  27  28
HETATM   28  O   UNL     1     -21.588  -5.890  -3.356  1.00  0.00    -0.387 OA
BRANCH  28  29
HETATM   29  C   UNL     1     -22.195  -6.491  -2.212  1.00  0.00     0.193 C 
BRANCH  29  30
HETATM   30  C   UNL     1     -21.171  -7.373  -1.510  1.00  0.00     0.193 C 
BRANCH  30  31
HETATM   31  O   UNL     1     -21.847  -8.304  -0.666  1.00  0.00    -0.387 OA
BRANCH  31  32
HETATM   32  C   UNL     1     -20.970  -9.321  -0.208  1.00  0.00     0.193 C 
BRANCH  32  33
HETATM   33  C   UNL     1     -21.769 -10.605  -0.069  1.00  0.00     0.193 C 
BRANCH  33  34
HETATM   34  O   UNL     1     -20.921 -11.704  -0.370  1.00  0.00    -0.387 OA
BRANCH  34  35
HETATM   35  C   UNL     1     -20.188 -11.484  -1.571  1.00  0.00     0.193 C 
BRANCH  35  36
HETATM   36  C   UNL     1     -18.796 -12.076  -1.408  1.00  0.00     0.193 C 
BRANCH  36  37
HETATM   37  O   UNL     1     -18.429 -12.048  -0.029  1.00  0.00    -0.387 OA
BRANCH  37  38
HETATM   38  C   UNL     1     -17.784 -13.270   0.362  1.00  0.00     0.193 C 
BRANCH  38  39
HETATM   39  C   UNL     1     -16.339 -12.960   0.741  1.00  0.00     0.190 C 
BRANCH  39  40
HETATM   40  O   UNL     1     -16.265 -11.703   1.411  1.00  0.00    -0.399 OA
HETATM   41  H   UNL     1     -16.782 -11.089   0.854  1.00  0.00     0.209 HD
ENDBRANCH  39  40
ENDBRANCH  38  39
ENDBRANCH  37  38
ENDBRANCH  36  37
ENDBRANCH  35  36
ENDBRANCH  34  35
ENDBRANCH  33  34
ENDBRANCH  32  33
ENDBRANCH  31  32
ENDBRANCH  30  31
ENDBRANCH  29  30
ENDBRANCH  28  29
ENDBRANCH  27  28
ENDBRANCH  26  27
ENDBRANCH  25  26
ENDBRANCH  24  25
ENDBRANCH  23  24
ENDBRANCH  22  23
ENDBRANCH   1  22
TORSDOF 38
BEGIN_RES ARG D 557
REMARK  4 active torsions:
REMARK  status: ('A' for Active; 'I' for Inactive)
REMARK    1  A    between atoms: CA   and  CB  
REMARK    2  A    between atoms: CB   and  CG  
REMARK    3  A    between atoms: CG   and  CD  
REMARK    4  A    between atoms: CD   and  NE  
REMARK       I    between atoms: NE   and  CZ  
REMARK       I    between atoms: CZ   and  NH1 
REMARK       I    between atoms: CZ   and  NH2 
ROOT
ATOM      1  CA  ARG D 557     -26.217   2.705 -17.014  1.00 35.49     0.159 C 
ENDROOT
BRANCH   1   2
ATOM      2  CB  ARG D 557     -26.789   1.319 -17.183  1.00 35.49     0.034 C 
BRANCH   2   3
ATOM      3  CG  ARG D 557     -25.837   0.202 -17.142  1.00 35.49     0.027 C 
BRANCH   3   4
ATOM      4  CD  ARG D 557     -24.831   0.357 -16.067  1.00 35.49     0.116 C 
BRANCH   4   5
ATOM      5  NE  ARG D 557     -25.073  -0.535 -14.964  1.00 35.49    -0.212 N 
ATOM      6  CZ  ARG D 557     -24.308  -1.542 -14.608  1.00 35.49     0.666 C 
ATOM      7  NH1 ARG D 557     -23.203  -1.858 -15.259  1.00 35.49    -0.235 N 
ATOM      8  NH2 ARG D 557     -24.671  -2.233 -13.567  1.00 35.49    -0.235 N 
ATOM      9  HH  ARG D 557     -22.944  -1.415 -15.945  1.00 35.49     0.174 HD
ATOM     10  HH  ARG D 557     -22.742  -2.523 -14.979  1.00 35.49     0.174 HD
ATOM     11  HH  ARG D 557     -25.384  -2.001 -13.161  1.00 35.49     0.174 HD
ATOM     12  HH  ARG D 557     -24.200  -2.888 -13.304  1.00 35.49     0.174 HD
ATOM     13  HE  ARG D 557     -25.802  -0.449 -14.533  1.00 35.49     0.178 HD
ENDBRANCH   4   5
ENDBRANCH   3   4
ENDBRANCH   2   3
ENDBRANCH   1   2
END_RES ARG D 557
BEGIN_RES GLU D 570
REMARK  3 active torsions:
REMARK  status: ('A' for Active; 'I' for Inactive)
REMARK    5  A    between atoms: CA   and  CB  
REMARK    6  A    between atoms: CB   and  CG  
REMARK    7  A    between atoms: CG   and  CD  
ROOT
ATOM     14  CA  GLU D 570     -18.033  -6.348 -13.375  1.00 32.92     0.160 C 
ENDROOT
BRANCH  14  15
ATOM     15  CB  GLU D 570     -19.500  -6.345 -13.794  1.00 32.92     0.043 C 
BRANCH  15  16
ATOM     16  CG  GLU D 570     -20.076  -7.626 -14.279  1.00 32.92     0.100 C 
BRANCH  16  17
ATOM     17  CD  GLU D 570     -20.597  -7.539 -15.695  1.00 32.92     0.185 C 
ATOM     18  OE1 GLU D 570     -20.724  -6.418 -16.225  1.00 32.92    -0.647 OA
ATOM     19  OE2 GLU D 570     -20.896  -8.601 -16.274  1.00 32.92    -0.647 OA
ENDBRANCH  16  17
ENDBRANCH  15  16
ENDBRANCH  14  15
END_RES GLU D 570
ENDMDL
MODEL 7
REMARK VINA RESULT:      -5.9      4.271     13.747
REMARK WARNING: 32 MAX_TORS EXCEEDED!!!
REMARK  38 active torsions:
REMARK  status: ('A' for Active; 'I' for Inactive)
REMARK    1  A    between atoms: C_2  and  C_3 
REMARK    2  A    between atoms: C_3  and  C_4 
REMARK    3  A    between atoms: C_4  and  C_5 
REMARK    4  A    between atoms: C_5  and  C_6 
REMARK    5  A    between atoms: C_6  and  C_7 
REMARK    6  A    between atoms: C_7  and  C_8 
REMARK    7  A    between atoms: C_8  and  C_9 
REMARK    8  A    between atoms: C_9  and  C_10 
REMARK    9  A    between atoms: C_10  and  C_11 
REMARK   10  A    between atoms: C_11  and  C_12 
REMARK   11  A    between atoms: C_12  and  O_13 
REMARK   12  A    between atoms: O_13  and  C_14 
REMARK   13  A    between atoms: C_14  and  C_15 
REMARK   14  A    between atoms: C_15  and  O_16 
REMARK   15  A    between atoms: O_16  and  C_17 
REMARK   16  A    between atoms: C_17  and  C_18 
REMARK   17  A    between atoms: C_18  and  O_19 
REMARK   18  A    between atoms: O_19  and  C_20 
REMARK   19  A    between atoms: C_20  and  C_21 
REMARK   20  A    between atoms: C_21  and  O_22 
REMARK   21  A    between atoms: O_22  and  C_23 
REMARK   22  A    between atoms: C_23  and  C_24 
REMARK   23  A    between atoms: C_24  and  O_25 
REMARK   24  A    between atoms: O_25  and  C_26 
REMARK   25  A    between atoms: C_26  and  C_27 
REMARK   26  A    between atoms: C_27  and  O_28 
REMARK   27  A    between atoms: O_28  and  C_29 
REMARK   28  A    between atoms: C_29  and  C_30 
REMARK   29  A    between atoms: C_30  and  O_31 
REMARK   30  A    between atoms: O_31  and  C_32 
REMARK   31  A    between atoms: C_32  and  C_33 
REMARK   32  A    between atoms: C_33  and  O_34 
REMARK   33  A    between atoms: O_34  and  C_35 
REMARK   34  A    between atoms: C_35  and  C_36 
REMARK   35  A    between atoms: C_36  and  O_37 
REMARK   36  A    between atoms: O_37  and  C_38 
REMARK   37  A    between atoms: C_38  and  C_39 
REMARK   38  A    between atoms: C_39  and  O_40 
ROOT
HETATM    1  C   UNL     1     -22.555  -6.319  -5.253  1.00  0.00     0.193 C 
ENDROOT
BRANCH   1   2
HETATM    2  C   UNL     1     -21.255  -7.101  -5.259  1.00  0.00     0.193 C 
BRANCH   2   3
HETATM    3  O   UNL     1     -20.860  -7.288  -3.903  1.00  0.00    -0.387 OA
BRANCH   3   4
HETATM    4  C   UNL     1     -21.743  -6.621  -3.010  1.00  0.00     0.193 C 
BRANCH   4   5
HETATM    5  C   UNL     1     -21.500  -7.140  -1.605  1.00  0.00     0.193 C 
BRANCH   5   6
HETATM    6  O   UNL     1     -22.595  -6.752  -0.779  1.00  0.00    -0.387 OA
BRANCH   6   7
HETATM    7  C   UNL     1     -23.031  -7.819   0.050  1.00  0.00     0.193 C 
BRANCH   7   8
HETATM    8  C   UNL     1     -21.820  -8.662   0.393  1.00  0.00     0.193 C 
BRANCH   8   9
HETATM    9  O   UNL     1     -22.183 -10.035   0.294  1.00  0.00    -0.389 OA
BRANCH   9  10
HETATM   10  C   UNL     1     -23.438 -10.174  -0.370  1.00  0.00     0.167 C 
BRANCH  10  11
HETATM   11  C   UNL     1     -23.592 -11.621  -0.792  1.00  0.00     0.026 C 
BRANCH  11  12
HETATM   12  C   UNL     1     -22.661 -11.930  -1.953  1.00  0.00     0.002 C 
BRANCH  12  13
HETATM   13  C   UNL     1     -22.448 -10.704  -2.832  1.00  0.00     0.000 C 
BRANCH  13  14
HETATM   14  C   UNL     1     -21.031 -10.701  -3.393  1.00  0.00     0.000 C 
BRANCH  14  15
HETATM   15  C   UNL     1     -20.008 -10.866  -2.277  1.00  0.00     0.000 C 
BRANCH  15  16
HETATM   16  C   UNL     1     -19.059  -9.674  -2.241  1.00  0.00     0.000 C 
BRANCH  16  17
HETATM   17  C   UNL     1     -18.221  -9.618  -3.513  1.00  0.00     0.000 C 
BRANCH  17  18
HETATM   18  C   UNL     1     -16.732  -9.650  -3.184  1.00  0.00     0.000 C 
BRANCH  18  19
HETATM   19  C   UNL     1     -16.116 -10.981  -3.607  1.00  0.00    -0.000 C 
BRANCH  19  20
HETATM   20  C   UNL     1     -16.335 -12.051  -2.543  1.00  0.00    -0.005 C 
HETATM   21  C   UNL     1     -15.965 -11.531  -1.164  1.00  0.00     0.005 C 
ENDBRANCH  19  20
ENDBRANCH  18  19
ENDBRANCH  17  18
ENDBRANCH  16  17
ENDBRANCH  15  16
ENDBRANCH  14  15
ENDBRANCH  13  14
ENDBRANCH  12  13
ENDBRANCH  11  12
ENDBRANCH  10  11
ENDBRANCH   9  10
ENDBRANCH   8   9
ENDBRANCH   7   8
ENDBRANCH   6   7
ENDBRANCH   5   6
ENDBRANCH   4   5
ENDBRANCH   3   4
ENDBRANCH   2   3
ENDBRANCH   1   2
BRANCH   1  22
HETATM   22  O   UNL     1     -22.402  -5.203  -6.132  1.00  0.00    -0.387 OA
BRANCH  22  23
HETATM   23  C   UNL     1     -21.335  -5.408  -7.056  1.00  0.00     0.193 C 
BRANCH  23  24
HETATM   24  C   UNL     1     -21.774  -4.949  -8.438  1.00  0.00     0.193 C 
BRANCH  24  25
HETATM   25  O   UNL     1     -22.509  -3.736  -8.306  1.00  0.00    -0.387 OA
BRANCH  25  26
HETATM   26  C   UNL     1     -23.776  -3.815  -8.947  1.00  0.00     0.193 C 
BRANCH  26  27
HETATM   27  C   UNL     1     -23.678  -4.806 -10.095  1.00  0.00     0.193 C 
BRANCH  27  28
HETATM   28  O   UNL     1     -24.368  -4.270 -11.219  1.00  0.00    -0.387 OA
BRANCH  28  29
HETATM   29  C   UNL     1     -23.678  -3.154 -11.780  1.00  0.00     0.193 C 
BRANCH  29  30
HETATM   30  C   UNL     1     -22.392  -3.640 -12.435  1.00  0.00     0.193 C 
BRANCH  30  31
HETATM   31  O   UNL     1     -22.631  -4.890 -13.080  1.00  0.00    -0.387 OA
BRANCH  31  32
HETATM   32  C   UNL     1     -23.180  -4.709 -14.377  1.00  0.00     0.193 C 
BRANCH  32  33
HETATM   33  C   UNL     1     -23.995  -5.943 -14.719  1.00  0.00     0.193 C 
BRANCH  33  34
HETATM   34  O   UNL     1     -25.122  -5.545 -15.487  1.00  0.00    -0.387 OA
BRANCH  34  35
HETATM   35  C   UNL     1     -25.660  -6.636 -16.228  1.00  0.00     0.193 C 
BRANCH  35  36
HETATM   36  C   UNL     1     -27.122  -6.810 -15.848  1.00  0.00     0.193 C 
BRANCH  36  37
HETATM   37  O   UNL     1     -27.919  -5.900 -16.606  1.00  0.00    -0.387 OA
BRANCH  37  38
HETATM   38  C   UNL     1     -29.118  -6.530 -17.083  1.00  0.00     0.193 C 
BRANCH  38  39
HETATM   39  C   UNL     1     -30.321  -5.803 -16.487  1.00  0.00     0.190 C 
BRANCH  39  40
HETATM   40  O   UNL     1     -30.657  -4.669 -17.286  1.00  0.00    -0.399 OA
HETATM   41  H   UNL     1     -31.338  -4.192 -16.773  1.00  0.00     0.209 HD
ENDBRANCH  39  40
ENDBRANCH  38  39
ENDBRANCH  37  38
ENDBRANCH  36  37
ENDBRANCH  35  36
ENDBRANCH  34  35
ENDBRANCH  33  34
ENDBRANCH  32  33
ENDBRANCH  31  32
ENDBRANCH  30  31
ENDBRANCH  29  30
ENDBRANCH  28  29
ENDBRANCH  27  28
ENDBRANCH  26  27
ENDBRANCH  25  26
ENDBRANCH  24  25
ENDBRANCH  23  24
ENDBRANCH  22  23
ENDBRANCH   1  22
TORSDOF 38
BEGIN_RES ARG D 557
REMARK  4 active torsions:
REMARK  status: ('A' for Active; 'I' for Inactive)
REMARK    1  A    between atoms: CA   and  CB  
REMARK    2  A    between atoms: CB   and  CG  
REMARK    3  A    between atoms: CG   and  CD  
REMARK    4  A    between atoms: CD   and  NE  
REMARK       I    between atoms: NE   and  CZ  
REMARK       I    between atoms: CZ   and  NH1 
REMARK       I    between atoms: CZ   and  NH2 
ROOT
ATOM      1  CA  ARG D 557     -26.217   2.705 -17.014  1.00 35.49     0.159 C 
ENDROOT
BRANCH   1   2
ATOM      2  CB  ARG D 557     -26.789   1.319 -17.183  1.00 35.49     0.034 C 
BRANCH   2   3
ATOM      3  CG  ARG D 557     -28.233   1.170 -16.968  1.00 35.49     0.027 C 
BRANCH   3   4
ATOM      4  CD  ARG D 557     -28.615  -0.224 -16.644  1.00 35.49     0.116 C 
BRANCH   4   5
ATOM      5  NE  ARG D 557     -27.558  -0.933 -15.972  1.00 35.49    -0.212 N 
ATOM      6  CZ  ARG D 557     -27.336  -2.227 -16.040  1.00 35.49     0.666 C 
ATOM      7  NH1 ARG D 557     -28.098  -3.040 -16.748  1.00 35.49    -0.235 N 
ATOM      8  NH2 ARG D 557     -26.317  -2.697 -15.381  1.00 35.49    -0.235 N 
ATOM      9  HH  ARG D 557     -28.772  -2.752 -17.191  1.00 35.49     0.174 HD
ATOM     10  HH  ARG D 557     -27.903  -3.875 -16.757  1.00 35.49     0.174 HD
ATOM     11  HH  ARG D 557     -25.838  -2.147 -14.939  1.00 35.49     0.174 HD
ATOM     12  HH  ARG D 557     -26.140  -3.526 -15.404  1.00 35.49     0.174 HD
ATOM     13  HE  ARG D 557     -27.062  -0.497 -15.436  1.00 35.49     0.178 HD
ENDBRANCH   4   5
ENDBRANCH   3   4
ENDBRANCH   2   3
ENDBRANCH   1   2
END_RES ARG D 557
BEGIN_RES GLU D 570
REMARK  3 active torsions:
REMARK  status: ('A' for Active; 'I' for Inactive)
REMARK    5  A    between atoms: CA   and  CB  
REMARK    6  A    between atoms: CB   and  CG  
REMARK    7  A    between atoms: CG   and  CD  
ROOT
ATOM     14  CA  GLU D 570     -18.033  -6.348 -13.375  1.00 32.92     0.160 C 
ENDROOT
BRANCH  14  15
ATOM     15  CB  GLU D 570     -19.500  -6.345 -13.794  1.00 32.92     0.043 C 
BRANCH  15  16
ATOM     16  CG  GLU D 570     -20.047  -7.596 -14.381  1.00 32.92     0.100 C 
BRANCH  16  17
ATOM     17  CD  GLU D 570     -20.770  -7.366 -15.688  1.00 32.92     0.185 C 
ATOM     18  OE1 GLU D 570     -20.544  -6.322 -16.329  1.00 32.92    -0.647 OA
ATOM     19  OE2 GLU D 570     -21.584  -8.232 -16.065  1.00 32.92    -0.647 OA
ENDBRANCH  16  17
ENDBRANCH  15  16
ENDBRANCH  14  15
END_RES GLU D 570
ENDMDL
MODEL 8
REMARK VINA RESULT:      -5.8      5.020     10.250
REMARK WARNING: 32 MAX_TORS EXCEEDED!!!
REMARK  38 active torsions:
REMARK  status: ('A' for Active; 'I' for Inactive)
REMARK    1  A    between atoms: C_2  and  C_3 
REMARK    2  A    between atoms: C_3  and  C_4 
REMARK    3  A    between atoms: C_4  and  C_5 
REMARK    4  A    between atoms: C_5  and  C_6 
REMARK    5  A    between atoms: C_6  and  C_7 
REMARK    6  A    between atoms: C_7  and  C_8 
REMARK    7  A    between atoms: C_8  and  C_9 
REMARK    8  A    between atoms: C_9  and  C_10 
REMARK    9  A    between atoms: C_10  and  C_11 
REMARK   10  A    between atoms: C_11  and  C_12 
REMARK   11  A    between atoms: C_12  and  O_13 
REMARK   12  A    between atoms: O_13  and  C_14 
REMARK   13  A    between atoms: C_14  and  C_15 
REMARK   14  A    between atoms: C_15  and  O_16 
REMARK   15  A    between atoms: O_16  and  C_17 
REMARK   16  A    between atoms: C_17  and  C_18 
REMARK   17  A    between atoms: C_18  and  O_19 
REMARK   18  A    between atoms: O_19  and  C_20 
REMARK   19  A    between atoms: C_20  and  C_21 
REMARK   20  A    between atoms: C_21  and  O_22 
REMARK   21  A    between atoms: O_22  and  C_23 
REMARK   22  A    between atoms: C_23  and  C_24 
REMARK   23  A    between atoms: C_24  and  O_25 
REMARK   24  A    between atoms: O_25  and  C_26 
REMARK   25  A    between atoms: C_26  and  C_27 
REMARK   26  A    between atoms: C_27  and  O_28 
REMARK   27  A    between atoms: O_28  and  C_29 
REMARK   28  A    between atoms: C_29  and  C_30 
REMARK   29  A    between atoms: C_30  and  O_31 
REMARK   30  A    between atoms: O_31  and  C_32 
REMARK   31  A    between atoms: C_32  and  C_33 
REMARK   32  A    between atoms: C_33  and  O_34 
REMARK   33  A    between atoms: O_34  and  C_35 
REMARK   34  A    between atoms: C_35  and  C_36 
REMARK   35  A    between atoms: C_36  and  O_37 
REMARK   36  A    between atoms: O_37  and  C_38 
REMARK   37  A    between atoms: C_38  and  C_39 
REMARK   38  A    between atoms: C_39  and  O_40 
ROOT
HETATM    1  C   UNL     1     -23.332  -4.176  -8.780  1.00  0.00     0.193 C 
ENDROOT
BRANCH   1   2
HETATM    2  C   UNL     1     -23.651  -3.245  -9.935  1.00  0.00     0.193 C 
BRANCH   2   3
HETATM    3  O   UNL     1     -24.332  -4.008 -10.927  1.00  0.00    -0.387 OA
BRANCH   3   4
HETATM    4  C   UNL     1     -23.473  -4.974 -11.518  1.00  0.00     0.193 C 
BRANCH   4   5
HETATM    5  C   UNL     1     -22.484  -4.260 -12.420  1.00  0.00     0.193 C 
BRANCH   5   6
HETATM    6  O   UNL     1     -22.677  -4.712 -13.759  1.00  0.00    -0.387 OA
BRANCH   6   7
HETATM    7  C   UNL     1     -23.411  -5.926 -13.803  1.00  0.00     0.193 C 
BRANCH   7   8
HETATM    8  C   UNL     1     -24.158  -5.967 -15.121  1.00  0.00     0.193 C 
BRANCH   8   9
HETATM    9  O   UNL     1     -25.112  -7.022 -15.067  1.00  0.00    -0.389 OA
BRANCH   9  10
HETATM   10  C   UNL     1     -26.301  -6.657 -15.766  1.00  0.00     0.167 C 
BRANCH  10  11
HETATM   11  C   UNL     1     -26.448  -5.151 -15.694  1.00  0.00     0.026 C 
BRANCH  11  12
HETATM   12  C   UNL     1     -27.918  -4.771 -15.613  1.00  0.00     0.002 C 
BRANCH  12  13
HETATM   13  C   UNL     1     -28.813  -5.995 -15.744  1.00  0.00     0.000 C 
BRANCH  13  14
HETATM   14  C   UNL     1     -29.845  -5.776 -16.844  1.00  0.00     0.000 C 
BRANCH  14  15
HETATM   15  C   UNL     1     -29.462  -6.543 -18.103  1.00  0.00     0.000 C 
BRANCH  15  16
HETATM   16  C   UNL     1     -28.539  -5.705 -18.980  1.00  0.00     0.000 C 
BRANCH  16  17
HETATM   17  C   UNL     1     -27.147  -6.323 -19.037  1.00  0.00     0.000 C 
BRANCH  17  18
HETATM   18  C   UNL     1     -26.757  -6.649 -20.475  1.00  0.00     0.000 C 
BRANCH  18  19
HETATM   19  C   UNL     1     -25.243  -6.573 -20.652  1.00  0.00    -0.000 C 
BRANCH  19  20
HETATM   20  C   UNL     1     -24.673  -7.914 -21.101  1.00  0.00    -0.005 C 
HETATM   21  C   UNL     1     -24.074  -7.813 -22.493  1.00  0.00     0.005 C 
ENDBRANCH  19  20
ENDBRANCH  18  19
ENDBRANCH  17  18
ENDBRANCH  16  17
ENDBRANCH  15  16
ENDBRANCH  14  15
ENDBRANCH  13  14
ENDBRANCH  12  13
ENDBRANCH  11  12
ENDBRANCH  10  11
ENDBRANCH   9  10
ENDBRANCH   8   9
ENDBRANCH   7   8
ENDBRANCH   6   7
ENDBRANCH   5   6
ENDBRANCH   4   5
ENDBRANCH   3   4
ENDBRANCH   2   3
ENDBRANCH   1   2
BRANCH   1  22
HETATM   22  O   UNL     1     -22.059  -3.803  -8.253  1.00  0.00    -0.387 OA
BRANCH  22  23
HETATM   23  C   UNL     1     -21.752  -4.529  -7.064  1.00  0.00     0.193 C 
BRANCH  23  24
HETATM   24  C   UNL     1     -20.881  -5.726  -7.418  1.00  0.00     0.193 C 
BRANCH  24  25
HETATM   25  O   UNL     1     -21.142  -6.772  -6.488  1.00  0.00    -0.387 OA
BRANCH  25  26
HETATM   26  C   UNL     1     -21.986  -6.339  -5.429  1.00  0.00     0.193 C 
BRANCH  26  27
HETATM   27  C   UNL     1     -21.448  -6.894  -4.121  1.00  0.00     0.193 C 
BRANCH  27  28
HETATM   28  O   UNL     1     -21.489  -5.865  -3.138  1.00  0.00    -0.387 OA
BRANCH  28  29
HETATM   29  C   UNL     1     -22.245  -6.259  -1.993  1.00  0.00     0.193 C 
BRANCH  29  30
HETATM   30  C   UNL     1     -21.568  -7.452  -1.333  1.00  0.00     0.193 C 
BRANCH  30  31
HETATM   31  O   UNL     1     -22.554  -8.268  -0.702  1.00  0.00    -0.387 OA
BRANCH  31  32
HETATM   32  C   UNL     1     -22.040  -9.553  -0.387  1.00  0.00     0.193 C 
BRANCH  32  33
HETATM   33  C   UNL     1     -23.148 -10.568  -0.604  1.00  0.00     0.193 C 
BRANCH  33  34
HETATM   34  O   UNL     1     -22.560 -11.836  -0.858  1.00  0.00    -0.387 OA
BRANCH  34  35
HETATM   35  C   UNL     1     -21.500 -11.739  -1.804  1.00  0.00     0.193 C 
BRANCH  35  36
HETATM   36  C   UNL     1     -21.585 -12.924  -2.754  1.00  0.00     0.193 C 
BRANCH  36  37
HETATM   37  O   UNL     1     -22.126 -14.049  -2.061  1.00  0.00    -0.387 OA
BRANCH  37  38
HETATM   38  C   UNL     1     -23.099 -14.736  -2.863  1.00  0.00     0.193 C 
BRANCH  38  39
HETATM   39  C   UNL     1     -24.302 -15.074  -1.987  1.00  0.00     0.190 C 
BRANCH  39  40
HETATM   40  O   UNL     1     -24.572 -14.001  -1.086  1.00  0.00    -0.399 OA
HETATM   41  H   UNL     1     -23.706 -13.781  -0.689  1.00  0.00     0.209 HD
ENDBRANCH  39  40
ENDBRANCH  38  39
ENDBRANCH  37  38
ENDBRANCH  36  37
ENDBRANCH  35  36
ENDBRANCH  34  35
ENDBRANCH  33  34
ENDBRANCH  32  33
ENDBRANCH  31  32
ENDBRANCH  30  31
ENDBRANCH  29  30
ENDBRANCH  28  29
ENDBRANCH  27  28
ENDBRANCH  26  27
ENDBRANCH  25  26
ENDBRANCH  24  25
ENDBRANCH  23  24
ENDBRANCH  22  23
ENDBRANCH   1  22
TORSDOF 38
BEGIN_RES ARG D 557
REMARK  4 active torsions:
REMARK  status: ('A' for Active; 'I' for Inactive)
REMARK    1  A    between atoms: CA   and  CB  
REMARK    2  A    between atoms: CB   and  CG  
REMARK    3  A    between atoms: CG   and  CD  
REMARK    4  A    between atoms: CD   and  NE  
REMARK       I    between atoms: NE   and  CZ  
REMARK       I    between atoms: CZ   and  NH1 
REMARK       I    between atoms: CZ   and  NH2 
ROOT
ATOM      1  CA  ARG D 557     -26.217   2.705 -17.014  1.00 35.49     0.159 C 
ENDROOT
BRANCH   1   2
ATOM      2  CB  ARG D 557     -26.789   1.319 -17.183  1.00 35.49     0.034 C 
BRANCH   2   3
ATOM      3  CG  ARG D 557     -25.837   0.202 -17.143  1.00 35.49     0.027 C 
BRANCH   3   4
ATOM      4  CD  ARG D 557     -24.857   0.335 -16.041  1.00 35.49     0.116 C 
BRANCH   4   5
ATOM      5  NE  ARG D 557     -25.128  -0.577 -14.961  1.00 35.49    -0.212 N 
ATOM      6  CZ  ARG D 557     -24.368  -1.587 -14.600  1.00 35.49     0.666 C 
ATOM      7  NH1 ARG D 557     -23.244  -1.887 -15.224  1.00 35.49    -0.235 N 
ATOM      8  NH2 ARG D 557     -24.759  -2.298 -13.583  1.00 35.49    -0.235 N 
ATOM      9  HH  ARG D 557     -22.967  -1.432 -15.895  1.00 35.49     0.174 HD
ATOM     10  HH  ARG D 557     -22.788  -2.556 -14.942  1.00 35.49     0.174 HD
ATOM     11  HH  ARG D 557     -25.486  -2.077 -13.195  1.00 35.49     0.174 HD
ATOM     12  HH  ARG D 557     -24.293  -2.956 -13.318  1.00 35.49     0.174 HD
ATOM     13  HE  ARG D 557     -25.869  -0.502 -14.551  1.00 35.49     0.178 HD
ENDBRANCH   4   5
ENDBRANCH   3   4
ENDBRANCH   2   3
ENDBRANCH   1   2
END_RES ARG D 557
BEGIN_RES GLU D 570
REMARK  3 active torsions:
REMARK  status: ('A' for Active; 'I' for Inactive)
REMARK    5  A    between atoms: CA   and  CB  
REMARK    6  A    between atoms: CB   and  CG  
REMARK    7  A    between atoms: CG   and  CD  
ROOT
ATOM     14  CA  GLU D 570     -18.033  -6.348 -13.375  1.00 32.92     0.160 C 
ENDROOT
BRANCH  14  15
ATOM     15  CB  GLU D 570     -19.500  -6.345 -13.794  1.00 32.92     0.043 C 
BRANCH  15  16
ATOM     16  CG  GLU D 570     -20.081  -7.630 -14.263  1.00 32.92     0.100 C 
BRANCH  16  17
ATOM     17  CD  GLU D 570     -20.611  -7.556 -15.675  1.00 32.92     0.185 C 
ATOM     18  OE1 GLU D 570     -20.768  -6.440 -16.206  1.00 32.92    -0.647 OA
ATOM     19  OE2 GLU D 570     -20.889  -8.626 -16.252  1.00 32.92    -0.647 OA
ENDBRANCH  16  17
ENDBRANCH  15  16
ENDBRANCH  14  15
END_RES GLU D 570
ENDMDL
MODEL 9
REMARK VINA RESULT:      -5.8      5.091      9.795
REMARK WARNING: 32 MAX_TORS EXCEEDED!!!
REMARK  38 active torsions:
REMARK  status: ('A' for Active; 'I' for Inactive)
REMARK    1  A    between atoms: C_2  and  C_3 
REMARK    2  A    between atoms: C_3  and  C_4 
REMARK    3  A    between atoms: C_4  and  C_5 
REMARK    4  A    between atoms: C_5  and  C_6 
REMARK    5  A    between atoms: C_6  and  C_7 
REMARK    6  A    between atoms: C_7  and  C_8 
REMARK    7  A    between atoms: C_8  and  C_9 
REMARK    8  A    between atoms: C_9  and  C_10 
REMARK    9  A    between atoms: C_10  and  C_11 
REMARK   10  A    between atoms: C_11  and  C_12 
REMARK   11  A    between atoms: C_12  and  O_13 
REMARK   12  A    between atoms: O_13  and  C_14 
REMARK   13  A    between atoms: C_14  and  C_15 
REMARK   14  A    between atoms: C_15  and  O_16 
REMARK   15  A    between atoms: O_16  and  C_17 
REMARK   16  A    between atoms: C_17  and  C_18 
REMARK   17  A    between atoms: C_18  and  O_19 
REMARK   18  A    between atoms: O_19  and  C_20 
REMARK   19  A    between atoms: C_20  and  C_21 
REMARK   20  A    between atoms: C_21  and  O_22 
REMARK   21  A    between atoms: O_22  and  C_23 
REMARK   22  A    between atoms: C_23  and  C_24 
REMARK   23  A    between atoms: C_24  and  O_25 
REMARK   24  A    between atoms: O_25  and  C_26 
REMARK   25  A    between atoms: C_26  and  C_27 
REMARK   26  A    between atoms: C_27  and  O_28 
REMARK   27  A    between atoms: O_28  and  C_29 
REMARK   28  A    between atoms: C_29  and  C_30 
REMARK   29  A    between atoms: C_30  and  O_31 
REMARK   30  A    between atoms: O_31  and  C_32 
REMARK   31  A    between atoms: C_32  and  C_33 
REMARK   32  A    between atoms: C_33  and  O_34 
REMARK   33  A    between atoms: O_34  and  C_35 
REMARK   34  A    between atoms: C_35  and  C_36 
REMARK   35  A    between atoms: C_36  and  O_37 
REMARK   36  A    between atoms: O_37  and  C_38 
REMARK   37  A    between atoms: C_38  and  C_39 
REMARK   38  A    between atoms: C_39  and  O_40 
ROOT
HETATM    1  C   UNL     1     -23.396  -4.111  -8.756  1.00  0.00     0.193 C 
ENDROOT
BRANCH   1   2
HETATM    2  C   UNL     1     -23.972  -3.205  -9.829  1.00  0.00     0.193 C 
BRANCH   2   3
HETATM    3  O   UNL     1     -24.465  -4.037 -10.874  1.00  0.00    -0.387 OA
BRANCH   3   4
HETATM    4  C   UNL     1     -23.449  -4.896 -11.375  1.00  0.00     0.193 C 
BRANCH   4   5
HETATM    5  C   UNL     1     -22.526  -4.091 -12.272  1.00  0.00     0.193 C 
BRANCH   5   6
HETATM    6  O   UNL     1     -22.574  -4.640 -13.587  1.00  0.00    -0.387 OA
BRANCH   6   7
HETATM    7  C   UNL     1     -23.364  -5.817 -13.637  1.00  0.00     0.193 C 
BRANCH   7   8
HETATM    8  C   UNL     1     -24.108  -5.819 -14.958  1.00  0.00     0.193 C 
BRANCH   8   9
HETATM    9  O   UNL     1     -25.069  -6.869 -14.933  1.00  0.00    -0.389 OA
BRANCH   9  10
HETATM   10  C   UNL     1     -26.163  -6.565 -15.798  1.00  0.00     0.167 C 
BRANCH  10  11
HETATM   11  C   UNL     1     -26.485  -5.092 -15.652  1.00  0.00     0.026 C 
BRANCH  11  12
HETATM   12  C   UNL     1     -27.990  -4.879 -15.676  1.00  0.00     0.002 C 
BRANCH  12  13
HETATM   13  C   UNL     1     -28.730  -6.191 -15.904  1.00  0.00     0.000 C 
BRANCH  13  14
HETATM   14  C   UNL     1     -29.873  -5.983 -16.890  1.00  0.00     0.000 C 
BRANCH  14  15
HETATM   15  C   UNL     1     -29.566  -6.653 -18.222  1.00  0.00     0.000 C 
BRANCH  15  16
HETATM   16  C   UNL     1     -28.639  -5.780 -19.059  1.00  0.00     0.000 C 
BRANCH  16  17
HETATM   17  C   UNL     1     -27.227  -6.354 -19.070  1.00  0.00     0.000 C 
BRANCH  17  18
HETATM   18  C   UNL     1     -26.779  -6.666 -20.494  1.00  0.00     0.000 C 
BRANCH  18  19
HETATM   19  C   UNL     1     -25.266  -6.517 -20.626  1.00  0.00    -0.000 C 
BRANCH  19  20
HETATM   20  C   UNL     1     -24.617  -7.836 -21.034  1.00  0.00    -0.005 C 
HETATM   21  C   UNL     1     -24.084  -7.765 -22.454  1.00  0.00     0.005 C 
ENDBRANCH  19  20
ENDBRANCH  18  19
ENDBRANCH  17  18
ENDBRANCH  16  17
ENDBRANCH  15  16
ENDBRANCH  14  15
ENDBRANCH  13  14
ENDBRANCH  12  13
ENDBRANCH  11  12
ENDBRANCH  10  11
ENDBRANCH   9  10
ENDBRANCH   8   9
ENDBRANCH   7   8
ENDBRANCH   6   7
ENDBRANCH   5   6
ENDBRANCH   4   5
ENDBRANCH   3   4
ENDBRANCH   2   3
ENDBRANCH   1   2
BRANCH   1  22
HETATM   22  O   UNL     1     -22.145  -3.562  -8.341  1.00  0.00    -0.387 OA
BRANCH  22  23
HETATM   23  C   UNL     1     -21.603  -4.276  -7.231  1.00  0.00     0.193 C 
BRANCH  23  24
HETATM   24  C   UNL     1     -21.054  -5.611  -7.713  1.00  0.00     0.193 C 
BRANCH  24  25
HETATM   25  O   UNL     1     -20.871  -6.463  -6.587  1.00  0.00    -0.387 OA
BRANCH  25  26
HETATM   26  C   UNL     1     -20.943  -5.743  -5.363  1.00  0.00     0.193 C 
BRANCH  26  27
HETATM   27  C   UNL     1     -21.870  -6.486  -4.415  1.00  0.00     0.193 C 
BRANCH  27  28
HETATM   28  O   UNL     1     -21.626  -6.031  -3.089  1.00  0.00    -0.387 OA
BRANCH  28  29
HETATM   29  C   UNL     1     -21.923  -7.038  -2.122  1.00  0.00     0.193 C 
BRANCH  29  30
HETATM   30  C   UNL     1     -20.633  -7.737  -1.716  1.00  0.00     0.193 C 
BRANCH  30  31
HETATM   31  O   UNL     1     -20.554  -9.004  -2.367  1.00  0.00    -0.387 OA
BRANCH  31  32
HETATM   32  C   UNL     1     -19.232  -9.284  -2.802  1.00  0.00     0.193 C 
BRANCH  32  33
HETATM   33  C   UNL     1     -19.131  -8.914  -4.270  1.00  0.00     0.193 C 
BRANCH  33  34
HETATM   34  O   UNL     1     -18.033  -9.610  -4.841  1.00  0.00    -0.387 OA
BRANCH  34  35
HETATM   35  C   UNL     1     -18.466 -10.591  -5.777  1.00  0.00     0.193 C 
BRANCH  35  36
HETATM   36  C   UNL     1     -17.533 -11.790  -5.695  1.00  0.00     0.193 C 
BRANCH  36  37
HETATM   37  O   UNL     1     -16.250 -11.361  -5.241  1.00  0.00    -0.387 OA
BRANCH  37  38
HETATM   38  C   UNL     1     -15.698 -12.285  -4.291  1.00  0.00     0.193 C 
BRANCH  38  39
HETATM   39  C   UNL     1     -15.220 -11.503  -3.070  1.00  0.00     0.190 C 
BRANCH  39  40
HETATM   40  O   UNL     1     -15.772 -10.187  -3.081  1.00  0.00    -0.399 OA
HETATM   41  H   UNL     1     -15.012  -9.593  -2.926  1.00  0.00     0.209 HD
ENDBRANCH  39  40
ENDBRANCH  38  39
ENDBRANCH  37  38
ENDBRANCH  36  37
ENDBRANCH  35  36
ENDBRANCH  34  35
ENDBRANCH  33  34
ENDBRANCH  32  33
ENDBRANCH  31  32
ENDBRANCH  30  31
ENDBRANCH  29  30
ENDBRANCH  28  29
ENDBRANCH  27  28
ENDBRANCH  26  27
ENDBRANCH  25  26
ENDBRANCH  24  25
ENDBRANCH  23  24
ENDBRANCH  22  23
ENDBRANCH   1  22
TORSDOF 38
BEGIN_RES ARG D 557
REMARK  4 active torsions:
REMARK  status: ('A' for Active; 'I' for Inactive)
REMARK    1  A    between atoms: CA   and  CB  
REMARK    2  A    between atoms: CB   and  CG  
REMARK    3  A    between atoms: CG   and  CD  
REMARK    4  A    between atoms: CD   and  NE  
REMARK       I    between atoms: NE   and  CZ  
REMARK       I    between atoms: CZ   and  NH1 
REMARK       I    between atoms: CZ   and  NH2 
ROOT
ATOM      1  CA  ARG D 557     -26.217   2.705 -17.014  1.00 35.49     0.159 C 
ENDROOT
BRANCH   1   2
ATOM      2  CB  ARG D 557     -26.789   1.319 -17.183  1.00 35.49     0.034 C 
BRANCH   2   3
ATOM      3  CG  ARG D 557     -25.845   0.199 -17.086  1.00 35.49     0.027 C 
BRANCH   3   4
ATOM      4  CD  ARG D 557     -24.853   0.388 -16.003  1.00 35.49     0.116 C 
BRANCH   4   5
ATOM      5  NE  ARG D 557     -25.075  -0.511 -14.901  1.00 35.49    -0.212 N 
ATOM      6  CZ  ARG D 557     -24.316  -1.534 -14.580  1.00 35.49     0.666 C 
ATOM      7  NH1 ARG D 557     -23.239  -1.863 -15.271  1.00 35.49    -0.235 N 
ATOM      8  NH2 ARG D 557     -24.656  -2.230 -13.534  1.00 35.49    -0.235 N 
ATOM      9  HH  ARG D 557     -22.995  -1.418 -15.961  1.00 35.49     0.174 HD
ATOM     10  HH  ARG D 557     -22.781  -2.539 -15.012  1.00 35.49     0.174 HD
ATOM     11  HH  ARG D 557     -25.352  -1.990 -13.104  1.00 35.49     0.174 HD
ATOM     12  HH  ARG D 557     -24.189  -2.895 -13.294  1.00 35.49     0.174 HD
ATOM     13  HE  ARG D 557     -25.787  -0.416 -14.446  1.00 35.49     0.178 HD
ENDBRANCH   4   5
ENDBRANCH   3   4
ENDBRANCH   2   3
ENDBRANCH   1   2
END_RES ARG D 557
BEGIN_RES GLU D 570
REMARK  3 active torsions:
REMARK  status: ('A' for Active; 'I' for Inactive)
REMARK    5  A    between atoms: CA   and  CB  
REMARK    6  A    between atoms: CB   and  CG  
REMARK    7  A    between atoms: CG   and  CD  
ROOT
ATOM     14  CA  GLU D 570     -18.033  -6.348 -13.375  1.00 32.92     0.160 C 
ENDROOT
BRANCH  14  15
ATOM     15  CB  GLU D 570     -19.500  -6.345 -13.794  1.00 32.92     0.043 C 
BRANCH  15  16
ATOM     16  CG  GLU D 570     -20.081  -7.630 -14.262  1.00 32.92     0.100 C 
BRANCH  16  17
ATOM     17  CD  GLU D 570     -20.608  -7.558 -15.676  1.00 32.92     0.185 C 
ATOM     18  OE1 GLU D 570     -20.753  -6.442 -16.212  1.00 32.92    -0.647 OA
ATOM     19  OE2 GLU D 570     -20.896  -8.627 -16.248  1.00 32.92    -0.647 OA
ENDBRANCH  16  17
ENDBRANCH  15  16
ENDBRANCH  14  15
END_RES GLU D 570
ENDMDL
