MODEL 1
REMARK VINA RESULT:      -6.5      0.000      0.000
REMARK  15 active torsions:
REMARK  status: ('A' for Active; 'I' for Inactive)
REMARK    1  A    between atoms: C_2  and  C_3 
REMARK    2  A    between atoms: C_3  and  C_4 
REMARK    3  A    between atoms: C_4  and  C_5 
REMARK    4  A    between atoms: C_5  and  C_6 
REMARK    5  A    between atoms: C_6  and  C_7 
REMARK    6  A    between atoms: C_7  and  C_8 
REMARK    7  A    between atoms: C_8  and  C_9 
REMARK    8  A    between atoms: C_9  and  C_10 
REMARK    9  A    between atoms: C_10  and  C_11 
REMARK   10  A    between atoms: C_11  and  C_12 
REMARK   11  A    between atoms: C_12  and  C_13 
REMARK   12  A    between atoms: C_13  and  C_14 
REMARK   13  A    between atoms: C_14  and  C_15 
REMARK   14  A    between atoms: C_15  and  C_16 
REMARK   15  A    between atoms: C_16  and  C_17 
ROOT
HETATM    1  C   UNL     1     -21.641  -5.886  -6.004  1.00  0.00     0.000 C 
ENDROOT
BRANCH   1   2
HETATM    2  C   UNL     1     -20.238  -5.424  -5.656  1.00  0.00     0.000 C 
BRANCH   2   3
HETATM    3  C   UNL     1     -19.640  -4.666  -6.827  1.00  0.00     0.000 C 
BRANCH   3   4
HETATM    4  C   UNL     1     -20.202  -5.204  -8.129  1.00  0.00     0.000 C 
BRANCH   4   5
HETATM    5  C   UNL     1     -20.168  -4.122  -9.192  1.00  0.00     0.000 C 
BRANCH   5   6
HETATM    6  C   UNL     1     -21.526  -4.014  -9.864  1.00  0.00     0.000 C 
BRANCH   6   7
HETATM    7  C   UNL     1     -22.610  -3.825  -8.818  1.00  0.00    -0.000 C 
BRANCH   7   8
HETATM    8  C   UNL     1     -23.984  -4.011  -9.442  1.00  0.00    -0.005 C 
HETATM    9  C   UNL     1     -23.912  -5.010 -10.579  1.00  0.00     0.005 C 
ENDBRANCH   7   8
ENDBRANCH   6   7
ENDBRANCH   5   6
ENDBRANCH   4   5
ENDBRANCH   3   4
ENDBRANCH   2   3
ENDBRANCH   1   2
BRANCH   1  10
HETATM   10  C   UNL     1     -22.277  -6.553  -4.800  1.00  0.00     0.000 C 
BRANCH  10  11
HETATM   11  C   UNL     1     -21.397  -7.690  -4.314  1.00  0.00     0.000 C 
BRANCH  11  12
HETATM   12  C   UNL     1     -21.060  -7.491  -2.848  1.00  0.00     0.000 C 
BRANCH  12  13
HETATM   13  C   UNL     1     -21.929  -6.393  -2.263  1.00  0.00     0.000 C 
BRANCH  13  14
HETATM   14  C   UNL     1     -22.361  -6.766  -0.855  1.00  0.00     0.000 C 
BRANCH  14  15
HETATM   15  C   UNL     1     -21.897  -8.176  -0.525  1.00  0.00     0.004 C 
BRANCH  15  16
HETATM   16  C   UNL     1     -23.033  -8.971   0.101  1.00  0.00     0.026 C 
BRANCH  16  17
HETATM   17  C   UNL     1     -23.229 -10.279  -0.605  1.00  0.00    -0.037 C 
HETATM   18  C   UNL     1     -23.959 -11.262  -0.080  1.00  0.00     0.007 C 
ENDBRANCH  16  17
ENDBRANCH  15  16
ENDBRANCH  14  15
ENDBRANCH  13  14
ENDBRANCH  12  13
ENDBRANCH  11  12
ENDBRANCH  10  11
ENDBRANCH   1  10
TORSDOF 15
BEGIN_RES ARG D 557
REMARK  4 active torsions:
REMARK  status: ('A' for Active; 'I' for Inactive)
REMARK    1  A    between atoms: CA   and  CB  
REMARK    2  A    between atoms: CB   and  CG  
REMARK    3  A    between atoms: CG   and  CD  
REMARK    4  A    between atoms: CD   and  NE  
REMARK       I    between atoms: NE   and  CZ  
REMARK       I    between atoms: CZ   and  NH1 
REMARK       I    between atoms: CZ   and  NH2 
ROOT
ATOM      1  CA  ARG D 557     -26.217   2.705 -17.014  1.00 35.49     0.159 C 
ENDROOT
BRANCH   1   2
ATOM      2  CB  ARG D 557     -26.789   1.319 -17.183  1.00 35.49     0.034 C 
BRANCH   2   3
ATOM      3  CG  ARG D 557     -25.836   0.203 -17.151  1.00 35.49     0.027 C 
BRANCH   3   4
ATOM      4  CD  ARG D 557     -24.756   0.411 -16.160  1.00 35.49     0.116 C 
BRANCH   4   5
ATOM      5  NE  ARG D 557     -24.908  -0.437 -15.007  1.00 35.49    -0.212 N 
ATOM      6  CZ  ARG D 557     -24.104  -1.418 -14.663  1.00 35.49     0.666 C 
ATOM      7  NH1 ARG D 557     -23.043  -1.748 -15.377  1.00 35.49    -0.235 N 
ATOM      8  NH2 ARG D 557     -24.383  -2.069 -13.572  1.00 35.49    -0.235 N 
ATOM      9  HH  ARG D 557     -22.839  -1.332 -16.097  1.00 35.49     0.174 HD
ATOM     10  HH  ARG D 557     -22.554  -2.396 -15.102  1.00 35.49     0.174 HD
ATOM     11  HH  ARG D 557     -25.071  -1.829 -13.127  1.00 35.49     0.174 HD
ATOM     12  HH  ARG D 557     -23.886  -2.706 -13.316  1.00 35.49     0.174 HD
ATOM     13  HE  ARG D 557     -25.605  -0.341 -14.530  1.00 35.49     0.178 HD
ENDBRANCH   4   5
ENDBRANCH   3   4
ENDBRANCH   2   3
ENDBRANCH   1   2
END_RES ARG D 557
BEGIN_RES GLU D 570
REMARK  3 active torsions:
REMARK  status: ('A' for Active; 'I' for Inactive)
REMARK    5  A    between atoms: CA   and  CB  
REMARK    6  A    between atoms: CB   and  CG  
REMARK    7  A    between atoms: CG   and  CD  
ROOT
ATOM     14  CA  GLU D 570     -18.033  -6.348 -13.375  1.00 32.92     0.160 C 
ENDROOT
BRANCH  14  15
ATOM     15  CB  GLU D 570     -19.500  -6.345 -13.794  1.00 32.92     0.043 C 
BRANCH  15  16
ATOM     16  CG  GLU D 570     -20.441  -5.528 -12.985  1.00 32.92     0.100 C 
BRANCH  16  17
ATOM     17  CD  GLU D 570     -21.741  -5.245 -13.701  1.00 32.92     0.185 C 
ATOM     18  OE1 GLU D 570     -22.288  -4.136 -13.547  1.00 32.92    -0.647 OA
ATOM     19  OE2 GLU D 570     -22.227  -6.148 -14.411  1.00 32.92    -0.647 OA
ENDBRANCH  16  17
ENDBRANCH  15  16
ENDBRANCH  14  15
END_RES GLU D 570
ENDMDL
MODEL 2
REMARK VINA RESULT:      -6.2      9.835     13.077
REMARK  15 active torsions:
REMARK  status: ('A' for Active; 'I' for Inactive)
REMARK    1  A    between atoms: C_2  and  C_3 
REMARK    2  A    between atoms: C_3  and  C_4 
REMARK    3  A    between atoms: C_4  and  C_5 
REMARK    4  A    between atoms: C_5  and  C_6 
REMARK    5  A    between atoms: C_6  and  C_7 
REMARK    6  A    between atoms: C_7  and  C_8 
REMARK    7  A    between atoms: C_8  and  C_9 
REMARK    8  A    between atoms: C_9  and  C_10 
REMARK    9  A    between atoms: C_10  and  C_11 
REMARK   10  A    between atoms: C_11  and  C_12 
REMARK   11  A    between atoms: C_12  and  C_13 
REMARK   12  A    between atoms: C_13  and  C_14 
REMARK   13  A    between atoms: C_14  and  C_15 
REMARK   14  A    between atoms: C_15  and  C_16 
REMARK   15  A    between atoms: C_16  and  C_17 
ROOT
HETATM    1  C   UNL     1     -35.522   0.046 -11.854  1.00  0.00     0.000 C 
ENDROOT
BRANCH   1   2
HETATM    2  C   UNL     1     -36.639   0.331 -10.868  1.00  0.00     0.000 C 
BRANCH   2   3
HETATM    3  C   UNL     1     -36.945  -0.918 -10.063  1.00  0.00     0.000 C 
BRANCH   3   4
HETATM    4  C   UNL     1     -37.460  -0.532  -8.689  1.00  0.00     0.000 C 
BRANCH   4   5
HETATM    5  C   UNL     1     -36.424   0.311  -7.969  1.00  0.00     0.000 C 
BRANCH   5   6
HETATM    6  C   UNL     1     -37.105   1.465  -7.252  1.00  0.00     0.000 C 
BRANCH   6   7
HETATM    7  C   UNL     1     -38.043   0.933  -6.184  1.00  0.00    -0.000 C 
BRANCH   7   8
HETATM    8  C   UNL     1     -37.287   0.703  -4.885  1.00  0.00    -0.005 C 
HETATM    9  C   UNL     1     -37.757  -0.577  -4.225  1.00  0.00     0.005 C 
ENDBRANCH   7   8
ENDBRANCH   6   7
ENDBRANCH   5   6
ENDBRANCH   4   5
ENDBRANCH   3   4
ENDBRANCH   2   3
ENDBRANCH   1   2
BRANCH   1  10
HETATM   10  C   UNL     1     -35.908  -1.118 -12.747  1.00  0.00     0.000 C 
BRANCH  10  11
HETATM   11  C   UNL     1     -34.749  -2.091 -12.856  1.00  0.00     0.000 C 
BRANCH  11  12
HETATM   12  C   UNL     1     -33.892  -2.014 -11.607  1.00  0.00     0.000 C 
BRANCH  12  13
HETATM   13  C   UNL     1     -33.155  -3.326 -11.404  1.00  0.00     0.000 C 
BRANCH  13  14
HETATM   14  C   UNL     1     -33.892  -4.187 -10.393  1.00  0.00     0.000 C 
BRANCH  14  15
HETATM   15  C   UNL     1     -33.974  -5.621 -10.893  1.00  0.00     0.004 C 
BRANCH  15  16
HETATM   16  C   UNL     1     -34.792  -6.468  -9.930  1.00  0.00     0.026 C 
BRANCH  16  17
HETATM   17  C   UNL     1     -34.752  -7.916 -10.316  1.00  0.00    -0.037 C 
HETATM   18  C   UNL     1     -33.860  -8.760  -9.799  1.00  0.00     0.007 C 
ENDBRANCH  16  17
ENDBRANCH  15  16
ENDBRANCH  14  15
ENDBRANCH  13  14
ENDBRANCH  12  13
ENDBRANCH  11  12
ENDBRANCH  10  11
ENDBRANCH   1  10
TORSDOF 15
BEGIN_RES ARG D 557
REMARK  4 active torsions:
REMARK  status: ('A' for Active; 'I' for Inactive)
REMARK    1  A    between atoms: CA   and  CB  
REMARK    2  A    between atoms: CB   and  CG  
REMARK    3  A    between atoms: CG   and  CD  
REMARK    4  A    between atoms: CD   and  NE  
REMARK       I    between atoms: NE   and  CZ  
REMARK       I    between atoms: CZ   and  NH1 
REMARK       I    between atoms: CZ   and  NH2 
ROOT
ATOM      1  CA  ARG D 557     -26.217   2.705 -17.014  1.00 35.49     0.159 C 
ENDROOT
BRANCH   1   2
ATOM      2  CB  ARG D 557     -26.789   1.319 -17.183  1.00 35.49     0.034 C 
BRANCH   2   3
ATOM      3  CG  ARG D 557     -25.919   0.196 -16.815  1.00 35.49     0.027 C 
BRANCH   3   4
ATOM      4  CD  ARG D 557     -26.655  -0.884 -16.118  1.00 35.49     0.116 C 
BRANCH   4   5
ATOM      5  NE  ARG D 557     -25.909  -1.424 -15.013  1.00 35.49    -0.212 N 
ATOM      6  CZ  ARG D 557     -25.886  -2.685 -14.644  1.00 35.49     0.666 C 
ATOM      7  NH1 ARG D 557     -26.583  -3.618 -15.266  1.00 35.49    -0.235 N 
ATOM      8  NH2 ARG D 557     -25.135  -3.001 -13.629  1.00 35.49    -0.235 N 
ATOM      9  HH  ARG D 557     -27.082  -3.434 -15.937  1.00 35.49     0.174 HD
ATOM     10  HH  ARG D 557     -26.526  -4.425 -14.983  1.00 35.49     0.174 HD
ATOM     11  HH  ARG D 557     -24.690  -2.378 -13.252  1.00 35.49     0.174 HD
ATOM     12  HH  ARG D 557     -25.091  -3.805 -13.365  1.00 35.49     0.174 HD
ATOM     13  HE  ARG D 557     -25.488  -0.881 -14.512  1.00 35.49     0.178 HD
ENDBRANCH   4   5
ENDBRANCH   3   4
ENDBRANCH   2   3
ENDBRANCH   1   2
END_RES ARG D 557
BEGIN_RES GLU D 570
REMARK  3 active torsions:
REMARK  status: ('A' for Active; 'I' for Inactive)
REMARK    5  A    between atoms: CA   and  CB  
REMARK    6  A    between atoms: CB   and  CG  
REMARK    7  A    between atoms: CG   and  CD  
ROOT
ATOM     14  CA  GLU D 570     -18.033  -6.348 -13.375  1.00 32.92     0.160 C 
ENDROOT
BRANCH  14  15
ATOM     15  CB  GLU D 570     -19.500  -6.345 -13.794  1.00 32.92     0.043 C 
BRANCH  15  16
ATOM     16  CG  GLU D 570     -20.439  -5.518 -12.993  1.00 32.92     0.100 C 
BRANCH  16  17
ATOM     17  CD  GLU D 570     -21.743  -5.248 -13.707  1.00 32.92     0.185 C 
ATOM     18  OE1 GLU D 570     -22.344  -4.180 -13.484  1.00 32.92    -0.647 OA
ATOM     19  OE2 GLU D 570     -22.176  -6.121 -14.484  1.00 32.92    -0.647 OA
ENDBRANCH  16  17
ENDBRANCH  15  16
ENDBRANCH  14  15
END_RES GLU D 570
ENDMDL
MODEL 3
REMARK VINA RESULT:      -6.1      0.891      6.973
REMARK  15 active torsions:
REMARK  status: ('A' for Active; 'I' for Inactive)
REMARK    1  A    between atoms: C_2  and  C_3 
REMARK    2  A    between atoms: C_3  and  C_4 
REMARK    3  A    between atoms: C_4  and  C_5 
REMARK    4  A    between atoms: C_5  and  C_6 
REMARK    5  A    between atoms: C_6  and  C_7 
REMARK    6  A    between atoms: C_7  and  C_8 
REMARK    7  A    between atoms: C_8  and  C_9 
REMARK    8  A    between atoms: C_9  and  C_10 
REMARK    9  A    between atoms: C_10  and  C_11 
REMARK   10  A    between atoms: C_11  and  C_12 
REMARK   11  A    between atoms: C_12  and  C_13 
REMARK   12  A    between atoms: C_13  and  C_14 
REMARK   13  A    between atoms: C_14  and  C_15 
REMARK   14  A    between atoms: C_15  and  C_16 
REMARK   15  A    between atoms: C_16  and  C_17 
ROOT
HETATM    1  C   UNL     1     -21.863  -6.295  -2.919  1.00  0.00     0.000 C 
ENDROOT
BRANCH   1   2
HETATM    2  C   UNL     1     -21.691  -7.370  -1.862  1.00  0.00     0.000 C 
BRANCH   2   3
HETATM    3  C   UNL     1     -22.365  -6.937  -0.574  1.00  0.00     0.000 C 
BRANCH   3   4
HETATM    4  C   UNL     1     -22.854  -8.155   0.187  1.00  0.00     0.000 C 
BRANCH   4   5
HETATM    5  C   UNL     1     -21.702  -9.112   0.424  1.00  0.00     0.000 C 
BRANCH   5   6
HETATM    6  C   UNL     1     -22.133 -10.532   0.095  1.00  0.00     0.000 C 
BRANCH   6   7
HETATM    7  C   UNL     1     -23.629 -10.574  -0.157  1.00  0.00    -0.000 C 
BRANCH   7   8
HETATM    8  C   UNL     1     -23.935 -11.441  -1.369  1.00  0.00    -0.005 C 
HETATM    9  C   UNL     1     -22.980 -11.115  -2.499  1.00  0.00     0.005 C 
ENDBRANCH   7   8
ENDBRANCH   6   7
ENDBRANCH   5   6
ENDBRANCH   4   5
ENDBRANCH   3   4
ENDBRANCH   2   3
ENDBRANCH   1   2
BRANCH   1  10
HETATM   10  C   UNL     1     -21.261  -6.763  -4.231  1.00  0.00     0.000 C 
BRANCH  10  11
HETATM   11  C   UNL     1     -20.826  -5.565  -5.054  1.00  0.00     0.000 C 
BRANCH  11  12
HETATM   12  C   UNL     1     -20.164  -6.034  -6.336  1.00  0.00     0.000 C 
BRANCH  12  13
HETATM   13  C   UNL     1     -21.058  -5.722  -7.523  1.00  0.00     0.000 C 
BRANCH  13  14
HETATM   14  C   UNL     1     -21.972  -4.555  -7.194  1.00  0.00     0.000 C 
BRANCH  14  15
HETATM   15  C   UNL     1     -22.187  -3.698  -8.432  1.00  0.00     0.004 C 
BRANCH  15  16
HETATM   16  C   UNL     1     -22.312  -4.577  -9.666  1.00  0.00     0.026 C 
BRANCH  16  17
HETATM   17  C   UNL     1     -23.716  -4.574 -10.192  1.00  0.00    -0.037 C 
HETATM   18  C   UNL     1     -24.521  -3.523 -10.049  1.00  0.00     0.007 C 
ENDBRANCH  16  17
ENDBRANCH  15  16
ENDBRANCH  14  15
ENDBRANCH  13  14
ENDBRANCH  12  13
ENDBRANCH  11  12
ENDBRANCH  10  11
ENDBRANCH   1  10
TORSDOF 15
BEGIN_RES ARG D 557
REMARK  4 active torsions:
REMARK  status: ('A' for Active; 'I' for Inactive)
REMARK    1  A    between atoms: CA   and  CB  
REMARK    2  A    between atoms: CB   and  CG  
REMARK    3  A    between atoms: CG   and  CD  
REMARK    4  A    between atoms: CD   and  NE  
REMARK       I    between atoms: NE   and  CZ  
REMARK       I    between atoms: CZ   and  NH1 
REMARK       I    between atoms: CZ   and  NH2 
ROOT
ATOM      1  CA  ARG D 557     -26.217   2.705 -17.014  1.00 35.49     0.159 C 
ENDROOT
BRANCH   1   2
ATOM      2  CB  ARG D 557     -26.789   1.319 -17.183  1.00 35.49     0.034 C 
BRANCH   2   3
ATOM      3  CG  ARG D 557     -25.836   0.203 -17.153  1.00 35.49     0.027 C 
BRANCH   3   4
ATOM      4  CD  ARG D 557     -24.764   0.403 -16.152  1.00 35.49     0.116 C 
BRANCH   4   5
ATOM      5  NE  ARG D 557     -24.925  -0.454 -15.007  1.00 35.49    -0.212 N 
ATOM      6  CZ  ARG D 557     -24.118  -1.432 -14.659  1.00 35.49     0.666 C 
ATOM      7  NH1 ARG D 557     -23.045  -1.748 -15.360  1.00 35.49    -0.235 N 
ATOM      8  NH2 ARG D 557     -24.407  -2.093 -13.576  1.00 35.49    -0.235 N 
ATOM      9  HH  ARG D 557     -22.834  -1.326 -16.075  1.00 35.49     0.174 HD
ATOM     10  HH  ARG D 557     -22.554  -2.394 -15.084  1.00 35.49     0.174 HD
ATOM     11  HH  ARG D 557     -25.103  -1.861 -13.140  1.00 35.49     0.174 HD
ATOM     12  HH  ARG D 557     -23.908  -2.728 -13.318  1.00 35.49     0.174 HD
ATOM     13  HE  ARG D 557     -25.630  -0.367 -14.539  1.00 35.49     0.178 HD
ENDBRANCH   4   5
ENDBRANCH   3   4
ENDBRANCH   2   3
ENDBRANCH   1   2
END_RES ARG D 557
BEGIN_RES GLU D 570
REMARK  3 active torsions:
REMARK  status: ('A' for Active; 'I' for Inactive)
REMARK    5  A    between atoms: CA   and  CB  
REMARK    6  A    between atoms: CB   and  CG  
REMARK    7  A    between atoms: CG   and  CD  
ROOT
ATOM     14  CA  GLU D 570     -18.033  -6.348 -13.375  1.00 32.92     0.160 C 
ENDROOT
BRANCH  14  15
ATOM     15  CB  GLU D 570     -19.500  -6.345 -13.794  1.00 32.92     0.043 C 
BRANCH  15  16
ATOM     16  CG  GLU D 570     -20.446  -5.549 -12.970  1.00 32.92     0.100 C 
BRANCH  16  17
ATOM     17  CD  GLU D 570     -21.740  -5.245 -13.687  1.00 32.92     0.185 C 
ATOM     18  OE1 GLU D 570     -22.206  -6.087 -14.479  1.00 32.92    -0.647 OA
ATOM     19  OE2 GLU D 570     -22.286  -4.145 -13.467  1.00 32.92    -0.647 OA
ENDBRANCH  16  17
ENDBRANCH  15  16
ENDBRANCH  14  15
END_RES GLU D 570
ENDMDL
MODEL 4
REMARK VINA RESULT:      -6.1      8.677     12.776
REMARK  15 active torsions:
REMARK  status: ('A' for Active; 'I' for Inactive)
REMARK    1  A    between atoms: C_2  and  C_3 
REMARK    2  A    between atoms: C_3  and  C_4 
REMARK    3  A    between atoms: C_4  and  C_5 
REMARK    4  A    between atoms: C_5  and  C_6 
REMARK    5  A    between atoms: C_6  and  C_7 
REMARK    6  A    between atoms: C_7  and  C_8 
REMARK    7  A    between atoms: C_8  and  C_9 
REMARK    8  A    between atoms: C_9  and  C_10 
REMARK    9  A    between atoms: C_10  and  C_11 
REMARK   10  A    between atoms: C_11  and  C_12 
REMARK   11  A    between atoms: C_12  and  C_13 
REMARK   12  A    between atoms: C_13  and  C_14 
REMARK   13  A    between atoms: C_14  and  C_15 
REMARK   14  A    between atoms: C_15  and  C_16 
REMARK   15  A    between atoms: C_16  and  C_17 
ROOT
HETATM    1  C   UNL     1     -36.661  -1.227 -10.380  1.00  0.00     0.000 C 
ENDROOT
BRANCH   1   2
HETATM    2  C   UNL     1     -36.497   0.052 -11.180  1.00  0.00     0.000 C 
BRANCH   2   3
HETATM    3  C   UNL     1     -36.276  -0.282 -12.643  1.00  0.00     0.000 C 
BRANCH   3   4
HETATM    4  C   UNL     1     -34.855   0.069 -13.043  1.00  0.00     0.000 C 
BRANCH   4   5
HETATM    5  C   UNL     1     -34.870   1.182 -14.074  1.00  0.00     0.000 C 
BRANCH   5   6
HETATM    6  C   UNL     1     -35.879   0.863 -15.164  1.00  0.00     0.000 C 
BRANCH   6   7
HETATM    7  C   UNL     1     -35.493  -0.424 -15.869  1.00  0.00    -0.000 C 
BRANCH   7   8
HETATM    8  C   UNL     1     -36.665  -0.952 -16.683  1.00  0.00    -0.005 C 
HETATM    9  C   UNL     1     -37.974  -0.554 -16.034  1.00  0.00     0.005 C 
ENDBRANCH   7   8
ENDBRANCH   6   7
ENDBRANCH   5   6
ENDBRANCH   4   5
ENDBRANCH   3   4
ENDBRANCH   2   3
ENDBRANCH   1   2
BRANCH   1  10
HETATM   10  C   UNL     1     -35.664  -2.265 -10.859  1.00  0.00     0.000 C 
BRANCH  10  11
HETATM   11  C   UNL     1     -34.386  -2.167 -10.046  1.00  0.00     0.000 C 
BRANCH  11  12
HETATM   12  C   UNL     1     -33.187  -2.428 -10.938  1.00  0.00     0.000 C 
BRANCH  12  13
HETATM   13  C   UNL     1     -33.550  -3.444 -12.006  1.00  0.00     0.000 C 
BRANCH  13  14
HETATM   14  C   UNL     1     -33.063  -4.824 -11.600  1.00  0.00     0.000 C 
BRANCH  14  15
HETATM   15  C   UNL     1     -34.244  -5.774 -11.470  1.00  0.00     0.004 C 
BRANCH  15  16
HETATM   16  C   UNL     1     -34.639  -5.925 -10.009  1.00  0.00     0.026 C 
BRANCH  16  17
HETATM   17  C   UNL     1     -34.950  -7.354  -9.679  1.00  0.00    -0.037 C 
HETATM   18  C   UNL     1     -34.169  -8.357 -10.077  1.00  0.00     0.007 C 
ENDBRANCH  16  17
ENDBRANCH  15  16
ENDBRANCH  14  15
ENDBRANCH  13  14
ENDBRANCH  12  13
ENDBRANCH  11  12
ENDBRANCH  10  11
ENDBRANCH   1  10
TORSDOF 15
BEGIN_RES ARG D 557
REMARK  4 active torsions:
REMARK  status: ('A' for Active; 'I' for Inactive)
REMARK    1  A    between atoms: CA   and  CB  
REMARK    2  A    between atoms: CB   and  CG  
REMARK    3  A    between atoms: CG   and  CD  
REMARK    4  A    between atoms: CD   and  NE  
REMARK       I    between atoms: NE   and  CZ  
REMARK       I    between atoms: CZ   and  NH1 
REMARK       I    between atoms: CZ   and  NH2 
ROOT
ATOM      1  CA  ARG D 557     -26.217   2.705 -17.014  1.00 35.49     0.159 C 
ENDROOT
BRANCH   1   2
ATOM      2  CB  ARG D 557     -26.789   1.319 -17.183  1.00 35.49     0.034 C 
BRANCH   2   3
ATOM      3  CG  ARG D 557     -25.871   0.194 -16.964  1.00 35.49     0.027 C 
BRANCH   3   4
ATOM      4  CD  ARG D 557     -26.315  -0.688 -15.860  1.00 35.49     0.116 C 
BRANCH   4   5
ATOM      5  NE  ARG D 557     -25.278  -0.899 -14.884  1.00 35.49    -0.212 N 
ATOM      6  CZ  ARG D 557     -24.942  -2.055 -14.357  1.00 35.49     0.666 C 
ATOM      7  NH1 ARG D 557     -25.555  -3.182 -14.671  1.00 35.49    -0.235 N 
ATOM      8  NH2 ARG D 557     -23.962  -2.063 -13.502  1.00 35.49    -0.235 N 
ATOM      9  HH  ARG D 557     -26.202  -3.200 -15.233  1.00 35.49     0.174 HD
ATOM     10  HH  ARG D 557     -25.291  -3.906 -14.297  1.00 35.49     0.174 HD
ATOM     11  HH  ARG D 557     -23.580  -1.321 -13.324  1.00 35.49     0.174 HD
ATOM     12  HH  ARG D 557     -23.714  -2.790 -13.143  1.00 35.49     0.174 HD
ATOM     13  HE  ARG D 557     -24.879  -0.216 -14.571  1.00 35.49     0.178 HD
ENDBRANCH   4   5
ENDBRANCH   3   4
ENDBRANCH   2   3
ENDBRANCH   1   2
END_RES ARG D 557
BEGIN_RES GLU D 570
REMARK  3 active torsions:
REMARK  status: ('A' for Active; 'I' for Inactive)
REMARK    5  A    between atoms: CA   and  CB  
REMARK    6  A    between atoms: CB   and  CG  
REMARK    7  A    between atoms: CG   and  CD  
ROOT
ATOM     14  CA  GLU D 570     -18.033  -6.348 -13.375  1.00 32.92     0.160 C 
ENDROOT
BRANCH  14  15
ATOM     15  CB  GLU D 570     -19.500  -6.345 -13.794  1.00 32.92     0.043 C 
BRANCH  15  16
ATOM     16  CG  GLU D 570     -20.449  -5.566 -12.957  1.00 32.92     0.100 C 
BRANCH  16  17
ATOM     17  CD  GLU D 570     -21.687  -5.141 -13.711  1.00 32.92     0.185 C 
ATOM     18  OE1 GLU D 570     -22.725  -4.879 -13.073  1.00 32.92    -0.647 OA
ATOM     19  OE2 GLU D 570     -21.624  -5.085 -14.955  1.00 32.92    -0.647 OA
ENDBRANCH  16  17
ENDBRANCH  15  16
ENDBRANCH  14  15
END_RES GLU D 570
ENDMDL
MODEL 5
REMARK VINA RESULT:      -5.9      2.195      2.522
REMARK  15 active torsions:
REMARK  status: ('A' for Active; 'I' for Inactive)
REMARK    1  A    between atoms: C_2  and  C_3 
REMARK    2  A    between atoms: C_3  and  C_4 
REMARK    3  A    between atoms: C_4  and  C_5 
REMARK    4  A    between atoms: C_5  and  C_6 
REMARK    5  A    between atoms: C_6  and  C_7 
REMARK    6  A    between atoms: C_7  and  C_8 
REMARK    7  A    between atoms: C_8  and  C_9 
REMARK    8  A    between atoms: C_9  and  C_10 
REMARK    9  A    between atoms: C_10  and  C_11 
REMARK   10  A    between atoms: C_11  and  C_12 
REMARK   11  A    between atoms: C_12  and  C_13 
REMARK   12  A    between atoms: C_13  and  C_14 
REMARK   13  A    between atoms: C_14  and  C_15 
REMARK   14  A    between atoms: C_15  and  C_16 
REMARK   15  A    between atoms: C_16  and  C_17 
ROOT
HETATM    1  C   UNL     1     -21.856  -6.143  -5.753  1.00  0.00     0.000 C 
ENDROOT
BRANCH   1   2
HETATM    2  C   UNL     1     -20.359  -6.127  -6.003  1.00  0.00     0.000 C 
BRANCH   2   3
HETATM    3  C   UNL     1     -19.873  -4.695  -6.127  1.00  0.00     0.000 C 
BRANCH   3   4
HETATM    4  C   UNL     1     -20.610  -3.996  -7.254  1.00  0.00     0.000 C 
BRANCH   4   5
HETATM    5  C   UNL     1     -20.118  -4.515  -8.592  1.00  0.00     0.000 C 
BRANCH   5   6
HETATM    6  C   UNL     1     -21.178  -4.287  -9.656  1.00  0.00     0.000 C 
BRANCH   6   7
HETATM    7  C   UNL     1     -22.562  -4.463  -9.057  1.00  0.00    -0.000 C 
BRANCH   7   8
HETATM    8  C   UNL     1     -23.579  -4.746 -10.152  1.00  0.00    -0.005 C 
HETATM    9  C   UNL     1     -24.177  -3.450 -10.658  1.00  0.00     0.005 C 
ENDBRANCH   7   8
ENDBRANCH   6   7
ENDBRANCH   5   6
ENDBRANCH   4   5
ENDBRANCH   3   4
ENDBRANCH   2   3
ENDBRANCH   1   2
BRANCH   1  10
HETATM   10  C   UNL     1     -22.133  -6.555  -4.320  1.00  0.00     0.000 C 
BRANCH  10  11
HETATM   11  C   UNL     1     -21.019  -7.454  -3.817  1.00  0.00     0.000 C 
BRANCH  11  12
HETATM   12  C   UNL     1     -20.840  -7.267  -2.322  1.00  0.00     0.000 C 
BRANCH  12  13
HETATM   13  C   UNL     1     -22.099  -6.665  -1.723  1.00  0.00     0.000 C 
BRANCH  13  14
HETATM   14  C   UNL     1     -22.437  -7.361  -0.415  1.00  0.00     0.000 C 
BRANCH  14  15
HETATM   15  C   UNL     1     -21.319  -8.318  -0.031  1.00  0.00     0.004 C 
BRANCH  15  16
HETATM   16  C   UNL     1     -21.884  -9.703   0.244  1.00  0.00     0.026 C 
BRANCH  16  17
HETATM   17  C   UNL     1     -23.330  -9.783  -0.143  1.00  0.00    -0.037 C 
HETATM   18  C   UNL     1     -23.976 -10.946  -0.224  1.00  0.00     0.007 C 
ENDBRANCH  16  17
ENDBRANCH  15  16
ENDBRANCH  14  15
ENDBRANCH  13  14
ENDBRANCH  12  13
ENDBRANCH  11  12
ENDBRANCH  10  11
ENDBRANCH   1  10
TORSDOF 15
BEGIN_RES ARG D 557
REMARK  4 active torsions:
REMARK  status: ('A' for Active; 'I' for Inactive)
REMARK    1  A    between atoms: CA   and  CB  
REMARK    2  A    between atoms: CB   and  CG  
REMARK    3  A    between atoms: CG   and  CD  
REMARK    4  A    between atoms: CD   and  NE  
REMARK       I    between atoms: NE   and  CZ  
REMARK       I    between atoms: CZ   and  NH1 
REMARK       I    between atoms: CZ   and  NH2 
ROOT
ATOM      1  CA  ARG D 557     -26.217   2.705 -17.014  1.00 35.49     0.159 C 
ENDROOT
BRANCH   1   2
ATOM      2  CB  ARG D 557     -26.789   1.319 -17.183  1.00 35.49     0.034 C 
BRANCH   2   3
ATOM      3  CG  ARG D 557     -28.230   1.227 -17.448  1.00 35.49     0.027 C 
BRANCH   3   4
ATOM      4  CD  ARG D 557     -28.919   0.312 -16.509  1.00 35.49     0.116 C 
BRANCH   4   5
ATOM      5  NE  ARG D 557     -29.319  -0.916 -17.143  1.00 35.49    -0.212 N 
ATOM      6  CZ  ARG D 557     -28.695  -2.069 -17.047  1.00 35.49     0.666 C 
ATOM      7  NH1 ARG D 557     -27.589  -2.220 -16.343  1.00 35.49    -0.235 N 
ATOM      8  NH2 ARG D 557     -29.213  -3.086 -17.674  1.00 35.49    -0.235 N 
ATOM      9  HH  ARG D 557     -27.232  -1.566 -15.921  1.00 35.49     0.174 HD
ATOM     10  HH  ARG D 557     -27.227  -2.997 -16.315  1.00 35.49     0.174 HD
ATOM     11  HH  ARG D 557     -29.932  -2.960 -18.115  1.00 35.49     0.174 HD
ATOM     12  HH  ARG D 557     -28.841  -3.847 -17.632  1.00 35.49     0.174 HD
ATOM     13  HE  ARG D 557     -29.982  -0.893 -17.676  1.00 35.49     0.178 HD
ENDBRANCH   4   5
ENDBRANCH   3   4
ENDBRANCH   2   3
ENDBRANCH   1   2
END_RES ARG D 557
BEGIN_RES GLU D 570
REMARK  3 active torsions:
REMARK  status: ('A' for Active; 'I' for Inactive)
REMARK    5  A    between atoms: CA   and  CB  
REMARK    6  A    between atoms: CB   and  CG  
REMARK    7  A    between atoms: CG   and  CD  
ROOT
ATOM     14  CA  GLU D 570     -18.033  -6.348 -13.375  1.00 32.92     0.160 C 
ENDROOT
BRANCH  14  15
ATOM     15  CB  GLU D 570     -19.500  -6.345 -13.794  1.00 32.92     0.043 C 
BRANCH  15  16
ATOM     16  CG  GLU D 570     -19.807  -6.659 -15.213  1.00 32.92     0.100 C 
BRANCH  16  17
ATOM     17  CD  GLU D 570     -20.763  -5.672 -15.842  1.00 32.92     0.185 C 
ATOM     18  OE1 GLU D 570     -21.466  -4.956 -15.104  1.00 32.92    -0.647 OA
ATOM     19  OE2 GLU D 570     -20.821  -5.626 -17.087  1.00 32.92    -0.647 OA
ENDBRANCH  16  17
ENDBRANCH  15  16
ENDBRANCH  14  15
END_RES GLU D 570
ENDMDL
MODEL 6
REMARK VINA RESULT:      -5.9      1.052      2.453
REMARK  15 active torsions:
REMARK  status: ('A' for Active; 'I' for Inactive)
REMARK    1  A    between atoms: C_2  and  C_3 
REMARK    2  A    between atoms: C_3  and  C_4 
REMARK    3  A    between atoms: C_4  and  C_5 
REMARK    4  A    between atoms: C_5  and  C_6 
REMARK    5  A    between atoms: C_6  and  C_7 
REMARK    6  A    between atoms: C_7  and  C_8 
REMARK    7  A    between atoms: C_8  and  C_9 
REMARK    8  A    between atoms: C_9  and  C_10 
REMARK    9  A    between atoms: C_10  and  C_11 
REMARK   10  A    between atoms: C_11  and  C_12 
REMARK   11  A    between atoms: C_12  and  C_13 
REMARK   12  A    between atoms: C_13  and  C_14 
REMARK   13  A    between atoms: C_14  and  C_15 
REMARK   14  A    between atoms: C_15  and  C_16 
REMARK   15  A    between atoms: C_16  and  C_17 
ROOT
HETATM    1  C   UNL     1     -21.307  -6.992  -2.762  1.00  0.00     0.000 C 
ENDROOT
BRANCH   1   2
HETATM    2  C   UNL     1     -21.213  -6.279  -4.098  1.00  0.00     0.000 C 
BRANCH   2   3
HETATM    3  C   UNL     1     -20.588  -7.198  -5.129  1.00  0.00     0.000 C 
BRANCH   3   4
HETATM    4  C   UNL     1     -20.355  -6.439  -6.423  1.00  0.00     0.000 C 
BRANCH   4   5
HETATM    5  C   UNL     1     -19.935  -5.014  -6.116  1.00  0.00     0.000 C 
BRANCH   5   6
HETATM    6  C   UNL     1     -20.182  -4.131  -7.327  1.00  0.00     0.000 C 
BRANCH   6   7
HETATM    7  C   UNL     1     -21.616  -3.632  -7.322  1.00  0.00    -0.000 C 
BRANCH   7   8
HETATM    8  C   UNL     1     -22.377  -4.205  -8.508  1.00  0.00    -0.005 C 
HETATM    9  C   UNL     1     -21.573  -4.031  -9.780  1.00  0.00     0.005 C 
ENDBRANCH   7   8
ENDBRANCH   6   7
ENDBRANCH   5   6
ENDBRANCH   4   5
ENDBRANCH   3   4
ENDBRANCH   2   3
ENDBRANCH   1   2
BRANCH   1  10
HETATM   10  C   UNL     1     -22.281  -6.263  -1.856  1.00  0.00     0.000 C 
BRANCH  10  11
HETATM   11  C   UNL     1     -22.442  -7.024  -0.553  1.00  0.00     0.000 C 
BRANCH  11  12
HETATM   12  C   UNL     1     -21.344  -8.063  -0.424  1.00  0.00     0.000 C 
BRANCH  12  13
HETATM   13  C   UNL     1     -21.910  -9.342   0.166  1.00  0.00     0.000 C 
BRANCH  13  14
HETATM   14  C   UNL     1     -22.736 -10.075  -0.877  1.00  0.00     0.000 C 
BRANCH  14  15
HETATM   15  C   UNL     1     -23.906 -10.783  -0.211  1.00  0.00     0.004 C 
BRANCH  15  16
HETATM   16  C   UNL     1     -23.714 -12.290  -0.274  1.00  0.00     0.026 C 
BRANCH  16  17
HETATM   17  C   UNL     1     -23.324 -12.842   1.064  1.00  0.00    -0.037 C 
HETATM   18  C   UNL     1     -22.165 -13.469   1.259  1.00  0.00     0.007 C 
ENDBRANCH  16  17
ENDBRANCH  15  16
ENDBRANCH  14  15
ENDBRANCH  13  14
ENDBRANCH  12  13
ENDBRANCH  11  12
ENDBRANCH  10  11
ENDBRANCH   1  10
TORSDOF 15
BEGIN_RES ARG D 557
REMARK  4 active torsions:
REMARK  status: ('A' for Active; 'I' for Inactive)
REMARK    1  A    between atoms: CA   and  CB  
REMARK    2  A    between atoms: CB   and  CG  
REMARK    3  A    between atoms: CG   and  CD  
REMARK    4  A    between atoms: CD   and  NE  
REMARK       I    between atoms: NE   and  CZ  
REMARK       I    between atoms: CZ   and  NH1 
REMARK       I    between atoms: CZ   and  NH2 
ROOT
ATOM      1  CA  ARG D 557     -26.217   2.705 -17.014  1.00 35.49     0.159 C 
ENDROOT
BRANCH   1   2
ATOM      2  CB  ARG D 557     -26.789   1.319 -17.183  1.00 35.49     0.034 C 
BRANCH   2   3
ATOM      3  CG  ARG D 557     -25.842   0.200 -17.109  1.00 35.49     0.027 C 
BRANCH   3   4
ATOM      4  CD  ARG D 557     -24.772   0.431 -16.111  1.00 35.49     0.116 C 
BRANCH   4   5
ATOM      5  NE  ARG D 557     -24.880  -0.459 -14.985  1.00 35.49    -0.212 N 
ATOM      6  CZ  ARG D 557     -24.040  -1.425 -14.687  1.00 35.49     0.666 C 
ATOM      7  NH1 ARG D 557     -22.981  -1.698 -15.426  1.00 35.49    -0.235 N 
ATOM      8  NH2 ARG D 557     -24.282  -2.121 -13.614  1.00 35.49    -0.235 N 
ATOM      9  HH  ARG D 557     -22.801  -1.251 -16.136  1.00 35.49     0.174 HD
ATOM     10  HH  ARG D 557     -22.467  -2.338 -15.181  1.00 35.49     0.174 HD
ATOM     11  HH  ARG D 557     -24.970  -1.918 -13.152  1.00 35.49     0.174 HD
ATOM     12  HH  ARG D 557     -23.761  -2.750 -13.387  1.00 35.49     0.174 HD
ATOM     13  HE  ARG D 557     -25.572  -0.401 -14.495  1.00 35.49     0.178 HD
ENDBRANCH   4   5
ENDBRANCH   3   4
ENDBRANCH   2   3
ENDBRANCH   1   2
END_RES ARG D 557
BEGIN_RES GLU D 570
REMARK  3 active torsions:
REMARK  status: ('A' for Active; 'I' for Inactive)
REMARK    5  A    between atoms: CA   and  CB  
REMARK    6  A    between atoms: CB   and  CG  
REMARK    7  A    between atoms: CG   and  CD  
ROOT
ATOM     14  CA  GLU D 570     -18.033  -6.348 -13.375  1.00 32.92     0.160 C 
ENDROOT
BRANCH  14  15
ATOM     15  CB  GLU D 570     -19.500  -6.345 -13.794  1.00 32.92     0.043 C 
BRANCH  15  16
ATOM     16  CG  GLU D 570     -20.443  -5.536 -12.979  1.00 32.92     0.100 C 
BRANCH  16  17
ATOM     17  CD  GLU D 570     -21.652  -5.076 -13.760  1.00 32.92     0.185 C 
ATOM     18  OE1 GLU D 570     -21.580  -5.007 -15.002  1.00 32.92    -0.647 OA
ATOM     19  OE2 GLU D 570     -22.677  -4.767 -13.122  1.00 32.92    -0.647 OA
ENDBRANCH  16  17
ENDBRANCH  15  16
ENDBRANCH  14  15
END_RES GLU D 570
ENDMDL
MODEL 7
REMARK VINA RESULT:      -5.8      2.406      3.602
REMARK  15 active torsions:
REMARK  status: ('A' for Active; 'I' for Inactive)
REMARK    1  A    between atoms: C_2  and  C_3 
REMARK    2  A    between atoms: C_3  and  C_4 
REMARK    3  A    between atoms: C_4  and  C_5 
REMARK    4  A    between atoms: C_5  and  C_6 
REMARK    5  A    between atoms: C_6  and  C_7 
REMARK    6  A    between atoms: C_7  and  C_8 
REMARK    7  A    between atoms: C_8  and  C_9 
REMARK    8  A    between atoms: C_9  and  C_10 
REMARK    9  A    between atoms: C_10  and  C_11 
REMARK   10  A    between atoms: C_11  and  C_12 
REMARK   11  A    between atoms: C_12  and  C_13 
REMARK   12  A    between atoms: C_13  and  C_14 
REMARK   13  A    between atoms: C_14  and  C_15 
REMARK   14  A    between atoms: C_15  and  C_16 
REMARK   15  A    between atoms: C_16  and  C_17 
ROOT
HETATM    1  C   UNL     1     -19.890  -4.271  -7.648  1.00  0.00     0.000 C 
ENDROOT
BRANCH   1   2
HETATM    2  C   UNL     1     -20.528  -4.544  -8.997  1.00  0.00     0.000 C 
BRANCH   2   3
HETATM    3  C   UNL     1     -22.027  -4.333  -8.910  1.00  0.00     0.000 C 
BRANCH   3   4
HETATM    4  C   UNL     1     -22.664  -4.593 -10.263  1.00  0.00     0.000 C 
BRANCH   4   5
HETATM    5  C   UNL     1     -23.091  -3.281 -10.892  1.00  0.00     0.000 C 
BRANCH   5   6
HETATM    6  C   UNL     1     -22.221  -2.980 -12.101  1.00  0.00     0.000 C 
BRANCH   6   7
HETATM    7  C   UNL     1     -23.032  -3.133 -13.375  1.00  0.00    -0.000 C 
BRANCH   7   8
HETATM    8  C   UNL     1     -22.535  -4.326 -14.178  1.00  0.00    -0.005 C 
HETATM    9  C   UNL     1     -23.381  -5.546 -13.878  1.00  0.00     0.005 C 
ENDBRANCH   7   8
ENDBRANCH   6   7
ENDBRANCH   5   6
ENDBRANCH   4   5
ENDBRANCH   3   4
ENDBRANCH   2   3
ENDBRANCH   1   2
BRANCH   1  10
HETATM   10  C   UNL     1     -20.935  -4.383  -6.553  1.00  0.00     0.000 C 
BRANCH  10  11
HETATM   11  C   UNL     1     -20.319  -5.006  -5.314  1.00  0.00     0.000 C 
BRANCH  11  12
HETATM   12  C   UNL     1     -20.724  -6.464  -5.214  1.00  0.00     0.000 C 
BRANCH  12  13
HETATM   13  C   UNL     1     -22.022  -6.587  -4.436  1.00  0.00     0.000 C 
BRANCH  13  14
HETATM   14  C   UNL     1     -21.773  -6.317  -2.962  1.00  0.00     0.000 C 
BRANCH  14  15
HETATM   15  C   UNL     1     -20.868  -7.392  -2.381  1.00  0.00     0.004 C 
BRANCH  15  16
HETATM   16  C   UNL     1     -21.660  -8.304  -1.456  1.00  0.00     0.026 C 
BRANCH  16  17
HETATM   17  C   UNL     1     -22.132  -7.564  -0.242  1.00  0.00    -0.037 C 
HETATM   18  C   UNL     1     -23.151  -7.997   0.499  1.00  0.00     0.007 C 
ENDBRANCH  16  17
ENDBRANCH  15  16
ENDBRANCH  14  15
ENDBRANCH  13  14
ENDBRANCH  12  13
ENDBRANCH  11  12
ENDBRANCH  10  11
ENDBRANCH   1  10
TORSDOF 15
BEGIN_RES ARG D 557
REMARK  4 active torsions:
REMARK  status: ('A' for Active; 'I' for Inactive)
REMARK    1  A    between atoms: CA   and  CB  
REMARK    2  A    between atoms: CB   and  CG  
REMARK    3  A    between atoms: CG   and  CD  
REMARK    4  A    between atoms: CD   and  NE  
REMARK       I    between atoms: NE   and  CZ  
REMARK       I    between atoms: CZ   and  NH1 
REMARK       I    between atoms: CZ   and  NH2 
ROOT
ATOM      1  CA  ARG D 557     -26.217   2.705 -17.014  1.00 35.49     0.159 C 
ENDROOT
BRANCH   1   2
ATOM      2  CB  ARG D 557     -26.789   1.319 -17.183  1.00 35.49     0.034 C 
BRANCH   2   3
ATOM      3  CG  ARG D 557     -28.230   1.227 -17.447  1.00 35.49     0.027 C 
BRANCH   3   4
ATOM      4  CD  ARG D 557     -28.918   0.313 -16.506  1.00 35.49     0.116 C 
BRANCH   4   5
ATOM      5  NE  ARG D 557     -29.311  -0.920 -17.137  1.00 35.49    -0.212 N 
ATOM      6  CZ  ARG D 557     -28.684  -2.070 -17.031  1.00 35.49     0.666 C 
ATOM      7  NH1 ARG D 557     -27.582  -2.214 -16.319  1.00 35.49    -0.235 N 
ATOM      8  NH2 ARG D 557     -29.195  -3.092 -17.655  1.00 35.49    -0.235 N 
ATOM      9  HH  ARG D 557     -27.230  -1.556 -15.898  1.00 35.49     0.174 HD
ATOM     10  HH  ARG D 557     -27.219  -2.990 -16.284  1.00 35.49     0.174 HD
ATOM     11  HH  ARG D 557     -29.911  -2.970 -18.102  1.00 35.49     0.174 HD
ATOM     12  HH  ARG D 557     -28.821  -3.851 -17.607  1.00 35.49     0.174 HD
ATOM     13  HE  ARG D 557     -29.970  -0.902 -17.674  1.00 35.49     0.178 HD
ENDBRANCH   4   5
ENDBRANCH   3   4
ENDBRANCH   2   3
ENDBRANCH   1   2
END_RES ARG D 557
BEGIN_RES GLU D 570
REMARK  3 active torsions:
REMARK  status: ('A' for Active; 'I' for Inactive)
REMARK    5  A    between atoms: CA   and  CB  
REMARK    6  A    between atoms: CB   and  CG  
REMARK    7  A    between atoms: CG   and  CD  
ROOT
ATOM     14  CA  GLU D 570     -18.033  -6.348 -13.375  1.00 32.92     0.160 C 
ENDROOT
BRANCH  14  15
ATOM     15  CB  GLU D 570     -19.500  -6.345 -13.794  1.00 32.92     0.043 C 
BRANCH  15  16
ATOM     16  CG  GLU D 570     -20.085  -7.634 -14.246  1.00 32.92     0.100 C 
BRANCH  16  17
ATOM     17  CD  GLU D 570     -20.675  -7.558 -15.635  1.00 32.92     0.185 C 
ATOM     18  OE1 GLU D 570     -20.633  -6.476 -16.252  1.00 32.92    -0.647 OA
ATOM     19  OE2 GLU D 570     -21.199  -8.588 -16.105  1.00 32.92    -0.647 OA
ENDBRANCH  16  17
ENDBRANCH  15  16
ENDBRANCH  14  15
END_RES GLU D 570
ENDMDL
MODEL 8
REMARK VINA RESULT:      -5.8      1.865      7.226
REMARK  15 active torsions:
REMARK  status: ('A' for Active; 'I' for Inactive)
REMARK    1  A    between atoms: C_2  and  C_3 
REMARK    2  A    between atoms: C_3  and  C_4 
REMARK    3  A    between atoms: C_4  and  C_5 
REMARK    4  A    between atoms: C_5  and  C_6 
REMARK    5  A    between atoms: C_6  and  C_7 
REMARK    6  A    between atoms: C_7  and  C_8 
REMARK    7  A    between atoms: C_8  and  C_9 
REMARK    8  A    between atoms: C_9  and  C_10 
REMARK    9  A    between atoms: C_10  and  C_11 
REMARK   10  A    between atoms: C_11  and  C_12 
REMARK   11  A    between atoms: C_12  and  C_13 
REMARK   12  A    between atoms: C_13  and  C_14 
REMARK   13  A    between atoms: C_14  and  C_15 
REMARK   14  A    between atoms: C_15  and  C_16 
REMARK   15  A    between atoms: C_16  and  C_17 
ROOT
HETATM    1  C   UNL     1     -20.883  -8.177  -4.381  1.00  0.00     0.000 C 
ENDROOT
BRANCH   1   2
HETATM    2  C   UNL     1     -21.526  -8.239  -3.008  1.00  0.00     0.000 C 
BRANCH   2   3
HETATM    3  C   UNL     1     -21.179  -6.989  -2.220  1.00  0.00     0.000 C 
BRANCH   3   4
HETATM    4  C   UNL     1     -22.274  -6.694  -1.212  1.00  0.00     0.000 C 
BRANCH   4   5
HETATM    5  C   UNL     1     -22.614  -7.953  -0.437  1.00  0.00     0.000 C 
BRANCH   5   6
HETATM    6  C   UNL     1     -22.092  -7.841   0.985  1.00  0.00     0.000 C 
BRANCH   6   7
HETATM    7  C   UNL     1     -21.049  -8.913   1.242  1.00  0.00    -0.000 C 
BRANCH   7   8
HETATM    8  C   UNL     1     -21.189 -10.038   0.228  1.00  0.00    -0.005 C 
HETATM    9  C   UNL     1     -20.298 -11.202   0.612  1.00  0.00     0.005 C 
ENDBRANCH   7   8
ENDBRANCH   6   7
ENDBRANCH   5   6
ENDBRANCH   4   5
ENDBRANCH   3   4
ENDBRANCH   2   3
ENDBRANCH   1   2
BRANCH   1  10
HETATM   10  C   UNL     1     -21.386  -6.958  -5.130  1.00  0.00     0.000 C 
BRANCH  10  11
HETATM   11  C   UNL     1     -20.259  -6.354  -5.947  1.00  0.00     0.000 C 
BRANCH  11  12
HETATM   12  C   UNL     1     -20.177  -4.861  -5.689  1.00  0.00     0.000 C 
BRANCH  12  13
HETATM   13  C   UNL     1     -20.768  -4.101  -6.863  1.00  0.00     0.000 C 
BRANCH  13  14
HETATM   14  C   UNL     1     -19.813  -4.141  -8.043  1.00  0.00     0.000 C 
BRANCH  14  15
HETATM   15  C   UNL     1     -20.583  -4.406  -9.327  1.00  0.00     0.004 C 
BRANCH  15  16
HETATM   16  C   UNL     1     -22.064  -4.578  -9.026  1.00  0.00     0.026 C 
BRANCH  16  17
HETATM   17  C   UNL     1     -22.899  -3.689  -9.898  1.00  0.00    -0.037 C 
HETATM   18  C   UNL     1     -24.230  -3.750  -9.901  1.00  0.00     0.007 C 
ENDBRANCH  16  17
ENDBRANCH  15  16
ENDBRANCH  14  15
ENDBRANCH  13  14
ENDBRANCH  12  13
ENDBRANCH  11  12
ENDBRANCH  10  11
ENDBRANCH   1  10
TORSDOF 15
BEGIN_RES ARG D 557
REMARK  4 active torsions:
REMARK  status: ('A' for Active; 'I' for Inactive)
REMARK    1  A    between atoms: CA   and  CB  
REMARK    2  A    between atoms: CB   and  CG  
REMARK    3  A    between atoms: CG   and  CD  
REMARK    4  A    between atoms: CD   and  NE  
REMARK       I    between atoms: NE   and  CZ  
REMARK       I    between atoms: CZ   and  NH1 
REMARK       I    between atoms: CZ   and  NH2 
ROOT
ATOM      1  CA  ARG D 557     -26.217   2.705 -17.014  1.00 35.49     0.159 C 
ENDROOT
BRANCH   1   2
ATOM      2  CB  ARG D 557     -26.789   1.319 -17.183  1.00 35.49     0.034 C 
BRANCH   2   3
ATOM      3  CG  ARG D 557     -28.231   1.167 -16.954  1.00 35.49     0.027 C 
BRANCH   3   4
ATOM      4  CD  ARG D 557     -28.615  -0.239 -16.691  1.00 35.49     0.116 C 
BRANCH   4   5
ATOM      5  NE  ARG D 557     -27.587  -0.960 -15.989  1.00 35.49    -0.212 N 
ATOM      6  CZ  ARG D 557     -27.380  -2.257 -16.049  1.00 35.49     0.666 C 
ATOM      7  NH1 ARG D 557     -28.132  -3.062 -16.777  1.00 35.49    -0.235 N 
ATOM      8  NH2 ARG D 557     -26.386  -2.739 -15.361  1.00 35.49    -0.235 N 
ATOM      9  HH  ARG D 557     -28.790  -2.766 -17.239  1.00 35.49     0.174 HD
ATOM     10  HH  ARG D 557     -27.948  -3.899 -16.779  1.00 35.49     0.174 HD
ATOM     11  HH  ARG D 557     -25.913  -2.194 -14.906  1.00 35.49     0.174 HD
ATOM     12  HH  ARG D 557     -26.220  -3.570 -15.378  1.00 35.49     0.174 HD
ATOM     13  HE  ARG D 557     -27.101  -0.530 -15.439  1.00 35.49     0.178 HD
ENDBRANCH   4   5
ENDBRANCH   3   4
ENDBRANCH   2   3
ENDBRANCH   1   2
END_RES ARG D 557
BEGIN_RES GLU D 570
REMARK  3 active torsions:
REMARK  status: ('A' for Active; 'I' for Inactive)
REMARK    5  A    between atoms: CA   and  CB  
REMARK    6  A    between atoms: CB   and  CG  
REMARK    7  A    between atoms: CG   and  CD  
ROOT
ATOM     14  CA  GLU D 570     -18.033  -6.348 -13.375  1.00 32.92     0.160 C 
ENDROOT
BRANCH  14  15
ATOM     15  CB  GLU D 570     -19.500  -6.345 -13.794  1.00 32.92     0.043 C 
BRANCH  15  16
ATOM     16  CG  GLU D 570     -20.444  -5.540 -12.976  1.00 32.92     0.100 C 
BRANCH  16  17
ATOM     17  CD  GLU D 570     -21.702  -5.167 -13.725  1.00 32.92     0.185 C 
ATOM     18  OE1 GLU D 570     -22.781  -5.110 -13.104  1.00 32.92    -0.647 OA
ATOM     19  OE2 GLU D 570     -21.611  -4.947 -14.948  1.00 32.92    -0.647 OA
ENDBRANCH  16  17
ENDBRANCH  15  16
ENDBRANCH  14  15
END_RES GLU D 570
ENDMDL
MODEL 9
REMARK VINA RESULT:      -5.8      1.122      7.034
REMARK  15 active torsions:
REMARK  status: ('A' for Active; 'I' for Inactive)
REMARK    1  A    between atoms: C_2  and  C_3 
REMARK    2  A    between atoms: C_3  and  C_4 
REMARK    3  A    between atoms: C_4  and  C_5 
REMARK    4  A    between atoms: C_5  and  C_6 
REMARK    5  A    between atoms: C_6  and  C_7 
REMARK    6  A    between atoms: C_7  and  C_8 
REMARK    7  A    between atoms: C_8  and  C_9 
REMARK    8  A    between atoms: C_9  and  C_10 
REMARK    9  A    between atoms: C_10  and  C_11 
REMARK   10  A    between atoms: C_11  and  C_12 
REMARK   11  A    between atoms: C_12  and  C_13 
REMARK   12  A    between atoms: C_13  and  C_14 
REMARK   13  A    between atoms: C_14  and  C_15 
REMARK   14  A    between atoms: C_15  and  C_16 
REMARK   15  A    between atoms: C_16  and  C_17 
ROOT
HETATM    1  C   UNL     1     -21.521  -6.312  -4.971  1.00  0.00     0.000 C 
ENDROOT
BRANCH   1   2
HETATM    2  C   UNL     1     -21.254  -6.942  -3.617  1.00  0.00     0.000 C 
BRANCH   2   3
HETATM    3  C   UNL     1     -22.058  -6.226  -2.548  1.00  0.00     0.000 C 
BRANCH   3   4
HETATM    4  C   UNL     1     -22.065  -7.046  -1.272  1.00  0.00     0.000 C 
BRANCH   4   5
HETATM    5  C   UNL     1     -21.277  -8.326  -1.477  1.00  0.00     0.000 C 
BRANCH   5   6
HETATM    6  C   UNL     1     -22.007  -9.491  -0.831  1.00  0.00     0.000 C 
BRANCH   6   7
HETATM    7  C   UNL     1     -22.428 -10.493  -1.892  1.00  0.00    -0.000 C 
BRANCH   7   8
HETATM    8  C   UNL     1     -23.605 -11.321  -1.399  1.00  0.00    -0.005 C 
HETATM    9  C   UNL     1     -24.108 -10.779  -0.077  1.00  0.00     0.005 C 
ENDBRANCH   7   8
ENDBRANCH   6   7
ENDBRANCH   5   6
ENDBRANCH   4   5
ENDBRANCH   3   4
ENDBRANCH   2   3
ENDBRANCH   1   2
BRANCH   1  10
HETATM   10  C   UNL     1     -20.582  -5.141  -5.188  1.00  0.00     0.000 C 
BRANCH  10  11
HETATM   11  C   UNL     1     -19.831  -5.318  -6.495  1.00  0.00     0.000 C 
BRANCH  11  12
HETATM   12  C   UNL     1     -20.812  -5.358  -7.652  1.00  0.00     0.000 C 
BRANCH  12  13
HETATM   13  C   UNL     1     -21.478  -4.002  -7.812  1.00  0.00     0.000 C 
BRANCH  13  14
HETATM   14  C   UNL     1     -22.927  -4.180  -8.230  1.00  0.00     0.000 C 
BRANCH  14  15
HETATM   15  C   UNL     1     -23.142  -3.601  -9.620  1.00  0.00     0.004 C 
BRANCH  15  16
HETATM   16  C   UNL     1     -23.000  -4.691 -10.672  1.00  0.00     0.026 C 
BRANCH  16  17
HETATM   17  C   UNL     1     -21.864  -4.397 -11.604  1.00  0.00    -0.037 C 
HETATM   18  C   UNL     1     -20.978  -3.432 -11.357  1.00  0.00     0.007 C 
ENDBRANCH  16  17
ENDBRANCH  15  16
ENDBRANCH  14  15
ENDBRANCH  13  14
ENDBRANCH  12  13
ENDBRANCH  11  12
ENDBRANCH  10  11
ENDBRANCH   1  10
TORSDOF 15
BEGIN_RES ARG D 557
REMARK  4 active torsions:
REMARK  status: ('A' for Active; 'I' for Inactive)
REMARK    1  A    between atoms: CA   and  CB  
REMARK    2  A    between atoms: CB   and  CG  
REMARK    3  A    between atoms: CG   and  CD  
REMARK    4  A    between atoms: CD   and  NE  
REMARK       I    between atoms: NE   and  CZ  
REMARK       I    between atoms: CZ   and  NH1 
REMARK       I    between atoms: CZ   and  NH2 
ROOT
ATOM      1  CA  ARG D 557     -26.217   2.705 -17.014  1.00 35.49     0.159 C 
ENDROOT
BRANCH   1   2
ATOM      2  CB  ARG D 557     -26.789   1.319 -17.183  1.00 35.49     0.034 C 
BRANCH   2   3
ATOM      3  CG  ARG D 557     -25.839   0.201 -17.130  1.00 35.49     0.027 C 
BRANCH   3   4
ATOM      4  CD  ARG D 557     -24.758   0.426 -16.142  1.00 35.49     0.116 C 
BRANCH   4   5
ATOM      5  NE  ARG D 557     -24.879  -0.441 -15.000  1.00 35.49    -0.212 N 
ATOM      6  CZ  ARG D 557     -24.054  -1.414 -14.684  1.00 35.49     0.666 C 
ATOM      7  NH1 ARG D 557     -22.999  -1.716 -15.418  1.00 35.49    -0.235 N 
ATOM      8  NH2 ARG D 557     -24.306  -2.086 -13.598  1.00 35.49    -0.235 N 
ATOM      9  HH  ARG D 557     -22.813  -1.286 -16.135  1.00 35.49     0.174 HD
ATOM     10  HH  ARG D 557     -22.495  -2.360 -15.161  1.00 35.49     0.174 HD
ATOM     11  HH  ARG D 557     -24.991  -1.864 -13.140  1.00 35.49     0.174 HD
ATOM     12  HH  ARG D 557     -23.795  -2.719 -13.360  1.00 35.49     0.174 HD
ATOM     13  HE  ARG D 557     -25.571  -0.364 -14.511  1.00 35.49     0.178 HD
ENDBRANCH   4   5
ENDBRANCH   3   4
ENDBRANCH   2   3
ENDBRANCH   1   2
END_RES ARG D 557
BEGIN_RES GLU D 570
REMARK  3 active torsions:
REMARK  status: ('A' for Active; 'I' for Inactive)
REMARK    5  A    between atoms: CA   and  CB  
REMARK    6  A    between atoms: CB   and  CG  
REMARK    7  A    between atoms: CG   and  CD  
ROOT
ATOM     14  CA  GLU D 570     -18.033  -6.348 -13.375  1.00 32.92     0.160 C 
ENDROOT
BRANCH  14  15
ATOM     15  CB  GLU D 570     -19.500  -6.345 -13.794  1.00 32.92     0.043 C 
BRANCH  15  16
ATOM     16  CG  GLU D 570     -19.836  -5.731 -15.104  1.00 32.92     0.100 C 
BRANCH  16  17
ATOM     17  CD  GLU D 570     -21.322  -5.535 -15.300  1.00 32.92     0.185 C 
ATOM     18  OE1 GLU D 570     -21.735  -4.451 -15.753  1.00 32.92    -0.647 OA
ATOM     19  OE2 GLU D 570     -22.082  -6.471 -14.980  1.00 32.92    -0.647 OA
ENDBRANCH  16  17
ENDBRANCH  15  16
ENDBRANCH  14  15
END_RES GLU D 570
ENDMDL
