MODEL 1
REMARK VINA RESULT:      -4.2      0.000      0.000
REMARK WARNING: 32 MAX_TORS EXCEEDED!!!
REMARK  37 active torsions:
REMARK  status: ('A' for Active; 'I' for Inactive)
REMARK    1  A    between atoms: C_2  and  C_4 
REMARK    2  A    between atoms: C_4  and  C_5 
REMARK    3  A    between atoms: C_5  and  C_6 
REMARK    4  A    between atoms: C_6  and  C_7 
REMARK    5  A    between atoms: C_7  and  C_8 
REMARK    6  A    between atoms: C_8  and  C_9 
REMARK    7  A    between atoms: C_9  and  C_10 
REMARK    8  A    between atoms: C_10  and  C_11 
REMARK    9  A    between atoms: C_11  and  C_12 
REMARK   10  A    between atoms: C_12  and  C_13 
REMARK   11  A    between atoms: C_13  and  C_14 
REMARK   12  A    between atoms: C_14  and  C_15 
REMARK   13  A    between atoms: C_15  and  C_16 
REMARK   14  A    between atoms: C_16  and  C_17 
REMARK   15  A    between atoms: C_17  and  C_18 
REMARK   16  A    between atoms: C_18  and  O_20 
REMARK   17  A    between atoms: C_23  and  C_25 
REMARK   18  A    between atoms: C_25  and  C_26 
REMARK   19  A    between atoms: C_26  and  C_27 
REMARK   20  A    between atoms: C_27  and  C_28 
REMARK   21  A    between atoms: C_28  and  C_29 
REMARK   22  A    between atoms: C_29  and  C_30 
REMARK   23  A    between atoms: C_30  and  C_31 
REMARK   24  A    between atoms: C_31  and  C_32 
REMARK   25  A    between atoms: C_32  and  C_33 
REMARK   26  A    between atoms: C_33  and  C_34 
REMARK   27  A    between atoms: C_34  and  C_35 
REMARK   28  A    between atoms: C_35  and  C_36 
REMARK   29  A    between atoms: C_36  and  C_37 
REMARK   30  A    between atoms: C_37  and  C_38 
REMARK   31  A    between atoms: C_38  and  C_39 
REMARK   32  A    between atoms: C_39  and  O_41 
REMARK   33  A    between atoms: C_43  and  C_44 
REMARK   34  A    between atoms: C_43  and  O_48 
REMARK   35  A    between atoms: C_44  and  C_45 
REMARK   36  A    between atoms: C_44  and  O_47 
REMARK   37  A    between atoms: C_45  and  O_46 
ROOT
HETATM    1  C   UNL     3     -29.523 -14.710 -20.962  1.00  0.00     0.165 C 
ENDROOT
BRANCH   1   2
HETATM    2  C   UNL     3     -29.587 -14.295 -19.505  1.00  0.00     0.198 C 
BRANCH   2   3
HETATM    3  O   UNL     3     -30.795 -13.672 -19.111  1.00  0.00    -0.398 OA
HETATM    4  H   UNL     3     -31.168 -13.247 -19.909  1.00  0.00     0.209 HD
ENDBRANCH   2   3
ENDBRANCH   1   2
BRANCH   1   5
HETATM    5  C   UNL     3     -30.920 -14.987 -21.479  1.00  0.00     0.198 C 
BRANCH   5   6
HETATM    6  O   UNL     3     -31.392 -13.840 -22.178  1.00  0.00    -0.398 OA
HETATM    7  H   UNL     3     -31.103 -13.083 -21.629  1.00  0.00     0.209 HD
ENDBRANCH   5   6
ENDBRANCH   1   5
BRANCH   1   8
HETATM    8  O   UNL     3     -28.919 -13.665 -21.745  1.00  0.00    -0.391 OA
HETATM    9  H   UNL     3     -29.495 -12.881 -21.680  1.00  0.00     0.210 HD
ENDBRANCH   1   8
TORSDOF 37
BEGIN_RES ARG D 557
REMARK  4 active torsions:
REMARK  status: ('A' for Active; 'I' for Inactive)
REMARK    1  A    between atoms: CA   and  CB  
REMARK    2  A    between atoms: CB   and  CG  
REMARK    3  A    between atoms: CG   and  CD  
REMARK    4  A    between atoms: CD   and  NE  
REMARK       I    between atoms: NE   and  CZ  
REMARK       I    between atoms: CZ   and  NH1 
REMARK       I    between atoms: CZ   and  NH2 
ROOT
ATOM      1  CA  ARG D 557     -26.217   2.705 -17.014  1.00 35.49     0.159 C 
ENDROOT
BRANCH   1   2
ATOM      2  CB  ARG D 557     -26.789   1.319 -17.183  1.00 35.49     0.034 C 
BRANCH   2   3
ATOM      3  CG  ARG D 557     -25.840   0.201 -17.124  1.00 35.49     0.027 C 
BRANCH   3   4
ATOM      4  CD  ARG D 557     -24.762   0.427 -16.135  1.00 35.49     0.116 C 
BRANCH   4   5
ATOM      5  NE  ARG D 557     -24.871  -0.455 -15.003  1.00 35.49    -0.212 N 
ATOM      6  CZ  ARG D 557     -24.029  -1.416 -14.694  1.00 35.49     0.666 C 
ATOM      7  NH1 ARG D 557     -22.966  -1.690 -15.427  1.00 35.49    -0.235 N 
ATOM      8  NH2 ARG D 557     -24.273  -2.104 -13.617  1.00 35.49    -0.235 N 
ATOM      9  HH  ARG D 557     -22.785  -1.248 -16.138  1.00 35.49     0.174 HD
ATOM     10  HH  ARG D 557     -22.451  -2.327 -15.175  1.00 35.49     0.174 HD
ATOM     11  HH  ARG D 557     -24.964  -1.900 -13.159  1.00 35.49     0.174 HD
ATOM     12  HH  ARG D 557     -23.751  -2.730 -13.383  1.00 35.49     0.174 HD
ATOM     13  HE  ARG D 557     -25.566  -0.396 -14.516  1.00 35.49     0.178 HD
ENDBRANCH   4   5
ENDBRANCH   3   4
ENDBRANCH   2   3
ENDBRANCH   1   2
END_RES ARG D 557
BEGIN_RES GLU D 570
REMARK  3 active torsions:
REMARK  status: ('A' for Active; 'I' for Inactive)
REMARK    5  A    between atoms: CA   and  CB  
REMARK    6  A    between atoms: CB   and  CG  
REMARK    7  A    between atoms: CG   and  CD  
ROOT
ATOM     14  CA  GLU D 570     -18.033  -6.348 -13.375  1.00 32.92     0.160 C 
ENDROOT
BRANCH  14  15
ATOM     15  CB  GLU D 570     -19.500  -6.345 -13.794  1.00 32.92     0.043 C 
BRANCH  15  16
ATOM     16  CG  GLU D 570     -20.448  -5.558 -12.964  1.00 32.92     0.100 C 
BRANCH  16  17
ATOM     17  CD  GLU D 570     -21.643  -5.062 -13.743  1.00 32.92     0.185 C 
ATOM     18  OE1 GLU D 570     -21.587  -5.041 -14.988  1.00 32.92    -0.647 OA
ATOM     19  OE2 GLU D 570     -22.639  -4.674 -13.102  1.00 32.92    -0.647 OA
ENDBRANCH  16  17
ENDBRANCH  15  16
ENDBRANCH  14  15
END_RES GLU D 570
ENDMDL
MODEL 2
REMARK VINA RESULT:      -4.0      8.175      9.495
REMARK WARNING: 32 MAX_TORS EXCEEDED!!!
REMARK  37 active torsions:
REMARK  status: ('A' for Active; 'I' for Inactive)
REMARK    1  A    between atoms: C_2  and  C_4 
REMARK    2  A    between atoms: C_4  and  C_5 
REMARK    3  A    between atoms: C_5  and  C_6 
REMARK    4  A    between atoms: C_6  and  C_7 
REMARK    5  A    between atoms: C_7  and  C_8 
REMARK    6  A    between atoms: C_8  and  C_9 
REMARK    7  A    between atoms: C_9  and  C_10 
REMARK    8  A    between atoms: C_10  and  C_11 
REMARK    9  A    between atoms: C_11  and  C_12 
REMARK   10  A    between atoms: C_12  and  C_13 
REMARK   11  A    between atoms: C_13  and  C_14 
REMARK   12  A    between atoms: C_14  and  C_15 
REMARK   13  A    between atoms: C_15  and  C_16 
REMARK   14  A    between atoms: C_16  and  C_17 
REMARK   15  A    between atoms: C_17  and  C_18 
REMARK   16  A    between atoms: C_18  and  O_20 
REMARK   17  A    between atoms: C_23  and  C_25 
REMARK   18  A    between atoms: C_25  and  C_26 
REMARK   19  A    between atoms: C_26  and  C_27 
REMARK   20  A    between atoms: C_27  and  C_28 
REMARK   21  A    between atoms: C_28  and  C_29 
REMARK   22  A    between atoms: C_29  and  C_30 
REMARK   23  A    between atoms: C_30  and  C_31 
REMARK   24  A    between atoms: C_31  and  C_32 
REMARK   25  A    between atoms: C_32  and  C_33 
REMARK   26  A    between atoms: C_33  and  C_34 
REMARK   27  A    between atoms: C_34  and  C_35 
REMARK   28  A    between atoms: C_35  and  C_36 
REMARK   29  A    between atoms: C_36  and  C_37 
REMARK   30  A    between atoms: C_37  and  C_38 
REMARK   31  A    between atoms: C_38  and  C_39 
REMARK   32  A    between atoms: C_39  and  O_41 
REMARK   33  A    between atoms: C_43  and  C_44 
REMARK   34  A    between atoms: C_43  and  O_48 
REMARK   35  A    between atoms: C_44  and  C_45 
REMARK   36  A    between atoms: C_44  and  O_47 
REMARK   37  A    between atoms: C_45  and  O_46 
ROOT
HETATM    1  C   UNL     3     -23.446  -2.196 -14.325  1.00  0.00     0.165 C 
ENDROOT
BRANCH   1   2
HETATM    2  C   UNL     3     -24.161  -1.016 -14.955  1.00  0.00     0.198 C 
BRANCH   2   3
HETATM    3  O   UNL     3     -25.544  -1.207 -15.186  1.00  0.00    -0.398 OA
HETATM    4  H   UNL     3     -25.996  -0.392 -14.890  1.00  0.00     0.209 HD
ENDBRANCH   2   3
ENDBRANCH   1   2
BRANCH   1   5
HETATM    5  C   UNL     3     -24.459  -3.225 -13.866  1.00  0.00     0.198 C 
BRANCH   5   6
HETATM    6  O   UNL     3     -24.703  -4.141 -14.929  1.00  0.00    -0.398 OA
HETATM    7  H   UNL     3     -24.769  -3.578 -15.727  1.00  0.00     0.209 HD
ENDBRANCH   5   6
ENDBRANCH   1   5
BRANCH   1   8
HETATM    8  O   UNL     3     -22.550  -2.795 -15.279  1.00  0.00    -0.391 OA
HETATM    9  H   UNL     3     -23.081  -3.379 -15.851  1.00  0.00     0.210 HD
ENDBRANCH   1   8
TORSDOF 37
BEGIN_RES ARG D 557
REMARK  4 active torsions:
REMARK  status: ('A' for Active; 'I' for Inactive)
REMARK    1  A    between atoms: CA   and  CB  
REMARK    2  A    between atoms: CB   and  CG  
REMARK    3  A    between atoms: CG   and  CD  
REMARK    4  A    between atoms: CD   and  NE  
REMARK       I    between atoms: NE   and  CZ  
REMARK       I    between atoms: CZ   and  NH1 
REMARK       I    between atoms: CZ   and  NH2 
ROOT
ATOM      1  CA  ARG D 557     -26.217   2.705 -17.014  1.00 35.49     0.159 C 
ENDROOT
BRANCH   1   2
ATOM      2  CB  ARG D 557     -26.789   1.319 -17.183  1.00 35.49     0.034 C 
BRANCH   2   3
ATOM      3  CG  ARG D 557     -28.190   1.130 -16.788  1.00 35.49     0.027 C 
BRANCH   3   4
ATOM      4  CD  ARG D 557     -28.724  -0.184 -17.214  1.00 35.49     0.116 C 
BRANCH   4   5
ATOM      5  NE  ARG D 557     -28.004  -1.280 -16.620  1.00 35.49    -0.212 N 
ATOM      6  CZ  ARG D 557     -28.260  -2.556 -16.801  1.00 35.49     0.666 C 
ATOM      7  NH1 ARG D 557     -29.252  -2.978 -17.564  1.00 35.49    -0.235 N 
ATOM      8  NH2 ARG D 557     -27.490  -3.415 -16.200  1.00 35.49    -0.235 N 
ATOM      9  HH  ARG D 557     -29.770  -2.431 -17.971  1.00 35.49     0.174 HD
ATOM     10  HH  ARG D 557     -29.370  -3.823 -17.647  1.00 35.49     0.174 HD
ATOM     11  HH  ARG D 557     -26.853  -3.113 -15.719  1.00 35.49     0.174 HD
ATOM     12  HH  ARG D 557     -27.622  -4.247 -16.296  1.00 35.49     0.174 HD
ATOM     13  HE  ARG D 557     -27.394  -1.098 -16.056  1.00 35.49     0.178 HD
ENDBRANCH   4   5
ENDBRANCH   3   4
ENDBRANCH   2   3
ENDBRANCH   1   2
END_RES ARG D 557
BEGIN_RES GLU D 570
REMARK  3 active torsions:
REMARK  status: ('A' for Active; 'I' for Inactive)
REMARK    5  A    between atoms: CA   and  CB  
REMARK    6  A    between atoms: CB   and  CG  
REMARK    7  A    between atoms: CG   and  CD  
ROOT
ATOM     14  CA  GLU D 570     -18.033  -6.348 -13.375  1.00 32.92     0.160 C 
ENDROOT
BRANCH  14  15
ATOM     15  CB  GLU D 570     -19.500  -6.345 -13.794  1.00 32.92     0.043 C 
BRANCH  15  16
ATOM     16  CG  GLU D 570     -19.797  -6.251 -15.247  1.00 32.92     0.100 C 
BRANCH  16  17
ATOM     17  CD  GLU D 570     -21.149  -5.642 -15.534  1.00 32.92     0.185 C 
ATOM     18  OE1 GLU D 570     -22.014  -5.639 -14.637  1.00 32.92    -0.647 OA
ATOM     19  OE2 GLU D 570     -21.351  -5.177 -16.673  1.00 32.92    -0.647 OA
ENDBRANCH  16  17
ENDBRANCH  15  16
ENDBRANCH  14  15
END_RES GLU D 570
ENDMDL
MODEL 3
REMARK VINA RESULT:      -4.0      8.383      9.780
REMARK WARNING: 32 MAX_TORS EXCEEDED!!!
REMARK  37 active torsions:
REMARK  status: ('A' for Active; 'I' for Inactive)
REMARK    1  A    between atoms: C_2  and  C_4 
REMARK    2  A    between atoms: C_4  and  C_5 
REMARK    3  A    between atoms: C_5  and  C_6 
REMARK    4  A    between atoms: C_6  and  C_7 
REMARK    5  A    between atoms: C_7  and  C_8 
REMARK    6  A    between atoms: C_8  and  C_9 
REMARK    7  A    between atoms: C_9  and  C_10 
REMARK    8  A    between atoms: C_10  and  C_11 
REMARK    9  A    between atoms: C_11  and  C_12 
REMARK   10  A    between atoms: C_12  and  C_13 
REMARK   11  A    between atoms: C_13  and  C_14 
REMARK   12  A    between atoms: C_14  and  C_15 
REMARK   13  A    between atoms: C_15  and  C_16 
REMARK   14  A    between atoms: C_16  and  C_17 
REMARK   15  A    between atoms: C_17  and  C_18 
REMARK   16  A    between atoms: C_18  and  O_20 
REMARK   17  A    between atoms: C_23  and  C_25 
REMARK   18  A    between atoms: C_25  and  C_26 
REMARK   19  A    between atoms: C_26  and  C_27 
REMARK   20  A    between atoms: C_27  and  C_28 
REMARK   21  A    between atoms: C_28  and  C_29 
REMARK   22  A    between atoms: C_29  and  C_30 
REMARK   23  A    between atoms: C_30  and  C_31 
REMARK   24  A    between atoms: C_31  and  C_32 
REMARK   25  A    between atoms: C_32  and  C_33 
REMARK   26  A    between atoms: C_33  and  C_34 
REMARK   27  A    between atoms: C_34  and  C_35 
REMARK   28  A    between atoms: C_35  and  C_36 
REMARK   29  A    between atoms: C_36  and  C_37 
REMARK   30  A    between atoms: C_37  and  C_38 
REMARK   31  A    between atoms: C_38  and  C_39 
REMARK   32  A    between atoms: C_39  and  O_41 
REMARK   33  A    between atoms: C_43  and  C_44 
REMARK   34  A    between atoms: C_43  and  O_48 
REMARK   35  A    between atoms: C_44  and  C_45 
REMARK   36  A    between atoms: C_44  and  O_47 
REMARK   37  A    between atoms: C_45  and  O_46 
ROOT
HETATM    1  C   UNL     3     -23.172  -4.609 -11.080  1.00  0.00     0.165 C 
ENDROOT
BRANCH   1   2
HETATM    2  C   UNL     3     -21.732  -4.133 -11.118  1.00  0.00     0.198 C 
BRANCH   2   3
HETATM    3  O   UNL     3     -21.400  -3.318 -12.226  1.00  0.00    -0.398 OA
HETATM    4  H   UNL     3     -20.589  -2.826 -11.984  1.00  0.00     0.209 HD
ENDBRANCH   2   3
ENDBRANCH   1   2
BRANCH   1   5
HETATM    5  C   UNL     3     -24.015  -3.628 -10.291  1.00  0.00     0.198 C 
BRANCH   5   6
HETATM    6  O   UNL     3     -25.087  -3.174 -11.111  1.00  0.00    -0.398 OA
HETATM    7  H   UNL     3     -24.649  -2.701 -11.847  1.00  0.00     0.209 HD
ENDBRANCH   5   6
ENDBRANCH   1   5
BRANCH   1   8
HETATM    8  O   UNL     3     -23.689  -4.720 -12.418  1.00  0.00    -0.391 OA
HETATM    9  H   UNL     3     -23.058  -4.275 -13.013  1.00  0.00     0.210 HD
ENDBRANCH   1   8
TORSDOF 37
BEGIN_RES ARG D 557
REMARK  4 active torsions:
REMARK  status: ('A' for Active; 'I' for Inactive)
REMARK    1  A    between atoms: CA   and  CB  
REMARK    2  A    between atoms: CB   and  CG  
REMARK    3  A    between atoms: CG   and  CD  
REMARK    4  A    between atoms: CD   and  NE  
REMARK       I    between atoms: NE   and  CZ  
REMARK       I    between atoms: CZ   and  NH1 
REMARK       I    between atoms: CZ   and  NH2 
ROOT
ATOM      1  CA  ARG D 557     -26.217   2.705 -17.014  1.00 35.49     0.159 C 
ENDROOT
BRANCH   1   2
ATOM      2  CB  ARG D 557     -26.789   1.319 -17.183  1.00 35.49     0.034 C 
BRANCH   2   3
ATOM      3  CG  ARG D 557     -25.858   0.196 -17.020  1.00 35.49     0.027 C 
BRANCH   3   4
ATOM      4  CD  ARG D 557     -26.195  -0.652 -15.854  1.00 35.49     0.116 C 
BRANCH   4   5
ATOM      5  NE  ARG D 557     -25.065  -0.855 -14.986  1.00 35.49    -0.212 N 
ATOM      6  CZ  ARG D 557     -24.825  -1.936 -14.278  1.00 35.49     0.666 C 
ATOM      7  NH1 ARG D 557     -25.634  -2.979 -14.279  1.00 35.49    -0.235 N 
ATOM      8  NH2 ARG D 557     -23.739  -1.955 -13.561  1.00 35.49    -0.235 N 
ATOM      9  HH  ARG D 557     -26.354  -2.989 -14.745  1.00 35.49     0.174 HD
ATOM     10  HH  ARG D 557     -25.425  -3.657 -13.799  1.00 35.49     0.174 HD
ATOM     11  HH  ARG D 557     -23.232  -1.270 -13.585  1.00 35.49     0.174 HD
ATOM     12  HH  ARG D 557     -23.548  -2.636 -13.094  1.00 35.49     0.174 HD
ATOM     13  HE  ARG D 557     -24.530  -0.205 -14.869  1.00 35.49     0.178 HD
ENDBRANCH   4   5
ENDBRANCH   3   4
ENDBRANCH   2   3
ENDBRANCH   1   2
END_RES ARG D 557
BEGIN_RES GLU D 570
REMARK  3 active torsions:
REMARK  status: ('A' for Active; 'I' for Inactive)
REMARK    5  A    between atoms: CA   and  CB  
REMARK    6  A    between atoms: CB   and  CG  
REMARK    7  A    between atoms: CG   and  CD  
ROOT
ATOM     14  CA  GLU D 570     -18.033  -6.348 -13.375  1.00 32.92     0.160 C 
ENDROOT
BRANCH  14  15
ATOM     15  CB  GLU D 570     -19.500  -6.345 -13.794  1.00 32.92     0.043 C 
BRANCH  15  16
ATOM     16  CG  GLU D 570     -19.797  -6.218 -15.244  1.00 32.92     0.100 C 
BRANCH  16  17
ATOM     17  CD  GLU D 570     -21.049  -5.417 -15.521  1.00 32.92     0.185 C 
ATOM     18  OE1 GLU D 570     -21.730  -5.007 -14.561  1.00 32.92    -0.647 OA
ATOM     19  OE2 GLU D 570     -21.361  -5.213 -16.711  1.00 32.92    -0.647 OA
ENDBRANCH  16  17
ENDBRANCH  15  16
ENDBRANCH  14  15
END_RES GLU D 570
ENDMDL
MODEL 4
REMARK VINA RESULT:      -4.0      8.698     10.341
REMARK WARNING: 32 MAX_TORS EXCEEDED!!!
REMARK  37 active torsions:
REMARK  status: ('A' for Active; 'I' for Inactive)
REMARK    1  A    between atoms: C_2  and  C_4 
REMARK    2  A    between atoms: C_4  and  C_5 
REMARK    3  A    between atoms: C_5  and  C_6 
REMARK    4  A    between atoms: C_6  and  C_7 
REMARK    5  A    between atoms: C_7  and  C_8 
REMARK    6  A    between atoms: C_8  and  C_9 
REMARK    7  A    between atoms: C_9  and  C_10 
REMARK    8  A    between atoms: C_10  and  C_11 
REMARK    9  A    between atoms: C_11  and  C_12 
REMARK   10  A    between atoms: C_12  and  C_13 
REMARK   11  A    between atoms: C_13  and  C_14 
REMARK   12  A    between atoms: C_14  and  C_15 
REMARK   13  A    between atoms: C_15  and  C_16 
REMARK   14  A    between atoms: C_16  and  C_17 
REMARK   15  A    between atoms: C_17  and  C_18 
REMARK   16  A    between atoms: C_18  and  O_20 
REMARK   17  A    between atoms: C_23  and  C_25 
REMARK   18  A    between atoms: C_25  and  C_26 
REMARK   19  A    between atoms: C_26  and  C_27 
REMARK   20  A    between atoms: C_27  and  C_28 
REMARK   21  A    between atoms: C_28  and  C_29 
REMARK   22  A    between atoms: C_29  and  C_30 
REMARK   23  A    between atoms: C_30  and  C_31 
REMARK   24  A    between atoms: C_31  and  C_32 
REMARK   25  A    between atoms: C_32  and  C_33 
REMARK   26  A    between atoms: C_33  and  C_34 
REMARK   27  A    between atoms: C_34  and  C_35 
REMARK   28  A    between atoms: C_35  and  C_36 
REMARK   29  A    between atoms: C_36  and  C_37 
REMARK   30  A    between atoms: C_37  and  C_38 
REMARK   31  A    between atoms: C_38  and  C_39 
REMARK   32  A    between atoms: C_39  and  O_41 
REMARK   33  A    between atoms: C_43  and  C_44 
REMARK   34  A    between atoms: C_43  and  O_48 
REMARK   35  A    between atoms: C_44  and  C_45 
REMARK   36  A    between atoms: C_44  and  O_47 
REMARK   37  A    between atoms: C_45  and  O_46 
ROOT
HETATM    1  C   UNL     3     -23.623  -4.207  -9.264  1.00  0.00     0.165 C 
ENDROOT
BRANCH   1   2
HETATM    2  C   UNL     3     -24.614  -3.287  -9.951  1.00  0.00     0.198 C 
BRANCH   2   3
HETATM    3  O   UNL     3     -24.867  -3.586 -11.310  1.00  0.00    -0.398 OA
HETATM    4  H   UNL     3     -24.007  -3.815 -11.716  1.00  0.00     0.209 HD
ENDBRANCH   2   3
ENDBRANCH   1   2
BRANCH   1   5
HETATM    5  C   UNL     3     -22.210  -3.825  -9.655  1.00  0.00     0.198 C 
BRANCH   5   6
HETATM    6  O   UNL     3     -22.252  -3.072 -10.864  1.00  0.00    -0.398 OA
HETATM    7  H   UNL     3     -22.970  -3.485 -11.384  1.00  0.00     0.209 HD
ENDBRANCH   5   6
ENDBRANCH   1   5
BRANCH   1   8
HETATM    8  O   UNL     3     -23.770  -4.110  -7.836  1.00  0.00    -0.391 OA
HETATM    9  H   UNL     3     -24.616  -3.658  -7.659  1.00  0.00     0.210 HD
ENDBRANCH   1   8
TORSDOF 37
BEGIN_RES ARG D 557
REMARK  4 active torsions:
REMARK  status: ('A' for Active; 'I' for Inactive)
REMARK    1  A    between atoms: CA   and  CB  
REMARK    2  A    between atoms: CB   and  CG  
REMARK    3  A    between atoms: CG   and  CD  
REMARK    4  A    between atoms: CD   and  NE  
REMARK       I    between atoms: NE   and  CZ  
REMARK       I    between atoms: CZ   and  NH1 
REMARK       I    between atoms: CZ   and  NH2 
ROOT
ATOM      1  CA  ARG D 557     -26.217   2.705 -17.014  1.00 35.49     0.159 C 
ENDROOT
BRANCH   1   2
ATOM      2  CB  ARG D 557     -26.789   1.319 -17.183  1.00 35.49     0.034 C 
BRANCH   2   3
ATOM      3  CG  ARG D 557     -25.860   0.195 -17.011  1.00 35.49     0.027 C 
BRANCH   3   4
ATOM      4  CD  ARG D 557     -26.222  -0.664 -15.860  1.00 35.49     0.116 C 
BRANCH   4   5
ATOM      5  NE  ARG D 557     -25.111  -0.872 -14.969  1.00 35.49    -0.212 N 
ATOM      6  CZ  ARG D 557     -24.854  -1.979 -14.308  1.00 35.49     0.666 C 
ATOM      7  NH1 ARG D 557     -25.625  -3.047 -14.386  1.00 35.49    -0.235 N 
ATOM      8  NH2 ARG D 557     -23.789  -1.997 -13.560  1.00 35.49    -0.235 N 
ATOM      9  HH  ARG D 557     -26.330  -3.058 -14.874  1.00 35.49     0.174 HD
ATOM     10  HH  ARG D 557     -25.406  -3.741 -13.934  1.00 35.49     0.174 HD
ATOM     11  HH  ARG D 557     -23.306  -1.295 -13.534  1.00 35.49     0.174 HD
ATOM     12  HH  ARG D 557     -23.588  -2.694 -13.121  1.00 35.49     0.174 HD
ATOM     13  HE  ARG D 557     -24.603  -0.211 -14.803  1.00 35.49     0.178 HD
ENDBRANCH   4   5
ENDBRANCH   3   4
ENDBRANCH   2   3
ENDBRANCH   1   2
END_RES ARG D 557
BEGIN_RES GLU D 570
REMARK  3 active torsions:
REMARK  status: ('A' for Active; 'I' for Inactive)
REMARK    5  A    between atoms: CA   and  CB  
REMARK    6  A    between atoms: CB   and  CG  
REMARK    7  A    between atoms: CG   and  CD  
ROOT
ATOM     14  CA  GLU D 570     -18.033  -6.348 -13.375  1.00 32.92     0.160 C 
ENDROOT
BRANCH  14  15
ATOM     15  CB  GLU D 570     -19.500  -6.345 -13.794  1.00 32.92     0.043 C 
BRANCH  15  16
ATOM     16  CG  GLU D 570     -20.450  -5.571 -12.954  1.00 32.92     0.100 C 
BRANCH  16  17
ATOM     17  CD  GLU D 570     -21.684  -5.134 -13.710  1.00 32.92     0.185 C 
ATOM     18  OE1 GLU D 570     -21.633  -5.044 -14.951  1.00 32.92    -0.647 OA
ATOM     19  OE2 GLU D 570     -22.707  -4.864 -13.051  1.00 32.92    -0.647 OA
ENDBRANCH  16  17
ENDBRANCH  15  16
ENDBRANCH  14  15
END_RES GLU D 570
ENDMDL
MODEL 5
REMARK VINA RESULT:      -3.9      8.420     10.110
REMARK WARNING: 32 MAX_TORS EXCEEDED!!!
REMARK  37 active torsions:
REMARK  status: ('A' for Active; 'I' for Inactive)
REMARK    1  A    between atoms: C_2  and  C_4 
REMARK    2  A    between atoms: C_4  and  C_5 
REMARK    3  A    between atoms: C_5  and  C_6 
REMARK    4  A    between atoms: C_6  and  C_7 
REMARK    5  A    between atoms: C_7  and  C_8 
REMARK    6  A    between atoms: C_8  and  C_9 
REMARK    7  A    between atoms: C_9  and  C_10 
REMARK    8  A    between atoms: C_10  and  C_11 
REMARK    9  A    between atoms: C_11  and  C_12 
REMARK   10  A    between atoms: C_12  and  C_13 
REMARK   11  A    between atoms: C_13  and  C_14 
REMARK   12  A    between atoms: C_14  and  C_15 
REMARK   13  A    between atoms: C_15  and  C_16 
REMARK   14  A    between atoms: C_16  and  C_17 
REMARK   15  A    between atoms: C_17  and  C_18 
REMARK   16  A    between atoms: C_18  and  O_20 
REMARK   17  A    between atoms: C_23  and  C_25 
REMARK   18  A    between atoms: C_25  and  C_26 
REMARK   19  A    between atoms: C_26  and  C_27 
REMARK   20  A    between atoms: C_27  and  C_28 
REMARK   21  A    between atoms: C_28  and  C_29 
REMARK   22  A    between atoms: C_29  and  C_30 
REMARK   23  A    between atoms: C_30  and  C_31 
REMARK   24  A    between atoms: C_31  and  C_32 
REMARK   25  A    between atoms: C_32  and  C_33 
REMARK   26  A    between atoms: C_33  and  C_34 
REMARK   27  A    between atoms: C_34  and  C_35 
REMARK   28  A    between atoms: C_35  and  C_36 
REMARK   29  A    between atoms: C_36  and  C_37 
REMARK   30  A    between atoms: C_37  and  C_38 
REMARK   31  A    between atoms: C_38  and  C_39 
REMARK   32  A    between atoms: C_39  and  O_41 
REMARK   33  A    between atoms: C_43  and  C_44 
REMARK   34  A    between atoms: C_43  and  O_48 
REMARK   35  A    between atoms: C_44  and  C_45 
REMARK   36  A    between atoms: C_44  and  O_47 
REMARK   37  A    between atoms: C_45  and  O_46 
ROOT
HETATM    1  C   UNL     3     -22.469  -4.411  -9.953  1.00  0.00     0.165 C 
ENDROOT
BRANCH   1   2
HETATM    2  C   UNL     3     -22.720  -3.992  -8.516  1.00  0.00     0.198 C 
BRANCH   2   3
HETATM    3  O   UNL     3     -24.082  -3.935  -8.138  1.00  0.00    -0.398 OA
HETATM    4  H   UNL     3     -24.115  -3.508  -7.259  1.00  0.00     0.209 HD
ENDBRANCH   2   3
ENDBRANCH   1   2
BRANCH   1   5
HETATM    5  C   UNL     3     -23.747  -4.951 -10.560  1.00  0.00     0.198 C 
BRANCH   5   6
HETATM    6  O   UNL     3     -24.451  -3.883 -11.187  1.00  0.00    -0.398 OA
HETATM    7  H   UNL     3     -25.376  -3.992 -10.889  1.00  0.00     0.209 HD
ENDBRANCH   5   6
ENDBRANCH   1   5
BRANCH   1   8
HETATM    8  O   UNL     3     -22.010  -3.283 -10.720  1.00  0.00    -0.391 OA
HETATM    9  H   UNL     3     -21.359  -2.805 -10.175  1.00  0.00     0.210 HD
ENDBRANCH   1   8
TORSDOF 37
BEGIN_RES ARG D 557
REMARK  4 active torsions:
REMARK  status: ('A' for Active; 'I' for Inactive)
REMARK    1  A    between atoms: CA   and  CB  
REMARK    2  A    between atoms: CB   and  CG  
REMARK    3  A    between atoms: CG   and  CD  
REMARK    4  A    between atoms: CD   and  NE  
REMARK       I    between atoms: NE   and  CZ  
REMARK       I    between atoms: CZ   and  NH1 
REMARK       I    between atoms: CZ   and  NH2 
ROOT
ATOM      1  CA  ARG D 557     -26.217   2.705 -17.014  1.00 35.49     0.159 C 
ENDROOT
BRANCH   1   2
ATOM      2  CB  ARG D 557     -26.789   1.319 -17.183  1.00 35.49     0.034 C 
BRANCH   2   3
ATOM      3  CG  ARG D 557     -25.836   0.203 -17.158  1.00 35.49     0.027 C 
BRANCH   3   4
ATOM      4  CD  ARG D 557     -24.751   0.410 -16.171  1.00 35.49     0.116 C 
BRANCH   4   5
ATOM      5  NE  ARG D 557     -24.897  -0.438 -15.018  1.00 35.49    -0.212 N 
ATOM      6  CZ  ARG D 557     -24.082  -1.408 -14.669  1.00 35.49     0.666 C 
ATOM      7  NH1 ARG D 557     -23.012  -1.723 -15.375  1.00 35.49    -0.235 N 
ATOM      8  NH2 ARG D 557     -24.359  -2.062 -13.578  1.00 35.49    -0.235 N 
ATOM      9  HH  ARG D 557     -22.809  -1.305 -16.095  1.00 35.49     0.174 HD
ATOM     10  HH  ARG D 557     -22.515  -2.363 -15.097  1.00 35.49     0.174 HD
ATOM     11  HH  ARG D 557     -25.052  -1.831 -13.138  1.00 35.49     0.174 HD
ATOM     12  HH  ARG D 557     -23.853  -2.691 -13.319  1.00 35.49     0.174 HD
ATOM     13  HE  ARG D 557     -25.599  -0.352 -14.546  1.00 35.49     0.178 HD
ENDBRANCH   4   5
ENDBRANCH   3   4
ENDBRANCH   2   3
ENDBRANCH   1   2
END_RES ARG D 557
BEGIN_RES GLU D 570
REMARK  3 active torsions:
REMARK  status: ('A' for Active; 'I' for Inactive)
REMARK    5  A    between atoms: CA   and  CB  
REMARK    6  A    between atoms: CB   and  CG  
REMARK    7  A    between atoms: CG   and  CD  
ROOT
ATOM     14  CA  GLU D 570     -18.033  -6.348 -13.375  1.00 32.92     0.160 C 
ENDROOT
BRANCH  14  15
ATOM     15  CB  GLU D 570     -19.500  -6.345 -13.794  1.00 32.92     0.043 C 
BRANCH  15  16
ATOM     16  CG  GLU D 570     -20.444  -5.539 -12.977  1.00 32.92     0.100 C 
BRANCH  16  17
ATOM     17  CD  GLU D 570     -21.737  -5.237 -13.697  1.00 32.92     0.185 C 
ATOM     18  OE1 GLU D 570     -22.279  -4.128 -13.528  1.00 32.92    -0.647 OA
ATOM     19  OE2 GLU D 570     -22.223  -6.126 -14.424  1.00 32.92    -0.647 OA
ENDBRANCH  16  17
ENDBRANCH  15  16
ENDBRANCH  14  15
END_RES GLU D 570
ENDMDL
MODEL 6
REMARK VINA RESULT:      -3.9      8.250      9.641
REMARK WARNING: 32 MAX_TORS EXCEEDED!!!
REMARK  37 active torsions:
REMARK  status: ('A' for Active; 'I' for Inactive)
REMARK    1  A    between atoms: C_2  and  C_4 
REMARK    2  A    between atoms: C_4  and  C_5 
REMARK    3  A    between atoms: C_5  and  C_6 
REMARK    4  A    between atoms: C_6  and  C_7 
REMARK    5  A    between atoms: C_7  and  C_8 
REMARK    6  A    between atoms: C_8  and  C_9 
REMARK    7  A    between atoms: C_9  and  C_10 
REMARK    8  A    between atoms: C_10  and  C_11 
REMARK    9  A    between atoms: C_11  and  C_12 
REMARK   10  A    between atoms: C_12  and  C_13 
REMARK   11  A    between atoms: C_13  and  C_14 
REMARK   12  A    between atoms: C_14  and  C_15 
REMARK   13  A    between atoms: C_15  and  C_16 
REMARK   14  A    between atoms: C_16  and  C_17 
REMARK   15  A    between atoms: C_17  and  C_18 
REMARK   16  A    between atoms: C_18  and  O_20 
REMARK   17  A    between atoms: C_23  and  C_25 
REMARK   18  A    between atoms: C_25  and  C_26 
REMARK   19  A    between atoms: C_26  and  C_27 
REMARK   20  A    between atoms: C_27  and  C_28 
REMARK   21  A    between atoms: C_28  and  C_29 
REMARK   22  A    between atoms: C_29  and  C_30 
REMARK   23  A    between atoms: C_30  and  C_31 
REMARK   24  A    between atoms: C_31  and  C_32 
REMARK   25  A    between atoms: C_32  and  C_33 
REMARK   26  A    between atoms: C_33  and  C_34 
REMARK   27  A    between atoms: C_34  and  C_35 
REMARK   28  A    between atoms: C_35  and  C_36 
REMARK   29  A    between atoms: C_36  and  C_37 
REMARK   30  A    between atoms: C_37  and  C_38 
REMARK   31  A    between atoms: C_38  and  C_39 
REMARK   32  A    between atoms: C_39  and  O_41 
REMARK   33  A    between atoms: C_43  and  C_44 
REMARK   34  A    between atoms: C_43  and  O_48 
REMARK   35  A    between atoms: C_44  and  C_45 
REMARK   36  A    between atoms: C_44  and  O_47 
REMARK   37  A    between atoms: C_45  and  O_46 
ROOT
HETATM    1  C   UNL     3     -24.493  -2.573 -14.244  1.00  0.00     0.165 C 
ENDROOT
BRANCH   1   2
HETATM    2  C   UNL     3     -23.078  -2.048 -14.395  1.00  0.00     0.198 C 
BRANCH   2   3
HETATM    3  O   UNL     3     -22.367  -2.553 -15.509  1.00  0.00    -0.398 OA
HETATM    4  H   UNL     3     -21.483  -2.135 -15.495  1.00  0.00     0.209 HD
ENDBRANCH   2   3
ENDBRANCH   1   2
BRANCH   1   5
HETATM    5  C   UNL     3     -25.471  -1.601 -14.871  1.00  0.00     0.198 C 
BRANCH   5   6
HETATM    6  O   UNL     3     -24.929  -0.286 -14.797  1.00  0.00    -0.398 OA
HETATM    7  H   UNL     3     -25.072  -0.014 -13.869  1.00  0.00     0.209 HD
ENDBRANCH   5   6
ENDBRANCH   1   5
BRANCH   1   8
HETATM    8  O   UNL     3     -24.612  -3.856 -14.884  1.00  0.00    -0.391 OA
HETATM    9  H   UNL     3     -23.714  -4.143 -15.133  1.00  0.00     0.210 HD
ENDBRANCH   1   8
TORSDOF 37
BEGIN_RES ARG D 557
REMARK  4 active torsions:
REMARK  status: ('A' for Active; 'I' for Inactive)
REMARK    1  A    between atoms: CA   and  CB  
REMARK    2  A    between atoms: CB   and  CG  
REMARK    3  A    between atoms: CG   and  CD  
REMARK    4  A    between atoms: CD   and  NE  
REMARK       I    between atoms: NE   and  CZ  
REMARK       I    between atoms: CZ   and  NH1 
REMARK       I    between atoms: CZ   and  NH2 
ROOT
ATOM      1  CA  ARG D 557     -26.217   2.705 -17.014  1.00 35.49     0.159 C 
ENDROOT
BRANCH   1   2
ATOM      2  CB  ARG D 557     -26.789   1.319 -17.183  1.00 35.49     0.034 C 
BRANCH   2   3
ATOM      3  CG  ARG D 557     -28.156   1.104 -16.692  1.00 35.49     0.027 C 
BRANCH   3   4
ATOM      4  CD  ARG D 557     -28.805  -0.067 -17.325  1.00 35.49     0.116 C 
BRANCH   4   5
ATOM      5  NE  ARG D 557     -28.214  -1.309 -16.902  1.00 35.49    -0.212 N 
ATOM      6  CZ  ARG D 557     -28.734  -2.504 -17.072  1.00 35.49     0.666 C 
ATOM      7  NH1 ARG D 557     -29.902  -2.693 -17.658  1.00 35.49    -0.235 N 
ATOM      8  NH2 ARG D 557     -28.048  -3.524 -16.642  1.00 35.49    -0.235 N 
ATOM      9  HH  ARG D 557     -30.369  -2.036 -17.950  1.00 35.49     0.174 HD
ATOM     10  HH  ARG D 557     -30.189  -3.495 -17.743  1.00 35.49     0.174 HD
ATOM     11  HH  ARG D 557     -27.294  -3.372 -16.274  1.00 35.49     0.174 HD
ATOM     12  HH  ARG D 557     -28.350  -4.311 -16.737  1.00 35.49     0.174 HD
ATOM     13  HE  ARG D 557     -27.494  -1.276 -16.450  1.00 35.49     0.178 HD
ENDBRANCH   4   5
ENDBRANCH   3   4
ENDBRANCH   2   3
ENDBRANCH   1   2
END_RES ARG D 557
BEGIN_RES GLU D 570
REMARK  3 active torsions:
REMARK  status: ('A' for Active; 'I' for Inactive)
REMARK    5  A    between atoms: CA   and  CB  
REMARK    6  A    between atoms: CB   and  CG  
REMARK    7  A    between atoms: CG   and  CD  
ROOT
ATOM     14  CA  GLU D 570     -18.033  -6.348 -13.375  1.00 32.92     0.160 C 
ENDROOT
BRANCH  14  15
ATOM     15  CB  GLU D 570     -19.500  -6.345 -13.794  1.00 32.92     0.043 C 
BRANCH  15  16
ATOM     16  CG  GLU D 570     -20.446  -5.552 -12.967  1.00 32.92     0.100 C 
BRANCH  16  17
ATOM     17  CD  GLU D 570     -21.795  -5.372 -13.625  1.00 32.92     0.185 C 
ATOM     18  OE1 GLU D 570     -21.864  -5.354 -14.869  1.00 32.92    -0.647 OA
ATOM     19  OE2 GLU D 570     -22.790  -5.230 -12.888  1.00 32.92    -0.647 OA
ENDBRANCH  16  17
ENDBRANCH  15  16
ENDBRANCH  14  15
END_RES GLU D 570
ENDMDL
MODEL 7
REMARK VINA RESULT:      -3.9      0.950      2.125
REMARK WARNING: 32 MAX_TORS EXCEEDED!!!
REMARK  37 active torsions:
REMARK  status: ('A' for Active; 'I' for Inactive)
REMARK    1  A    between atoms: C_2  and  C_4 
REMARK    2  A    between atoms: C_4  and  C_5 
REMARK    3  A    between atoms: C_5  and  C_6 
REMARK    4  A    between atoms: C_6  and  C_7 
REMARK    5  A    between atoms: C_7  and  C_8 
REMARK    6  A    between atoms: C_8  and  C_9 
REMARK    7  A    between atoms: C_9  and  C_10 
REMARK    8  A    between atoms: C_10  and  C_11 
REMARK    9  A    between atoms: C_11  and  C_12 
REMARK   10  A    between atoms: C_12  and  C_13 
REMARK   11  A    between atoms: C_13  and  C_14 
REMARK   12  A    between atoms: C_14  and  C_15 
REMARK   13  A    between atoms: C_15  and  C_16 
REMARK   14  A    between atoms: C_16  and  C_17 
REMARK   15  A    between atoms: C_17  and  C_18 
REMARK   16  A    between atoms: C_18  and  O_20 
REMARK   17  A    between atoms: C_23  and  C_25 
REMARK   18  A    between atoms: C_25  and  C_26 
REMARK   19  A    between atoms: C_26  and  C_27 
REMARK   20  A    between atoms: C_27  and  C_28 
REMARK   21  A    between atoms: C_28  and  C_29 
REMARK   22  A    between atoms: C_29  and  C_30 
REMARK   23  A    between atoms: C_30  and  C_31 
REMARK   24  A    between atoms: C_31  and  C_32 
REMARK   25  A    between atoms: C_32  and  C_33 
REMARK   26  A    between atoms: C_33  and  C_34 
REMARK   27  A    between atoms: C_34  and  C_35 
REMARK   28  A    between atoms: C_35  and  C_36 
REMARK   29  A    between atoms: C_36  and  C_37 
REMARK   30  A    between atoms: C_37  and  C_38 
REMARK   31  A    between atoms: C_38  and  C_39 
REMARK   32  A    between atoms: C_39  and  O_41 
REMARK   33  A    between atoms: C_43  and  C_44 
REMARK   34  A    between atoms: C_43  and  O_48 
REMARK   35  A    between atoms: C_44  and  C_45 
REMARK   36  A    between atoms: C_44  and  O_47 
REMARK   37  A    between atoms: C_45  and  O_46 
ROOT
HETATM    1  C   UNL     3     -29.929 -14.745 -19.435  1.00  0.00     0.165 C 
ENDROOT
BRANCH   1   2
HETATM    2  C   UNL     3     -29.729 -14.681 -20.938  1.00  0.00     0.198 C 
BRANCH   2   3
HETATM    3  O   UNL     3     -28.879 -13.643 -21.385  1.00  0.00    -0.398 OA
HETATM    4  H   UNL     3     -27.973 -14.011 -21.418  1.00  0.00     0.209 HD
ENDBRANCH   2   3
ENDBRANCH   1   2
BRANCH   1   5
HETATM    5  C   UNL     3     -28.817 -13.990 -18.737  1.00  0.00     0.198 C 
BRANCH   5   6
HETATM    6  O   UNL     3     -28.256 -14.821 -17.725  1.00  0.00    -0.398 OA
HETATM    7  H   UNL     3     -27.348 -14.477 -17.602  1.00  0.00     0.209 HD
ENDBRANCH   5   6
ENDBRANCH   1   5
BRANCH   1   8
HETATM    8  O   UNL     3     -31.199 -14.167 -19.082  1.00  0.00    -0.391 OA
HETATM    9  H   UNL     3     -31.365 -14.378 -18.145  1.00  0.00     0.210 HD
ENDBRANCH   1   8
TORSDOF 37
BEGIN_RES ARG D 557
REMARK  4 active torsions:
REMARK  status: ('A' for Active; 'I' for Inactive)
REMARK    1  A    between atoms: CA   and  CB  
REMARK    2  A    between atoms: CB   and  CG  
REMARK    3  A    between atoms: CG   and  CD  
REMARK    4  A    between atoms: CD   and  NE  
REMARK       I    between atoms: NE   and  CZ  
REMARK       I    between atoms: CZ   and  NH1 
REMARK       I    between atoms: CZ   and  NH2 
ROOT
ATOM      1  CA  ARG D 557     -26.217   2.705 -17.014  1.00 35.49     0.159 C 
ENDROOT
BRANCH   1   2
ATOM      2  CB  ARG D 557     -26.789   1.319 -17.183  1.00 35.49     0.034 C 
BRANCH   2   3
ATOM      3  CG  ARG D 557     -25.834   0.204 -17.167  1.00 35.49     0.027 C 
BRANCH   3   4
ATOM      4  CD  ARG D 557     -24.747   0.406 -16.182  1.00 35.49     0.116 C 
BRANCH   4   5
ATOM      5  NE  ARG D 557     -24.898  -0.439 -15.027  1.00 35.49    -0.212 N 
ATOM      6  CZ  ARG D 557     -24.084  -1.408 -14.672  1.00 35.49     0.666 C 
ATOM      7  NH1 ARG D 557     -23.012  -1.726 -15.374  1.00 35.49    -0.235 N 
ATOM      8  NH2 ARG D 557     -24.365  -2.059 -13.581  1.00 35.49    -0.235 N 
ATOM      9  HH  ARG D 557     -22.807  -1.309 -16.094  1.00 35.49     0.174 HD
ATOM     10  HH  ARG D 557     -22.516  -2.365 -15.092  1.00 35.49     0.174 HD
ATOM     11  HH  ARG D 557     -25.060  -1.827 -13.144  1.00 35.49     0.174 HD
ATOM     12  HH  ARG D 557     -23.861  -2.688 -13.318  1.00 35.49     0.174 HD
ATOM     13  HE  ARG D 557     -25.602  -0.352 -14.558  1.00 35.49     0.178 HD
ENDBRANCH   4   5
ENDBRANCH   3   4
ENDBRANCH   2   3
ENDBRANCH   1   2
END_RES ARG D 557
BEGIN_RES GLU D 570
REMARK  3 active torsions:
REMARK  status: ('A' for Active; 'I' for Inactive)
REMARK    5  A    between atoms: CA   and  CB  
REMARK    6  A    between atoms: CB   and  CG  
REMARK    7  A    between atoms: CG   and  CD  
ROOT
ATOM     14  CA  GLU D 570     -18.033  -6.348 -13.375  1.00 32.92     0.160 C 
ENDROOT
BRANCH  14  15
ATOM     15  CB  GLU D 570     -19.500  -6.345 -13.794  1.00 32.92     0.043 C 
BRANCH  15  16
ATOM     16  CG  GLU D 570     -20.442  -5.532 -12.983  1.00 32.92     0.100 C 
BRANCH  16  17
ATOM     17  CD  GLU D 570     -21.744  -5.251 -13.696  1.00 32.92     0.185 C 
ATOM     18  OE1 GLU D 570     -22.230  -6.129 -14.436  1.00 32.92    -0.647 OA
ATOM     19  OE2 GLU D 570     -22.276  -4.136 -13.526  1.00 32.92    -0.647 OA
ENDBRANCH  16  17
ENDBRANCH  15  16
ENDBRANCH  14  15
END_RES GLU D 570
ENDMDL
MODEL 8
REMARK VINA RESULT:      -3.8      5.927      6.662
REMARK WARNING: 32 MAX_TORS EXCEEDED!!!
REMARK  37 active torsions:
REMARK  status: ('A' for Active; 'I' for Inactive)
REMARK    1  A    between atoms: C_2  and  C_4 
REMARK    2  A    between atoms: C_4  and  C_5 
REMARK    3  A    between atoms: C_5  and  C_6 
REMARK    4  A    between atoms: C_6  and  C_7 
REMARK    5  A    between atoms: C_7  and  C_8 
REMARK    6  A    between atoms: C_8  and  C_9 
REMARK    7  A    between atoms: C_9  and  C_10 
REMARK    8  A    between atoms: C_10  and  C_11 
REMARK    9  A    between atoms: C_11  and  C_12 
REMARK   10  A    between atoms: C_12  and  C_13 
REMARK   11  A    between atoms: C_13  and  C_14 
REMARK   12  A    between atoms: C_14  and  C_15 
REMARK   13  A    between atoms: C_15  and  C_16 
REMARK   14  A    between atoms: C_16  and  C_17 
REMARK   15  A    between atoms: C_17  and  C_18 
REMARK   16  A    between atoms: C_18  and  O_20 
REMARK   17  A    between atoms: C_23  and  C_25 
REMARK   18  A    between atoms: C_25  and  C_26 
REMARK   19  A    between atoms: C_26  and  C_27 
REMARK   20  A    between atoms: C_27  and  C_28 
REMARK   21  A    between atoms: C_28  and  C_29 
REMARK   22  A    between atoms: C_29  and  C_30 
REMARK   23  A    between atoms: C_30  and  C_31 
REMARK   24  A    between atoms: C_31  and  C_32 
REMARK   25  A    between atoms: C_32  and  C_33 
REMARK   26  A    between atoms: C_33  and  C_34 
REMARK   27  A    between atoms: C_34  and  C_35 
REMARK   28  A    between atoms: C_35  and  C_36 
REMARK   29  A    between atoms: C_36  and  C_37 
REMARK   30  A    between atoms: C_37  and  C_38 
REMARK   31  A    between atoms: C_38  and  C_39 
REMARK   32  A    between atoms: C_39  and  O_41 
REMARK   33  A    between atoms: C_43  and  C_44 
REMARK   34  A    between atoms: C_43  and  O_48 
REMARK   35  A    between atoms: C_44  and  C_45 
REMARK   36  A    between atoms: C_44  and  O_47 
REMARK   37  A    between atoms: C_45  and  O_46 
ROOT
HETATM    1  C   UNL     3     -25.013  -6.399 -15.446  1.00  0.00     0.165 C 
ENDROOT
BRANCH   1   2
HETATM    2  C   UNL     3     -26.183  -6.491 -16.407  1.00  0.00     0.198 C 
BRANCH   2   3
HETATM    3  O   UNL     3     -25.836  -6.467 -17.778  1.00  0.00    -0.398 OA
HETATM    4  H   UNL     3     -26.621  -6.143 -18.264  1.00  0.00     0.209 HD
ENDBRANCH   2   3
ENDBRANCH   1   2
BRANCH   1   5
HETATM    5  C   UNL     3     -23.853  -7.221 -15.969  1.00  0.00     0.198 C 
BRANCH   5   6
HETATM    6  O   UNL     3     -23.032  -6.395 -16.790  1.00  0.00    -0.398 OA
HETATM    7  H   UNL     3     -23.125  -5.500 -16.406  1.00  0.00     0.209 HD
ENDBRANCH   5   6
ENDBRANCH   1   5
BRANCH   1   8
HETATM    8  O   UNL     3     -24.603  -5.026 -15.301  1.00  0.00    -0.391 OA
HETATM    9  H   UNL     3     -25.400  -4.472 -15.398  1.00  0.00     0.210 HD
ENDBRANCH   1   8
TORSDOF 37
BEGIN_RES ARG D 557
REMARK  4 active torsions:
REMARK  status: ('A' for Active; 'I' for Inactive)
REMARK    1  A    between atoms: CA   and  CB  
REMARK    2  A    between atoms: CB   and  CG  
REMARK    3  A    between atoms: CG   and  CD  
REMARK    4  A    between atoms: CD   and  NE  
REMARK       I    between atoms: NE   and  CZ  
REMARK       I    between atoms: CZ   and  NH1 
REMARK       I    between atoms: CZ   and  NH2 
ROOT
ATOM      1  CA  ARG D 557     -26.217   2.705 -17.014  1.00 35.49     0.159 C 
ENDROOT
BRANCH   1   2
ATOM      2  CB  ARG D 557     -26.789   1.319 -17.183  1.00 35.49     0.034 C 
BRANCH   2   3
ATOM      3  CG  ARG D 557     -25.839   0.201 -17.132  1.00 35.49     0.027 C 
BRANCH   3   4
ATOM      4  CD  ARG D 557     -24.797   0.393 -16.097  1.00 35.49     0.116 C 
BRANCH   4   5
ATOM      5  NE  ARG D 557     -24.935  -0.539 -15.010  1.00 35.49    -0.212 N 
ATOM      6  CZ  ARG D 557     -24.091  -1.502 -14.711  1.00 35.49     0.666 C 
ATOM      7  NH1 ARG D 557     -22.997  -1.729 -15.414  1.00 35.49    -0.235 N 
ATOM      8  NH2 ARG D 557     -24.365  -2.241 -13.675  1.00 35.49    -0.235 N 
ATOM      9  HH  ARG D 557     -22.796  -1.253 -16.098  1.00 35.49     0.174 HD
ATOM     10  HH  ARG D 557     -22.482  -2.369 -15.171  1.00 35.49     0.174 HD
ATOM     11  HH  ARG D 557     -25.075  -2.066 -13.236  1.00 35.49     0.174 HD
ATOM     12  HH  ARG D 557     -23.842  -2.869 -13.450  1.00 35.49     0.174 HD
ATOM     13  HE  ARG D 557     -25.649  -0.512 -14.548  1.00 35.49     0.178 HD
ENDBRANCH   4   5
ENDBRANCH   3   4
ENDBRANCH   2   3
ENDBRANCH   1   2
END_RES ARG D 557
BEGIN_RES GLU D 570
REMARK  3 active torsions:
REMARK  status: ('A' for Active; 'I' for Inactive)
REMARK    5  A    between atoms: CA   and  CB  
REMARK    6  A    between atoms: CB   and  CG  
REMARK    7  A    between atoms: CG   and  CD  
ROOT
ATOM     14  CA  GLU D 570     -18.033  -6.348 -13.375  1.00 32.92     0.160 C 
ENDROOT
BRANCH  14  15
ATOM     15  CB  GLU D 570     -19.500  -6.345 -13.794  1.00 32.92     0.043 C 
BRANCH  15  16
ATOM     16  CG  GLU D 570     -20.454  -5.589 -12.942  1.00 32.92     0.100 C 
BRANCH  16  17
ATOM     17  CD  GLU D 570     -21.652  -5.079 -13.708  1.00 32.92     0.185 C 
ATOM     18  OE1 GLU D 570     -21.519  -4.779 -14.910  1.00 32.92    -0.647 OA
ATOM     19  OE2 GLU D 570     -22.732  -4.963 -13.095  1.00 32.92    -0.647 OA
ENDBRANCH  16  17
ENDBRANCH  15  16
ENDBRANCH  14  15
END_RES GLU D 570
ENDMDL
MODEL 9
REMARK VINA RESULT:      -3.6      6.415      6.976
REMARK WARNING: 32 MAX_TORS EXCEEDED!!!
REMARK  37 active torsions:
REMARK  status: ('A' for Active; 'I' for Inactive)
REMARK    1  A    between atoms: C_2  and  C_4 
REMARK    2  A    between atoms: C_4  and  C_5 
REMARK    3  A    between atoms: C_5  and  C_6 
REMARK    4  A    between atoms: C_6  and  C_7 
REMARK    5  A    between atoms: C_7  and  C_8 
REMARK    6  A    between atoms: C_8  and  C_9 
REMARK    7  A    between atoms: C_9  and  C_10 
REMARK    8  A    between atoms: C_10  and  C_11 
REMARK    9  A    between atoms: C_11  and  C_12 
REMARK   10  A    between atoms: C_12  and  C_13 
REMARK   11  A    between atoms: C_13  and  C_14 
REMARK   12  A    between atoms: C_14  and  C_15 
REMARK   13  A    between atoms: C_15  and  C_16 
REMARK   14  A    between atoms: C_16  and  C_17 
REMARK   15  A    between atoms: C_17  and  C_18 
REMARK   16  A    between atoms: C_18  and  O_20 
REMARK   17  A    between atoms: C_23  and  C_25 
REMARK   18  A    between atoms: C_25  and  C_26 
REMARK   19  A    between atoms: C_26  and  C_27 
REMARK   20  A    between atoms: C_27  and  C_28 
REMARK   21  A    between atoms: C_28  and  C_29 
REMARK   22  A    between atoms: C_29  and  C_30 
REMARK   23  A    between atoms: C_30  and  C_31 
REMARK   24  A    between atoms: C_31  and  C_32 
REMARK   25  A    between atoms: C_32  and  C_33 
REMARK   26  A    between atoms: C_33  and  C_34 
REMARK   27  A    between atoms: C_34  and  C_35 
REMARK   28  A    between atoms: C_35  and  C_36 
REMARK   29  A    between atoms: C_36  and  C_37 
REMARK   30  A    between atoms: C_37  and  C_38 
REMARK   31  A    between atoms: C_38  and  C_39 
REMARK   32  A    between atoms: C_39  and  O_41 
REMARK   33  A    between atoms: C_43  and  C_44 
REMARK   34  A    between atoms: C_43  and  O_48 
REMARK   35  A    between atoms: C_44  and  C_45 
REMARK   36  A    between atoms: C_44  and  O_47 
REMARK   37  A    between atoms: C_45  and  O_46 
ROOT
HETATM    1  C   UNL     3     -25.027  -6.611 -15.493  1.00  0.00     0.165 C 
ENDROOT
BRANCH   1   2
HETATM    2  C   UNL     3     -26.458  -6.482 -15.981  1.00  0.00     0.198 C 
BRANCH   2   3
HETATM    3  O   UNL     3     -26.641  -5.608 -17.077  1.00  0.00    -0.398 OA
HETATM    4  H   UNL     3     -27.034  -6.137 -17.800  1.00  0.00     0.209 HD
ENDBRANCH   2   3
ENDBRANCH   1   2
BRANCH   1   5
HETATM    5  C   UNL     3     -24.168  -7.224 -16.580  1.00  0.00     0.198 C 
BRANCH   5   6
HETATM    6  O   UNL     3     -24.087  -8.630 -16.368  1.00  0.00    -0.398 OA
HETATM    7  H   UNL     3     -24.192  -9.018 -17.260  1.00  0.00     0.209 HD
ENDBRANCH   5   6
ENDBRANCH   1   5
BRANCH   1   8
HETATM    8  O   UNL     3     -24.509  -5.314 -15.143  1.00  0.00    -0.391 OA
HETATM    9  H   UNL     3     -23.619  -5.240 -15.535  1.00  0.00     0.210 HD
ENDBRANCH   1   8
TORSDOF 37
BEGIN_RES ARG D 557
REMARK  4 active torsions:
REMARK  status: ('A' for Active; 'I' for Inactive)
REMARK    1  A    between atoms: CA   and  CB  
REMARK    2  A    between atoms: CB   and  CG  
REMARK    3  A    between atoms: CG   and  CD  
REMARK    4  A    between atoms: CD   and  NE  
REMARK       I    between atoms: NE   and  CZ  
REMARK       I    between atoms: CZ   and  NH1 
REMARK       I    between atoms: CZ   and  NH2 
ROOT
ATOM      1  CA  ARG D 557     -26.217   2.705 -17.014  1.00 35.49     0.159 C 
ENDROOT
BRANCH   1   2
ATOM      2  CB  ARG D 557     -26.789   1.319 -17.183  1.00 35.49     0.034 C 
BRANCH   2   3
ATOM      3  CG  ARG D 557     -28.222   1.158 -16.908  1.00 35.49     0.027 C 
BRANCH   3   4
ATOM      4  CD  ARG D 557     -28.607  -0.262 -16.737  1.00 35.49     0.116 C 
BRANCH   4   5
ATOM      5  NE  ARG D 557     -27.600  -1.017 -16.040  1.00 35.49    -0.212 N 
ATOM      6  CZ  ARG D 557     -27.432  -2.319 -16.106  1.00 35.49     0.666 C 
ATOM      7  NH1 ARG D 557     -28.209  -3.098 -16.836  1.00 35.49    -0.235 N 
ATOM      8  NH2 ARG D 557     -26.452  -2.834 -15.422  1.00 35.49    -0.235 N 
ATOM      9  HH  ARG D 557     -28.859  -2.780 -17.296  1.00 35.49     0.174 HD
ATOM     10  HH  ARG D 557     -28.051  -3.940 -16.843  1.00 35.49     0.174 HD
ATOM     11  HH  ARG D 557     -25.962  -2.306 -14.966  1.00 35.49     0.174 HD
ATOM     12  HH  ARG D 557     -26.310  -3.670 -15.443  1.00 35.49     0.174 HD
ATOM     13  HE  ARG D 557     -27.100  -0.604 -15.489  1.00 35.49     0.178 HD
ENDBRANCH   4   5
ENDBRANCH   3   4
ENDBRANCH   2   3
ENDBRANCH   1   2
END_RES ARG D 557
BEGIN_RES GLU D 570
REMARK  3 active torsions:
REMARK  status: ('A' for Active; 'I' for Inactive)
REMARK    5  A    between atoms: CA   and  CB  
REMARK    6  A    between atoms: CB   and  CG  
REMARK    7  A    between atoms: CG   and  CD  
ROOT
ATOM     14  CA  GLU D 570     -18.033  -6.348 -13.375  1.00 32.92     0.160 C 
ENDROOT
BRANCH  14  15
ATOM     15  CB  GLU D 570     -19.500  -6.345 -13.794  1.00 32.92     0.043 C 
BRANCH  15  16
ATOM     16  CG  GLU D 570     -19.803  -6.596 -15.227  1.00 32.92     0.100 C 
BRANCH  16  17
ATOM     17  CD  GLU D 570     -20.840  -5.649 -15.784  1.00 32.92     0.185 C 
ATOM     18  OE1 GLU D 570     -21.593  -5.044 -14.997  1.00 32.92    -0.647 OA
ATOM     19  OE2 GLU D 570     -20.912  -5.524 -17.023  1.00 32.92    -0.647 OA
ENDBRANCH  16  17
ENDBRANCH  15  16
ENDBRANCH  14  15
END_RES GLU D 570
ENDMDL
