MODEL 1
REMARK VINA RESULT:      -5.2      0.000      0.000
REMARK  18 active torsions:
REMARK  status: ('A' for Active; 'I' for Inactive)
REMARK       I    between atoms: C_2  and  N_4 
REMARK    1  A    between atoms: N_4  and  C_5 
REMARK    2  A    between atoms: C_6  and  O_37 
REMARK    3  A    between atoms: C_7  and  O_25 
REMARK    4  A    between atoms: C_8  and  C_23 
REMARK    5  A    between atoms: C_10  and  O_11 
REMARK    6  A    between atoms: O_11  and  C_12 
REMARK    7  A    between atoms: C_13  and  C_21 
REMARK    8  A    between atoms: C_15  and  O_20 
REMARK    9  A    between atoms: C_16  and  N_19 
REMARK   10  A    between atoms: C_17  and  O_18 
REMARK   11  A    between atoms: C_21  and  O_22 
REMARK   12  A    between atoms: C_23  and  O_24 
REMARK   13  A    between atoms: O_25  and  C_26 
REMARK   14  A    between atoms: C_27  and  N_36 
REMARK   15  A    between atoms: C_28  and  O_35 
REMARK   16  A    between atoms: C_29  and  O_34 
REMARK   17  A    between atoms: C_30  and  C_32 
REMARK   18  A    between atoms: C_32  and  O_33 
ROOT
HETATM    1  C   UNL     1     -18.725 -12.414  -2.900  1.00  0.00     0.170 C 
HETATM    2  C   UNL     1     -18.437 -11.330  -1.834  1.00  0.00     0.177 C 
HETATM    3  C   UNL     1     -18.876 -11.870  -0.469  1.00  0.00     0.186 C 
HETATM    4  C   UNL     1     -18.074 -13.213  -0.262  1.00  0.00     0.180 C 
HETATM    5  O   UNL     1     -17.866 -14.115  -1.396  1.00  0.00    -0.349 OA
HETATM    6  C   UNL     1     -17.708 -13.590  -2.732  1.00  0.00     0.286 C 
ENDROOT
BRANCH   3   7
HETATM    7  O   UNL     1     -20.342 -11.810  -0.495  1.00  0.00    -0.348 OA
BRANCH   7   8
HETATM    8  C   UNL     1     -21.065 -11.019   0.476  1.00  0.00     0.296 C 
HETATM    9  C   UNL     1     -22.650 -11.227   0.477  1.00  0.00     0.303 C 
HETATM   10  C   UNL     1     -23.451 -10.228  -0.400  1.00  0.00     0.187 C 
HETATM   11  C   UNL     1     -22.953  -8.788  -0.257  1.00  0.00     0.180 C 
HETATM   12  C   UNL     1     -21.421  -8.659  -0.224  1.00  0.00     0.179 C 
HETATM   13  O   UNL     1     -20.697  -9.646   0.522  1.00  0.00    -0.349 OA
BRANCH   9  14
HETATM   14  N   UNL     1     -23.113 -12.614   0.213  1.00  0.00     0.090 N 
HETATM   15  H   UNL     1     -22.380 -13.077  -0.326  1.00  0.00     0.313 HD
HETATM   16  H   UNL     1     -23.887 -12.568  -0.461  1.00  0.00     0.313 HD
ENDBRANCH   9  14
BRANCH  10  17
HETATM   17  O   UNL     1     -23.476 -10.687  -1.756  1.00  0.00    -0.391 OA
HETATM   18  H   UNL     1     -23.908 -10.005  -2.305  1.00  0.00     0.210 HD
ENDBRANCH  10  17
BRANCH  11  19
HETATM   19  O   UNL     1     -23.525  -8.181   0.915  1.00  0.00    -0.390 OA
HETATM   20  H   UNL     1     -23.318  -7.232   0.935  1.00  0.00     0.210 HD
ENDBRANCH  11  19
BRANCH  12  21
HETATM   21  C   UNL     1     -20.831  -8.429  -1.623  1.00  0.00     0.198 C 
BRANCH  21  22
HETATM   22  O   UNL     1     -21.109  -9.483  -2.533  1.00  0.00    -0.398 OA
HETATM   23  H   UNL     1     -21.559 -10.194  -2.043  1.00  0.00     0.209 HD
ENDBRANCH  21  22
ENDBRANCH  12  21
ENDBRANCH   7   8
ENDBRANCH   3   7
BRANCH   2  24
HETATM   24  O   UNL     1     -17.076 -10.899  -1.826  1.00  0.00    -0.391 OA
HETATM   25  H   UNL     1     -16.989 -10.188  -1.160  1.00  0.00     0.210 HD
ENDBRANCH   2  24
BRANCH   4  26
HETATM   26  C   UNL     1     -16.654 -12.896   0.284  1.00  0.00     0.198 C 
BRANCH  26  27
HETATM   27  O   UNL     1     -16.635 -11.722   1.098  1.00  0.00    -0.398 OA
HETATM   28  H   UNL     1     -17.493 -11.273   1.000  1.00  0.00     0.209 HD
ENDBRANCH  26  27
ENDBRANCH   4  26
BRANCH   1  29
HETATM   29  N   UNL     1     -18.806 -11.824  -4.230  1.00  0.00    -0.349 N 
HETATM   30  C   UNL     1     -19.925 -11.759  -5.030  1.00  0.00     0.214 C 
HETATM   31  C   UNL     1     -21.237 -12.333  -4.556  1.00  0.00     0.117 C 
HETATM   32  O   UNL     1     -19.829 -11.196  -6.111  1.00  0.00    -0.274 OA
HETATM   33  H   UNL     1     -17.978 -11.398  -4.642  1.00  0.00     0.163 HD
ENDBRANCH   1  29
BRANCH   6  34
HETATM   34  O   UNL     1     -16.364 -13.193  -3.161  1.00  0.00    -0.348 OA
BRANCH  34  35
HETATM   35  C   UNL     1     -16.073 -13.094  -4.598  1.00  0.00     0.186 C 
HETATM   36  C   UNL     1     -15.311 -11.820  -5.072  1.00  0.00     0.179 C 
HETATM   37  O   UNL     1     -13.882 -11.855  -4.900  1.00  0.00    -0.349 OA
HETATM   38  C   UNL     1     -13.175 -12.949  -5.464  1.00  0.00     0.292 C 
HETATM   39  C   UNL     1     -13.750 -14.315  -5.013  1.00  0.00     0.303 C 
HETATM   40  C   UNL     1     -15.307 -14.382  -5.070  1.00  0.00     0.187 C 
BRANCH  36  41
HETATM   41  C   UNL     1     -15.727 -11.404  -6.503  1.00  0.00     0.198 C 
BRANCH  41  42
HETATM   42  O   UNL     1     -16.986 -11.988  -6.844  1.00  0.00    -0.398 OA
HETATM   43  H   UNL     1     -17.181 -11.681  -7.749  1.00  0.00     0.209 HD
ENDBRANCH  41  42
ENDBRANCH  36  41
BRANCH  38  44
HETATM   44  O   UNL     1     -13.031 -12.794  -6.870  1.00  0.00    -0.369 OA
HETATM   45  H   UNL     1     -13.804 -12.276  -7.163  1.00  0.00     0.212 HD
ENDBRANCH  38  44
BRANCH  39  46
HETATM   46  N   UNL     1     -13.077 -15.453  -5.705  1.00  0.00     0.090 N 
HETATM   47  H   UNL     1     -13.582 -15.606  -6.586  1.00  0.00     0.313 HD
HETATM   48  H   UNL     1     -13.218 -16.313  -5.176  1.00  0.00     0.313 HD
ENDBRANCH  39  46
BRANCH  40  49
HETATM   49  O   UNL     1     -15.710 -14.729  -6.407  1.00  0.00    -0.391 OA
HETATM   50  H   UNL     1     -15.195 -15.512  -6.673  1.00  0.00     0.210 HD
ENDBRANCH  40  49
ENDBRANCH  34  35
ENDBRANCH   6  34
TORSDOF 18
BEGIN_RES ARG D 557
REMARK  4 active torsions:
REMARK  status: ('A' for Active; 'I' for Inactive)
REMARK    1  A    between atoms: CA   and  CB  
REMARK    2  A    between atoms: CB   and  CG  
REMARK    3  A    between atoms: CG   and  CD  
REMARK    4  A    between atoms: CD   and  NE  
REMARK       I    between atoms: NE   and  CZ  
REMARK       I    between atoms: CZ   and  NH1 
REMARK       I    between atoms: CZ   and  NH2 
ROOT
ATOM      1  CA  ARG D 557     -26.217   2.705 -17.014  1.00 35.49     0.159 C 
ENDROOT
BRANCH   1   2
ATOM      2  CB  ARG D 557     -26.789   1.319 -17.183  1.00 35.49     0.034 C 
BRANCH   2   3
ATOM      3  CG  ARG D 557     -25.836   0.203 -17.156  1.00 35.49     0.027 C 
BRANCH   3   4
ATOM      4  CD  ARG D 557     -24.753   0.410 -16.167  1.00 35.49     0.116 C 
BRANCH   4   5
ATOM      5  NE  ARG D 557     -24.902  -0.440 -15.015  1.00 35.49    -0.212 N 
ATOM      6  CZ  ARG D 557     -24.088  -1.412 -14.667  1.00 35.49     0.666 C 
ATOM      7  NH1 ARG D 557     -23.020  -1.730 -15.375  1.00 35.49    -0.235 N 
ATOM      8  NH2 ARG D 557     -24.366  -2.067 -13.577  1.00 35.49    -0.235 N 
ATOM      9  HH  ARG D 557     -22.816  -1.311 -16.094  1.00 35.49     0.174 HD
ATOM     10  HH  ARG D 557     -22.524  -2.371 -15.098  1.00 35.49     0.174 HD
ATOM     11  HH  ARG D 557     -25.059  -1.835 -13.137  1.00 35.49     0.174 HD
ATOM     12  HH  ARG D 557     -23.863  -2.698 -13.319  1.00 35.49     0.174 HD
ATOM     13  HE  ARG D 557     -25.603  -0.353 -14.542  1.00 35.49     0.178 HD
ENDBRANCH   4   5
ENDBRANCH   3   4
ENDBRANCH   2   3
ENDBRANCH   1   2
END_RES ARG D 557
BEGIN_RES GLU D 570
REMARK  3 active torsions:
REMARK  status: ('A' for Active; 'I' for Inactive)
REMARK    5  A    between atoms: CA   and  CB  
REMARK    6  A    between atoms: CB   and  CG  
REMARK    7  A    between atoms: CG   and  CD  
ROOT
ATOM     14  CA  GLU D 570     -18.033  -6.348 -13.375  1.00 32.92     0.160 C 
ENDROOT
BRANCH  14  15
ATOM     15  CB  GLU D 570     -19.500  -6.345 -13.794  1.00 32.92     0.043 C 
BRANCH  15  16
ATOM     16  CG  GLU D 570     -20.442  -5.531 -12.983  1.00 32.92     0.100 C 
BRANCH  16  17
ATOM     17  CD  GLU D 570     -21.741  -5.245 -13.699  1.00 32.92     0.185 C 
ATOM     18  OE1 GLU D 570     -22.211  -6.106 -14.468  1.00 32.92    -0.647 OA
ATOM     19  OE2 GLU D 570     -22.286  -4.141 -13.503  1.00 32.92    -0.647 OA
ENDBRANCH  16  17
ENDBRANCH  15  16
ENDBRANCH  14  15
END_RES GLU D 570
ENDMDL
MODEL 2
REMARK VINA RESULT:      -5.1      1.496      7.082
REMARK  18 active torsions:
REMARK  status: ('A' for Active; 'I' for Inactive)
REMARK       I    between atoms: C_2  and  N_4 
REMARK    1  A    between atoms: N_4  and  C_5 
REMARK    2  A    between atoms: C_6  and  O_37 
REMARK    3  A    between atoms: C_7  and  O_25 
REMARK    4  A    between atoms: C_8  and  C_23 
REMARK    5  A    between atoms: C_10  and  O_11 
REMARK    6  A    between atoms: O_11  and  C_12 
REMARK    7  A    between atoms: C_13  and  C_21 
REMARK    8  A    between atoms: C_15  and  O_20 
REMARK    9  A    between atoms: C_16  and  N_19 
REMARK   10  A    between atoms: C_17  and  O_18 
REMARK   11  A    between atoms: C_21  and  O_22 
REMARK   12  A    between atoms: C_23  and  O_24 
REMARK   13  A    between atoms: O_25  and  C_26 
REMARK   14  A    between atoms: C_27  and  N_36 
REMARK   15  A    between atoms: C_28  and  O_35 
REMARK   16  A    between atoms: C_29  and  O_34 
REMARK   17  A    between atoms: C_30  and  C_32 
REMARK   18  A    between atoms: C_32  and  O_33 
ROOT
HETATM    1  C   UNL     1     -18.911 -12.297  -2.946  1.00  0.00     0.170 C 
HETATM    2  C   UNL     1     -18.376 -13.532  -2.182  1.00  0.00     0.177 C 
HETATM    3  C   UNL     1     -16.859 -13.380  -2.028  1.00  0.00     0.186 C 
HETATM    4  C   UNL     1     -16.639 -12.008  -1.279  1.00  0.00     0.180 C 
HETATM    5  O   UNL     1     -17.480 -10.857  -1.615  1.00  0.00    -0.349 OA
HETATM    6  C   UNL     1     -18.855 -11.044  -2.011  1.00  0.00     0.286 C 
ENDROOT
BRANCH   3   7
HETATM    7  O   UNL     1     -16.315 -13.658  -3.362  1.00  0.00    -0.348 OA
BRANCH   7   8
HETATM    8  C   UNL     1     -15.026 -13.135  -3.758  1.00  0.00     0.296 C 
HETATM    9  C   UNL     1     -15.077 -11.910  -4.783  1.00  0.00     0.303 C 
HETATM   10  C   UNL     1     -14.979 -12.296  -6.283  1.00  0.00     0.187 C 
HETATM   11  C   UNL     1     -13.915 -13.362  -6.549  1.00  0.00     0.180 C 
HETATM   12  C   UNL     1     -13.892 -14.493  -5.506  1.00  0.00     0.179 C 
HETATM   13  O   UNL     1     -14.071 -14.119  -4.133  1.00  0.00    -0.349 OA
BRANCH   9  14
HETATM   14  N   UNL     1     -16.193 -10.951  -4.579  1.00  0.00     0.090 N 
HETATM   15  H   UNL     1     -17.058 -11.495  -4.575  1.00  0.00     0.313 HD
HETATM   16  H   UNL     1     -16.290 -10.390  -5.435  1.00  0.00     0.313 HD
ENDBRANCH   9  14
BRANCH  10  17
HETATM   17  O   UNL     1     -16.275 -12.652  -6.776  1.00  0.00    -0.391 OA
HETATM   18  H   UNL     1     -16.948 -12.239  -6.203  1.00  0.00     0.210 HD
ENDBRANCH  10  17
BRANCH  11  19
HETATM   19  O   UNL     1     -12.616 -12.753  -6.645  1.00  0.00    -0.390 OA
HETATM   20  H   UNL     1     -12.675 -11.805  -6.443  1.00  0.00     0.210 HD
ENDBRANCH  11  19
BRANCH  12  21
HETATM   21  C   UNL     1     -14.781 -15.675  -5.916  1.00  0.00     0.198 C 
BRANCH  21  22
HETATM   22  O   UNL     1     -16.169 -15.409  -5.784  1.00  0.00    -0.398 OA
HETATM   23  H   UNL     1     -16.644 -15.942  -6.446  1.00  0.00     0.209 HD
ENDBRANCH  21  22
ENDBRANCH  12  21
ENDBRANCH   7   8
ENDBRANCH   3   7
BRANCH   2  24
HETATM   24  O   UNL     1     -19.023 -13.738  -0.927  1.00  0.00    -0.391 OA
HETATM   25  H   UNL     1     -18.434 -14.288  -0.371  1.00  0.00     0.210 HD
ENDBRANCH   2  24
BRANCH   4  26
HETATM   26  C   UNL     1     -16.807 -12.215   0.252  1.00  0.00     0.198 C 
BRANCH  26  27
HETATM   27  O   UNL     1     -15.758 -11.599   1.002  1.00  0.00    -0.398 OA
HETATM   28  H   UNL     1     -15.283 -12.298   1.484  1.00  0.00     0.209 HD
ENDBRANCH  26  27
ENDBRANCH   4  26
BRANCH   1  29
HETATM   29  N   UNL     1     -20.203 -12.584  -3.554  1.00  0.00    -0.349 N 
HETATM   30  C   UNL     1     -20.679 -12.081  -4.745  1.00  0.00     0.214 C 
HETATM   31  C   UNL     1     -19.838 -11.130  -5.562  1.00  0.00     0.117 C 
HETATM   32  O   UNL     1     -21.777 -12.453  -5.131  1.00  0.00    -0.274 OA
HETATM   33  H   UNL     1     -20.846 -13.224  -3.090  1.00  0.00     0.163 HD
ENDBRANCH   1  29
BRANCH   6  34
HETATM   34  O   UNL     1     -19.871 -11.124  -0.958  1.00  0.00    -0.348 OA
BRANCH  34  35
HETATM   35  C   UNL     1     -21.200 -10.545  -1.202  1.00  0.00     0.186 C 
HETATM   36  C   UNL     1     -22.028 -10.142   0.055  1.00  0.00     0.179 C 
HETATM   37  O   UNL     1     -21.700  -8.862   0.627  1.00  0.00    -0.349 OA
HETATM   38  C   UNL     1     -21.732  -7.728  -0.226  1.00  0.00     0.292 C 
HETATM   39  C   UNL     1     -20.870  -7.926  -1.498  1.00  0.00     0.303 C 
HETATM   40  C   UNL     1     -21.069  -9.317  -2.173  1.00  0.00     0.187 C 
BRANCH  36  41
HETATM   41  C   UNL     1     -23.547 -10.312  -0.182  1.00  0.00     0.198 C 
BRANCH  41  42
HETATM   42  O   UNL     1     -23.782 -11.128  -1.332  1.00  0.00    -0.398 OA
HETATM   43  H   UNL     1     -24.527 -11.711  -1.094  1.00  0.00     0.209 HD
ENDBRANCH  41  42
ENDBRANCH  36  41
BRANCH  38  44
HETATM   44  O   UNL     1     -23.070  -7.308  -0.468  1.00  0.00    -0.369 OA
HETATM   45  H   UNL     1     -23.115  -7.096  -1.419  1.00  0.00     0.212 HD
ENDBRANCH  38  44
BRANCH  39  46
HETATM   46  N   UNL     1     -21.007  -6.778  -2.442  1.00  0.00     0.090 N 
HETATM   47  H   UNL     1     -20.696  -5.939  -1.937  1.00  0.00     0.313 HD
HETATM   48  H   UNL     1     -21.992  -6.607  -2.639  1.00  0.00     0.313 HD
ENDBRANCH  39  46
BRANCH  40  49
HETATM   49  O   UNL     1     -22.215  -9.255  -3.040  1.00  0.00    -0.391 OA
HETATM   50  H   UNL     1     -22.980  -8.999  -2.494  1.00  0.00     0.210 HD
ENDBRANCH  40  49
ENDBRANCH  34  35
ENDBRANCH   6  34
TORSDOF 18
BEGIN_RES ARG D 557
REMARK  4 active torsions:
REMARK  status: ('A' for Active; 'I' for Inactive)
REMARK    1  A    between atoms: CA   and  CB  
REMARK    2  A    between atoms: CB   and  CG  
REMARK    3  A    between atoms: CG   and  CD  
REMARK    4  A    between atoms: CD   and  NE  
REMARK       I    between atoms: NE   and  CZ  
REMARK       I    between atoms: CZ   and  NH1 
REMARK       I    between atoms: CZ   and  NH2 
ROOT
ATOM      1  CA  ARG D 557     -26.217   2.705 -17.014  1.00 35.49     0.159 C 
ENDROOT
BRANCH   1   2
ATOM      2  CB  ARG D 557     -26.789   1.319 -17.183  1.00 35.49     0.034 C 
BRANCH   2   3
ATOM      3  CG  ARG D 557     -25.838   0.202 -17.139  1.00 35.49     0.027 C 
BRANCH   3   4
ATOM      4  CD  ARG D 557     -24.756   0.420 -16.152  1.00 35.49     0.116 C 
BRANCH   4   5
ATOM      5  NE  ARG D 557     -24.892  -0.435 -15.001  1.00 35.49    -0.212 N 
ATOM      6  CZ  ARG D 557     -24.071  -1.404 -14.664  1.00 35.49     0.666 C 
ATOM      7  NH1 ARG D 557     -23.007  -1.714 -15.380  1.00 35.49    -0.235 N 
ATOM      8  NH2 ARG D 557     -24.338  -2.064 -13.574  1.00 35.49    -0.235 N 
ATOM      9  HH  ARG D 557     -22.811  -1.291 -16.099  1.00 35.49     0.174 HD
ATOM     10  HH  ARG D 557     -22.506  -2.354 -15.109  1.00 35.49     0.174 HD
ATOM     11  HH  ARG D 557     -25.029  -1.837 -13.128  1.00 35.49     0.174 HD
ATOM     12  HH  ARG D 557     -23.830  -2.694 -13.322  1.00 35.49     0.174 HD
ATOM     13  HE  ARG D 557     -25.590  -0.352 -14.523  1.00 35.49     0.178 HD
ENDBRANCH   4   5
ENDBRANCH   3   4
ENDBRANCH   2   3
ENDBRANCH   1   2
END_RES ARG D 557
BEGIN_RES GLU D 570
REMARK  3 active torsions:
REMARK  status: ('A' for Active; 'I' for Inactive)
REMARK    5  A    between atoms: CA   and  CB  
REMARK    6  A    between atoms: CB   and  CG  
REMARK    7  A    between atoms: CG   and  CD  
ROOT
ATOM     14  CA  GLU D 570     -18.033  -6.348 -13.375  1.00 32.92     0.160 C 
ENDROOT
BRANCH  14  15
ATOM     15  CB  GLU D 570     -19.500  -6.345 -13.794  1.00 32.92     0.043 C 
BRANCH  15  16
ATOM     16  CG  GLU D 570     -20.442  -5.532 -12.982  1.00 32.92     0.100 C 
BRANCH  16  17
ATOM     17  CD  GLU D 570     -21.721  -5.203 -13.717  1.00 32.92     0.185 C 
ATOM     18  OE1 GLU D 570     -22.298  -4.126 -13.474  1.00 32.92    -0.647 OA
ATOM     19  OE2 GLU D 570     -22.159  -6.040 -14.531  1.00 32.92    -0.647 OA
ENDBRANCH  16  17
ENDBRANCH  15  16
ENDBRANCH  14  15
END_RES GLU D 570
ENDMDL
MODEL 3
REMARK VINA RESULT:      -4.9      1.640      7.643
REMARK  18 active torsions:
REMARK  status: ('A' for Active; 'I' for Inactive)
REMARK       I    between atoms: C_2  and  N_4 
REMARK    1  A    between atoms: N_4  and  C_5 
REMARK    2  A    between atoms: C_6  and  O_37 
REMARK    3  A    between atoms: C_7  and  O_25 
REMARK    4  A    between atoms: C_8  and  C_23 
REMARK    5  A    between atoms: C_10  and  O_11 
REMARK    6  A    between atoms: O_11  and  C_12 
REMARK    7  A    between atoms: C_13  and  C_21 
REMARK    8  A    between atoms: C_15  and  O_20 
REMARK    9  A    between atoms: C_16  and  N_19 
REMARK   10  A    between atoms: C_17  and  O_18 
REMARK   11  A    between atoms: C_21  and  O_22 
REMARK   12  A    between atoms: C_23  and  O_24 
REMARK   13  A    between atoms: O_25  and  C_26 
REMARK   14  A    between atoms: C_27  and  N_36 
REMARK   15  A    between atoms: C_28  and  O_35 
REMARK   16  A    between atoms: C_29  and  O_34 
REMARK   17  A    between atoms: C_30  and  C_32 
REMARK   18  A    between atoms: C_32  and  O_33 
ROOT
HETATM    1  C   UNL     1     -17.402 -11.780  -2.412  1.00  0.00     0.170 C 
HETATM    2  C   UNL     1     -16.809 -11.183  -3.711  1.00  0.00     0.177 C 
HETATM    3  C   UNL     1     -17.263 -12.050  -4.889  1.00  0.00     0.186 C 
HETATM    4  C   UNL     1     -18.841 -12.051  -4.837  1.00  0.00     0.180 C 
HETATM    5  O   UNL     1     -19.523 -12.123  -3.543  1.00  0.00    -0.349 OA
HETATM    6  C   UNL     1     -18.943 -11.509  -2.373  1.00  0.00     0.286 C 
ENDROOT
BRANCH   3   7
HETATM    7  O   UNL     1     -16.460 -13.274  -4.788  1.00  0.00    -0.348 OA
BRANCH   7   8
HETATM    8  C   UNL     1     -15.532 -13.636  -5.837  1.00  0.00     0.296 C 
HETATM    9  C   UNL     1     -15.714 -15.111  -6.424  1.00  0.00     0.303 C 
HETATM   10  C   UNL     1     -14.831 -16.203  -5.761  1.00  0.00     0.187 C 
HETATM   11  C   UNL     1     -13.394 -15.736  -5.525  1.00  0.00     0.180 C 
HETATM   12  C   UNL     1     -13.285 -14.295  -4.999  1.00  0.00     0.179 C 
HETATM   13  O   UNL     1     -14.172 -13.322  -5.567  1.00  0.00    -0.349 OA
BRANCH   9  14
HETATM   14  N   UNL     1     -17.116 -15.590  -6.528  1.00  0.00     0.090 N 
HETATM   15  H   UNL     1     -17.084 -16.611  -6.544  1.00  0.00     0.313 HD
HETATM   16  H   UNL     1     -17.459 -15.366  -7.471  1.00  0.00     0.313 HD
ENDBRANCH   9  14
BRANCH  10  17
HETATM   17  O   UNL     1     -15.471 -16.687  -4.575  1.00  0.00    -0.391 OA
HETATM   18  H   UNL     1     -14.816 -17.189  -4.053  1.00  0.00     0.210 HD
ENDBRANCH  10  17
BRANCH  11  19
HETATM   19  O   UNL     1     -12.623 -15.879  -6.732  1.00  0.00    -0.390 OA
HETATM   20  H   UNL     1     -11.744 -16.238  -6.527  1.00  0.00     0.210 HD
ENDBRANCH  11  19
BRANCH  12  21
HETATM   21  C   UNL     1     -13.258 -14.242  -3.464  1.00  0.00     0.198 C 
BRANCH  21  22
HETATM   22  O   UNL     1     -14.019 -13.173  -2.923  1.00  0.00    -0.398 OA
HETATM   23  H   UNL     1     -14.962 -13.403  -3.002  1.00  0.00     0.209 HD
ENDBRANCH  21  22
ENDBRANCH  12  21
ENDBRANCH   7   8
ENDBRANCH   3   7
BRANCH   2  24
HETATM   24  O   UNL     1     -17.143  -9.808  -3.898  1.00  0.00    -0.391 OA
HETATM   25  H   UNL     1     -18.117  -9.741  -3.960  1.00  0.00     0.210 HD
ENDBRANCH   2  24
BRANCH   4  26
HETATM   26  C   UNL     1     -19.388 -10.771  -5.526  1.00  0.00     0.198 C 
BRANCH  26  27
HETATM   27  O   UNL     1     -18.498 -10.268  -6.526  1.00  0.00    -0.398 OA
HETATM   28  H   UNL     1     -18.098  -9.448  -6.187  1.00  0.00     0.209 HD
ENDBRANCH  26  27
ENDBRANCH   4  26
BRANCH   1  29
HETATM   29  N   UNL     1     -16.646 -11.341  -1.247  1.00  0.00    -0.349 N 
HETATM   30  C   UNL     1     -16.224 -12.129  -0.199  1.00  0.00     0.214 C 
HETATM   31  C   UNL     1     -16.537 -13.605  -0.180  1.00  0.00     0.117 C 
HETATM   32  O   UNL     1     -15.566 -11.605   0.688  1.00  0.00    -0.274 OA
HETATM   33  H   UNL     1     -16.373 -10.363  -1.165  1.00  0.00     0.163 HD
ENDBRANCH   1  29
BRANCH   6  34
HETATM   34  O   UNL     1     -19.224 -10.092  -2.127  1.00  0.00    -0.348 OA
BRANCH  34  35
HETATM   35  C   UNL     1     -20.112  -9.722  -1.015  1.00  0.00     0.186 C 
HETATM   36  C   UNL     1     -21.342  -8.833  -1.368  1.00  0.00     0.179 C 
HETATM   37  O   UNL     1     -22.482  -9.537  -1.896  1.00  0.00    -0.349 OA
HETATM   38  C   UNL     1     -23.002 -10.617  -1.135  1.00  0.00     0.292 C 
HETATM   39  C   UNL     1     -21.914 -11.660  -0.775  1.00  0.00     0.303 C 
HETATM   40  C   UNL     1     -20.586 -11.019  -0.267  1.00  0.00     0.187 C 
BRANCH  36  41
HETATM   41  C   UNL     1     -21.717  -7.887  -0.203  1.00  0.00     0.198 C 
BRANCH  41  42
HETATM   42  O   UNL     1     -22.919  -7.176  -0.507  1.00  0.00    -0.398 OA
HETATM   43  H   UNL     1     -22.997  -6.486   0.178  1.00  0.00     0.209 HD
ENDBRANCH  41  42
ENDBRANCH  36  41
BRANCH  38  44
HETATM   44  O   UNL     1     -23.768 -10.145  -0.034  1.00  0.00    -0.369 OA
HETATM   45  H   UNL     1     -23.862 -10.904   0.572  1.00  0.00     0.212 HD
ENDBRANCH  38  44
BRANCH  39  46
HETATM   46  N   UNL     1     -22.446 -12.726   0.124  1.00  0.00     0.090 N 
HETATM   47  H   UNL     1     -23.153 -12.283   0.723  1.00  0.00     0.313 HD
HETATM   48  H   UNL     1     -21.718 -13.031   0.769  1.00  0.00     0.313 HD
ENDBRANCH  39  46
BRANCH  40  49
HETATM   49  O   UNL     1     -20.705 -10.755   1.143  1.00  0.00    -0.391 OA
HETATM   50  H   UNL     1     -19.858 -10.375   1.440  1.00  0.00     0.210 HD
ENDBRANCH  40  49
ENDBRANCH  34  35
ENDBRANCH   6  34
TORSDOF 18
BEGIN_RES ARG D 557
REMARK  4 active torsions:
REMARK  status: ('A' for Active; 'I' for Inactive)
REMARK    1  A    between atoms: CA   and  CB  
REMARK    2  A    between atoms: CB   and  CG  
REMARK    3  A    between atoms: CG   and  CD  
REMARK    4  A    between atoms: CD   and  NE  
REMARK       I    between atoms: NE   and  CZ  
REMARK       I    between atoms: CZ   and  NH1 
REMARK       I    between atoms: CZ   and  NH2 
ROOT
ATOM      1  CA  ARG D 557     -26.217   2.705 -17.014  1.00 35.49     0.159 C 
ENDROOT
BRANCH   1   2
ATOM      2  CB  ARG D 557     -26.789   1.319 -17.183  1.00 35.49     0.034 C 
BRANCH   2   3
ATOM      3  CG  ARG D 557     -25.837   0.202 -17.145  1.00 35.49     0.027 C 
BRANCH   3   4
ATOM      4  CD  ARG D 557     -24.758   0.414 -16.154  1.00 35.49     0.116 C 
BRANCH   4   5
ATOM      5  NE  ARG D 557     -24.902  -0.442 -15.005  1.00 35.49    -0.212 N 
ATOM      6  CZ  ARG D 557     -24.084  -1.411 -14.662  1.00 35.49     0.666 C 
ATOM      7  NH1 ARG D 557     -23.014  -1.720 -15.371  1.00 35.49    -0.235 N 
ATOM      8  NH2 ARG D 557     -24.358  -2.072 -13.575  1.00 35.49    -0.235 N 
ATOM      9  HH  ARG D 557     -22.812  -1.297 -16.088  1.00 35.49     0.174 HD
ATOM     10  HH  ARG D 557     -22.515  -2.361 -15.097  1.00 35.49     0.174 HD
ATOM     11  HH  ARG D 557     -25.052  -1.846 -13.133  1.00 35.49     0.174 HD
ATOM     12  HH  ARG D 557     -23.851  -2.702 -13.319  1.00 35.49     0.174 HD
ATOM     13  HE  ARG D 557     -25.604  -0.360 -14.532  1.00 35.49     0.178 HD
ENDBRANCH   4   5
ENDBRANCH   3   4
ENDBRANCH   2   3
ENDBRANCH   1   2
END_RES ARG D 557
BEGIN_RES GLU D 570
REMARK  3 active torsions:
REMARK  status: ('A' for Active; 'I' for Inactive)
REMARK    5  A    between atoms: CA   and  CB  
REMARK    6  A    between atoms: CB   and  CG  
REMARK    7  A    between atoms: CG   and  CD  
ROOT
ATOM     14  CA  GLU D 570     -18.033  -6.348 -13.375  1.00 32.92     0.160 C 
ENDROOT
BRANCH  14  15
ATOM     15  CB  GLU D 570     -19.500  -6.345 -13.794  1.00 32.92     0.043 C 
BRANCH  15  16
ATOM     16  CG  GLU D 570     -20.443  -5.536 -12.980  1.00 32.92     0.100 C 
BRANCH  16  17
ATOM     17  CD  GLU D 570     -21.730  -5.222 -13.706  1.00 32.92     0.185 C 
ATOM     18  OE1 GLU D 570     -22.186  -6.053 -14.515  1.00 32.92    -0.647 OA
ATOM     19  OE2 GLU D 570     -22.279  -4.126 -13.477  1.00 32.92    -0.647 OA
ENDBRANCH  16  17
ENDBRANCH  15  16
ENDBRANCH  14  15
END_RES GLU D 570
ENDMDL
MODEL 4
REMARK VINA RESULT:      -4.9      1.847      7.584
REMARK  18 active torsions:
REMARK  status: ('A' for Active; 'I' for Inactive)
REMARK       I    between atoms: C_2  and  N_4 
REMARK    1  A    between atoms: N_4  and  C_5 
REMARK    2  A    between atoms: C_6  and  O_37 
REMARK    3  A    between atoms: C_7  and  O_25 
REMARK    4  A    between atoms: C_8  and  C_23 
REMARK    5  A    between atoms: C_10  and  O_11 
REMARK    6  A    between atoms: O_11  and  C_12 
REMARK    7  A    between atoms: C_13  and  C_21 
REMARK    8  A    between atoms: C_15  and  O_20 
REMARK    9  A    between atoms: C_16  and  N_19 
REMARK   10  A    between atoms: C_17  and  O_18 
REMARK   11  A    between atoms: C_21  and  O_22 
REMARK   12  A    between atoms: C_23  and  O_24 
REMARK   13  A    between atoms: O_25  and  C_26 
REMARK   14  A    between atoms: C_27  and  N_36 
REMARK   15  A    between atoms: C_28  and  O_35 
REMARK   16  A    between atoms: C_29  and  O_34 
REMARK   17  A    between atoms: C_30  and  C_32 
REMARK   18  A    between atoms: C_32  and  O_33 
ROOT
HETATM    1  C   UNL     1     -17.621 -12.118  -2.241  1.00  0.00     0.170 C 
HETATM    2  C   UNL     1     -17.271 -11.570  -3.645  1.00  0.00     0.177 C 
HETATM    3  C   UNL     1     -17.840 -12.534  -4.691  1.00  0.00     0.186 C 
HETATM    4  C   UNL     1     -19.388 -12.620  -4.396  1.00  0.00     0.180 C 
HETATM    5  O   UNL     1     -19.861 -12.650  -3.011  1.00  0.00    -0.349 OA
HETATM    6  C   UNL     1     -19.152 -11.932  -1.978  1.00  0.00     0.286 C 
ENDROOT
BRANCH   3   7
HETATM    7  O   UNL     1     -16.952 -13.701  -4.651  1.00  0.00    -0.348 OA
BRANCH   7   8
HETATM    8  C   UNL     1     -16.042 -13.974  -5.741  1.00  0.00     0.296 C 
HETATM    9  C   UNL     1     -15.726 -15.520  -5.991  1.00  0.00     0.303 C 
HETATM   10  C   UNL     1     -14.461 -16.063  -5.274  1.00  0.00     0.187 C 
HETATM   11  C   UNL     1     -13.274 -15.103  -5.364  1.00  0.00     0.180 C 
HETATM   12  C   UNL     1     -13.650 -13.626  -5.155  1.00  0.00     0.179 C 
HETATM   13  O   UNL     1     -14.870 -13.170  -5.755  1.00  0.00    -0.349 OA
BRANCH   9  14
HETATM   14  N   UNL     1     -16.866 -16.449  -5.777  1.00  0.00     0.090 N 
HETATM   15  H   UNL     1     -17.503 -15.994  -5.121  1.00  0.00     0.313 HD
HETATM   16  H   UNL     1     -16.525 -17.251  -5.232  1.00  0.00     0.313 HD
ENDBRANCH   9  14
BRANCH  10  17
HETATM   17  O   UNL     1     -14.788 -16.435  -3.930  1.00  0.00    -0.391 OA
HETATM   18  H   UNL     1     -14.009 -16.270  -3.365  1.00  0.00     0.210 HD
ENDBRANCH  10  17
BRANCH  11  19
HETATM   19  O   UNL     1     -12.601 -15.266  -6.625  1.00  0.00    -0.390 OA
HETATM   20  H   UNL     1     -12.064 -16.075  -6.616  1.00  0.00     0.210 HD
ENDBRANCH  11  19
BRANCH  12  21
HETATM   21  C   UNL     1     -13.523 -13.202  -3.684  1.00  0.00     0.198 C 
BRANCH  21  22
HETATM   22  O   UNL     1     -14.594 -13.657  -2.872  1.00  0.00    -0.398 OA
HETATM   23  H   UNL     1     -14.219 -14.013  -2.047  1.00  0.00     0.209 HD
ENDBRANCH  21  22
ENDBRANCH  12  21
ENDBRANCH   7   8
ENDBRANCH   3   7
BRANCH   2  24
HETATM   24  O   UNL     1     -17.718 -10.231  -3.851  1.00  0.00    -0.391 OA
HETATM   25  H   UNL     1     -17.811 -10.090  -4.816  1.00  0.00     0.210 HD
ENDBRANCH   2  24
BRANCH   4  26
HETATM   26  C   UNL     1     -20.116 -11.418  -5.060  1.00  0.00     0.198 C 
BRANCH  26  27
HETATM   27  O   UNL     1     -19.468 -10.985  -6.258  1.00  0.00    -0.398 OA
HETATM   28  H   UNL     1     -18.805 -11.655  -6.501  1.00  0.00     0.209 HD
ENDBRANCH  26  27
ENDBRANCH   4  26
BRANCH   1  29
HETATM   29  N   UNL     1     -16.728 -11.565  -1.231  1.00  0.00    -0.349 N 
HETATM   30  C   UNL     1     -16.353 -12.166  -0.050  1.00  0.00     0.214 C 
HETATM   31  C   UNL     1     -16.876 -13.536   0.308  1.00  0.00     0.117 C 
HETATM   32  O   UNL     1     -15.564 -11.576   0.673  1.00  0.00    -0.274 OA
HETATM   33  H   UNL     1     -16.310 -10.648  -1.378  1.00  0.00     0.163 HD
ENDBRANCH   1  29
BRANCH   6  34
HETATM   34  O   UNL     1     -19.485 -10.520  -1.767  1.00  0.00    -0.348 OA
BRANCH  34  35
HETATM   35  C   UNL     1     -20.893 -10.101  -1.830  1.00  0.00     0.186 C 
HETATM   36  C   UNL     1     -21.631  -9.923  -0.469  1.00  0.00     0.179 C 
HETATM   37  O   UNL     1     -21.404  -8.666   0.196  1.00  0.00    -0.349 OA
HETATM   38  C   UNL     1     -21.663  -7.476  -0.533  1.00  0.00     0.292 C 
HETATM   39  C   UNL     1     -20.918  -7.446  -1.891  1.00  0.00     0.303 C 
HETATM   40  C   UNL     1     -21.014  -8.786  -2.681  1.00  0.00     0.187 C 
BRANCH  36  41
HETATM   41  C   UNL     1     -23.134 -10.270  -0.584  1.00  0.00     0.198 C 
BRANCH  41  42
HETATM   42  O   UNL     1     -23.375 -11.056  -1.753  1.00  0.00    -0.398 OA
HETATM   43  H   UNL     1     -23.250 -11.983  -1.478  1.00  0.00     0.209 HD
ENDBRANCH  41  42
ENDBRANCH  36  41
BRANCH  38  44
HETATM   44  O   UNL     1     -23.059  -7.216  -0.609  1.00  0.00    -0.369 OA
HETATM   45  H   UNL     1     -23.196  -6.359  -0.163  1.00  0.00     0.212 HD
ENDBRANCH  38  44
BRANCH  39  46
HETATM   46  N   UNL     1     -21.291  -6.247  -2.699  1.00  0.00     0.090 N 
HETATM   47  H   UNL     1     -20.732  -5.463  -2.342  1.00  0.00     0.313 HD
HETATM   48  H   UNL     1     -22.256  -5.984  -2.503  1.00  0.00     0.313 HD
ENDBRANCH  39  46
BRANCH  40  49
HETATM   49  O   UNL     1     -22.242  -8.800  -3.431  1.00  0.00    -0.391 OA
HETATM   50  H   UNL     1     -22.595  -9.707  -3.395  1.00  0.00     0.210 HD
ENDBRANCH  40  49
ENDBRANCH  34  35
ENDBRANCH   6  34
TORSDOF 18
BEGIN_RES ARG D 557
REMARK  4 active torsions:
REMARK  status: ('A' for Active; 'I' for Inactive)
REMARK    1  A    between atoms: CA   and  CB  
REMARK    2  A    between atoms: CB   and  CG  
REMARK    3  A    between atoms: CG   and  CD  
REMARK    4  A    between atoms: CD   and  NE  
REMARK       I    between atoms: NE   and  CZ  
REMARK       I    between atoms: CZ   and  NH1 
REMARK       I    between atoms: CZ   and  NH2 
ROOT
ATOM      1  CA  ARG D 557     -26.217   2.705 -17.014  1.00 35.49     0.159 C 
ENDROOT
BRANCH   1   2
ATOM      2  CB  ARG D 557     -26.789   1.319 -17.183  1.00 35.49     0.034 C 
BRANCH   2   3
ATOM      3  CG  ARG D 557     -25.838   0.202 -17.137  1.00 35.49     0.027 C 
BRANCH   3   4
ATOM      4  CD  ARG D 557     -24.753   0.425 -16.154  1.00 35.49     0.116 C 
BRANCH   4   5
ATOM      5  NE  ARG D 557     -24.879  -0.430 -15.003  1.00 35.49    -0.212 N 
ATOM      6  CZ  ARG D 557     -24.051  -1.395 -14.669  1.00 35.49     0.666 C 
ATOM      7  NH1 ARG D 557     -22.987  -1.698 -15.390  1.00 35.49    -0.235 N 
ATOM      8  NH2 ARG D 557     -24.309  -2.056 -13.578  1.00 35.49    -0.235 N 
ATOM      9  HH  ARG D 557     -22.797  -1.275 -16.110  1.00 35.49     0.174 HD
ATOM     10  HH  ARG D 557     -22.482  -2.335 -15.121  1.00 35.49     0.174 HD
ATOM     11  HH  ARG D 557     -24.999  -1.833 -13.129  1.00 35.49     0.174 HD
ATOM     12  HH  ARG D 557     -23.796  -2.683 -13.328  1.00 35.49     0.174 HD
ATOM     13  HE  ARG D 557     -25.575  -0.352 -14.522  1.00 35.49     0.178 HD
ENDBRANCH   4   5
ENDBRANCH   3   4
ENDBRANCH   2   3
ENDBRANCH   1   2
END_RES ARG D 557
BEGIN_RES GLU D 570
REMARK  3 active torsions:
REMARK  status: ('A' for Active; 'I' for Inactive)
REMARK    5  A    between atoms: CA   and  CB  
REMARK    6  A    between atoms: CB   and  CG  
REMARK    7  A    between atoms: CG   and  CD  
ROOT
ATOM     14  CA  GLU D 570     -18.033  -6.348 -13.375  1.00 32.92     0.160 C 
ENDROOT
BRANCH  14  15
ATOM     15  CB  GLU D 570     -19.500  -6.345 -13.794  1.00 32.92     0.043 C 
BRANCH  15  16
ATOM     16  CG  GLU D 570     -20.450  -5.570 -12.955  1.00 32.92     0.100 C 
BRANCH  16  17
ATOM     17  CD  GLU D 570     -21.744  -5.254 -13.668  1.00 32.92     0.185 C 
ATOM     18  OE1 GLU D 570     -22.283  -6.137 -14.362  1.00 32.92    -0.647 OA
ATOM     19  OE2 GLU D 570     -22.215  -4.107 -13.544  1.00 32.92    -0.647 OA
ENDBRANCH  16  17
ENDBRANCH  15  16
ENDBRANCH  14  15
END_RES GLU D 570
ENDMDL
MODEL 5
REMARK VINA RESULT:      -4.8      2.338      7.831
REMARK  18 active torsions:
REMARK  status: ('A' for Active; 'I' for Inactive)
REMARK       I    between atoms: C_2  and  N_4 
REMARK    1  A    between atoms: N_4  and  C_5 
REMARK    2  A    between atoms: C_6  and  O_37 
REMARK    3  A    between atoms: C_7  and  O_25 
REMARK    4  A    between atoms: C_8  and  C_23 
REMARK    5  A    between atoms: C_10  and  O_11 
REMARK    6  A    between atoms: O_11  and  C_12 
REMARK    7  A    between atoms: C_13  and  C_21 
REMARK    8  A    between atoms: C_15  and  O_20 
REMARK    9  A    between atoms: C_16  and  N_19 
REMARK   10  A    between atoms: C_17  and  O_18 
REMARK   11  A    between atoms: C_21  and  O_22 
REMARK   12  A    between atoms: C_23  and  O_24 
REMARK   13  A    between atoms: O_25  and  C_26 
REMARK   14  A    between atoms: C_27  and  N_36 
REMARK   15  A    between atoms: C_28  and  O_35 
REMARK   16  A    between atoms: C_29  and  O_34 
REMARK   17  A    between atoms: C_30  and  C_32 
REMARK   18  A    between atoms: C_32  and  O_33 
ROOT
HETATM    1  C   UNL     1     -17.618 -11.655  -2.347  1.00  0.00     0.170 C 
HETATM    2  C   UNL     1     -16.981 -11.090  -3.639  1.00  0.00     0.177 C 
HETATM    3  C   UNL     1     -17.536 -11.877  -4.831  1.00  0.00     0.186 C 
HETATM    4  C   UNL     1     -19.105 -11.718  -4.756  1.00  0.00     0.180 C 
HETATM    5  O   UNL     1     -19.775 -11.751  -3.455  1.00  0.00    -0.349 OA
HETATM    6  C   UNL     1     -19.121 -11.228  -2.279  1.00  0.00     0.286 C 
ENDROOT
BRANCH   3   7
HETATM    7  O   UNL     1     -16.861 -13.179  -4.769  1.00  0.00    -0.348 OA
BRANCH   7   8
HETATM    8  C   UNL     1     -15.994 -13.612  -5.843  1.00  0.00     0.296 C 
HETATM    9  C   UNL     1     -15.800 -15.193  -5.963  1.00  0.00     0.303 C 
HETATM   10  C   UNL     1     -14.567 -15.769  -5.217  1.00  0.00     0.187 C 
HETATM   11  C   UNL     1     -13.313 -14.913  -5.403  1.00  0.00     0.180 C 
HETATM   12  C   UNL     1     -13.572 -13.400  -5.315  1.00  0.00     0.179 C 
HETATM   13  O   UNL     1     -14.765 -12.903  -5.939  1.00  0.00    -0.349 OA
BRANCH   9  14
HETATM   14  N   UNL     1     -17.003 -16.010  -5.657  1.00  0.00     0.090 N 
HETATM   15  H   UNL     1     -16.762 -16.982  -5.854  1.00  0.00     0.313 HD
HETATM   16  H   UNL     1     -17.713 -15.809  -6.372  1.00  0.00     0.313 HD
ENDBRANCH   9  14
BRANCH  10  17
HETATM   17  O   UNL     1     -14.897 -15.999  -3.843  1.00  0.00    -0.391 OA
HETATM   18  H   UNL     1     -15.779 -16.416  -3.802  1.00  0.00     0.210 HD
ENDBRANCH  10  17
BRANCH  11  19
HETATM   19  O   UNL     1     -12.676 -15.233  -6.653  1.00  0.00    -0.390 OA
HETATM   20  H   UNL     1     -12.139 -16.037  -6.559  1.00  0.00     0.210 HD
ENDBRANCH  11  19
BRANCH  12  21
HETATM   21  C   UNL     1     -13.388 -12.864  -3.888  1.00  0.00     0.198 C 
BRANCH  21  22
HETATM   22  O   UNL     1     -12.831 -13.818  -2.996  1.00  0.00    -0.398 OA
HETATM   23  H   UNL     1     -13.218 -13.669  -2.115  1.00  0.00     0.209 HD
ENDBRANCH  21  22
ENDBRANCH  12  21
ENDBRANCH   7   8
ENDBRANCH   3   7
BRANCH   2  24
HETATM   24  O   UNL     1     -17.174  -9.684  -3.790  1.00  0.00    -0.391 OA
HETATM   25  H   UNL     1     -17.847  -9.400  -3.138  1.00  0.00     0.210 HD
ENDBRANCH   2  24
BRANCH   4  26
HETATM   26  C   UNL     1     -19.526 -10.371  -5.408  1.00  0.00     0.198 C 
BRANCH  26  27
HETATM   27  O   UNL     1     -18.580  -9.918  -6.379  1.00  0.00    -0.398 OA
HETATM   28  H   UNL     1     -18.914  -9.086  -6.758  1.00  0.00     0.209 HD
ENDBRANCH  26  27
ENDBRANCH   4  26
BRANCH   1  29
HETATM   29  N   UNL     1     -16.806 -11.324  -1.183  1.00  0.00    -0.349 N 
HETATM   30  C   UNL     1     -16.690 -12.064  -0.027  1.00  0.00     0.214 C 
HETATM   31  C   UNL     1     -17.447 -13.360   0.128  1.00  0.00     0.117 C 
HETATM   32  O   UNL     1     -15.935 -11.659   0.845  1.00  0.00    -0.274 OA
HETATM   33  H   UNL     1     -16.246 -10.473  -1.186  1.00  0.00     0.163 HD
ENDBRANCH   1  29
BRANCH   6  34
HETATM   34  O   UNL     1     -19.253  -9.796  -1.997  1.00  0.00    -0.348 OA
BRANCH  34  35
HETATM   35  C   UNL     1     -20.231  -9.352  -0.993  1.00  0.00     0.186 C 
HETATM   36  C   UNL     1     -21.566  -8.757  -1.533  1.00  0.00     0.179 C 
HETATM   37  O   UNL     1     -22.564  -9.723  -1.914  1.00  0.00    -0.349 OA
HETATM   38  C   UNL     1     -22.945 -10.695  -0.952  1.00  0.00     0.292 C 
HETATM   39  C   UNL     1     -21.727 -11.459  -0.375  1.00  0.00     0.303 C 
HETATM   40  C   UNL     1     -20.534 -10.529   0.003  1.00  0.00     0.187 C 
BRANCH  36  41
HETATM   41  C   UNL     1     -22.127  -7.665  -0.592  1.00  0.00     0.198 C 
BRANCH  41  42
HETATM   42  O   UNL     1     -22.607  -6.554  -1.351  1.00  0.00    -0.398 OA
HETATM   43  H   UNL     1     -21.996  -6.466  -2.105  1.00  0.00     0.209 HD
ENDBRANCH  41  42
ENDBRANCH  36  41
BRANCH  38  44
HETATM   44  O   UNL     1     -23.818 -10.135   0.021  1.00  0.00    -0.369 OA
HETATM   45  H   UNL     1     -24.299  -9.417  -0.433  1.00  0.00     0.212 HD
ENDBRANCH  38  44
BRANCH  39  46
HETATM   46  N   UNL     1     -22.128 -12.391   0.720  1.00  0.00     0.090 N 
HETATM   47  H   UNL     1     -22.807 -11.888   1.304  1.00  0.00     0.313 HD
HETATM   48  H   UNL     1     -21.336 -12.562   1.337  1.00  0.00     0.313 HD
ENDBRANCH  39  46
BRANCH  40  49
HETATM   49  O   UNL     1     -20.749 -10.007   1.326  1.00  0.00    -0.391 OA
HETATM   50  H   UNL     1     -20.009 -10.311   1.883  1.00  0.00     0.210 HD
ENDBRANCH  40  49
ENDBRANCH  34  35
ENDBRANCH   6  34
TORSDOF 18
BEGIN_RES ARG D 557
REMARK  4 active torsions:
REMARK  status: ('A' for Active; 'I' for Inactive)
REMARK    1  A    between atoms: CA   and  CB  
REMARK    2  A    between atoms: CB   and  CG  
REMARK    3  A    between atoms: CG   and  CD  
REMARK    4  A    between atoms: CD   and  NE  
REMARK       I    between atoms: NE   and  CZ  
REMARK       I    between atoms: CZ   and  NH1 
REMARK       I    between atoms: CZ   and  NH2 
ROOT
ATOM      1  CA  ARG D 557     -26.217   2.705 -17.014  1.00 35.49     0.159 C 
ENDROOT
BRANCH   1   2
ATOM      2  CB  ARG D 557     -26.789   1.319 -17.183  1.00 35.49     0.034 C 
BRANCH   2   3
ATOM      3  CG  ARG D 557     -28.236   1.225 -17.413  1.00 35.49     0.027 C 
BRANCH   3   4
ATOM      4  CD  ARG D 557     -28.896   0.287 -16.477  1.00 35.49     0.116 C 
BRANCH   4   5
ATOM      5  NE  ARG D 557     -29.274  -0.944 -17.119  1.00 35.49    -0.212 N 
ATOM      6  CZ  ARG D 557     -28.638  -2.090 -17.018  1.00 35.49     0.666 C 
ATOM      7  NH1 ARG D 557     -27.537  -2.229 -16.302  1.00 35.49    -0.235 N 
ATOM      8  NH2 ARG D 557     -29.135  -3.111 -17.653  1.00 35.49    -0.235 N 
ATOM      9  HH  ARG D 557     -27.193  -1.571 -15.875  1.00 35.49     0.174 HD
ATOM     10  HH  ARG D 557     -27.167  -3.001 -16.272  1.00 35.49     0.174 HD
ATOM     11  HH  ARG D 557     -29.851  -2.993 -18.102  1.00 35.49     0.174 HD
ATOM     12  HH  ARG D 557     -28.755  -3.867 -17.609  1.00 35.49     0.174 HD
ATOM     13  HE  ARG D 557     -29.931  -0.928 -17.658  1.00 35.49     0.178 HD
ENDBRANCH   4   5
ENDBRANCH   3   4
ENDBRANCH   2   3
ENDBRANCH   1   2
END_RES ARG D 557
BEGIN_RES GLU D 570
REMARK  3 active torsions:
REMARK  status: ('A' for Active; 'I' for Inactive)
REMARK    5  A    between atoms: CA   and  CB  
REMARK    6  A    between atoms: CB   and  CG  
REMARK    7  A    between atoms: CG   and  CD  
ROOT
ATOM     14  CA  GLU D 570     -18.033  -6.348 -13.375  1.00 32.92     0.160 C 
ENDROOT
BRANCH  14  15
ATOM     15  CB  GLU D 570     -19.500  -6.345 -13.794  1.00 32.92     0.043 C 
BRANCH  15  16
ATOM     16  CG  GLU D 570     -20.102  -7.645 -14.188  1.00 32.92     0.100 C 
BRANCH  16  17
ATOM     17  CD  GLU D 570     -20.795  -7.591 -15.529  1.00 32.92     0.185 C 
ATOM     18  OE1 GLU D 570     -20.805  -8.610 -16.247  1.00 32.92    -0.647 OA
ATOM     19  OE2 GLU D 570     -21.319  -6.514 -15.874  1.00 32.92    -0.647 OA
ENDBRANCH  16  17
ENDBRANCH  15  16
ENDBRANCH  14  15
END_RES GLU D 570
ENDMDL
MODEL 6
REMARK VINA RESULT:      -4.6      2.257      7.650
REMARK  18 active torsions:
REMARK  status: ('A' for Active; 'I' for Inactive)
REMARK       I    between atoms: C_2  and  N_4 
REMARK    1  A    between atoms: N_4  and  C_5 
REMARK    2  A    between atoms: C_6  and  O_37 
REMARK    3  A    between atoms: C_7  and  O_25 
REMARK    4  A    between atoms: C_8  and  C_23 
REMARK    5  A    between atoms: C_10  and  O_11 
REMARK    6  A    between atoms: O_11  and  C_12 
REMARK    7  A    between atoms: C_13  and  C_21 
REMARK    8  A    between atoms: C_15  and  O_20 
REMARK    9  A    between atoms: C_16  and  N_19 
REMARK   10  A    between atoms: C_17  and  O_18 
REMARK   11  A    between atoms: C_21  and  O_22 
REMARK   12  A    between atoms: C_23  and  O_24 
REMARK   13  A    between atoms: O_25  and  C_26 
REMARK   14  A    between atoms: C_27  and  N_36 
REMARK   15  A    between atoms: C_28  and  O_35 
REMARK   16  A    between atoms: C_29  and  O_34 
REMARK   17  A    between atoms: C_30  and  C_32 
REMARK   18  A    between atoms: C_32  and  O_33 
ROOT
HETATM    1  C   UNL     1     -17.639 -11.505  -2.804  1.00  0.00     0.170 C 
HETATM    2  C   UNL     1     -16.272 -10.832  -3.072  1.00  0.00     0.177 C 
HETATM    3  C   UNL     1     -15.675 -11.447  -4.342  1.00  0.00     0.186 C 
HETATM    4  C   UNL     1     -16.747 -11.213  -5.476  1.00  0.00     0.180 C 
HETATM    5  O   UNL     1     -18.171 -11.358  -5.167  1.00  0.00    -0.349 OA
HETATM    6  C   UNL     1     -18.679 -11.009  -3.862  1.00  0.00     0.286 C 
ENDROOT
BRANCH   3   7
HETATM    7  O   UNL     1     -15.219 -12.781  -3.936  1.00  0.00    -0.348 OA
BRANCH   7   8
HETATM    8  C   UNL     1     -14.113 -13.421  -4.613  1.00  0.00     0.296 C 
HETATM    9  C   UNL     1     -14.498 -14.710  -5.475  1.00  0.00     0.303 C 
HETATM   10  C   UNL     1     -14.362 -16.067  -4.735  1.00  0.00     0.187 C 
HETATM   11  C   UNL     1     -13.080 -16.161  -3.906  1.00  0.00     0.180 C 
HETATM   12  C   UNL     1     -12.743 -14.875  -3.131  1.00  0.00     0.179 C 
HETATM   13  O   UNL     1     -12.960 -13.629  -3.807  1.00  0.00    -0.349 OA
BRANCH   9  14
HETATM   14  N   UNL     1     -15.807 -14.644  -6.174  1.00  0.00     0.090 N 
HETATM   15  H   UNL     1     -16.018 -13.656  -6.323  1.00  0.00     0.313 HD
HETATM   16  H   UNL     1     -16.537 -14.927  -5.508  1.00  0.00     0.313 HD
ENDBRANCH   9  14
BRANCH  10  17
HETATM   17  O   UNL     1     -15.548 -16.325  -3.976  1.00  0.00    -0.391 OA
HETATM   18  H   UNL     1     -16.151 -16.869  -4.518  1.00  0.00     0.210 HD
ENDBRANCH  10  17
BRANCH  11  19
HETATM   19  O   UNL     1     -11.974 -16.535  -4.746  1.00  0.00    -0.390 OA
HETATM   20  H   UNL     1     -11.785 -17.483  -4.649  1.00  0.00     0.210 HD
ENDBRANCH  11  19
BRANCH  12  21
HETATM   21  C   UNL     1     -13.330 -14.886  -1.713  1.00  0.00     0.198 C 
BRANCH  21  22
HETATM   22  O   UNL     1     -13.966 -16.110  -1.374  1.00  0.00    -0.398 OA
HETATM   23  H   UNL     1     -14.188 -16.083  -0.427  1.00  0.00     0.209 HD
ENDBRANCH  21  22
ENDBRANCH  12  21
ENDBRANCH   7   8
ENDBRANCH   3   7
BRANCH   2  24
HETATM   24  O   UNL     1     -16.355  -9.409  -3.154  1.00  0.00    -0.391 OA
HETATM   25  H   UNL     1     -17.020  -9.108  -2.501  1.00  0.00     0.210 HD
ENDBRANCH   2  24
BRANCH   4  26
HETATM   26  C   UNL     1     -16.591  -9.780  -6.057  1.00  0.00     0.198 C 
BRANCH  26  27
HETATM   27  O   UNL     1     -17.840  -9.221  -6.470  1.00  0.00    -0.398 OA
HETATM   28  H   UNL     1     -18.327  -8.952  -5.671  1.00  0.00     0.209 HD
ENDBRANCH  26  27
ENDBRANCH   4  26
BRANCH   1  29
HETATM   29  N   UNL     1     -18.026 -11.354  -1.407  1.00  0.00    -0.349 N 
HETATM   30  C   UNL     1     -17.766 -12.239  -0.384  1.00  0.00     0.214 C 
HETATM   31  C   UNL     1     -17.011 -13.517  -0.654  1.00  0.00     0.117 C 
HETATM   32  O   UNL     1     -18.134 -11.941   0.743  1.00  0.00    -0.274 OA
HETATM   33  H   UNL     1     -18.532 -10.520  -1.114  1.00  0.00     0.163 HD
ENDBRANCH   1  29
BRANCH   6  34
HETATM   34  O   UNL     1     -19.055  -9.614  -3.620  1.00  0.00    -0.348 OA
BRANCH  34  35
HETATM   35  C   UNL     1     -20.463  -9.292  -3.343  1.00  0.00     0.186 C 
HETATM   36  C   UNL     1     -20.792  -8.770  -1.911  1.00  0.00     0.179 C 
HETATM   37  O   UNL     1     -20.545  -7.369  -1.693  1.00  0.00    -0.349 OA
HETATM   38  C   UNL     1     -21.154  -6.444  -2.581  1.00  0.00     0.292 C 
HETATM   39  C   UNL     1     -20.844  -6.764  -4.065  1.00  0.00     0.303 C 
HETATM   40  C   UNL     1     -20.992  -8.275  -4.417  1.00  0.00     0.187 C 
BRANCH  36  41
HETATM   41  C   UNL     1     -22.206  -9.202  -1.457  1.00  0.00     0.198 C 
BRANCH  41  42
HETATM   42  O   UNL     1     -22.565  -8.534  -0.246  1.00  0.00    -0.398 OA
HETATM   43  H   UNL     1     -21.734  -8.429   0.253  1.00  0.00     0.209 HD
ENDBRANCH  41  42
ENDBRANCH  36  41
BRANCH  38  44
HETATM   44  O   UNL     1     -22.534  -6.277  -2.279  1.00  0.00    -0.369 OA
HETATM   45  H   UNL     1     -22.853  -5.569  -2.869  1.00  0.00     0.212 HD
ENDBRANCH  38  44
BRANCH  39  46
HETATM   46  N   UNL     1     -21.585  -5.858  -4.991  1.00  0.00     0.090 N 
HETATM   47  H   UNL     1     -22.501  -6.292  -5.160  1.00  0.00     0.313 HD
HETATM   48  H   UNL     1     -21.132  -5.851  -5.904  1.00  0.00     0.313 HD
ENDBRANCH  39  46
BRANCH  40  49
HETATM   49  O   UNL     1     -22.372  -8.552  -4.715  1.00  0.00    -0.391 OA
HETATM   50  H   UNL     1     -22.622  -9.353  -4.218  1.00  0.00     0.210 HD
ENDBRANCH  40  49
ENDBRANCH  34  35
ENDBRANCH   6  34
TORSDOF 18
BEGIN_RES ARG D 557
REMARK  4 active torsions:
REMARK  status: ('A' for Active; 'I' for Inactive)
REMARK    1  A    between atoms: CA   and  CB  
REMARK    2  A    between atoms: CB   and  CG  
REMARK    3  A    between atoms: CG   and  CD  
REMARK    4  A    between atoms: CD   and  NE  
REMARK       I    between atoms: NE   and  CZ  
REMARK       I    between atoms: CZ   and  NH1 
REMARK       I    between atoms: CZ   and  NH2 
ROOT
ATOM      1  CA  ARG D 557     -26.217   2.705 -17.014  1.00 35.49     0.159 C 
ENDROOT
BRANCH   1   2
ATOM      2  CB  ARG D 557     -26.789   1.319 -17.183  1.00 35.49     0.034 C 
BRANCH   2   3
ATOM      3  CG  ARG D 557     -25.836   0.203 -17.151  1.00 35.49     0.027 C 
BRANCH   3   4
ATOM      4  CD  ARG D 557     -24.760   0.408 -16.155  1.00 35.49     0.116 C 
BRANCH   4   5
ATOM      5  NE  ARG D 557     -24.913  -0.446 -15.007  1.00 35.49    -0.212 N 
ATOM      6  CZ  ARG D 557     -24.103  -1.421 -14.661  1.00 35.49     0.666 C 
ATOM      7  NH1 ARG D 557     -23.034  -1.739 -15.367  1.00 35.49    -0.235 N 
ATOM      8  NH2 ARG D 557     -24.386  -2.079 -13.574  1.00 35.49    -0.235 N 
ATOM      9  HH  ARG D 557     -22.828  -1.318 -16.084  1.00 35.49     0.174 HD
ATOM     10  HH  ARG D 557     -22.541  -2.383 -15.091  1.00 35.49     0.174 HD
ATOM     11  HH  ARG D 557     -25.079  -1.848 -13.135  1.00 35.49     0.174 HD
ATOM     12  HH  ARG D 557     -23.884  -2.713 -13.317  1.00 35.49     0.174 HD
ATOM     13  HE  ARG D 557     -25.616  -0.358 -14.535  1.00 35.49     0.178 HD
ENDBRANCH   4   5
ENDBRANCH   3   4
ENDBRANCH   2   3
ENDBRANCH   1   2
END_RES ARG D 557
BEGIN_RES GLU D 570
REMARK  3 active torsions:
REMARK  status: ('A' for Active; 'I' for Inactive)
REMARK    5  A    between atoms: CA   and  CB  
REMARK    6  A    between atoms: CB   and  CG  
REMARK    7  A    between atoms: CG   and  CD  
ROOT
ATOM     14  CA  GLU D 570     -18.033  -6.348 -13.375  1.00 32.92     0.160 C 
ENDROOT
BRANCH  14  15
ATOM     15  CB  GLU D 570     -19.500  -6.345 -13.794  1.00 32.92     0.043 C 
BRANCH  15  16
ATOM     16  CG  GLU D 570     -20.441  -5.529 -12.985  1.00 32.92     0.100 C 
BRANCH  16  17
ATOM     17  CD  GLU D 570     -21.722  -5.206 -13.718  1.00 32.92     0.185 C 
ATOM     18  OE1 GLU D 570     -22.139  -5.997 -14.586  1.00 32.92    -0.647 OA
ATOM     19  OE2 GLU D 570     -22.306  -4.142 -13.434  1.00 32.92    -0.647 OA
ENDBRANCH  16  17
ENDBRANCH  15  16
ENDBRANCH  14  15
END_RES GLU D 570
ENDMDL
MODEL 7
REMARK VINA RESULT:      -4.5      2.028      2.864
REMARK  18 active torsions:
REMARK  status: ('A' for Active; 'I' for Inactive)
REMARK       I    between atoms: C_2  and  N_4 
REMARK    1  A    between atoms: N_4  and  C_5 
REMARK    2  A    between atoms: C_6  and  O_37 
REMARK    3  A    between atoms: C_7  and  O_25 
REMARK    4  A    between atoms: C_8  and  C_23 
REMARK    5  A    between atoms: C_10  and  O_11 
REMARK    6  A    between atoms: O_11  and  C_12 
REMARK    7  A    between atoms: C_13  and  C_21 
REMARK    8  A    between atoms: C_15  and  O_20 
REMARK    9  A    between atoms: C_16  and  N_19 
REMARK   10  A    between atoms: C_17  and  O_18 
REMARK   11  A    between atoms: C_21  and  O_22 
REMARK   12  A    between atoms: C_23  and  O_24 
REMARK   13  A    between atoms: O_25  and  C_26 
REMARK   14  A    between atoms: C_27  and  N_36 
REMARK   15  A    between atoms: C_28  and  O_35 
REMARK   16  A    between atoms: C_29  and  O_34 
REMARK   17  A    between atoms: C_30  and  C_32 
REMARK   18  A    between atoms: C_32  and  O_33 
ROOT
HETATM    1  C   UNL     1     -18.989 -12.166  -4.477  1.00  0.00     0.170 C 
HETATM    2  C   UNL     1     -18.817 -10.773  -5.128  1.00  0.00     0.177 C 
HETATM    3  C   UNL     1     -18.475  -9.766  -4.025  1.00  0.00     0.186 C 
HETATM    4  C   UNL     1     -17.172 -10.321  -3.328  1.00  0.00     0.180 C 
HETATM    5  O   UNL     1     -17.028 -11.760  -3.104  1.00  0.00    -0.349 OA
HETATM    6  C   UNL     1     -17.589 -12.708  -4.037  1.00  0.00     0.286 C 
ENDROOT
BRANCH   3   7
HETATM    7  O   UNL     1     -19.736  -9.551  -3.307  1.00  0.00    -0.348 OA
BRANCH   7   8
HETATM    8  C   UNL     1     -19.740  -9.294  -1.884  1.00  0.00     0.296 C 
HETATM    9  C   UNL     1     -20.548 -10.357  -1.005  1.00  0.00     0.303 C 
HETATM   10  C   UNL     1     -22.027  -9.988  -0.712  1.00  0.00     0.187 C 
HETATM   11  C   UNL     1     -22.204  -8.517  -0.333  1.00  0.00     0.180 C 
HETATM   12  C   UNL     1     -21.370  -7.548  -1.190  1.00  0.00     0.179 C 
HETATM   13  O   UNL     1     -20.034  -7.951  -1.520  1.00  0.00    -0.349 OA
BRANCH   9  14
HETATM   14  N   UNL     1     -20.460 -11.766  -1.466  1.00  0.00     0.090 N 
HETATM   15  H   UNL     1     -20.932 -12.340  -0.765  1.00  0.00     0.313 HD
HETATM   16  H   UNL     1     -19.483 -12.069  -1.376  1.00  0.00     0.313 HD
ENDBRANCH   9  14
BRANCH  10  17
HETATM   17  O   UNL     1     -22.853 -10.394  -1.808  1.00  0.00    -0.391 OA
HETATM   18  H   UNL     1     -23.130  -9.597  -2.299  1.00  0.00     0.210 HD
ENDBRANCH  10  17
BRANCH  11  19
HETATM   19  O   UNL     1     -21.904  -8.325   1.061  1.00  0.00    -0.390 OA
HETATM   20  H   UNL     1     -20.948  -8.404   1.212  1.00  0.00     0.210 HD
ENDBRANCH  11  19
BRANCH  12  21
HETATM   21  C   UNL     1     -22.151  -7.039  -2.410  1.00  0.00     0.198 C 
BRANCH  21  22
HETATM   22  O   UNL     1     -22.651  -5.721  -2.250  1.00  0.00    -0.398 OA
HETATM   23  H   UNL     1     -21.980  -5.100  -2.585  1.00  0.00     0.209 HD
ENDBRANCH  21  22
ENDBRANCH  12  21
ENDBRANCH   7   8
ENDBRANCH   3   7
BRANCH   2  24
HETATM   24  O   UNL     1     -17.854 -10.762  -6.181  1.00  0.00    -0.391 OA
HETATM   25  H   UNL     1     -18.294 -10.424  -6.988  1.00  0.00     0.210 HD
ENDBRANCH   2  24
BRANCH   4  26
HETATM   26  C   UNL     1     -15.920  -9.899  -4.147  1.00  0.00     0.198 C 
BRANCH  26  27
HETATM   27  O   UNL     1     -15.123 -11.019  -4.536  1.00  0.00    -0.398 OA
HETATM   28  H   UNL     1     -14.983 -10.969  -5.498  1.00  0.00     0.209 HD
ENDBRANCH  26  27
ENDBRANCH   4  26
BRANCH   1  29
HETATM   29  N   UNL     1     -19.775 -13.045  -5.332  1.00  0.00    -0.349 N 
HETATM   30  C   UNL     1     -21.143 -13.024  -5.491  1.00  0.00     0.214 C 
HETATM   31  C   UNL     1     -21.984 -12.022  -4.739  1.00  0.00     0.117 C 
HETATM   32  O   UNL     1     -21.644 -13.814  -6.278  1.00  0.00    -0.274 OA
HETATM   33  H   UNL     1     -19.305 -13.753  -5.892  1.00  0.00     0.163 HD
ENDBRANCH   1  29
BRANCH   6  34
HETATM   34  O   UNL     1     -16.781 -13.092  -5.198  1.00  0.00    -0.348 OA
BRANCH  34  35
HETATM   35  C   UNL     1     -15.969 -14.316  -5.130  1.00  0.00     0.186 C 
HETATM   36  C   UNL     1     -14.560 -14.257  -5.792  1.00  0.00     0.179 C 
HETATM   37  O   UNL     1     -13.524 -13.660  -4.989  1.00  0.00    -0.349 OA
HETATM   38  C   UNL     1     -13.309 -14.187  -3.689  1.00  0.00     0.292 C 
HETATM   39  C   UNL     1     -14.610 -14.227  -2.849  1.00  0.00     0.303 C 
HETATM   40  C   UNL     1     -15.838 -14.779  -3.634  1.00  0.00     0.187 C 
BRANCH  36  41
HETATM   41  C   UNL     1     -14.143 -15.629  -6.372  1.00  0.00     0.198 C 
BRANCH  41  42
HETATM   42  O   UNL     1     -12.760 -15.618  -6.731  1.00  0.00    -0.398 OA
HETATM   43  H   UNL     1     -12.361 -16.377  -6.266  1.00  0.00     0.209 HD
ENDBRANCH  41  42
ENDBRANCH  36  41
BRANCH  38  44
HETATM   44  O   UNL     1     -12.594 -15.415  -3.747  1.00  0.00    -0.369 OA
HETATM   45  H   UNL     1     -12.932 -15.884  -4.534  1.00  0.00     0.212 HD
ENDBRANCH  38  44
BRANCH  39  46
HETATM   46  N   UNL     1     -14.395 -14.892  -1.530  1.00  0.00     0.090 N 
HETATM   47  H   UNL     1     -13.495 -14.553  -1.170  1.00  0.00     0.313 HD
HETATM   48  H   UNL     1     -14.257 -15.893  -1.665  1.00  0.00     0.313 HD
ENDBRANCH  39  46
BRANCH  40  49
HETATM   49  O   UNL     1     -15.829 -16.216  -3.566  1.00  0.00    -0.391 OA
HETATM   50  H   UNL     1     -14.973 -16.518  -3.920  1.00  0.00     0.210 HD
ENDBRANCH  40  49
ENDBRANCH  34  35
ENDBRANCH   6  34
TORSDOF 18
BEGIN_RES ARG D 557
REMARK  4 active torsions:
REMARK  status: ('A' for Active; 'I' for Inactive)
REMARK    1  A    between atoms: CA   and  CB  
REMARK    2  A    between atoms: CB   and  CG  
REMARK    3  A    between atoms: CG   and  CD  
REMARK    4  A    between atoms: CD   and  NE  
REMARK       I    between atoms: NE   and  CZ  
REMARK       I    between atoms: CZ   and  NH1 
REMARK       I    between atoms: CZ   and  NH2 
ROOT
ATOM      1  CA  ARG D 557     -26.217   2.705 -17.014  1.00 35.49     0.159 C 
ENDROOT
BRANCH   1   2
ATOM      2  CB  ARG D 557     -26.789   1.319 -17.183  1.00 35.49     0.034 C 
BRANCH   2   3
ATOM      3  CG  ARG D 557     -25.866   0.195 -16.987  1.00 35.49     0.027 C 
BRANCH   3   4
ATOM      4  CD  ARG D 557     -26.277  -0.685 -15.870  1.00 35.49     0.116 C 
BRANCH   4   5
ATOM      5  NE  ARG D 557     -25.206  -0.912 -14.935  1.00 35.49    -0.212 N 
ATOM      6  CZ  ARG D 557     -24.907  -2.061 -14.373  1.00 35.49     0.666 C 
ATOM      7  NH1 ARG D 557     -25.594  -3.165 -14.607  1.00 35.49    -0.235 N 
ATOM      8  NH2 ARG D 557     -23.887  -2.088 -13.565  1.00 35.49    -0.235 N 
ATOM      9  HH  ARG D 557     -26.267  -3.171 -15.136  1.00 35.49     0.174 HD
ATOM     10  HH  ARG D 557     -25.351  -3.886 -14.213  1.00 35.49     0.174 HD
ATOM     11  HH  ARG D 557     -23.458  -1.362 -13.439  1.00 35.49     0.174 HD
ATOM     12  HH  ARG D 557     -23.662  -2.812 -13.186  1.00 35.49     0.174 HD
ATOM     13  HE  ARG D 557     -24.757  -0.239 -14.672  1.00 35.49     0.178 HD
ENDBRANCH   4   5
ENDBRANCH   3   4
ENDBRANCH   2   3
ENDBRANCH   1   2
END_RES ARG D 557
BEGIN_RES GLU D 570
REMARK  3 active torsions:
REMARK  status: ('A' for Active; 'I' for Inactive)
REMARK    5  A    between atoms: CA   and  CB  
REMARK    6  A    between atoms: CB   and  CG  
REMARK    7  A    between atoms: CG   and  CD  
ROOT
ATOM     14  CA  GLU D 570     -18.033  -6.348 -13.375  1.00 32.92     0.160 C 
ENDROOT
BRANCH  14  15
ATOM     15  CB  GLU D 570     -19.500  -6.345 -13.794  1.00 32.92     0.043 C 
BRANCH  15  16
ATOM     16  CG  GLU D 570     -20.442  -5.533 -12.982  1.00 32.92     0.100 C 
BRANCH  16  17
ATOM     17  CD  GLU D 570     -21.686  -5.136 -13.743  1.00 32.92     0.185 C 
ATOM     18  OE1 GLU D 570     -21.615  -4.978 -14.977  1.00 32.92    -0.647 OA
ATOM     19  OE2 GLU D 570     -22.738  -4.965 -13.096  1.00 32.92    -0.647 OA
ENDBRANCH  16  17
ENDBRANCH  15  16
ENDBRANCH  14  15
END_RES GLU D 570
ENDMDL
MODEL 8
REMARK VINA RESULT:      -4.4      1.548      1.873
REMARK  18 active torsions:
REMARK  status: ('A' for Active; 'I' for Inactive)
REMARK       I    between atoms: C_2  and  N_4 
REMARK    1  A    between atoms: N_4  and  C_5 
REMARK    2  A    between atoms: C_6  and  O_37 
REMARK    3  A    between atoms: C_7  and  O_25 
REMARK    4  A    between atoms: C_8  and  C_23 
REMARK    5  A    between atoms: C_10  and  O_11 
REMARK    6  A    between atoms: O_11  and  C_12 
REMARK    7  A    between atoms: C_13  and  C_21 
REMARK    8  A    between atoms: C_15  and  O_20 
REMARK    9  A    between atoms: C_16  and  N_19 
REMARK   10  A    between atoms: C_17  and  O_18 
REMARK   11  A    between atoms: C_21  and  O_22 
REMARK   12  A    between atoms: C_23  and  O_24 
REMARK   13  A    between atoms: O_25  and  C_26 
REMARK   14  A    between atoms: C_27  and  N_36 
REMARK   15  A    between atoms: C_28  and  O_35 
REMARK   16  A    between atoms: C_29  and  O_34 
REMARK   17  A    between atoms: C_30  and  C_32 
REMARK   18  A    between atoms: C_32  and  O_33 
ROOT
HETATM    1  C   UNL     1     -18.774 -12.105  -3.143  1.00  0.00     0.170 C 
HETATM    2  C   UNL     1     -18.557 -11.017  -2.065  1.00  0.00     0.177 C 
HETATM    3  C   UNL     1     -18.785 -11.652  -0.690  1.00  0.00     0.186 C 
HETATM    4  C   UNL     1     -17.775 -12.862  -0.604  1.00  0.00     0.180 C 
HETATM    5  O   UNL     1     -17.537 -13.692  -1.786  1.00  0.00    -0.349 OA
HETATM    6  C   UNL     1     -17.581 -13.115  -3.109  1.00  0.00     0.286 C 
ENDROOT
BRANCH   3   7
HETATM    7  O   UNL     1     -20.239 -11.817  -0.587  1.00  0.00    -0.348 OA
BRANCH   7   8
HETATM    8  C   UNL     1     -21.001 -11.060   0.381  1.00  0.00     0.296 C 
HETATM    9  C   UNL     1     -22.575 -11.338   0.374  1.00  0.00     0.303 C 
HETATM   10  C   UNL     1     -23.415 -10.373  -0.505  1.00  0.00     0.187 C 
HETATM   11  C   UNL     1     -22.982  -8.913  -0.358  1.00  0.00     0.180 C 
HETATM   12  C   UNL     1     -21.457  -8.717  -0.317  1.00  0.00     0.179 C 
HETATM   13  O   UNL     1     -20.694  -9.673   0.432  1.00  0.00    -0.349 OA
BRANCH   9  14
HETATM   14  N   UNL     1     -22.975 -12.743   0.106  1.00  0.00     0.090 N 
HETATM   15  H   UNL     1     -23.344 -13.121   0.980  1.00  0.00     0.313 HD
HETATM   16  H   UNL     1     -22.120 -13.297  -0.030  1.00  0.00     0.313 HD
ENDBRANCH   9  14
BRANCH  10  17
HETATM   17  O   UNL     1     -23.414 -10.830  -1.862  1.00  0.00    -0.391 OA
HETATM   18  H   UNL     1     -23.051 -10.121  -2.427  1.00  0.00     0.210 HD
ENDBRANCH  10  17
BRANCH  11  19
HETATM   19  O   UNL     1     -23.585  -8.334   0.813  1.00  0.00    -0.390 OA
HETATM   20  H   UNL     1     -22.909  -7.895   1.355  1.00  0.00     0.210 HD
ENDBRANCH  11  19
BRANCH  12  21
HETATM   21  C   UNL     1     -20.871  -8.459  -1.712  1.00  0.00     0.198 C 
BRANCH  21  22
HETATM   22  O   UNL     1     -21.572  -9.127  -2.751  1.00  0.00    -0.398 OA
HETATM   23  H   UNL     1     -21.838 -10.003  -2.421  1.00  0.00     0.209 HD
ENDBRANCH  21  22
ENDBRANCH  12  21
ENDBRANCH   7   8
ENDBRANCH   3   7
BRANCH   2  24
HETATM   24  O   UNL     1     -17.281 -10.383  -2.157  1.00  0.00    -0.391 OA
HETATM   25  H   UNL     1     -17.429  -9.431  -2.332  1.00  0.00     0.210 HD
ENDBRANCH   2  24
BRANCH   4  26
HETATM   26  C   UNL     1     -16.375 -12.345  -0.169  1.00  0.00     0.198 C 
BRANCH  26  27
HETATM   27  O   UNL     1     -15.347 -12.721  -1.088  1.00  0.00    -0.398 OA
HETATM   28  H   UNL     1     -15.137 -11.945  -1.638  1.00  0.00     0.209 HD
ENDBRANCH  26  27
ENDBRANCH   4  26
BRANCH   1  29
HETATM   29  N   UNL     1     -19.063 -11.501  -4.438  1.00  0.00    -0.349 N 
HETATM   30  C   UNL     1     -20.266 -11.533  -5.107  1.00  0.00     0.214 C 
HETATM   31  C   UNL     1     -21.454 -12.245  -4.508  1.00  0.00     0.117 C 
HETATM   32  O   UNL     1     -20.349 -10.943  -6.174  1.00  0.00    -0.274 OA
HETATM   33  H   UNL     1     -18.332 -10.986  -4.926  1.00  0.00     0.163 HD
ENDBRANCH   1  29
BRANCH   6  34
HETATM   34  O   UNL     1     -16.356 -12.507  -3.636  1.00  0.00    -0.348 OA
BRANCH  34  35
HETATM   35  C   UNL     1     -15.831 -12.963  -4.931  1.00  0.00     0.186 C 
HETATM   36  C   UNL     1     -14.311 -12.738  -5.188  1.00  0.00     0.179 C 
HETATM   37  O   UNL     1     -13.434 -13.726  -4.613  1.00  0.00    -0.349 OA
HETATM   38  C   UNL     1     -13.674 -15.088  -4.931  1.00  0.00     0.292 C 
HETATM   39  C   UNL     1     -15.136 -15.510  -4.640  1.00  0.00     0.303 C 
HETATM   40  C   UNL     1     -16.191 -14.477  -5.141  1.00  0.00     0.187 C 
BRANCH  36  41
HETATM   41  C   UNL     1     -14.016 -12.483  -6.685  1.00  0.00     0.198 C 
BRANCH  41  42
HETATM   42  O   UNL     1     -12.633 -12.710  -6.965  1.00  0.00    -0.398 OA
HETATM   43  H   UNL     1     -12.613 -13.405  -7.648  1.00  0.00     0.209 HD
ENDBRANCH  41  42
ENDBRANCH  36  41
BRANCH  38  44
HETATM   44  O   UNL     1     -13.210 -15.396  -6.240  1.00  0.00    -0.369 OA
HETATM   45  H   UNL     1     -12.235 -15.381  -6.188  1.00  0.00     0.212 HD
ENDBRANCH  38  44
BRANCH  39  46
HETATM   46  N   UNL     1     -15.407 -16.907  -5.090  1.00  0.00     0.090 N 
HETATM   47  H   UNL     1     -14.971 -17.531  -4.400  1.00  0.00     0.313 HD
HETATM   48  H   UNL     1     -14.906 -17.095  -5.958  1.00  0.00     0.313 HD
ENDBRANCH  39  46
BRANCH  40  49
HETATM   49  O   UNL     1     -16.466 -14.727  -6.531  1.00  0.00    -0.391 OA
HETATM   50  H   UNL     1     -16.795 -13.894  -6.916  1.00  0.00     0.210 HD
ENDBRANCH  40  49
ENDBRANCH  34  35
ENDBRANCH   6  34
TORSDOF 18
BEGIN_RES ARG D 557
REMARK  4 active torsions:
REMARK  status: ('A' for Active; 'I' for Inactive)
REMARK    1  A    between atoms: CA   and  CB  
REMARK    2  A    between atoms: CB   and  CG  
REMARK    3  A    between atoms: CG   and  CD  
REMARK    4  A    between atoms: CD   and  NE  
REMARK       I    between atoms: NE   and  CZ  
REMARK       I    between atoms: CZ   and  NH1 
REMARK       I    between atoms: CZ   and  NH2 
ROOT
ATOM      1  CA  ARG D 557     -26.217   2.705 -17.014  1.00 35.49     0.159 C 
ENDROOT
BRANCH   1   2
ATOM      2  CB  ARG D 557     -26.789   1.319 -17.183  1.00 35.49     0.034 C 
BRANCH   2   3
ATOM      3  CG  ARG D 557     -28.249   1.191 -17.093  1.00 35.49     0.027 C 
BRANCH   3   4
ATOM      4  CD  ARG D 557     -28.669  -0.142 -16.606  1.00 35.49     0.116 C 
BRANCH   4   5
ATOM      5  NE  ARG D 557     -27.607  -0.829 -15.919  1.00 35.49    -0.212 N 
ATOM      6  CZ  ARG D 557     -27.338  -2.112 -16.008  1.00 35.49     0.666 C 
ATOM      7  NH1 ARG D 557     -28.052  -2.936 -16.753  1.00 35.49    -0.235 N 
ATOM      8  NH2 ARG D 557     -26.322  -2.561 -15.330  1.00 35.49    -0.235 N 
ATOM      9  HH  ARG D 557     -28.723  -2.662 -17.209  1.00 35.49     0.174 HD
ATOM     10  HH  ARG D 557     -27.828  -3.763 -16.774  1.00 35.49     0.174 HD
ATOM     11  HH  ARG D 557     -25.875  -2.004 -14.863  1.00 35.49     0.174 HD
ATOM     12  HH  ARG D 557     -26.115  -3.383 -15.365  1.00 35.49     0.174 HD
ATOM     13  HE  ARG D 557     -27.142  -0.387 -15.360  1.00 35.49     0.178 HD
ENDBRANCH   4   5
ENDBRANCH   3   4
ENDBRANCH   2   3
ENDBRANCH   1   2
END_RES ARG D 557
BEGIN_RES GLU D 570
REMARK  3 active torsions:
REMARK  status: ('A' for Active; 'I' for Inactive)
REMARK    5  A    between atoms: CA   and  CB  
REMARK    6  A    between atoms: CB   and  CG  
REMARK    7  A    between atoms: CG   and  CD  
ROOT
ATOM     14  CA  GLU D 570     -18.033  -6.348 -13.375  1.00 32.92     0.160 C 
ENDROOT
BRANCH  14  15
ATOM     15  CB  GLU D 570     -19.500  -6.345 -13.794  1.00 32.92     0.043 C 
BRANCH  15  16
ATOM     16  CG  GLU D 570     -19.798  -6.211 -15.243  1.00 32.92     0.100 C 
BRANCH  16  17
ATOM     17  CD  GLU D 570     -21.048  -5.408 -15.517  1.00 32.92     0.185 C 
ATOM     18  OE1 GLU D 570     -21.358  -5.153 -16.696  1.00 32.92    -0.647 OA
ATOM     19  OE2 GLU D 570     -21.716  -5.016 -14.540  1.00 32.92    -0.647 OA
ENDBRANCH  16  17
ENDBRANCH  15  16
ENDBRANCH  14  15
END_RES GLU D 570
ENDMDL
MODEL 9
REMARK VINA RESULT:      -4.3      3.738      6.147
REMARK  18 active torsions:
REMARK  status: ('A' for Active; 'I' for Inactive)
REMARK       I    between atoms: C_2  and  N_4 
REMARK    1  A    between atoms: N_4  and  C_5 
REMARK    2  A    between atoms: C_6  and  O_37 
REMARK    3  A    between atoms: C_7  and  O_25 
REMARK    4  A    between atoms: C_8  and  C_23 
REMARK    5  A    between atoms: C_10  and  O_11 
REMARK    6  A    between atoms: O_11  and  C_12 
REMARK    7  A    between atoms: C_13  and  C_21 
REMARK    8  A    between atoms: C_15  and  O_20 
REMARK    9  A    between atoms: C_16  and  N_19 
REMARK   10  A    between atoms: C_17  and  O_18 
REMARK   11  A    between atoms: C_21  and  O_22 
REMARK   12  A    between atoms: C_23  and  O_24 
REMARK   13  A    between atoms: O_25  and  C_26 
REMARK   14  A    between atoms: C_27  and  N_36 
REMARK   15  A    between atoms: C_28  and  O_35 
REMARK   16  A    between atoms: C_29  and  O_34 
REMARK   17  A    between atoms: C_30  and  C_32 
REMARK   18  A    between atoms: C_32  and  O_33 
ROOT
HETATM    1  C   UNL     1     -22.500 -13.032  -1.925  1.00  0.00     0.170 C 
HETATM    2  C   UNL     1     -23.683 -12.381  -1.169  1.00  0.00     0.177 C 
HETATM    3  C   UNL     1     -23.305 -12.273   0.312  1.00  0.00     0.186 C 
HETATM    4  C   UNL     1     -21.968 -11.434   0.352  1.00  0.00     0.180 C 
HETATM    5  O   UNL     1     -20.945 -11.653  -0.672  1.00  0.00    -0.349 OA
HETATM    6  C   UNL     1     -21.319 -12.011  -2.019  1.00  0.00     0.286 C 
ENDROOT
BRANCH   3   7
HETATM    7  O   UNL     1     -23.405 -13.643   0.827  1.00  0.00    -0.348 OA
BRANCH   7   8
HETATM    8  C   UNL     1     -22.762 -14.014   2.068  1.00  0.00     0.296 C 
HETATM    9  C   UNL     1     -21.464 -14.932   1.913  1.00  0.00     0.303 C 
HETATM   10  C   UNL     1     -21.717 -16.461   2.005  1.00  0.00     0.187 C 
HETATM   11  C   UNL     1     -22.682 -16.831   3.133  1.00  0.00     0.180 C 
HETATM   12  C   UNL     1     -23.889 -15.886   3.255  1.00  0.00     0.179 C 
HETATM   13  O   UNL     1     -23.643 -14.484   3.080  1.00  0.00    -0.349 OA
BRANCH   9  14
HETATM   14  N   UNL     1     -20.605 -14.633   0.738  1.00  0.00     0.090 N 
HETATM   15  H   UNL     1     -20.809 -13.673   0.455  1.00  0.00     0.313 HD
HETATM   16  H   UNL     1     -20.956 -15.177  -0.059  1.00  0.00     0.313 HD
ENDBRANCH   9  14
BRANCH  10  17
HETATM   17  O   UNL     1     -22.121 -16.962   0.726  1.00  0.00    -0.391 OA
HETATM   18  H   UNL     1     -21.663 -17.810   0.568  1.00  0.00     0.210 HD
ENDBRANCH  10  17
BRANCH  11  19
HETATM   19  O   UNL     1     -21.977 -16.896   4.386  1.00  0.00    -0.390 OA
HETATM   20  H   UNL     1     -21.070 -17.214   4.243  1.00  0.00     0.210 HD
ENDBRANCH  11  19
BRANCH  12  21
HETATM   21  C   UNL     1     -25.093 -16.380   2.440  1.00  0.00     0.198 C 
BRANCH  21  22
HETATM   22  O   UNL     1     -24.956 -16.163   1.044  1.00  0.00    -0.398 OA
HETATM   23  H   UNL     1     -24.266 -16.764   0.711  1.00  0.00     0.209 HD
ENDBRANCH  21  22
ENDBRANCH  12  21
ENDBRANCH   7   8
ENDBRANCH   3   7
BRANCH   2  24
HETATM   24  O   UNL     1     -24.072 -11.121  -1.716  1.00  0.00    -0.391 OA
HETATM   25  H   UNL     1     -24.595 -10.647  -1.037  1.00  0.00     0.210 HD
ENDBRANCH   2  24
BRANCH   4  26
HETATM   26  C   UNL     1     -22.300  -9.917   0.293  1.00  0.00     0.198 C 
BRANCH  26  27
HETATM   27  O   UNL     1     -21.136  -9.100   0.440  1.00  0.00    -0.398 OA
HETATM   28  H   UNL     1     -21.425  -8.172   0.494  1.00  0.00     0.209 HD
ENDBRANCH  26  27
ENDBRANCH   4  26
BRANCH   1  29
HETATM   29  N   UNL     1     -22.947 -13.611  -3.185  1.00  0.00    -0.349 N 
HETATM   30  C   UNL     1     -23.449 -14.880  -3.372  1.00  0.00     0.214 C 
HETATM   31  C   UNL     1     -23.582 -15.827  -2.206  1.00  0.00     0.117 C 
HETATM   32  O   UNL     1     -23.812 -15.197  -4.496  1.00  0.00    -0.274 OA
HETATM   33  H   UNL     1     -22.910 -13.052  -4.036  1.00  0.00     0.163 HD
ENDBRANCH   1  29
BRANCH   6  34
HETATM   34  O   UNL     1     -21.629 -10.929  -2.958  1.00  0.00    -0.348 OA
BRANCH  34  35
HETATM   35  C   UNL     1     -20.637  -9.865  -3.174  1.00  0.00     0.186 C 
HETATM   36  C   UNL     1     -19.932  -9.838  -4.563  1.00  0.00     0.179 C 
HETATM   37  O   UNL     1     -20.675  -9.204  -5.622  1.00  0.00    -0.349 OA
HETATM   38  C   UNL     1     -21.134  -7.879  -5.406  1.00  0.00     0.292 C 
HETATM   39  C   UNL     1     -21.950  -7.747  -4.095  1.00  0.00     0.303 C 
HETATM   40  C   UNL     1     -21.292  -8.468  -2.879  1.00  0.00     0.187 C 
BRANCH  36  41
HETATM   41  C   UNL     1     -18.482  -9.308  -4.457  1.00  0.00     0.198 C 
BRANCH  41  42
HETATM   42  O   UNL     1     -18.043  -9.327  -3.097  1.00  0.00    -0.398 OA
HETATM   43  H   UNL     1     -18.628  -8.708  -2.623  1.00  0.00     0.209 HD
ENDBRANCH  41  42
ENDBRANCH  36  41
BRANCH  38  44
HETATM   44  O   UNL     1     -20.075  -6.941  -5.549  1.00  0.00    -0.369 OA
HETATM   45  H   UNL     1     -19.684  -7.111  -6.427  1.00  0.00     0.212 HD
ENDBRANCH  38  44
BRANCH  39  46
HETATM   46  N   UNL     1     -22.325  -6.329  -3.819  1.00  0.00     0.090 N 
HETATM   47  H   UNL     1     -21.793  -5.748  -4.478  1.00  0.00     0.313 HD
HETATM   48  H   UNL     1     -21.982  -6.053  -2.899  1.00  0.00     0.313 HD
ENDBRANCH  39  46
BRANCH  40  49
HETATM   49  O   UNL     1     -20.321  -7.588  -2.285  1.00  0.00    -0.391 OA
HETATM   50  H   UNL     1     -19.461  -7.781  -2.700  1.00  0.00     0.210 HD
ENDBRANCH  40  49
ENDBRANCH  34  35
ENDBRANCH   6  34
TORSDOF 18
BEGIN_RES ARG D 557
REMARK  4 active torsions:
REMARK  status: ('A' for Active; 'I' for Inactive)
REMARK    1  A    between atoms: CA   and  CB  
REMARK    2  A    between atoms: CB   and  CG  
REMARK    3  A    between atoms: CG   and  CD  
REMARK    4  A    between atoms: CD   and  NE  
REMARK       I    between atoms: NE   and  CZ  
REMARK       I    between atoms: CZ   and  NH1 
REMARK       I    between atoms: CZ   and  NH2 
ROOT
ATOM      1  CA  ARG D 557     -26.217   2.705 -17.014  1.00 35.49     0.159 C 
ENDROOT
BRANCH   1   2
ATOM      2  CB  ARG D 557     -26.789   1.319 -17.183  1.00 35.49     0.034 C 
BRANCH   2   3
ATOM      3  CG  ARG D 557     -25.905   0.195 -16.853  1.00 35.49     0.027 C 
BRANCH   3   4
ATOM      4  CD  ARG D 557     -26.606  -0.873 -16.104  1.00 35.49     0.116 C 
BRANCH   4   5
ATOM      5  NE  ARG D 557     -25.808  -1.392 -15.024  1.00 35.49    -0.212 N 
ATOM      6  CZ  ARG D 557     -25.748  -2.650 -14.649  1.00 35.49     0.666 C 
ATOM      7  NH1 ARG D 557     -26.451  -3.600 -15.237  1.00 35.49    -0.235 N 
ATOM      8  NH2 ARG D 557     -24.952  -2.944 -13.661  1.00 35.49    -0.235 N 
ATOM      9  HH  ARG D 557     -26.979  -3.429 -15.890  1.00 35.49     0.174 HD
ATOM     10  HH  ARG D 557     -26.369  -4.403 -14.950  1.00 35.49     0.174 HD
ATOM     11  HH  ARG D 557     -24.505  -2.311 -13.306  1.00 35.49     0.174 HD
ATOM     12  HH  ARG D 557     -24.884  -3.746 -13.393  1.00 35.49     0.174 HD
ATOM     13  HE  ARG D 557     -25.377  -0.837 -14.544  1.00 35.49     0.178 HD
ENDBRANCH   4   5
ENDBRANCH   3   4
ENDBRANCH   2   3
ENDBRANCH   1   2
END_RES ARG D 557
BEGIN_RES GLU D 570
REMARK  3 active torsions:
REMARK  status: ('A' for Active; 'I' for Inactive)
REMARK    5  A    between atoms: CA   and  CB  
REMARK    6  A    between atoms: CB   and  CG  
REMARK    7  A    between atoms: CG   and  CD  
ROOT
ATOM     14  CA  GLU D 570     -18.033  -6.348 -13.375  1.00 32.92     0.160 C 
ENDROOT
BRANCH  14  15
ATOM     15  CB  GLU D 570     -19.500  -6.345 -13.794  1.00 32.92     0.043 C 
BRANCH  15  16
ATOM     16  CG  GLU D 570     -20.448  -5.558 -12.963  1.00 32.92     0.100 C 
BRANCH  16  17
ATOM     17  CD  GLU D 570     -21.710  -5.183 -13.704  1.00 32.92     0.185 C 
ATOM     18  OE1 GLU D 570     -22.759  -5.000 -13.058  1.00 32.92    -0.647 OA
ATOM     19  OE2 GLU D 570     -21.653  -5.089 -14.946  1.00 32.92    -0.647 OA
ENDBRANCH  16  17
ENDBRANCH  15  16
ENDBRANCH  14  15
END_RES GLU D 570
ENDMDL
