MODEL 1
REMARK VINA RESULT:      -9.4      0.000      0.000
REMARK  8 active torsions:
REMARK  status: ('A' for Active; 'I' for Inactive)
REMARK    1  A    between atoms: C_2  and  C_3 
REMARK    2  A    between atoms: C_3  and  O_5 
REMARK    3  A    between atoms: O_5  and  C_6 
REMARK    4  A    between atoms: C_6  and  C_7 
REMARK    5  A    between atoms: C_8  and  C_10 
REMARK    6  A    between atoms: C_11  and  C_12 
REMARK    7  A    between atoms: C_13  and  C_15 
REMARK    8  A    between atoms: C_16  and  C_17 
ROOT
HETATM    1  C   UNL     1     -22.173  -5.112  -6.500  1.00  0.00     0.007 C 
HETATM    2  C   UNL     1     -21.342  -5.984  -5.877  1.00  0.00    -0.062 C 
HETATM    3  C   UNL     1     -19.986  -6.397  -6.413  1.00  0.00     0.048 C 
ENDROOT
BRANCH   2   4
HETATM    4  C   UNL     1     -21.747  -6.614  -4.608  1.00  0.00     0.007 C 
HETATM    5  C   UNL     1     -20.962  -7.383  -3.827  1.00  0.00     0.009 C 
BRANCH   5   6
HETATM    6  C   UNL     1     -21.385  -8.052  -2.594  1.00  0.00    -0.048 C 
HETATM    7  C   UNL     1     -21.856  -7.352  -1.532  1.00  0.00    -0.077 C 
HETATM    8  C   UNL     1     -22.235  -8.011  -0.222  1.00  0.00     0.034 C 
HETATM    9  C   UNL     1     -22.106  -5.862  -1.512  1.00  0.00     0.044 C 
HETATM   10  C   UNL     1     -21.786  -9.459  -0.095  1.00  0.00     0.005 C 
HETATM   11  C   UNL     1     -22.086 -10.207  -1.382  1.00  0.00     0.014 C 
HETATM   12  C   UNL     1     -21.337  -9.604  -2.604  1.00  0.00    -0.020 C 
HETATM   13  C   UNL     1     -22.014 -10.215  -3.855  1.00  0.00     0.020 C 
HETATM   14  C   UNL     1     -19.867 -10.075  -2.576  1.00  0.00     0.020 C 
ENDBRANCH   5   6
ENDBRANCH   2   4
BRANCH   1  15
HETATM   15  C   UNL     1     -21.885  -4.435  -7.753  1.00  0.00     0.001 C 
HETATM   16  C   UNL     1     -22.056  -4.911  -8.997  1.00  0.00     0.006 C 
BRANCH  16  17
HETATM   17  C   UNL     1     -21.750  -4.139 -10.213  1.00  0.00    -0.064 C 
HETATM   18  C   UNL     1     -22.671  -3.314 -10.752  1.00  0.00     0.006 C 
HETATM   19  C   UNL     1     -20.373  -4.294 -10.818  1.00  0.00     0.048 C 
BRANCH  18  20
HETATM   20  C   UNL     1     -22.485  -2.451 -11.973  1.00  0.00     0.206 C 
BRANCH  20  21
HETATM   21  O   UNL     1     -23.566  -2.642 -12.898  1.00  0.00    -0.318 OA
BRANCH  21  22
HETATM   22  C   UNL     1     -23.188  -2.964 -14.166  1.00  0.00     0.258 C 
HETATM   23  O   UNL     1     -23.406  -2.280 -15.156  1.00  0.00    -0.265 OA
BRANCH  22  24
HETATM   24  C   UNL     1     -22.477  -4.291 -14.164  1.00  0.00     0.106 C 
HETATM   25  C   UNL     1     -23.460  -5.431 -13.956  1.00  0.00     0.015 C 
ENDBRANCH  22  24
ENDBRANCH  21  22
ENDBRANCH  20  21
ENDBRANCH  18  20
ENDBRANCH  16  17
ENDBRANCH   1  15
TORSDOF 8
BEGIN_RES ARG D 557
REMARK  4 active torsions:
REMARK  status: ('A' for Active; 'I' for Inactive)
REMARK    1  A    between atoms: CA   and  CB  
REMARK    2  A    between atoms: CB   and  CG  
REMARK    3  A    between atoms: CG   and  CD  
REMARK    4  A    between atoms: CD   and  NE  
REMARK       I    between atoms: NE   and  CZ  
REMARK       I    between atoms: CZ   and  NH1 
REMARK       I    between atoms: CZ   and  NH2 
ROOT
ATOM      1  CA  ARG D 557     -26.217   2.705 -17.014  1.00 35.49     0.159 C 
ENDROOT
BRANCH   1   2
ATOM      2  CB  ARG D 557     -26.789   1.319 -17.183  1.00 35.49     0.034 C 
BRANCH   2   3
ATOM      3  CG  ARG D 557     -28.215   1.151 -16.879  1.00 35.49     0.027 C 
BRANCH   3   4
ATOM      4  CD  ARG D 557     -28.604  -0.273 -16.762  1.00 35.49     0.116 C 
BRANCH   4   5
ATOM      5  NE  ARG D 557     -27.621  -1.046 -16.050  1.00 35.49    -0.212 N 
ATOM      6  CZ  ARG D 557     -27.465  -2.349 -16.128  1.00 35.49     0.666 C 
ATOM      7  NH1 ARG D 557     -28.233  -3.111 -16.884  1.00 35.49    -0.235 N 
ATOM      8  NH2 ARG D 557     -26.506  -2.882 -15.427  1.00 35.49    -0.235 N 
ATOM      9  HH  ARG D 557     -28.869  -2.782 -17.355  1.00 35.49     0.174 HD
ATOM     10  HH  ARG D 557     -28.083  -3.955 -16.897  1.00 35.49     0.174 HD
ATOM     11  HH  ARG D 557     -26.021  -2.364 -14.953  1.00 35.49     0.174 HD
ATOM     12  HH  ARG D 557     -26.373  -3.719 -15.454  1.00 35.49     0.174 HD
ATOM     13  HE  ARG D 557     -27.130  -0.645 -15.484  1.00 35.49     0.178 HD
ENDBRANCH   4   5
ENDBRANCH   3   4
ENDBRANCH   2   3
ENDBRANCH   1   2
END_RES ARG D 557
BEGIN_RES GLU D 570
REMARK  3 active torsions:
REMARK  status: ('A' for Active; 'I' for Inactive)
REMARK    5  A    between atoms: CA   and  CB  
REMARK    6  A    between atoms: CB   and  CG  
REMARK    7  A    between atoms: CG   and  CD  
ROOT
ATOM     14  CA  GLU D 570     -18.033  -6.348 -13.375  1.00 32.92     0.160 C 
ENDROOT
BRANCH  14  15
ATOM     15  CB  GLU D 570     -19.500  -6.345 -13.794  1.00 32.92     0.043 C 
BRANCH  15  16
ATOM     16  CG  GLU D 570     -20.089  -7.636 -14.234  1.00 32.92     0.100 C 
BRANCH  16  17
ATOM     17  CD  GLU D 570     -20.717  -7.560 -15.606  1.00 32.92     0.185 C 
ATOM     18  OE1 GLU D 570     -21.312  -8.559 -16.056  1.00 32.92    -0.647 OA
ATOM     19  OE2 GLU D 570     -20.598  -6.497 -16.246  1.00 32.92    -0.647 OA
ENDBRANCH  16  17
ENDBRANCH  15  16
ENDBRANCH  14  15
END_RES GLU D 570
ENDMDL
MODEL 2
REMARK VINA RESULT:      -9.2      3.856      8.946
REMARK  8 active torsions:
REMARK  status: ('A' for Active; 'I' for Inactive)
REMARK    1  A    between atoms: C_2  and  C_3 
REMARK    2  A    between atoms: C_3  and  O_5 
REMARK    3  A    between atoms: O_5  and  C_6 
REMARK    4  A    between atoms: C_6  and  C_7 
REMARK    5  A    between atoms: C_8  and  C_10 
REMARK    6  A    between atoms: C_11  and  C_12 
REMARK    7  A    between atoms: C_13  and  C_15 
REMARK    8  A    between atoms: C_16  and  C_17 
ROOT
HETATM    1  C   UNL     1     -21.906  -6.012  -5.704  1.00  0.00     0.007 C 
HETATM    2  C   UNL     1     -21.102  -5.054  -6.226  1.00  0.00    -0.062 C 
HETATM    3  C   UNL     1     -19.816  -4.579  -5.581  1.00  0.00     0.048 C 
ENDROOT
BRANCH   2   4
HETATM    4  C   UNL     1     -21.470  -4.386  -7.487  1.00  0.00     0.007 C 
HETATM    5  C   UNL     1     -21.928  -5.001  -8.597  1.00  0.00     0.009 C 
BRANCH   5   6
HETATM    6  C   UNL     1     -22.240  -4.340  -9.866  1.00  0.00    -0.048 C 
HETATM    7  C   UNL     1     -21.266  -3.986 -10.741  1.00  0.00    -0.077 C 
HETATM    8  C   UNL     1     -21.554  -3.241 -12.028  1.00  0.00     0.034 C 
HETATM    9  C   UNL     1     -19.798  -4.313 -10.590  1.00  0.00     0.044 C 
HETATM   10  C   UNL     1     -22.964  -2.677 -12.124  1.00  0.00     0.005 C 
HETATM   11  C   UNL     1     -23.969  -3.718 -11.663  1.00  0.00     0.014 C 
HETATM   12  C   UNL     1     -23.747  -4.139 -10.183  1.00  0.00    -0.020 C 
HETATM   13  C   UNL     1     -24.577  -5.431  -9.985  1.00  0.00     0.020 C 
HETATM   14  C   UNL     1     -24.329  -3.049  -9.257  1.00  0.00     0.020 C 
ENDBRANCH   5   6
ENDBRANCH   2   4
BRANCH   1  15
HETATM   15  C   UNL     1     -21.651  -6.735  -4.468  1.00  0.00     0.001 C 
HETATM   16  C   UNL     1     -21.865  -6.309  -3.213  1.00  0.00     0.006 C 
BRANCH  16  17
HETATM   17  C   UNL     1     -21.590  -7.124  -2.019  1.00  0.00    -0.064 C 
HETATM   18  C   UNL     1     -22.374  -7.026  -0.925  1.00  0.00     0.006 C 
HETATM   19  C   UNL     1     -20.417  -8.077  -2.071  1.00  0.00     0.048 C 
BRANCH  18  20
HETATM   20  C   UNL     1     -22.223  -7.813   0.350  1.00  0.00     0.206 C 
BRANCH  20  21
HETATM   21  O   UNL     1     -23.156  -8.904   0.387  1.00  0.00    -0.318 OA
BRANCH  21  22
HETATM   22  C   UNL     1     -22.645 -10.111   0.017  1.00  0.00     0.258 C 
HETATM   23  O   UNL     1     -21.548 -10.538   0.350  1.00  0.00    -0.265 OA
BRANCH  22  24
HETATM   24  C   UNL     1     -23.625 -10.828  -0.873  1.00  0.00     0.106 C 
HETATM   25  C   UNL     1     -23.053 -11.016  -2.268  1.00  0.00     0.015 C 
ENDBRANCH  22  24
ENDBRANCH  21  22
ENDBRANCH  20  21
ENDBRANCH  18  20
ENDBRANCH  16  17
ENDBRANCH   1  15
TORSDOF 8
BEGIN_RES ARG D 557
REMARK  4 active torsions:
REMARK  status: ('A' for Active; 'I' for Inactive)
REMARK    1  A    between atoms: CA   and  CB  
REMARK    2  A    between atoms: CB   and  CG  
REMARK    3  A    between atoms: CG   and  CD  
REMARK    4  A    between atoms: CD   and  NE  
REMARK       I    between atoms: NE   and  CZ  
REMARK       I    between atoms: CZ   and  NH1 
REMARK       I    between atoms: CZ   and  NH2 
ROOT
ATOM      1  CA  ARG D 557     -26.217   2.705 -17.014  1.00 35.49     0.159 C 
ENDROOT
BRANCH   1   2
ATOM      2  CB  ARG D 557     -26.789   1.319 -17.183  1.00 35.49     0.034 C 
BRANCH   2   3
ATOM      3  CG  ARG D 557     -28.181   1.122 -16.759  1.00 35.49     0.027 C 
BRANCH   3   4
ATOM      4  CD  ARG D 557     -28.788  -0.087 -17.360  1.00 35.49     0.116 C 
BRANCH   4   5
ATOM      5  NE  ARG D 557     -28.149  -1.296 -16.909  1.00 35.49    -0.212 N 
ATOM      6  CZ  ARG D 557     -28.632  -2.512 -17.032  1.00 35.49     0.666 C 
ATOM      7  NH1 ARG D 557     -29.804  -2.756 -17.589  1.00 35.49    -0.235 N 
ATOM      8  NH2 ARG D 557     -27.905  -3.494 -16.584  1.00 35.49    -0.235 N 
ATOM      9  HH  ARG D 557     -30.298  -2.125 -17.892  1.00 35.49     0.174 HD
ATOM     10  HH  ARG D 557     -30.066  -3.570 -17.643  1.00 35.49     0.174 HD
ATOM     11  HH  ARG D 557     -27.150  -3.307 -16.236  1.00 35.49     0.174 HD
ATOM     12  HH  ARG D 557     -28.182  -4.293 -16.649  1.00 35.49     0.174 HD
ATOM     13  HE  ARG D 557     -27.422  -1.224 -16.473  1.00 35.49     0.178 HD
ENDBRANCH   4   5
ENDBRANCH   3   4
ENDBRANCH   2   3
ENDBRANCH   1   2
END_RES ARG D 557
BEGIN_RES GLU D 570
REMARK  3 active torsions:
REMARK  status: ('A' for Active; 'I' for Inactive)
REMARK    5  A    between atoms: CA   and  CB  
REMARK    6  A    between atoms: CB   and  CG  
REMARK    7  A    between atoms: CG   and  CD  
ROOT
ATOM     14  CA  GLU D 570     -18.033  -6.348 -13.375  1.00 32.92     0.160 C 
ENDROOT
BRANCH  14  15
ATOM     15  CB  GLU D 570     -19.500  -6.345 -13.794  1.00 32.92     0.043 C 
BRANCH  15  16
ATOM     16  CG  GLU D 570     -19.813  -5.937 -15.188  1.00 32.92     0.100 C 
BRANCH  16  17
ATOM     17  CD  GLU D 570     -21.240  -5.473 -15.360  1.00 32.92     0.185 C 
ATOM     18  OE1 GLU D 570     -21.546  -4.817 -16.375  1.00 32.92    -0.647 OA
ATOM     19  OE2 GLU D 570     -22.059  -5.753 -14.462  1.00 32.92    -0.647 OA
ENDBRANCH  16  17
ENDBRANCH  15  16
ENDBRANCH  14  15
END_RES GLU D 570
ENDMDL
MODEL 3
REMARK VINA RESULT:      -8.7      1.564      3.005
REMARK  8 active torsions:
REMARK  status: ('A' for Active; 'I' for Inactive)
REMARK    1  A    between atoms: C_2  and  C_3 
REMARK    2  A    between atoms: C_3  and  O_5 
REMARK    3  A    between atoms: O_5  and  C_6 
REMARK    4  A    between atoms: C_6  and  C_7 
REMARK    5  A    between atoms: C_8  and  C_10 
REMARK    6  A    between atoms: C_11  and  C_12 
REMARK    7  A    between atoms: C_13  and  C_15 
REMARK    8  A    between atoms: C_16  and  C_17 
ROOT
HETATM    1  C   UNL     1     -21.363  -7.486  -5.400  1.00  0.00     0.007 C 
HETATM    2  C   UNL     1     -21.339  -7.350  -4.052  1.00  0.00    -0.062 C 
HETATM    3  C   UNL     1     -21.403  -6.020  -3.329  1.00  0.00     0.048 C 
ENDROOT
BRANCH   2   4
HETATM    4  C   UNL     1     -21.221  -8.540  -3.191  1.00  0.00     0.007 C 
HETATM    5  C   UNL     1     -20.598  -8.587  -1.995  1.00  0.00     0.009 C 
BRANCH   5   6
HETATM    6  C   UNL     1     -20.435  -9.785  -1.169  1.00  0.00    -0.048 C 
HETATM    7  C   UNL     1     -19.489 -10.716  -1.447  1.00  0.00    -0.077 C 
HETATM    8  C   UNL     1     -19.344 -11.996  -0.651  1.00  0.00     0.034 C 
HETATM    9  C   UNL     1     -18.443 -10.599  -2.531  1.00  0.00     0.044 C 
HETATM   10  C   UNL     1     -20.504 -12.286   0.290  1.00  0.00     0.005 C 
HETATM   11  C   UNL     1     -20.889 -11.022   1.038  1.00  0.00     0.014 C 
HETATM   12  C   UNL     1     -21.352  -9.886   0.080  1.00  0.00    -0.020 C 
HETATM   13  C   UNL     1     -21.348  -8.593   0.931  1.00  0.00     0.020 C 
HETATM   14  C   UNL     1     -22.804 -10.163  -0.364  1.00  0.00     0.020 C 
ENDBRANCH   5   6
ENDBRANCH   2   4
BRANCH   1  15
HETATM   15  C   UNL     1     -21.471  -6.389  -6.348  1.00  0.00     0.001 C 
HETATM   16  C   UNL     1     -20.497  -5.871  -7.114  1.00  0.00     0.006 C 
BRANCH  16  17
HETATM   17  C   UNL     1     -20.708  -4.765  -8.062  1.00  0.00    -0.064 C 
HETATM   18  C   UNL     1     -20.216  -4.833  -9.316  1.00  0.00     0.006 C 
HETATM   19  C   UNL     1     -21.504  -3.570  -7.586  1.00  0.00     0.048 C 
BRANCH  18  20
HETATM   20  C   UNL     1     -20.377  -3.791 -10.391  1.00  0.00     0.206 C 
BRANCH  20  21
HETATM   21  O   UNL     1     -21.204  -4.284 -11.456  1.00  0.00    -0.318 OA
BRANCH  21  22
HETATM   22  C   UNL     1     -22.435  -3.706 -11.543  1.00  0.00     0.258 C 
HETATM   23  O   UNL     1     -22.637  -2.521 -11.767  1.00  0.00    -0.265 OA
BRANCH  22  24
HETATM   24  C   UNL     1     -23.501  -4.743 -11.308  1.00  0.00     0.106 C 
HETATM   25  C   UNL     1     -24.139  -4.562  -9.940  1.00  0.00     0.015 C 
ENDBRANCH  22  24
ENDBRANCH  21  22
ENDBRANCH  20  21
ENDBRANCH  18  20
ENDBRANCH  16  17
ENDBRANCH   1  15
TORSDOF 8
BEGIN_RES ARG D 557
REMARK  4 active torsions:
REMARK  status: ('A' for Active; 'I' for Inactive)
REMARK    1  A    between atoms: CA   and  CB  
REMARK    2  A    between atoms: CB   and  CG  
REMARK    3  A    between atoms: CG   and  CD  
REMARK    4  A    between atoms: CD   and  NE  
REMARK       I    between atoms: NE   and  CZ  
REMARK       I    between atoms: CZ   and  NH1 
REMARK       I    between atoms: CZ   and  NH2 
ROOT
ATOM      1  CA  ARG D 557     -26.217   2.705 -17.014  1.00 35.49     0.159 C 
ENDROOT
BRANCH   1   2
ATOM      2  CB  ARG D 557     -26.789   1.319 -17.183  1.00 35.49     0.034 C 
BRANCH   2   3
ATOM      3  CG  ARG D 557     -28.233   1.169 -16.965  1.00 35.49     0.027 C 
BRANCH   3   4
ATOM      4  CD  ARG D 557     -28.617  -0.231 -16.673  1.00 35.49     0.116 C 
BRANCH   4   5
ATOM      5  NE  ARG D 557     -27.587  -0.938 -15.959  1.00 35.49    -0.212 N 
ATOM      6  CZ  ARG D 557     -27.361  -2.232 -16.020  1.00 35.49     0.666 C 
ATOM      7  NH1 ARG D 557     -28.091  -3.046 -16.759  1.00 35.49    -0.235 N 
ATOM      8  NH2 ARG D 557     -26.368  -2.700 -15.320  1.00 35.49    -0.235 N 
ATOM      9  HH  ARG D 557     -28.747  -2.759 -17.229  1.00 35.49     0.174 HD
ATOM     10  HH  ARG D 557     -27.894  -3.880 -16.761  1.00 35.49     0.174 HD
ATOM     11  HH  ARG D 557     -25.909  -2.150 -14.858  1.00 35.49     0.174 HD
ATOM     12  HH  ARG D 557     -26.189  -3.529 -15.336  1.00 35.49     0.174 HD
ATOM     13  HE  ARG D 557     -27.115  -0.502 -15.403  1.00 35.49     0.178 HD
ENDBRANCH   4   5
ENDBRANCH   3   4
ENDBRANCH   2   3
ENDBRANCH   1   2
END_RES ARG D 557
BEGIN_RES GLU D 570
REMARK  3 active torsions:
REMARK  status: ('A' for Active; 'I' for Inactive)
REMARK    5  A    between atoms: CA   and  CB  
REMARK    6  A    between atoms: CB   and  CG  
REMARK    7  A    between atoms: CG   and  CD  
ROOT
ATOM     14  CA  GLU D 570     -18.033  -6.348 -13.375  1.00 32.92     0.160 C 
ENDROOT
BRANCH  14  15
ATOM     15  CB  GLU D 570     -19.500  -6.345 -13.794  1.00 32.92     0.043 C 
BRANCH  15  16
ATOM     16  CG  GLU D 570     -19.796  -6.298 -15.249  1.00 32.92     0.100 C 
BRANCH  16  17
ATOM     17  CD  GLU D 570     -21.019  -5.472 -15.575  1.00 32.92     0.185 C 
ATOM     18  OE1 GLU D 570     -21.700  -5.005 -14.642  1.00 32.92    -0.647 OA
ATOM     19  OE2 GLU D 570     -21.308  -5.304 -16.777  1.00 32.92    -0.647 OA
ENDBRANCH  16  17
ENDBRANCH  15  16
ENDBRANCH  14  15
END_RES GLU D 570
ENDMDL
MODEL 4
REMARK VINA RESULT:      -8.5      3.970      9.278
REMARK  8 active torsions:
REMARK  status: ('A' for Active; 'I' for Inactive)
REMARK    1  A    between atoms: C_2  and  C_3 
REMARK    2  A    between atoms: C_3  and  O_5 
REMARK    3  A    between atoms: O_5  and  C_6 
REMARK    4  A    between atoms: C_6  and  C_7 
REMARK    5  A    between atoms: C_8  and  C_10 
REMARK    6  A    between atoms: C_11  and  C_12 
REMARK    7  A    between atoms: C_13  and  C_15 
REMARK    8  A    between atoms: C_16  and  C_17 
ROOT
HETATM    1  C   UNL     1     -21.837  -5.630  -6.305  1.00  0.00     0.007 C 
HETATM    2  C   UNL     1     -20.968  -5.121  -7.212  1.00  0.00    -0.062 C 
HETATM    3  C   UNL     1     -19.522  -4.784  -6.909  1.00  0.00     0.048 C 
ENDROOT
BRANCH   2   4
HETATM    4  C   UNL     1     -21.416  -4.839  -8.587  1.00  0.00     0.007 C 
HETATM    5  C   UNL     1     -22.181  -3.795  -8.966  1.00  0.00     0.009 C 
BRANCH   5   6
HETATM    6  C   UNL     1     -22.669  -3.549 -10.325  1.00  0.00    -0.048 C 
HETATM    7  C   UNL     1     -23.991  -3.393 -10.587  1.00  0.00    -0.077 C 
HETATM    8  C   UNL     1     -24.530  -3.206 -11.990  1.00  0.00     0.034 C 
HETATM    9  C   UNL     1     -25.085  -3.338  -9.546  1.00  0.00     0.044 C 
HETATM   10  C   UNL     1     -23.520  -3.489 -13.093  1.00  0.00     0.005 C 
HETATM   11  C   UNL     1     -22.188  -2.846 -12.750  1.00  0.00     0.014 C 
HETATM   12  C   UNL     1     -21.586  -3.403 -11.428  1.00  0.00    -0.020 C 
HETATM   13  C   UNL     1     -20.460  -2.417 -11.032  1.00  0.00     0.020 C 
HETATM   14  C   UNL     1     -20.943  -4.778 -11.707  1.00  0.00     0.020 C 
ENDBRANCH   5   6
ENDBRANCH   2   4
BRANCH   1  15
HETATM   15  C   UNL     1     -21.513  -5.943  -4.922  1.00  0.00     0.001 C 
HETATM   16  C   UNL     1     -22.118  -6.835  -4.123  1.00  0.00     0.006 C 
BRANCH  16  17
HETATM   17  C   UNL     1     -21.705  -7.096  -2.734  1.00  0.00    -0.064 C 
HETATM   18  C   UNL     1     -21.068  -8.240  -2.411  1.00  0.00     0.006 C 
HETATM   19  C   UNL     1     -22.004  -6.035  -1.699  1.00  0.00     0.048 C 
BRANCH  18  20
HETATM   20  C   UNL     1     -20.570  -8.624  -1.042  1.00  0.00     0.206 C 
BRANCH  20  21
HETATM   21  O   UNL     1     -21.653  -9.076  -0.216  1.00  0.00    -0.318 OA
BRANCH  21  22
HETATM   22  C   UNL     1     -21.416 -10.234   0.461  1.00  0.00     0.258 C 
HETATM   23  O   UNL     1     -20.513 -10.399   1.269  1.00  0.00    -0.265 OA
BRANCH  22  24
HETATM   24  C   UNL     1     -22.421 -11.278   0.052  1.00  0.00     0.106 C 
HETATM   25  C   UNL     1     -23.762 -10.641  -0.271  1.00  0.00     0.015 C 
ENDBRANCH  22  24
ENDBRANCH  21  22
ENDBRANCH  20  21
ENDBRANCH  18  20
ENDBRANCH  16  17
ENDBRANCH   1  15
TORSDOF 8
BEGIN_RES ARG D 557
REMARK  4 active torsions:
REMARK  status: ('A' for Active; 'I' for Inactive)
REMARK    1  A    between atoms: CA   and  CB  
REMARK    2  A    between atoms: CB   and  CG  
REMARK    3  A    between atoms: CG   and  CD  
REMARK    4  A    between atoms: CD   and  NE  
REMARK       I    between atoms: NE   and  CZ  
REMARK       I    between atoms: CZ   and  NH1 
REMARK       I    between atoms: CZ   and  NH2 
ROOT
ATOM      1  CA  ARG D 557     -26.217   2.705 -17.014  1.00 35.49     0.159 C 
ENDROOT
BRANCH   1   2
ATOM      2  CB  ARG D 557     -26.789   1.319 -17.183  1.00 35.49     0.034 C 
BRANCH   2   3
ATOM      3  CG  ARG D 557     -25.964   0.201 -16.709  1.00 35.49     0.027 C 
BRANCH   3   4
ATOM      4  CD  ARG D 557     -26.765  -0.848 -16.039  1.00 35.49     0.116 C 
BRANCH   4   5
ATOM      5  NE  ARG D 557     -28.002  -1.107 -16.727  1.00 35.49    -0.212 N 
ATOM      6  CZ  ARG D 557     -28.519  -2.294 -16.957  1.00 35.49     0.666 C 
ATOM      7  NH1 ARG D 557     -27.925  -3.411 -16.579  1.00 35.49    -0.235 N 
ATOM      8  NH2 ARG D 557     -29.662  -2.341 -17.578  1.00 35.49    -0.235 N 
ATOM      9  HH  ARG D 557     -27.174  -3.404 -16.168  1.00 35.49     0.174 HD
ATOM     10  HH  ARG D 557     -28.311  -4.156 -16.755  1.00 35.49     0.174 HD
ATOM     11  HH  ARG D 557     -30.025  -1.603 -17.803  1.00 35.49     0.174 HD
ATOM     12  HH  ARG D 557     -30.028  -3.088 -17.741  1.00 35.49     0.174 HD
ATOM     13  HE  ARG D 557     -28.415  -0.447 -17.069  1.00 35.49     0.178 HD
ENDBRANCH   4   5
ENDBRANCH   3   4
ENDBRANCH   2   3
ENDBRANCH   1   2
END_RES ARG D 557
BEGIN_RES GLU D 570
REMARK  3 active torsions:
REMARK  status: ('A' for Active; 'I' for Inactive)
REMARK    5  A    between atoms: CA   and  CB  
REMARK    6  A    between atoms: CB   and  CG  
REMARK    7  A    between atoms: CG   and  CD  
ROOT
ATOM     14  CA  GLU D 570     -18.033  -6.348 -13.375  1.00 32.92     0.160 C 
ENDROOT
BRANCH  14  15
ATOM     15  CB  GLU D 570     -19.500  -6.345 -13.794  1.00 32.92     0.043 C 
BRANCH  15  16
ATOM     16  CG  GLU D 570     -19.823  -5.834 -15.151  1.00 32.92     0.100 C 
BRANCH  16  17
ATOM     17  CD  GLU D 570     -21.304  -5.620 -15.363  1.00 32.92     0.185 C 
ATOM     18  OE1 GLU D 570     -22.110  -6.430 -14.865  1.00 32.92    -0.647 OA
ATOM     19  OE2 GLU D 570     -21.661  -4.641 -16.048  1.00 32.92    -0.647 OA
ENDBRANCH  16  17
ENDBRANCH  15  16
ENDBRANCH  14  15
END_RES GLU D 570
ENDMDL
MODEL 5
REMARK VINA RESULT:      -8.3      1.251      2.164
REMARK  8 active torsions:
REMARK  status: ('A' for Active; 'I' for Inactive)
REMARK    1  A    between atoms: C_2  and  C_3 
REMARK    2  A    between atoms: C_3  and  O_5 
REMARK    3  A    between atoms: O_5  and  C_6 
REMARK    4  A    between atoms: C_6  and  C_7 
REMARK    5  A    between atoms: C_8  and  C_10 
REMARK    6  A    between atoms: C_11  and  C_12 
REMARK    7  A    between atoms: C_13  and  C_15 
REMARK    8  A    between atoms: C_16  and  C_17 
ROOT
HETATM    1  C   UNL     1     -21.936  -5.930  -6.118  1.00  0.00     0.007 C 
HETATM    2  C   UNL     1     -21.229  -6.861  -5.433  1.00  0.00    -0.062 C 
HETATM    3  C   UNL     1     -19.858  -7.360  -5.843  1.00  0.00     0.048 C 
ENDROOT
BRANCH   2   4
HETATM    4  C   UNL     1     -21.795  -7.473  -4.218  1.00  0.00     0.007 C 
HETATM    5  C   UNL     1     -21.298  -8.550  -3.576  1.00  0.00     0.009 C 
BRANCH   5   6
HETATM    6  C   UNL     1     -21.896  -9.188  -2.401  1.00  0.00    -0.048 C 
HETATM    7  C   UNL     1     -22.591 -10.349  -2.500  1.00  0.00    -0.077 C 
HETATM    8  C   UNL     1     -23.277 -10.995  -1.314  1.00  0.00     0.034 C 
HETATM    9  C   UNL     1     -22.742 -11.169  -3.760  1.00  0.00     0.044 C 
HETATM   10  C   UNL     1     -23.366 -10.108  -0.081  1.00  0.00     0.005 C 
HETATM   11  C   UNL     1     -22.034  -9.418   0.155  1.00  0.00     0.014 C 
HETATM   12  C   UNL     1     -21.623  -8.504  -1.034  1.00  0.00    -0.020 C 
HETATM   13  C   UNL     1     -20.124  -8.181  -0.817  1.00  0.00     0.020 C 
HETATM   14  C   UNL     1     -22.415  -7.182  -0.951  1.00  0.00     0.020 C 
ENDBRANCH   5   6
ENDBRANCH   2   4
BRANCH   1  15
HETATM   15  C   UNL     1     -21.485  -5.262  -7.328  1.00  0.00     0.001 C 
HETATM   16  C   UNL     1     -22.238  -4.819  -8.347  1.00  0.00     0.006 C 
BRANCH  16  17
HETATM   17  C   UNL     1     -21.689  -4.135  -9.529  1.00  0.00    -0.064 C 
HETATM   18  C   UNL     1     -22.510  -3.578 -10.443  1.00  0.00     0.006 C 
HETATM   19  C   UNL     1     -20.184  -4.068  -9.668  1.00  0.00     0.048 C 
BRANCH  18  20
HETATM   20  C   UNL     1     -22.085  -2.830 -11.680  1.00  0.00     0.206 C 
BRANCH  20  21
HETATM   21  O   UNL     1     -22.146  -3.682 -12.834  1.00  0.00    -0.318 OA
BRANCH  21  22
HETATM   22  C   UNL     1     -23.399  -4.088 -13.184  1.00  0.00     0.258 C 
HETATM   23  O   UNL     1     -24.357  -3.344 -13.337  1.00  0.00    -0.265 OA
BRANCH  22  24
HETATM   24  C   UNL     1     -23.425  -5.585 -13.339  1.00  0.00     0.106 C 
HETATM   25  C   UNL     1     -24.000  -5.980 -14.688  1.00  0.00     0.015 C 
ENDBRANCH  22  24
ENDBRANCH  21  22
ENDBRANCH  20  21
ENDBRANCH  18  20
ENDBRANCH  16  17
ENDBRANCH   1  15
TORSDOF 8
BEGIN_RES ARG D 557
REMARK  4 active torsions:
REMARK  status: ('A' for Active; 'I' for Inactive)
REMARK    1  A    between atoms: CA   and  CB  
REMARK    2  A    between atoms: CB   and  CG  
REMARK    3  A    between atoms: CG   and  CD  
REMARK    4  A    between atoms: CD   and  NE  
REMARK       I    between atoms: NE   and  CZ  
REMARK       I    between atoms: CZ   and  NH1 
REMARK       I    between atoms: CZ   and  NH2 
ROOT
ATOM      1  CA  ARG D 557     -26.217   2.705 -17.014  1.00 35.49     0.159 C 
ENDROOT
BRANCH   1   2
ATOM      2  CB  ARG D 557     -26.789   1.319 -17.183  1.00 35.49     0.034 C 
BRANCH   2   3
ATOM      3  CG  ARG D 557     -25.953   0.200 -16.733  1.00 35.49     0.027 C 
BRANCH   3   4
ATOM      4  CD  ARG D 557     -26.740  -0.857 -16.057  1.00 35.49     0.116 C 
BRANCH   4   5
ATOM      5  NE  ARG D 557     -27.990  -1.111 -16.722  1.00 35.49    -0.212 N 
ATOM      6  CZ  ARG D 557     -28.511  -2.296 -16.950  1.00 35.49     0.666 C 
ATOM      7  NH1 ARG D 557     -27.911  -3.416 -16.592  1.00 35.49    -0.235 N 
ATOM      8  NH2 ARG D 557     -29.666  -2.339 -17.549  1.00 35.49    -0.235 N 
ATOM      9  HH  ARG D 557     -27.151  -3.411 -16.195  1.00 35.49     0.174 HD
ATOM     10  HH  ARG D 557     -28.300  -4.160 -16.765  1.00 35.49     0.174 HD
ATOM     11  HH  ARG D 557     -30.034  -1.599 -17.762  1.00 35.49     0.174 HD
ATOM     12  HH  ARG D 557     -30.036  -3.085 -17.710  1.00 35.49     0.174 HD
ATOM     13  HE  ARG D 557     -28.409  -0.449 -17.051  1.00 35.49     0.178 HD
ENDBRANCH   4   5
ENDBRANCH   3   4
ENDBRANCH   2   3
ENDBRANCH   1   2
END_RES ARG D 557
BEGIN_RES GLU D 570
REMARK  3 active torsions:
REMARK  status: ('A' for Active; 'I' for Inactive)
REMARK    5  A    between atoms: CA   and  CB  
REMARK    6  A    between atoms: CB   and  CG  
REMARK    7  A    between atoms: CG   and  CD  
ROOT
ATOM     14  CA  GLU D 570     -18.033  -6.348 -13.375  1.00 32.92     0.160 C 
ENDROOT
BRANCH  14  15
ATOM     15  CB  GLU D 570     -19.500  -6.345 -13.794  1.00 32.92     0.043 C 
BRANCH  15  16
ATOM     16  CG  GLU D 570     -19.797  -6.235 -15.246  1.00 32.92     0.100 C 
BRANCH  16  17
ATOM     17  CD  GLU D 570     -20.656  -7.367 -15.759  1.00 32.92     0.185 C 
ATOM     18  OE1 GLU D 570     -21.413  -7.162 -16.727  1.00 32.92    -0.647 OA
ATOM     19  OE2 GLU D 570     -20.584  -8.467 -15.175  1.00 32.92    -0.647 OA
ENDBRANCH  16  17
ENDBRANCH  15  16
ENDBRANCH  14  15
END_RES GLU D 570
ENDMDL
MODEL 6
REMARK VINA RESULT:      -8.1      4.391      7.514
REMARK  8 active torsions:
REMARK  status: ('A' for Active; 'I' for Inactive)
REMARK    1  A    between atoms: C_2  and  C_3 
REMARK    2  A    between atoms: C_3  and  O_5 
REMARK    3  A    between atoms: O_5  and  C_6 
REMARK    4  A    between atoms: C_6  and  C_7 
REMARK    5  A    between atoms: C_8  and  C_10 
REMARK    6  A    between atoms: C_11  and  C_12 
REMARK    7  A    between atoms: C_13  and  C_15 
REMARK    8  A    between atoms: C_16  and  C_17 
ROOT
HETATM    1  C   UNL     1     -23.877  -6.093 -14.269  1.00  0.00     0.007 C 
HETATM    2  C   UNL     1     -23.203  -5.066 -13.696  1.00  0.00    -0.062 C 
HETATM    3  C   UNL     1     -22.697  -3.853 -14.451  1.00  0.00     0.048 C 
ENDROOT
BRANCH   2   4
HETATM    4  C   UNL     1     -22.898  -5.094 -12.254  1.00  0.00     0.007 C 
HETATM    5  C   UNL     1     -22.524  -4.034 -11.509  1.00  0.00     0.009 C 
BRANCH   5   6
HETATM    6  C   UNL     1     -22.169  -4.077 -10.089  1.00  0.00    -0.048 C 
HETATM    7  C   UNL     1     -23.117  -4.151  -9.121  1.00  0.00    -0.077 C 
HETATM    8  C   UNL     1     -22.782  -4.128  -7.645  1.00  0.00     0.034 C 
HETATM    9  C   UNL     1     -24.600  -4.307  -9.365  1.00  0.00     0.044 C 
HETATM   10  C   UNL     1     -21.345  -3.734  -7.333  1.00  0.00     0.005 C 
HETATM   11  C   UNL     1     -20.397  -4.463  -8.268  1.00  0.00     0.014 C 
HETATM   12  C   UNL     1     -20.652  -4.112  -9.762  1.00  0.00    -0.020 C 
HETATM   13  C   UNL     1     -19.888  -5.180 -10.581  1.00  0.00     0.020 C 
HETATM   14  C   UNL     1     -20.025  -2.735 -10.068  1.00  0.00     0.020 C 
ENDBRANCH   5   6
ENDBRANCH   2   4
BRANCH   1  15
HETATM   15  C   UNL     1     -24.229  -6.178 -15.676  1.00  0.00     0.001 C 
HETATM   16  C   UNL     1     -25.392  -6.593 -16.204  1.00  0.00     0.006 C 
BRANCH  16  17
HETATM   17  C   UNL     1     -25.663  -6.627 -17.651  1.00  0.00    -0.064 C 
HETATM   18  C   UNL     1     -24.704  -7.007 -18.520  1.00  0.00     0.006 C 
HETATM   19  C   UNL     1     -27.049  -6.242 -18.117  1.00  0.00     0.048 C 
BRANCH  18  20
HETATM   20  C   UNL     1     -24.852  -7.112 -20.015  1.00  0.00     0.206 C 
BRANCH  20  21
HETATM   21  O   UNL     1     -23.782  -7.887 -20.578  1.00  0.00    -0.318 OA
BRANCH  21  22
HETATM   22  C   UNL     1     -23.905  -8.158 -21.907  1.00  0.00     0.258 C 
HETATM   23  O   UNL     1     -24.953  -8.110 -22.536  1.00  0.00    -0.265 OA
BRANCH  22  24
HETATM   24  C   UNL     1     -22.565  -8.540 -22.476  1.00  0.00     0.106 C 
HETATM   25  C   UNL     1     -21.603  -8.943 -21.370  1.00  0.00     0.015 C 
ENDBRANCH  22  24
ENDBRANCH  21  22
ENDBRANCH  20  21
ENDBRANCH  18  20
ENDBRANCH  16  17
ENDBRANCH   1  15
TORSDOF 8
BEGIN_RES ARG D 557
REMARK  4 active torsions:
REMARK  status: ('A' for Active; 'I' for Inactive)
REMARK    1  A    between atoms: CA   and  CB  
REMARK    2  A    between atoms: CB   and  CG  
REMARK    3  A    between atoms: CG   and  CD  
REMARK    4  A    between atoms: CD   and  NE  
REMARK       I    between atoms: NE   and  CZ  
REMARK       I    between atoms: CZ   and  NH1 
REMARK       I    between atoms: CZ   and  NH2 
ROOT
ATOM      1  CA  ARG D 557     -26.217   2.705 -17.014  1.00 35.49     0.159 C 
ENDROOT
BRANCH   1   2
ATOM      2  CB  ARG D 557     -26.789   1.319 -17.183  1.00 35.49     0.034 C 
BRANCH   2   3
ATOM      3  CG  ARG D 557     -28.183   1.124 -16.766  1.00 35.49     0.027 C 
BRANCH   3   4
ATOM      4  CD  ARG D 557     -28.505  -0.301 -16.524  1.00 35.49     0.116 C 
BRANCH   4   5
ATOM      5  NE  ARG D 557     -27.440  -0.991 -15.846  1.00 35.49    -0.212 N 
ATOM      6  CZ  ARG D 557     -27.203  -2.283 -15.903  1.00 35.49     0.666 C 
ATOM      7  NH1 ARG D 557     -27.956  -3.112 -16.602  1.00 35.49    -0.235 N 
ATOM      8  NH2 ARG D 557     -26.178  -2.734 -15.240  1.00 35.49    -0.235 N 
ATOM      9  HH  ARG D 557     -28.634  -2.836 -17.047  1.00 35.49     0.174 HD
ATOM     10  HH  ARG D 557     -27.752  -3.944 -16.604  1.00 35.49     0.174 HD
ATOM     11  HH  ARG D 557     -25.705  -2.175 -14.804  1.00 35.49     0.174 HD
ATOM     12  HH  ARG D 557     -25.991  -3.561 -15.256  1.00 35.49     0.174 HD
ATOM     13  HE  ARG D 557     -26.949  -0.544 -15.315  1.00 35.49     0.178 HD
ENDBRANCH   4   5
ENDBRANCH   3   4
ENDBRANCH   2   3
ENDBRANCH   1   2
END_RES ARG D 557
BEGIN_RES GLU D 570
REMARK  3 active torsions:
REMARK  status: ('A' for Active; 'I' for Inactive)
REMARK    5  A    between atoms: CA   and  CB  
REMARK    6  A    between atoms: CB   and  CG  
REMARK    7  A    between atoms: CG   and  CD  
ROOT
ATOM     14  CA  GLU D 570     -18.033  -6.348 -13.375  1.00 32.92     0.160 C 
ENDROOT
BRANCH  14  15
ATOM     15  CB  GLU D 570     -19.500  -6.345 -13.794  1.00 32.92     0.043 C 
BRANCH  15  16
ATOM     16  CG  GLU D 570     -19.805  -6.044 -15.217  1.00 32.92     0.100 C 
BRANCH  16  17
ATOM     17  CD  GLU D 570     -20.663  -7.102 -15.872  1.00 32.92     0.185 C 
ATOM     18  OE1 GLU D 570     -20.797  -8.206 -15.310  1.00 32.92    -0.647 OA
ATOM     19  OE2 GLU D 570     -21.192  -6.829 -16.967  1.00 32.92    -0.647 OA
ENDBRANCH  16  17
ENDBRANCH  15  16
ENDBRANCH  14  15
END_RES GLU D 570
ENDMDL
MODEL 7
REMARK VINA RESULT:      -8.1      4.252      7.802
REMARK  8 active torsions:
REMARK  status: ('A' for Active; 'I' for Inactive)
REMARK    1  A    between atoms: C_2  and  C_3 
REMARK    2  A    between atoms: C_3  and  O_5 
REMARK    3  A    between atoms: O_5  and  C_6 
REMARK    4  A    between atoms: C_6  and  C_7 
REMARK    5  A    between atoms: C_8  and  C_10 
REMARK    6  A    between atoms: C_11  and  C_12 
REMARK    7  A    between atoms: C_13  and  C_15 
REMARK    8  A    between atoms: C_16  and  C_17 
ROOT
HETATM    1  C   UNL     1     -24.088  -6.307 -14.559  1.00  0.00     0.007 C 
HETATM    2  C   UNL     1     -23.297  -5.348 -14.020  1.00  0.00    -0.062 C 
HETATM    3  C   UNL     1     -22.575  -4.288 -14.828  1.00  0.00     0.048 C 
ENDROOT
BRANCH   2   4
HETATM    4  C   UNL     1     -23.076  -5.304 -12.564  1.00  0.00     0.007 C 
HETATM    5  C   UNL     1     -22.664  -4.227 -11.864  1.00  0.00     0.009 C 
BRANCH   5   6
HETATM    6  C   UNL     1     -22.392  -4.202 -10.426  1.00  0.00    -0.048 C 
HETATM    7  C   UNL     1     -21.129  -4.102  -9.943  1.00  0.00    -0.077 C 
HETATM    8  C   UNL     1     -20.813  -4.144  -8.462  1.00  0.00     0.034 C 
HETATM    9  C   UNL     1     -19.889  -3.896 -10.782  1.00  0.00     0.044 C 
HETATM   10  C   UNL     1     -21.976  -4.586  -7.585  1.00  0.00     0.005 C 
HETATM   11  C   UNL     1     -23.249  -3.883  -8.023  1.00  0.00     0.014 C 
HETATM   12  C   UNL     1     -23.633  -4.219  -9.492  1.00  0.00    -0.020 C 
HETATM   13  C   UNL     1     -24.699  -3.172  -9.897  1.00  0.00     0.020 C 
HETATM   14  C   UNL     1     -24.292  -5.614  -9.534  1.00  0.00     0.020 C 
ENDBRANCH   5   6
ENDBRANCH   2   4
BRANCH   1  15
HETATM   15  C   UNL     1     -24.375  -6.454 -15.977  1.00  0.00     0.001 C 
HETATM   16  C   UNL     1     -25.581  -6.509 -16.565  1.00  0.00     0.006 C 
BRANCH  16  17
HETATM   17  C   UNL     1     -25.772  -6.642 -18.019  1.00  0.00    -0.064 C 
HETATM   18  C   UNL     1     -24.764  -7.065 -18.808  1.00  0.00     0.006 C 
HETATM   19  C   UNL     1     -27.135  -6.306 -18.583  1.00  0.00     0.048 C 
BRANCH  18  20
HETATM   20  C   UNL     1     -24.828  -7.269 -20.299  1.00  0.00     0.206 C 
BRANCH  20  21
HETATM   21  O   UNL     1     -23.715  -8.053 -20.753  1.00  0.00    -0.318 OA
BRANCH  21  22
HETATM   22  C   UNL     1     -23.641  -8.220 -22.103  1.00  0.00     0.258 C 
HETATM   23  O   UNL     1     -24.506  -7.881 -22.898  1.00  0.00    -0.265 OA
BRANCH  22  24
HETATM   24  C   UNL     1     -22.345  -8.897 -22.462  1.00  0.00     0.106 C 
HETATM   25  C   UNL     1     -21.399  -8.920 -21.272  1.00  0.00     0.015 C 
ENDBRANCH  22  24
ENDBRANCH  21  22
ENDBRANCH  20  21
ENDBRANCH  18  20
ENDBRANCH  16  17
ENDBRANCH   1  15
TORSDOF 8
BEGIN_RES ARG D 557
REMARK  4 active torsions:
REMARK  status: ('A' for Active; 'I' for Inactive)
REMARK    1  A    between atoms: CA   and  CB  
REMARK    2  A    between atoms: CB   and  CG  
REMARK    3  A    between atoms: CG   and  CD  
REMARK    4  A    between atoms: CD   and  NE  
REMARK       I    between atoms: NE   and  CZ  
REMARK       I    between atoms: CZ   and  NH1 
REMARK       I    between atoms: CZ   and  NH2 
ROOT
ATOM      1  CA  ARG D 557     -26.217   2.705 -17.014  1.00 35.49     0.159 C 
ENDROOT
BRANCH   1   2
ATOM      2  CB  ARG D 557     -26.789   1.319 -17.183  1.00 35.49     0.034 C 
BRANCH   2   3
ATOM      3  CG  ARG D 557     -25.965   0.202 -16.705  1.00 35.49     0.027 C 
BRANCH   3   4
ATOM      4  CD  ARG D 557     -26.770  -0.847 -16.038  1.00 35.49     0.116 C 
BRANCH   4   5
ATOM      5  NE  ARG D 557     -28.001  -1.113 -16.735  1.00 35.49    -0.212 N 
ATOM      6  CZ  ARG D 557     -28.506  -2.302 -16.975  1.00 35.49     0.666 C 
ATOM      7  NH1 ARG D 557     -27.907  -3.417 -16.599  1.00 35.49    -0.235 N 
ATOM      8  NH2 ARG D 557     -29.645  -2.354 -17.604  1.00 35.49    -0.235 N 
ATOM      9  HH  ARG D 557     -27.158  -3.405 -16.182  1.00 35.49     0.174 HD
ATOM     10  HH  ARG D 557     -28.286  -4.163 -16.780  1.00 35.49     0.174 HD
ATOM     11  HH  ARG D 557     -30.012  -1.618 -17.828  1.00 35.49     0.174 HD
ATOM     12  HH  ARG D 557     -30.004  -3.104 -17.773  1.00 35.49     0.174 HD
ATOM     13  HE  ARG D 557     -28.416  -0.454 -17.077  1.00 35.49     0.178 HD
ENDBRANCH   4   5
ENDBRANCH   3   4
ENDBRANCH   2   3
ENDBRANCH   1   2
END_RES ARG D 557
BEGIN_RES GLU D 570
REMARK  3 active torsions:
REMARK  status: ('A' for Active; 'I' for Inactive)
REMARK    5  A    between atoms: CA   and  CB  
REMARK    6  A    between atoms: CB   and  CG  
REMARK    7  A    between atoms: CG   and  CD  
ROOT
ATOM     14  CA  GLU D 570     -18.033  -6.348 -13.375  1.00 32.92     0.160 C 
ENDROOT
BRANCH  14  15
ATOM     15  CB  GLU D 570     -19.500  -6.345 -13.794  1.00 32.92     0.043 C 
BRANCH  15  16
ATOM     16  CG  GLU D 570     -20.081  -7.630 -14.262  1.00 32.92     0.100 C 
BRANCH  16  17
ATOM     17  CD  GLU D 570     -20.636  -7.549 -15.665  1.00 32.92     0.185 C 
ATOM     18  OE1 GLU D 570     -20.519  -6.485 -16.302  1.00 32.92    -0.647 OA
ATOM     19  OE2 GLU D 570     -21.210  -8.556 -16.126  1.00 32.92    -0.647 OA
ENDBRANCH  16  17
ENDBRANCH  15  16
ENDBRANCH  14  15
END_RES GLU D 570
ENDMDL
MODEL 8
REMARK VINA RESULT:      -8.1     13.836     16.720
REMARK  8 active torsions:
REMARK  status: ('A' for Active; 'I' for Inactive)
REMARK    1  A    between atoms: C_2  and  C_3 
REMARK    2  A    between atoms: C_3  and  O_5 
REMARK    3  A    between atoms: O_5  and  C_6 
REMARK    4  A    between atoms: C_6  and  C_7 
REMARK    5  A    between atoms: C_8  and  C_10 
REMARK    6  A    between atoms: C_11  and  C_12 
REMARK    7  A    between atoms: C_13  and  C_15 
REMARK    8  A    between atoms: C_16  and  C_17 
ROOT
HETATM    1  C   UNL     1     -21.852   8.854   1.711  1.00  0.00     0.007 C 
HETATM    2  C   UNL     1     -23.167   9.047   1.448  1.00  0.00    -0.062 C 
HETATM    3  C   UNL     1     -24.162   9.602   2.447  1.00  0.00     0.048 C 
ENDROOT
BRANCH   2   4
HETATM    4  C   UNL     1     -23.718   8.689   0.129  1.00  0.00     0.007 C 
HETATM    5  C   UNL     1     -24.873   8.028  -0.087  1.00  0.00     0.009 C 
BRANCH   5   6
HETATM    6  C   UNL     1     -25.389   7.625  -1.397  1.00  0.00    -0.048 C 
HETATM    7  C   UNL     1     -24.865   6.573  -2.074  1.00  0.00    -0.077 C 
HETATM    8  C   UNL     1     -25.333   6.177  -3.459  1.00  0.00     0.034 C 
HETATM    9  C   UNL     1     -23.801   5.639  -1.545  1.00  0.00     0.044 C 
HETATM   10  C   UNL     1     -26.222   7.208  -4.140  1.00  0.00     0.005 C 
HETATM   11  C   UNL     1     -27.259   7.723  -3.158  1.00  0.00     0.014 C 
HETATM   12  C   UNL     1     -26.613   8.421  -1.927  1.00  0.00    -0.020 C 
HETATM   13  C   UNL     1     -27.742   8.549  -0.877  1.00  0.00     0.020 C 
HETATM   14  C   UNL     1     -26.170   9.843  -2.331  1.00  0.00     0.020 C 
ENDBRANCH   5   6
ENDBRANCH   2   4
BRANCH   1  15
HETATM   15  C   UNL     1     -21.199   9.163   2.973  1.00  0.00     0.001 C 
HETATM   16  C   UNL     1     -20.181   8.504   3.550  1.00  0.00     0.006 C 
BRANCH  16  17
HETATM   17  C   UNL     1     -19.571   8.906   4.828  1.00  0.00    -0.064 C 
HETATM   18  C   UNL     1     -18.251   9.171   4.904  1.00  0.00     0.006 C 
HETATM   19  C   UNL     1     -20.476   9.025   6.034  1.00  0.00     0.048 C 
BRANCH  18  20
HETATM   20  C   UNL     1     -17.503   9.613   6.135  1.00  0.00     0.206 C 
BRANCH  20  21
HETATM   21  O   UNL     1     -16.328   8.811   6.331  1.00  0.00    -0.318 OA
BRANCH  21  22
HETATM   22  C   UNL     1     -15.152   9.496   6.290  1.00  0.00     0.258 C 
HETATM   23  O   UNL     1     -14.994  10.641   6.689  1.00  0.00    -0.265 OA
BRANCH  22  24
HETATM   24  C   UNL     1     -14.084   8.637   5.667  1.00  0.00     0.106 C 
HETATM   25  C   UNL     1     -14.442   8.283   4.233  1.00  0.00     0.015 C 
ENDBRANCH  22  24
ENDBRANCH  21  22
ENDBRANCH  20  21
ENDBRANCH  18  20
ENDBRANCH  16  17
ENDBRANCH   1  15
TORSDOF 8
BEGIN_RES ARG D 557
REMARK  4 active torsions:
REMARK  status: ('A' for Active; 'I' for Inactive)
REMARK    1  A    between atoms: CA   and  CB  
REMARK    2  A    between atoms: CB   and  CG  
REMARK    3  A    between atoms: CG   and  CD  
REMARK    4  A    between atoms: CD   and  NE  
REMARK       I    between atoms: NE   and  CZ  
REMARK       I    between atoms: CZ   and  NH1 
REMARK       I    between atoms: CZ   and  NH2 
ROOT
ATOM      1  CA  ARG D 557     -26.217   2.705 -17.014  1.00 35.49     0.159 C 
ENDROOT
BRANCH   1   2
ATOM      2  CB  ARG D 557     -26.789   1.319 -17.183  1.00 35.49     0.034 C 
BRANCH   2   3
ATOM      3  CG  ARG D 557     -25.838   0.201 -17.135  1.00 35.49     0.027 C 
BRANCH   3   4
ATOM      4  CD  ARG D 557     -24.757   0.423 -16.148  1.00 35.49     0.116 C 
BRANCH   4   5
ATOM      5  NE  ARG D 557     -24.887  -0.432 -14.998  1.00 35.49    -0.212 N 
ATOM      6  CZ  ARG D 557     -24.065  -1.402 -14.665  1.00 35.49     0.666 C 
ATOM      7  NH1 ARG D 557     -23.003  -1.711 -15.386  1.00 35.49    -0.235 N 
ATOM      8  NH2 ARG D 557     -24.327  -2.063 -13.575  1.00 35.49    -0.235 N 
ATOM      9  HH  ARG D 557     -22.810  -1.287 -16.105  1.00 35.49     0.174 HD
ATOM     10  HH  ARG D 557     -22.501  -2.351 -15.117  1.00 35.49     0.174 HD
ATOM     11  HH  ARG D 557     -25.016  -1.837 -13.125  1.00 35.49     0.174 HD
ATOM     12  HH  ARG D 557     -23.818  -2.693 -13.325  1.00 35.49     0.174 HD
ATOM     13  HE  ARG D 557     -25.584  -0.351 -14.517  1.00 35.49     0.178 HD
ENDBRANCH   4   5
ENDBRANCH   3   4
ENDBRANCH   2   3
ENDBRANCH   1   2
END_RES ARG D 557
BEGIN_RES GLU D 570
REMARK  3 active torsions:
REMARK  status: ('A' for Active; 'I' for Inactive)
REMARK    5  A    between atoms: CA   and  CB  
REMARK    6  A    between atoms: CB   and  CG  
REMARK    7  A    between atoms: CG   and  CD  
ROOT
ATOM     14  CA  GLU D 570     -18.033  -6.348 -13.375  1.00 32.92     0.160 C 
ENDROOT
BRANCH  14  15
ATOM     15  CB  GLU D 570     -19.500  -6.345 -13.794  1.00 32.92     0.043 C 
BRANCH  15  16
ATOM     16  CG  GLU D 570     -20.442  -5.530 -12.983  1.00 32.92     0.100 C 
BRANCH  16  17
ATOM     17  CD  GLU D 570     -21.726  -5.213 -13.714  1.00 32.92     0.185 C 
ATOM     18  OE1 GLU D 570     -22.176  -6.037 -14.533  1.00 32.92    -0.647 OA
ATOM     19  OE2 GLU D 570     -22.279  -4.121 -13.476  1.00 32.92    -0.647 OA
ENDBRANCH  16  17
ENDBRANCH  15  16
ENDBRANCH  14  15
END_RES GLU D 570
ENDMDL
MODEL 9
REMARK VINA RESULT:      -8.1      2.041      2.878
REMARK  8 active torsions:
REMARK  status: ('A' for Active; 'I' for Inactive)
REMARK    1  A    between atoms: C_2  and  C_3 
REMARK    2  A    between atoms: C_3  and  O_5 
REMARK    3  A    between atoms: O_5  and  C_6 
REMARK    4  A    between atoms: C_6  and  C_7 
REMARK    5  A    between atoms: C_8  and  C_10 
REMARK    6  A    between atoms: C_11  and  C_12 
REMARK    7  A    between atoms: C_13  and  C_15 
REMARK    8  A    between atoms: C_16  and  C_17 
ROOT
HETATM    1  C   UNL     1     -21.184  -6.259  -4.681  1.00  0.00     0.007 C 
HETATM    2  C   UNL     1     -20.501  -7.423  -4.559  1.00  0.00    -0.062 C 
HETATM    3  C   UNL     1     -19.863  -8.161  -5.719  1.00  0.00     0.048 C 
ENDROOT
BRANCH   2   4
HETATM    4  C   UNL     1     -20.361  -8.063  -3.239  1.00  0.00     0.007 C 
HETATM    5  C   UNL     1     -21.329  -8.738  -2.586  1.00  0.00     0.009 C 
BRANCH   5   6
HETATM    6  C   UNL     1     -21.202  -9.325  -1.251  1.00  0.00    -0.048 C 
HETATM    7  C   UNL     1     -21.539  -8.631  -0.135  1.00  0.00    -0.077 C 
HETATM    8  C   UNL     1     -21.354  -9.188   1.261  1.00  0.00     0.034 C 
HETATM    9  C   UNL     1     -22.173  -7.259  -0.120  1.00  0.00     0.044 C 
HETATM   10  C   UNL     1     -20.508 -10.451   1.326  1.00  0.00     0.005 C 
HETATM   11  C   UNL     1     -20.929 -11.411   0.227  1.00  0.00     0.014 C 
HETATM   12  C   UNL     1     -20.735 -10.804  -1.193  1.00  0.00    -0.020 C 
HETATM   13  C   UNL     1     -21.532 -11.721  -2.153  1.00  0.00     0.020 C 
HETATM   14  C   UNL     1     -19.242 -10.891  -1.577  1.00  0.00     0.020 C 
ENDBRANCH   5   6
ENDBRANCH   2   4
BRANCH   1  15
HETATM   15  C   UNL     1     -21.392  -5.540  -5.927  1.00  0.00     0.001 C 
HETATM   16  C   UNL     1     -20.457  -5.006  -6.729  1.00  0.00     0.006 C 
BRANCH  16  17
HETATM   17  C   UNL     1     -20.765  -4.307  -7.987  1.00  0.00    -0.064 C 
HETATM   18  C   UNL     1     -20.169  -4.674  -9.140  1.00  0.00     0.006 C 
HETATM   19  C   UNL     1     -21.779  -3.185  -7.940  1.00  0.00     0.048 C 
BRANCH  18  20
HETATM   20  C   UNL     1     -20.408  -4.065 -10.497  1.00  0.00     0.206 C 
BRANCH  20  21
HETATM   21  O   UNL     1     -21.548  -4.667 -11.130  1.00  0.00    -0.318 OA
BRANCH  21  22
HETATM   22  C   UNL     1     -22.616  -3.839 -11.297  1.00  0.00     0.258 C 
HETATM   23  O   UNL     1     -22.571  -2.738 -11.827  1.00  0.00    -0.265 OA
BRANCH  22  24
HETATM   24  C   UNL     1     -23.851  -4.478 -10.720  1.00  0.00     0.106 C 
HETATM   25  C   UNL     1     -24.729  -3.442 -10.039  1.00  0.00     0.015 C 
ENDBRANCH  22  24
ENDBRANCH  21  22
ENDBRANCH  20  21
ENDBRANCH  18  20
ENDBRANCH  16  17
ENDBRANCH   1  15
TORSDOF 8
BEGIN_RES ARG D 557
REMARK  4 active torsions:
REMARK  status: ('A' for Active; 'I' for Inactive)
REMARK    1  A    between atoms: CA   and  CB  
REMARK    2  A    between atoms: CB   and  CG  
REMARK    3  A    between atoms: CG   and  CD  
REMARK    4  A    between atoms: CD   and  NE  
REMARK       I    between atoms: NE   and  CZ  
REMARK       I    between atoms: CZ   and  NH1 
REMARK       I    between atoms: CZ   and  NH2 
ROOT
ATOM      1  CA  ARG D 557     -26.217   2.705 -17.014  1.00 35.49     0.159 C 
ENDROOT
BRANCH   1   2
ATOM      2  CB  ARG D 557     -26.789   1.319 -17.183  1.00 35.49     0.034 C 
BRANCH   2   3
ATOM      3  CG  ARG D 557     -25.884   0.194 -16.918  1.00 35.49     0.027 C 
BRANCH   3   4
ATOM      4  CD  ARG D 557     -25.081   0.393 -15.690  1.00 35.49     0.116 C 
BRANCH   4   5
ATOM      5  NE  ARG D 557     -23.959  -0.505 -15.624  1.00 35.49    -0.212 N 
ATOM      6  CZ  ARG D 557     -23.844  -1.532 -14.812  1.00 35.49     0.666 C 
ATOM      7  NH1 ARG D 557     -24.775  -1.847 -13.931  1.00 35.49    -0.235 N 
ATOM      8  NH2 ARG D 557     -22.764  -2.253 -14.905  1.00 35.49    -0.235 N 
ATOM      9  HH  ARG D 557     -25.494  -1.388 -13.854  1.00 35.49     0.174 HD
ATOM     10  HH  ARG D 557     -24.646  -2.530 -13.429  1.00 35.49     0.174 HD
ATOM     11  HH  ARG D 557     -22.183  -2.030 -15.488  1.00 35.49     0.174 HD
ATOM     12  HH  ARG D 557     -22.656  -2.926 -14.400  1.00 35.49     0.174 HD
ATOM     13  HE  ARG D 557     -23.280  -0.333 -16.107  1.00 35.49     0.178 HD
ENDBRANCH   4   5
ENDBRANCH   3   4
ENDBRANCH   2   3
ENDBRANCH   1   2
END_RES ARG D 557
BEGIN_RES GLU D 570
REMARK  3 active torsions:
REMARK  status: ('A' for Active; 'I' for Inactive)
REMARK    5  A    between atoms: CA   and  CB  
REMARK    6  A    between atoms: CB   and  CG  
REMARK    7  A    between atoms: CG   and  CD  
ROOT
ATOM     14  CA  GLU D 570     -18.033  -6.348 -13.375  1.00 32.92     0.160 C 
ENDROOT
BRANCH  14  15
ATOM     15  CB  GLU D 570     -19.500  -6.345 -13.794  1.00 32.92     0.043 C 
BRANCH  15  16
ATOM     16  CG  GLU D 570     -19.799  -6.161 -15.238  1.00 32.92     0.100 C 
BRANCH  16  17
ATOM     17  CD  GLU D 570     -21.097  -5.426 -15.482  1.00 32.92     0.185 C 
ATOM     18  OE1 GLU D 570     -21.428  -5.155 -16.652  1.00 32.92    -0.647 OA
ATOM     19  OE2 GLU D 570     -21.781  -5.104 -14.491  1.00 32.92    -0.647 OA
ENDBRANCH  16  17
ENDBRANCH  15  16
ENDBRANCH  14  15
END_RES GLU D 570
ENDMDL
