MODEL 1
REMARK VINA RESULT:      -8.4      0.000      0.000
REMARK  7 active torsions:
REMARK  status: ('A' for Active; 'I' for Inactive)
REMARK    1  A    between atoms: C_3  and  C_10 
REMARK    2  A    between atoms: C_11  and  C_12 
REMARK    3  A    between atoms: C_13  and  C_14 
REMARK    4  A    between atoms: C_15  and  C_16 
REMARK    5  A    between atoms: C_17  and  C_18 
REMARK    6  A    between atoms: C_18  and  O_19 
REMARK    7  A    between atoms: O_19  and  C_20 
ROOT
HETATM    1  C   UNL     1     -20.834  -9.684  -5.221  1.00  0.00    -0.062 C 
HETATM    2  C   UNL     1     -20.117  -8.761  -5.901  1.00  0.00     0.007 C 
HETATM    3  C   UNL     1     -20.824 -11.134  -5.631  1.00  0.00     0.048 C 
ENDROOT
BRANCH   1   4
HETATM    4  C   UNL     1     -21.655  -9.388  -4.054  1.00  0.00     0.007 C 
HETATM    5  C   UNL     1     -21.175  -9.413  -2.799  1.00  0.00     0.009 C 
BRANCH   5   6
HETATM    6  C   UNL     1     -21.907  -8.929  -1.626  1.00  0.00    -0.048 C 
HETATM    7  C   UNL     1     -22.060  -7.621  -1.313  1.00  0.00    -0.077 C 
HETATM    8  C   UNL     1     -21.579  -6.471  -2.159  1.00  0.00     0.044 C 
HETATM    9  C   UNL     1     -22.761  -7.161  -0.046  1.00  0.00     0.034 C 
HETATM   10  C   UNL     1     -23.078  -8.251   0.973  1.00  0.00     0.005 C 
HETATM   11  C   UNL     1     -23.511  -9.528   0.282  1.00  0.00     0.014 C 
HETATM   12  C   UNL     1     -22.449 -10.048  -0.719  1.00  0.00    -0.020 C 
HETATM   13  C   UNL     1     -23.160 -11.160  -1.516  1.00  0.00     0.020 C 
HETATM   14  C   UNL     1     -21.243 -10.631   0.051  1.00  0.00     0.020 C 
ENDBRANCH   5   6
ENDBRANCH   1   4
BRANCH   2  15
HETATM   15  C   UNL     1     -20.133  -7.321  -5.687  1.00  0.00     0.001 C 
HETATM   16  C   UNL     1     -20.847  -6.468  -6.441  1.00  0.00     0.006 C 
BRANCH  16  17
HETATM   17  C   UNL     1     -20.798  -5.015  -6.346  1.00  0.00    -0.064 C 
HETATM   18  C   UNL     1     -21.279  -4.126  -7.236  1.00  0.00     0.006 C 
HETATM   19  C   UNL     1     -20.063  -4.475  -5.146  1.00  0.00     0.048 C 
BRANCH  18  20
HETATM   20  C   UNL     1     -21.940  -4.340  -8.558  1.00  0.00     0.206 C 
BRANCH  20  21
HETATM   21  O   UNL     1     -23.354  -4.162  -8.348  1.00  0.00    -0.318 OA
BRANCH  21  22
HETATM   22  C   UNL     1     -24.104  -3.864  -9.444  1.00  0.00     0.255 C 
HETATM   23  O   UNL     1     -24.876  -2.926  -9.546  1.00  0.00    -0.266 OA
HETATM   24  C   UNL     1     -23.844  -4.859 -10.537  1.00  0.00     0.126 C 
ENDBRANCH  21  22
ENDBRANCH  20  21
ENDBRANCH  18  20
ENDBRANCH  16  17
ENDBRANCH   2  15
TORSDOF 7
BEGIN_RES ARG D 557
REMARK  4 active torsions:
REMARK  status: ('A' for Active; 'I' for Inactive)
REMARK    1  A    between atoms: CA   and  CB  
REMARK    2  A    between atoms: CB   and  CG  
REMARK    3  A    between atoms: CG   and  CD  
REMARK    4  A    between atoms: CD   and  NE  
REMARK       I    between atoms: NE   and  CZ  
REMARK       I    between atoms: CZ   and  NH1 
REMARK       I    between atoms: CZ   and  NH2 
ROOT
ATOM      1  CA  ARG D 557     -26.217   2.705 -17.014  1.00 35.49     0.159 C 
ENDROOT
BRANCH   1   2
ATOM      2  CB  ARG D 557     -26.789   1.319 -17.183  1.00 35.49     0.034 C 
BRANCH   2   3
ATOM      3  CG  ARG D 557     -25.840   0.201 -17.122  1.00 35.49     0.027 C 
BRANCH   3   4
ATOM      4  CD  ARG D 557     -24.757   0.433 -16.138  1.00 35.49     0.116 C 
BRANCH   4   5
ATOM      5  NE  ARG D 557     -24.875  -0.426 -14.990  1.00 35.49    -0.212 N 
ATOM      6  CZ  ARG D 557     -24.047  -1.394 -14.667  1.00 35.49     0.666 C 
ATOM      7  NH1 ARG D 557     -22.991  -1.698 -15.398  1.00 35.49    -0.235 N 
ATOM      8  NH2 ARG D 557     -24.296  -2.059 -13.576  1.00 35.49    -0.235 N 
ATOM      9  HH  ARG D 557     -22.806  -1.272 -16.119  1.00 35.49     0.174 HD
ATOM     10  HH  ARG D 557     -22.484  -2.338 -15.137  1.00 35.49     0.174 HD
ATOM     11  HH  ARG D 557     -24.981  -1.836 -13.119  1.00 35.49     0.174 HD
ATOM     12  HH  ARG D 557     -23.782  -2.688 -13.333  1.00 35.49     0.174 HD
ATOM     13  HE  ARG D 557     -25.567  -0.348 -14.502  1.00 35.49     0.178 HD
ENDBRANCH   4   5
ENDBRANCH   3   4
ENDBRANCH   2   3
ENDBRANCH   1   2
END_RES ARG D 557
BEGIN_RES GLU D 570
REMARK  3 active torsions:
REMARK  status: ('A' for Active; 'I' for Inactive)
REMARK    5  A    between atoms: CA   and  CB  
REMARK    6  A    between atoms: CB   and  CG  
REMARK    7  A    between atoms: CG   and  CD  
ROOT
ATOM     14  CA  GLU D 570     -18.033  -6.348 -13.375  1.00 32.92     0.160 C 
ENDROOT
BRANCH  14  15
ATOM     15  CB  GLU D 570     -19.500  -6.345 -13.794  1.00 32.92     0.043 C 
BRANCH  15  16
ATOM     16  CG  GLU D 570     -20.455  -5.594 -12.938  1.00 32.92     0.100 C 
BRANCH  16  17
ATOM     17  CD  GLU D 570     -21.735  -5.236 -13.657  1.00 32.92     0.185 C 
ATOM     18  OE1 GLU D 570     -22.161  -4.067 -13.588  1.00 32.92    -0.647 OA
ATOM     19  OE2 GLU D 570     -22.326  -6.138 -14.282  1.00 32.92    -0.647 OA
ENDBRANCH  16  17
ENDBRANCH  15  16
ENDBRANCH  14  15
END_RES GLU D 570
ENDMDL
MODEL 2
REMARK VINA RESULT:      -8.2      5.095     10.987
REMARK  7 active torsions:
REMARK  status: ('A' for Active; 'I' for Inactive)
REMARK    1  A    between atoms: C_3  and  C_10 
REMARK    2  A    between atoms: C_11  and  C_12 
REMARK    3  A    between atoms: C_13  and  C_14 
REMARK    4  A    between atoms: C_15  and  C_16 
REMARK    5  A    between atoms: C_17  and  C_18 
REMARK    6  A    between atoms: C_18  and  O_19 
REMARK    7  A    between atoms: O_19  and  C_20 
ROOT
HETATM    1  C   UNL     1     -24.357  -6.561 -15.317  1.00  0.00    -0.062 C 
HETATM    2  C   UNL     1     -23.615  -6.392 -14.199  1.00  0.00     0.007 C 
HETATM    3  C   UNL     1     -24.198  -7.787 -16.178  1.00  0.00     0.048 C 
ENDROOT
BRANCH   1   4
HETATM    4  C   UNL     1     -25.363  -5.617 -15.785  1.00  0.00     0.007 C 
HETATM    5  C   UNL     1     -26.341  -5.957 -16.641  1.00  0.00     0.009 C 
BRANCH   5   6
HETATM    6  C   UNL     1     -27.481  -5.100 -16.975  1.00  0.00    -0.048 C 
HETATM    7  C   UNL     1     -27.703  -3.883 -16.426  1.00  0.00    -0.077 C 
HETATM    8  C   UNL     1     -26.777  -3.193 -15.458  1.00  0.00     0.044 C 
HETATM    9  C   UNL     1     -28.939  -3.057 -16.741  1.00  0.00     0.034 C 
HETATM   10  C   UNL     1     -30.033  -3.770 -17.530  1.00  0.00     0.005 C 
HETATM   11  C   UNL     1     -29.434  -4.682 -18.582  1.00  0.00     0.014 C 
HETATM   12  C   UNL     1     -28.467  -5.729 -17.976  1.00  0.00    -0.020 C 
HETATM   13  C   UNL     1     -27.753  -6.363 -19.187  1.00  0.00     0.020 C 
HETATM   14  C   UNL     1     -29.269  -6.803 -17.208  1.00  0.00     0.020 C 
ENDBRANCH   5   6
ENDBRANCH   1   4
BRANCH   2  15
HETATM   15  C   UNL     1     -23.584  -5.209 -13.351  1.00  0.00     0.001 C 
HETATM   16  C   UNL     1     -22.991  -5.177 -12.145  1.00  0.00     0.006 C 
BRANCH  16  17
HETATM   17  C   UNL     1     -23.041  -4.061 -11.211  1.00  0.00    -0.064 C 
HETATM   18  C   UNL     1     -21.995  -3.393 -10.687  1.00  0.00     0.006 C 
HETATM   19  C   UNL     1     -24.421  -3.679 -10.740  1.00  0.00     0.048 C 
BRANCH  18  20
HETATM   20  C   UNL     1     -20.526  -3.605 -10.858  1.00  0.00     0.206 C 
BRANCH  20  21
HETATM   21  O   UNL     1     -20.172  -4.732 -10.033  1.00  0.00    -0.318 OA
BRANCH  21  22
HETATM   22  C   UNL     1     -20.085  -4.508  -8.694  1.00  0.00     0.255 C 
HETATM   23  O   UNL     1     -19.481  -3.592  -8.162  1.00  0.00    -0.266 OA
HETATM   24  C   UNL     1     -20.854  -5.554  -7.942  1.00  0.00     0.126 C 
ENDBRANCH  21  22
ENDBRANCH  20  21
ENDBRANCH  18  20
ENDBRANCH  16  17
ENDBRANCH   2  15
TORSDOF 7
BEGIN_RES ARG D 557
REMARK  4 active torsions:
REMARK  status: ('A' for Active; 'I' for Inactive)
REMARK    1  A    between atoms: CA   and  CB  
REMARK    2  A    between atoms: CB   and  CG  
REMARK    3  A    between atoms: CG   and  CD  
REMARK    4  A    between atoms: CD   and  NE  
REMARK       I    between atoms: NE   and  CZ  
REMARK       I    between atoms: CZ   and  NH1 
REMARK       I    between atoms: CZ   and  NH2 
ROOT
ATOM      1  CA  ARG D 557     -26.217   2.705 -17.014  1.00 35.49     0.159 C 
ENDROOT
BRANCH   1   2
ATOM      2  CB  ARG D 557     -26.789   1.319 -17.183  1.00 35.49     0.034 C 
BRANCH   2   3
ATOM      3  CG  ARG D 557     -25.833   0.205 -17.178  1.00 35.49     0.027 C 
BRANCH   3   4
ATOM      4  CD  ARG D 557     -24.642   0.486 -16.345  1.00 35.49     0.116 C 
BRANCH   4   5
ATOM      5  NE  ARG D 557     -24.659  -0.250 -15.108  1.00 35.49    -0.212 N 
ATOM      6  CZ  ARG D 557     -23.827  -1.212 -14.776  1.00 35.49     0.666 C 
ATOM      7  NH1 ARG D 557     -22.864  -1.625 -15.578  1.00 35.49    -0.235 N 
ATOM      8  NH2 ARG D 557     -23.977  -1.756 -13.603  1.00 35.49    -0.235 N 
ATOM      9  HH  ARG D 557     -22.746  -1.280 -16.353  1.00 35.49     0.174 HD
ATOM     10  HH  ARG D 557     -22.350  -2.255 -15.306  1.00 35.49     0.174 HD
ATOM     11  HH  ARG D 557     -24.603  -1.463 -13.103  1.00 35.49     0.174 HD
ATOM     12  HH  ARG D 557     -23.457  -2.376 -13.351  1.00 35.49     0.174 HD
ATOM     13  HE  ARG D 557     -25.293  -0.098 -14.562  1.00 35.49     0.178 HD
ENDBRANCH   4   5
ENDBRANCH   3   4
ENDBRANCH   2   3
ENDBRANCH   1   2
END_RES ARG D 557
BEGIN_RES GLU D 570
REMARK  3 active torsions:
REMARK  status: ('A' for Active; 'I' for Inactive)
REMARK    5  A    between atoms: CA   and  CB  
REMARK    6  A    between atoms: CB   and  CG  
REMARK    7  A    between atoms: CG   and  CD  
ROOT
ATOM     14  CA  GLU D 570     -18.033  -6.348 -13.375  1.00 32.92     0.160 C 
ENDROOT
BRANCH  14  15
ATOM     15  CB  GLU D 570     -19.500  -6.345 -13.794  1.00 32.92     0.043 C 
BRANCH  15  16
ATOM     16  CG  GLU D 570     -20.101  -7.644 -14.193  1.00 32.92     0.100 C 
BRANCH  16  17
ATOM     17  CD  GLU D 570     -20.539  -7.672 -15.639  1.00 32.92     0.185 C 
ATOM     18  OE1 GLU D 570     -20.712  -8.772 -16.197  1.00 32.92    -0.647 OA
ATOM     19  OE2 GLU D 570     -20.693  -6.582 -16.224  1.00 32.92    -0.647 OA
ENDBRANCH  16  17
ENDBRANCH  15  16
ENDBRANCH  14  15
END_RES GLU D 570
ENDMDL
MODEL 3
REMARK VINA RESULT:      -7.9      1.882      3.514
REMARK  7 active torsions:
REMARK  status: ('A' for Active; 'I' for Inactive)
REMARK    1  A    between atoms: C_3  and  C_10 
REMARK    2  A    between atoms: C_11  and  C_12 
REMARK    3  A    between atoms: C_13  and  C_14 
REMARK    4  A    between atoms: C_15  and  C_16 
REMARK    5  A    between atoms: C_17  and  C_18 
REMARK    6  A    between atoms: C_18  and  O_19 
REMARK    7  A    between atoms: O_19  and  C_20 
ROOT
HETATM    1  C   UNL     1     -21.629  -7.262  -2.425  1.00  0.00    -0.062 C 
HETATM    2  C   UNL     1     -21.907  -6.331  -3.366  1.00  0.00     0.007 C 
HETATM    3  C   UNL     1     -22.048  -7.068  -0.991  1.00  0.00     0.048 C 
ENDROOT
BRANCH   1   4
HETATM    4  C   UNL     1     -20.931  -8.513  -2.690  1.00  0.00     0.007 C 
HETATM    5  C   UNL     1     -19.668  -8.743  -2.290  1.00  0.00     0.009 C 
BRANCH   5   6
HETATM    6  C   UNL     1     -19.007 -10.048  -2.356  1.00  0.00    -0.048 C 
HETATM    7  C   UNL     1     -19.275 -11.079  -1.522  1.00  0.00    -0.077 C 
HETATM    8  C   UNL     1     -20.344 -11.072  -0.461  1.00  0.00     0.044 C 
HETATM    9  C   UNL     1     -18.512 -12.392  -1.574  1.00  0.00     0.034 C 
HETATM   10  C   UNL     1     -17.271 -12.407  -2.460  1.00  0.00     0.005 C 
HETATM   11  C   UNL     1     -17.500 -11.606  -3.726  1.00  0.00     0.014 C 
HETATM   12  C   UNL     1     -17.911 -10.142  -3.433  1.00  0.00    -0.020 C 
HETATM   13  C   UNL     1     -18.369  -9.576  -4.792  1.00  0.00     0.020 C 
HETATM   14  C   UNL     1     -16.692  -9.349  -2.909  1.00  0.00     0.020 C 
ENDBRANCH   5   6
ENDBRANCH   1   4
BRANCH   2  15
HETATM   15  C   UNL     1     -21.458  -6.337  -4.750  1.00  0.00     0.001 C 
HETATM   16  C   UNL     1     -21.141  -5.223  -5.432  1.00  0.00     0.006 C 
BRANCH  16  17
HETATM   17  C   UNL     1     -20.808  -5.167  -6.849  1.00  0.00    -0.064 C 
HETATM   18  C   UNL     1     -21.601  -4.747  -7.854  1.00  0.00     0.006 C 
HETATM   19  C   UNL     1     -19.449  -5.711  -7.211  1.00  0.00     0.048 C 
BRANCH  18  20
HETATM   20  C   UNL     1     -23.016  -4.272  -7.837  1.00  0.00     0.206 C 
BRANCH  20  21
HETATM   21  O   UNL     1     -23.196  -3.461  -9.014  1.00  0.00    -0.318 OA
BRANCH  21  22
HETATM   22  C   UNL     1     -24.225  -3.796  -9.838  1.00  0.00     0.255 C 
HETATM   23  O   UNL     1     -25.280  -3.192  -9.943  1.00  0.00    -0.266 OA
HETATM   24  C   UNL     1     -23.880  -5.025 -10.626  1.00  0.00     0.126 C 
ENDBRANCH  21  22
ENDBRANCH  20  21
ENDBRANCH  18  20
ENDBRANCH  16  17
ENDBRANCH   2  15
TORSDOF 7
BEGIN_RES ARG D 557
REMARK  4 active torsions:
REMARK  status: ('A' for Active; 'I' for Inactive)
REMARK    1  A    between atoms: CA   and  CB  
REMARK    2  A    between atoms: CB   and  CG  
REMARK    3  A    between atoms: CG   and  CD  
REMARK    4  A    between atoms: CD   and  NE  
REMARK       I    between atoms: NE   and  CZ  
REMARK       I    between atoms: CZ   and  NH1 
REMARK       I    between atoms: CZ   and  NH2 
ROOT
ATOM      1  CA  ARG D 557     -26.217   2.705 -17.014  1.00 35.49     0.159 C 
ENDROOT
BRANCH   1   2
ATOM      2  CB  ARG D 557     -26.789   1.319 -17.183  1.00 35.49     0.034 C 
BRANCH   2   3
ATOM      3  CG  ARG D 557     -25.836   0.203 -17.152  1.00 35.49     0.027 C 
BRANCH   3   4
ATOM      4  CD  ARG D 557     -24.751   0.414 -16.167  1.00 35.49     0.116 C 
BRANCH   4   5
ATOM      5  NE  ARG D 557     -24.896  -0.432 -15.012  1.00 35.49    -0.212 N 
ATOM      6  CZ  ARG D 557     -24.083  -1.405 -14.666  1.00 35.49     0.666 C 
ATOM      7  NH1 ARG D 557     -23.018  -1.727 -15.378  1.00 35.49    -0.235 N 
ATOM      8  NH2 ARG D 557     -24.357  -2.056 -13.573  1.00 35.49    -0.235 N 
ATOM      9  HH  ARG D 557     -22.818  -1.311 -16.099  1.00 35.49     0.174 HD
ATOM     10  HH  ARG D 557     -22.523  -2.369 -15.102  1.00 35.49     0.174 HD
ATOM     11  HH  ARG D 557     -25.046  -1.822 -13.129  1.00 35.49     0.174 HD
ATOM     12  HH  ARG D 557     -23.853  -2.688 -13.315  1.00 35.49     0.174 HD
ATOM     13  HE  ARG D 557     -25.594  -0.342 -14.535  1.00 35.49     0.178 HD
ENDBRANCH   4   5
ENDBRANCH   3   4
ENDBRANCH   2   3
ENDBRANCH   1   2
END_RES ARG D 557
BEGIN_RES GLU D 570
REMARK  3 active torsions:
REMARK  status: ('A' for Active; 'I' for Inactive)
REMARK    5  A    between atoms: CA   and  CB  
REMARK    6  A    between atoms: CB   and  CG  
REMARK    7  A    between atoms: CG   and  CD  
ROOT
ATOM     14  CA  GLU D 570     -18.033  -6.348 -13.375  1.00 32.92     0.160 C 
ENDROOT
BRANCH  14  15
ATOM     15  CB  GLU D 570     -19.500  -6.345 -13.794  1.00 32.92     0.043 C 
BRANCH  15  16
ATOM     16  CG  GLU D 570     -20.439  -5.519 -12.992  1.00 32.92     0.100 C 
BRANCH  16  17
ATOM     17  CD  GLU D 570     -21.738  -5.237 -13.711  1.00 32.92     0.185 C 
ATOM     18  OE1 GLU D 570     -22.255  -6.136 -14.401  1.00 32.92    -0.647 OA
ATOM     19  OE2 GLU D 570     -22.234  -4.099 -13.597  1.00 32.92    -0.647 OA
ENDBRANCH  16  17
ENDBRANCH  15  16
ENDBRANCH  14  15
END_RES GLU D 570
ENDMDL
MODEL 4
REMARK VINA RESULT:      -7.6      1.421      3.449
REMARK  7 active torsions:
REMARK  status: ('A' for Active; 'I' for Inactive)
REMARK    1  A    between atoms: C_3  and  C_10 
REMARK    2  A    between atoms: C_11  and  C_12 
REMARK    3  A    between atoms: C_13  and  C_14 
REMARK    4  A    between atoms: C_15  and  C_16 
REMARK    5  A    between atoms: C_17  and  C_18 
REMARK    6  A    between atoms: C_18  and  O_19 
REMARK    7  A    between atoms: O_19  and  C_20 
ROOT
HETATM    1  C   UNL     1     -22.338  -7.776  -0.705  1.00  0.00    -0.062 C 
HETATM    2  C   UNL     1     -22.136  -6.697  -1.496  1.00  0.00     0.007 C 
HETATM    3  C   UNL     1     -23.083  -7.655   0.599  1.00  0.00     0.048 C 
ENDROOT
BRANCH   1   4
HETATM    4  C   UNL     1     -21.885  -9.123  -1.022  1.00  0.00     0.007 C 
HETATM    5  C   UNL     1     -22.727 -10.155  -1.196  1.00  0.00     0.009 C 
BRANCH   5   6
HETATM    6  C   UNL     1     -22.329 -11.467  -1.712  1.00  0.00    -0.048 C 
HETATM    7  C   UNL     1     -22.041 -11.718  -3.009  1.00  0.00    -0.077 C 
HETATM    8  C   UNL     1     -22.002 -10.679  -4.100  1.00  0.00     0.044 C 
HETATM    9  C   UNL     1     -21.707 -13.110  -3.518  1.00  0.00     0.034 C 
HETATM   10  C   UNL     1     -21.941 -14.252  -2.536  1.00  0.00     0.005 C 
HETATM   11  C   UNL     1     -21.560 -13.842  -1.128  1.00  0.00     0.014 C 
HETATM   12  C   UNL     1     -22.325 -12.583  -0.651  1.00  0.00    -0.020 C 
HETATM   13  C   UNL     1     -21.620 -12.155   0.652  1.00  0.00     0.020 C 
HETATM   14  C   UNL     1     -23.801 -12.942  -0.365  1.00  0.00     0.020 C 
ENDBRANCH   5   6
ENDBRANCH   1   4
BRANCH   2  15
HETATM   15  C   UNL     1     -21.336  -6.652  -2.711  1.00  0.00     0.001 C 
HETATM   16  C   UNL     1     -21.865  -6.600  -3.946  1.00  0.00     0.006 C 
BRANCH  16  17
HETATM   17  C   UNL     1     -21.111  -6.678  -5.189  1.00  0.00    -0.064 C 
HETATM   18  C   UNL     1     -21.317  -5.960  -6.310  1.00  0.00     0.006 C 
HETATM   19  C   UNL     1     -20.037  -7.735  -5.223  1.00  0.00     0.048 C 
BRANCH  18  20
HETATM   20  C   UNL     1     -22.359  -4.940  -6.630  1.00  0.00     0.206 C 
BRANCH  20  21
HETATM   21  O   UNL     1     -21.767  -4.022  -7.569  1.00  0.00    -0.318 OA
BRANCH  21  22
HETATM   22  C   UNL     1     -21.739  -4.411  -8.872  1.00  0.00     0.255 C 
HETATM   23  O   UNL     1     -22.679  -4.873  -9.498  1.00  0.00    -0.266 OA
HETATM   24  C   UNL     1     -20.375  -4.182  -9.454  1.00  0.00     0.126 C 
ENDBRANCH  21  22
ENDBRANCH  20  21
ENDBRANCH  18  20
ENDBRANCH  16  17
ENDBRANCH   2  15
TORSDOF 7
BEGIN_RES ARG D 557
REMARK  4 active torsions:
REMARK  status: ('A' for Active; 'I' for Inactive)
REMARK    1  A    between atoms: CA   and  CB  
REMARK    2  A    between atoms: CB   and  CG  
REMARK    3  A    between atoms: CG   and  CD  
REMARK    4  A    between atoms: CD   and  NE  
REMARK       I    between atoms: NE   and  CZ  
REMARK       I    between atoms: CZ   and  NH1 
REMARK       I    between atoms: CZ   and  NH2 
ROOT
ATOM      1  CA  ARG D 557     -26.217   2.705 -17.014  1.00 35.49     0.159 C 
ENDROOT
BRANCH   1   2
ATOM      2  CB  ARG D 557     -26.789   1.319 -17.183  1.00 35.49     0.034 C 
BRANCH   2   3
ATOM      3  CG  ARG D 557     -25.836   0.203 -17.156  1.00 35.49     0.027 C 
BRANCH   3   4
ATOM      4  CD  ARG D 557     -24.756   0.407 -16.163  1.00 35.49     0.116 C 
BRANCH   4   5
ATOM      5  NE  ARG D 557     -24.908  -0.446 -15.014  1.00 35.49    -0.212 N 
ATOM      6  CZ  ARG D 557     -24.095  -1.418 -14.666  1.00 35.49     0.666 C 
ATOM      7  NH1 ARG D 557     -23.024  -1.733 -15.370  1.00 35.49    -0.235 N 
ATOM      8  NH2 ARG D 557     -24.377  -2.077 -13.579  1.00 35.49    -0.235 N 
ATOM      9  HH  ARG D 557     -22.818  -1.311 -16.088  1.00 35.49     0.174 HD
ATOM     10  HH  ARG D 557     -22.528  -2.375 -15.093  1.00 35.49     0.174 HD
ATOM     11  HH  ARG D 557     -25.071  -1.847 -13.141  1.00 35.49     0.174 HD
ATOM     12  HH  ARG D 557     -23.873  -2.708 -13.321  1.00 35.49     0.174 HD
ATOM     13  HE  ARG D 557     -25.612  -0.361 -14.543  1.00 35.49     0.178 HD
ENDBRANCH   4   5
ENDBRANCH   3   4
ENDBRANCH   2   3
ENDBRANCH   1   2
END_RES ARG D 557
BEGIN_RES GLU D 570
REMARK  3 active torsions:
REMARK  status: ('A' for Active; 'I' for Inactive)
REMARK    5  A    between atoms: CA   and  CB  
REMARK    6  A    between atoms: CB   and  CG  
REMARK    7  A    between atoms: CG   and  CD  
ROOT
ATOM     14  CA  GLU D 570     -18.033  -6.348 -13.375  1.00 32.92     0.160 C 
ENDROOT
BRANCH  14  15
ATOM     15  CB  GLU D 570     -19.500  -6.345 -13.794  1.00 32.92     0.043 C 
BRANCH  15  16
ATOM     16  CG  GLU D 570     -20.445  -5.545 -12.973  1.00 32.92     0.100 C 
BRANCH  16  17
ATOM     17  CD  GLU D 570     -21.729  -5.221 -13.699  1.00 32.92     0.185 C 
ATOM     18  OE1 GLU D 570     -22.165  -6.026 -14.545  1.00 32.92    -0.647 OA
ATOM     19  OE2 GLU D 570     -22.297  -4.144 -13.432  1.00 32.92    -0.647 OA
ENDBRANCH  16  17
ENDBRANCH  15  16
ENDBRANCH  14  15
END_RES GLU D 570
ENDMDL
MODEL 5
REMARK VINA RESULT:      -7.4      1.524      3.785
REMARK  7 active torsions:
REMARK  status: ('A' for Active; 'I' for Inactive)
REMARK    1  A    between atoms: C_3  and  C_10 
REMARK    2  A    between atoms: C_11  and  C_12 
REMARK    3  A    between atoms: C_13  and  C_14 
REMARK    4  A    between atoms: C_15  and  C_16 
REMARK    5  A    between atoms: C_17  and  C_18 
REMARK    6  A    between atoms: C_18  and  O_19 
REMARK    7  A    between atoms: O_19  and  C_20 
ROOT
HETATM    1  C   UNL     1     -22.409  -8.105  -0.253  1.00  0.00    -0.062 C 
HETATM    2  C   UNL     1     -22.026  -7.128  -1.107  1.00  0.00     0.007 C 
HETATM    3  C   UNL     1     -23.231  -7.791   0.970  1.00  0.00     0.048 C 
ENDROOT
BRANCH   1   4
HETATM    4  C   UNL     1     -22.089  -9.516  -0.423  1.00  0.00     0.007 C 
HETATM    5  C   UNL     1     -22.959 -10.406  -0.931  1.00  0.00     0.009 C 
BRANCH   5   6
HETATM    6  C   UNL     1     -22.612 -11.779  -1.305  1.00  0.00    -0.048 C 
HETATM    7  C   UNL     1     -22.795 -12.854  -0.504  1.00  0.00    -0.077 C 
HETATM    8  C   UNL     1     -23.454 -12.817   0.850  1.00  0.00     0.044 C 
HETATM    9  C   UNL     1     -22.350 -14.252  -0.899  1.00  0.00     0.034 C 
HETATM   10  C   UNL     1     -21.477 -14.346  -2.145  1.00  0.00     0.005 C 
HETATM   11  C   UNL     1     -21.936 -13.363  -3.204  1.00  0.00     0.014 C 
HETATM   12  C   UNL     1     -21.949 -11.902  -2.688  1.00  0.00    -0.020 C 
HETATM   13  C   UNL     1     -22.695 -11.101  -3.774  1.00  0.00     0.020 C 
HETATM   14  C   UNL     1     -20.500 -11.384  -2.544  1.00  0.00     0.020 C 
ENDBRANCH   5   6
ENDBRANCH   1   4
BRANCH   2  15
HETATM   15  C   UNL     1     -21.136  -7.276  -2.249  1.00  0.00     0.001 C 
HETATM   16  C   UNL     1     -21.530  -7.106  -3.523  1.00  0.00     0.006 C 
BRANCH  16  17
HETATM   17  C   UNL     1     -20.712  -7.363  -4.700  1.00  0.00    -0.064 C 
HETATM   18  C   UNL     1     -20.706  -6.667  -5.853  1.00  0.00     0.006 C 
HETATM   19  C   UNL     1     -19.839  -8.589  -4.619  1.00  0.00     0.048 C 
BRANCH  18  20
HETATM   20  C   UNL     1     -21.528  -5.496  -6.282  1.00  0.00     0.206 C 
BRANCH  20  21
HETATM   21  O   UNL     1     -21.548  -5.508  -7.722  1.00  0.00    -0.318 OA
BRANCH  21  22
HETATM   22  C   UNL     1     -21.390  -4.311  -8.348  1.00  0.00     0.255 C 
HETATM   23  O   UNL     1     -22.287  -3.612  -8.788  1.00  0.00    -0.266 OA
HETATM   24  C   UNL     1     -19.935  -3.950  -8.419  1.00  0.00     0.126 C 
ENDBRANCH  21  22
ENDBRANCH  20  21
ENDBRANCH  18  20
ENDBRANCH  16  17
ENDBRANCH   2  15
TORSDOF 7
BEGIN_RES ARG D 557
REMARK  4 active torsions:
REMARK  status: ('A' for Active; 'I' for Inactive)
REMARK    1  A    between atoms: CA   and  CB  
REMARK    2  A    between atoms: CB   and  CG  
REMARK    3  A    between atoms: CG   and  CD  
REMARK    4  A    between atoms: CD   and  NE  
REMARK       I    between atoms: NE   and  CZ  
REMARK       I    between atoms: CZ   and  NH1 
REMARK       I    between atoms: CZ   and  NH2 
ROOT
ATOM      1  CA  ARG D 557     -26.217   2.705 -17.014  1.00 35.49     0.159 C 
ENDROOT
BRANCH   1   2
ATOM      2  CB  ARG D 557     -26.789   1.319 -17.183  1.00 35.49     0.034 C 
BRANCH   2   3
ATOM      3  CG  ARG D 557     -25.836   0.203 -17.157  1.00 35.49     0.027 C 
BRANCH   3   4
ATOM      4  CD  ARG D 557     -24.757   0.405 -16.163  1.00 35.49     0.116 C 
BRANCH   4   5
ATOM      5  NE  ARG D 557     -24.913  -0.445 -15.013  1.00 35.49    -0.212 N 
ATOM      6  CZ  ARG D 557     -24.105  -1.420 -14.663  1.00 35.49     0.666 C 
ATOM      7  NH1 ARG D 557     -23.034  -1.740 -15.365  1.00 35.49    -0.235 N 
ATOM      8  NH2 ARG D 557     -24.390  -2.075 -13.575  1.00 35.49    -0.235 N 
ATOM      9  HH  ARG D 557     -22.826  -1.321 -16.083  1.00 35.49     0.174 HD
ATOM     10  HH  ARG D 557     -22.542  -2.384 -15.087  1.00 35.49     0.174 HD
ATOM     11  HH  ARG D 557     -25.083  -1.841 -13.137  1.00 35.49     0.174 HD
ATOM     12  HH  ARG D 557     -23.889  -2.708 -13.315  1.00 35.49     0.174 HD
ATOM     13  HE  ARG D 557     -25.616  -0.356 -14.543  1.00 35.49     0.178 HD
ENDBRANCH   4   5
ENDBRANCH   3   4
ENDBRANCH   2   3
ENDBRANCH   1   2
END_RES ARG D 557
BEGIN_RES GLU D 570
REMARK  3 active torsions:
REMARK  status: ('A' for Active; 'I' for Inactive)
REMARK    5  A    between atoms: CA   and  CB  
REMARK    6  A    between atoms: CB   and  CG  
REMARK    7  A    between atoms: CG   and  CD  
ROOT
ATOM     14  CA  GLU D 570     -18.033  -6.348 -13.375  1.00 32.92     0.160 C 
ENDROOT
BRANCH  14  15
ATOM     15  CB  GLU D 570     -19.500  -6.345 -13.794  1.00 32.92     0.043 C 
BRANCH  15  16
ATOM     16  CG  GLU D 570     -20.440  -5.524 -12.988  1.00 32.92     0.100 C 
BRANCH  16  17
ATOM     17  CD  GLU D 570     -21.725  -5.211 -13.720  1.00 32.92     0.185 C 
ATOM     18  OE1 GLU D 570     -22.326  -4.150 -13.461  1.00 32.92    -0.647 OA
ATOM     19  OE2 GLU D 570     -22.143  -6.043 -14.549  1.00 32.92    -0.647 OA
ENDBRANCH  16  17
ENDBRANCH  15  16
ENDBRANCH  14  15
END_RES GLU D 570
ENDMDL
MODEL 6
REMARK VINA RESULT:      -7.4      2.320      4.087
REMARK  7 active torsions:
REMARK  status: ('A' for Active; 'I' for Inactive)
REMARK    1  A    between atoms: C_3  and  C_10 
REMARK    2  A    between atoms: C_11  and  C_12 
REMARK    3  A    between atoms: C_13  and  C_14 
REMARK    4  A    between atoms: C_15  and  C_16 
REMARK    5  A    between atoms: C_17  and  C_18 
REMARK    6  A    between atoms: C_18  and  O_19 
REMARK    7  A    between atoms: O_19  and  C_20 
ROOT
HETATM    1  C   UNL     1     -22.010  -7.411  -0.961  1.00  0.00    -0.062 C 
HETATM    2  C   UNL     1     -22.295  -6.459  -1.878  1.00  0.00     0.007 C 
HETATM    3  C   UNL     1     -22.805  -7.526   0.314  1.00  0.00     0.048 C 
ENDROOT
BRANCH   1   4
HETATM    4  C   UNL     1     -20.952  -8.401  -1.108  1.00  0.00     0.007 C 
HETATM    5  C   UNL     1     -21.187  -9.675  -1.467  1.00  0.00     0.009 C 
BRANCH   5   6
HETATM    6  C   UNL     1     -20.143 -10.639  -1.820  1.00  0.00    -0.048 C 
HETATM    7  C   UNL     1     -19.604 -11.528  -0.954  1.00  0.00    -0.077 C 
HETATM    8  C   UNL     1     -20.050 -11.718   0.473  1.00  0.00     0.044 C 
HETATM    9  C   UNL     1     -18.468 -12.460  -1.340  1.00  0.00     0.034 C 
HETATM   10  C   UNL     1     -17.807 -12.183  -2.686  1.00  0.00     0.005 C 
HETATM   11  C   UNL     1     -18.835 -11.763  -3.717  1.00  0.00     0.014 C 
HETATM   12  C   UNL     1     -19.646 -10.521  -3.273  1.00  0.00    -0.020 C 
HETATM   13  C   UNL     1     -20.804 -10.416  -4.286  1.00  0.00     0.020 C 
HETATM   14  C   UNL     1     -18.757  -9.259  -3.346  1.00  0.00     0.020 C 
ENDBRANCH   5   6
ENDBRANCH   1   4
BRANCH   2  15
HETATM   15  C   UNL     1     -21.536  -6.163  -3.085  1.00  0.00     0.001 C 
HETATM   16  C   UNL     1     -21.939  -6.513  -4.318  1.00  0.00     0.006 C 
BRANCH  16  17
HETATM   17  C   UNL     1     -21.159  -6.351  -5.538  1.00  0.00    -0.064 C 
HETATM   18  C   UNL     1     -21.436  -5.541  -6.577  1.00  0.00     0.006 C 
HETATM   19  C   UNL     1     -19.956  -7.251  -5.654  1.00  0.00     0.048 C 
BRANCH  18  20
HETATM   20  C   UNL     1     -22.596  -4.631  -6.814  1.00  0.00     0.206 C 
BRANCH  20  21
HETATM   21  O   UNL     1     -22.184  -3.686  -7.820  1.00  0.00    -0.318 OA
BRANCH  21  22
HETATM   22  C   UNL     1     -22.856  -3.717  -9.003  1.00  0.00     0.255 C 
HETATM   23  O   UNL     1     -24.066  -3.640  -9.137  1.00  0.00    -0.266 OA
HETATM   24  C   UNL     1     -21.892  -3.850 -10.145  1.00  0.00     0.126 C 
ENDBRANCH  21  22
ENDBRANCH  20  21
ENDBRANCH  18  20
ENDBRANCH  16  17
ENDBRANCH   2  15
TORSDOF 7
BEGIN_RES ARG D 557
REMARK  4 active torsions:
REMARK  status: ('A' for Active; 'I' for Inactive)
REMARK    1  A    between atoms: CA   and  CB  
REMARK    2  A    between atoms: CB   and  CG  
REMARK    3  A    between atoms: CG   and  CD  
REMARK    4  A    between atoms: CD   and  NE  
REMARK       I    between atoms: NE   and  CZ  
REMARK       I    between atoms: CZ   and  NH1 
REMARK       I    between atoms: CZ   and  NH2 
ROOT
ATOM      1  CA  ARG D 557     -26.217   2.705 -17.014  1.00 35.49     0.159 C 
ENDROOT
BRANCH   1   2
ATOM      2  CB  ARG D 557     -26.789   1.319 -17.183  1.00 35.49     0.034 C 
BRANCH   2   3
ATOM      3  CG  ARG D 557     -28.233   1.226 -17.433  1.00 35.49     0.027 C 
BRANCH   3   4
ATOM      4  CD  ARG D 557     -28.908   0.295 -16.500  1.00 35.49     0.116 C 
BRANCH   4   5
ATOM      5  NE  ARG D 557     -29.307  -0.927 -17.147  1.00 35.49    -0.212 N 
ATOM      6  CZ  ARG D 557     -28.689  -2.083 -17.051  1.00 35.49     0.666 C 
ATOM      7  NH1 ARG D 557     -27.591  -2.244 -16.337  1.00 35.49    -0.235 N 
ATOM      8  NH2 ARG D 557     -29.205  -3.093 -17.690  1.00 35.49    -0.235 N 
ATOM      9  HH  ARG D 557     -27.236  -1.593 -15.906  1.00 35.49     0.174 HD
ATOM     10  HH  ARG D 557     -27.234  -3.022 -16.309  1.00 35.49     0.174 HD
ATOM     11  HH  ARG D 557     -29.919  -2.962 -18.138  1.00 35.49     0.174 HD
ATOM     12  HH  ARG D 557     -28.837  -3.856 -17.649  1.00 35.49     0.174 HD
ATOM     13  HE  ARG D 557     -29.964  -0.897 -17.686  1.00 35.49     0.178 HD
ENDBRANCH   4   5
ENDBRANCH   3   4
ENDBRANCH   2   3
ENDBRANCH   1   2
END_RES ARG D 557
BEGIN_RES GLU D 570
REMARK  3 active torsions:
REMARK  status: ('A' for Active; 'I' for Inactive)
REMARK    5  A    between atoms: CA   and  CB  
REMARK    6  A    between atoms: CB   and  CG  
REMARK    7  A    between atoms: CG   and  CD  
ROOT
ATOM     14  CA  GLU D 570     -18.033  -6.348 -13.375  1.00 32.92     0.160 C 
ENDROOT
BRANCH  14  15
ATOM     15  CB  GLU D 570     -19.500  -6.345 -13.794  1.00 32.92     0.043 C 
BRANCH  15  16
ATOM     16  CG  GLU D 570     -20.428  -5.472 -13.030  1.00 32.92     0.100 C 
BRANCH  16  17
ATOM     17  CD  GLU D 570     -21.742  -5.244 -13.741  1.00 32.92     0.185 C 
ATOM     18  OE1 GLU D 570     -22.215  -6.156 -14.445  1.00 32.92    -0.647 OA
ATOM     19  OE2 GLU D 570     -22.296  -4.135 -13.605  1.00 32.92    -0.647 OA
ENDBRANCH  16  17
ENDBRANCH  15  16
ENDBRANCH  14  15
END_RES GLU D 570
ENDMDL
MODEL 7
REMARK VINA RESULT:      -7.2      2.430      4.137
REMARK  7 active torsions:
REMARK  status: ('A' for Active; 'I' for Inactive)
REMARK    1  A    between atoms: C_3  and  C_10 
REMARK    2  A    between atoms: C_11  and  C_12 
REMARK    3  A    between atoms: C_13  and  C_14 
REMARK    4  A    between atoms: C_15  and  C_16 
REMARK    5  A    between atoms: C_17  and  C_18 
REMARK    6  A    between atoms: C_18  and  O_19 
REMARK    7  A    between atoms: O_19  and  C_20 
ROOT
HETATM    1  C   UNL     1     -22.387  -7.635  -0.684  1.00  0.00    -0.062 C 
HETATM    2  C   UNL     1     -22.159  -6.562  -1.475  1.00  0.00     0.007 C 
HETATM    3  C   UNL     1     -23.144  -7.499   0.612  1.00  0.00     0.048 C 
ENDROOT
BRANCH   1   4
HETATM    4  C   UNL     1     -21.953  -8.990  -0.995  1.00  0.00     0.007 C 
HETATM    5  C   UNL     1     -22.737 -10.067  -0.816  1.00  0.00     0.009 C 
BRANCH   5   6
HETATM    6  C   UNL     1     -22.416 -11.411  -1.302  1.00  0.00    -0.048 C 
HETATM    7  C   UNL     1     -22.441 -11.775  -2.605  1.00  0.00    -0.077 C 
HETATM    8  C   UNL     1     -22.719 -10.840  -3.754  1.00  0.00     0.044 C 
HETATM    9  C   UNL     1     -22.177 -13.199  -3.061  1.00  0.00     0.034 C 
HETATM   10  C   UNL     1     -22.111 -14.250  -1.959  1.00  0.00     0.005 C 
HETATM   11  C   UNL     1     -21.417 -13.702  -0.728  1.00  0.00     0.014 C 
HETATM   12  C   UNL     1     -22.101 -12.423  -0.185  1.00  0.00    -0.020 C 
HETATM   13  C   UNL     1     -21.120 -11.859   0.862  1.00  0.00     0.020 C 
HETATM   14  C   UNL     1     -23.444 -12.790   0.486  1.00  0.00     0.020 C 
ENDBRANCH   5   6
ENDBRANCH   1   4
BRANCH   2  15
HETATM   15  C   UNL     1     -21.345  -6.532  -2.682  1.00  0.00     0.001 C 
HETATM   16  C   UNL     1     -21.748  -7.039  -3.860  1.00  0.00     0.006 C 
BRANCH  16  17
HETATM   17  C   UNL     1     -20.925  -7.144  -5.057  1.00  0.00    -0.064 C 
HETATM   18  C   UNL     1     -20.960  -6.344  -6.140  1.00  0.00     0.006 C 
HETATM   19  C   UNL     1     -19.992  -8.328  -5.093  1.00  0.00     0.048 C 
BRANCH  18  20
HETATM   20  C   UNL     1     -21.841  -5.180  -6.456  1.00  0.00     0.206 C 
BRANCH  20  21
HETATM   21  O   UNL     1     -21.086  -4.311  -7.321  1.00  0.00    -0.318 OA
BRANCH  21  22
HETATM   22  C   UNL     1     -21.520  -4.194  -8.605  1.00  0.00     0.255 C 
HETATM   23  O   UNL     1     -20.812  -4.157  -9.597  1.00  0.00    -0.266 OA
HETATM   24  C   UNL     1     -23.019  -4.126  -8.642  1.00  0.00     0.126 C 
ENDBRANCH  21  22
ENDBRANCH  20  21
ENDBRANCH  18  20
ENDBRANCH  16  17
ENDBRANCH   2  15
TORSDOF 7
BEGIN_RES ARG D 557
REMARK  4 active torsions:
REMARK  status: ('A' for Active; 'I' for Inactive)
REMARK    1  A    between atoms: CA   and  CB  
REMARK    2  A    between atoms: CB   and  CG  
REMARK    3  A    between atoms: CG   and  CD  
REMARK    4  A    between atoms: CD   and  NE  
REMARK       I    between atoms: NE   and  CZ  
REMARK       I    between atoms: CZ   and  NH1 
REMARK       I    between atoms: CZ   and  NH2 
ROOT
ATOM      1  CA  ARG D 557     -26.217   2.705 -17.014  1.00 35.49     0.159 C 
ENDROOT
BRANCH   1   2
ATOM      2  CB  ARG D 557     -26.789   1.319 -17.183  1.00 35.49     0.034 C 
BRANCH   2   3
ATOM      3  CG  ARG D 557     -28.235   1.225 -17.420  1.00 35.49     0.027 C 
BRANCH   3   4
ATOM      4  CD  ARG D 557     -28.901   0.291 -16.484  1.00 35.49     0.116 C 
BRANCH   4   5
ATOM      5  NE  ARG D 557     -29.311  -0.926 -17.133  1.00 35.49    -0.212 N 
ATOM      6  CZ  ARG D 557     -28.698  -2.086 -17.049  1.00 35.49     0.666 C 
ATOM      7  NH1 ARG D 557     -27.594  -2.255 -16.344  1.00 35.49    -0.235 N 
ATOM      8  NH2 ARG D 557     -29.224  -3.091 -17.688  1.00 35.49    -0.235 N 
ATOM      9  HH  ARG D 557     -27.232  -1.609 -15.914  1.00 35.49     0.174 HD
ATOM     10  HH  ARG D 557     -27.240  -3.035 -16.324  1.00 35.49     0.174 HD
ATOM     11  HH  ARG D 557     -29.941  -2.954 -18.128  1.00 35.49     0.174 HD
ATOM     12  HH  ARG D 557     -28.859  -3.855 -17.654  1.00 35.49     0.174 HD
ATOM     13  HE  ARG D 557     -29.972  -0.891 -17.666  1.00 35.49     0.178 HD
ENDBRANCH   4   5
ENDBRANCH   3   4
ENDBRANCH   2   3
ENDBRANCH   1   2
END_RES ARG D 557
BEGIN_RES GLU D 570
REMARK  3 active torsions:
REMARK  status: ('A' for Active; 'I' for Inactive)
REMARK    5  A    between atoms: CA   and  CB  
REMARK    6  A    between atoms: CB   and  CG  
REMARK    7  A    between atoms: CG   and  CD  
ROOT
ATOM     14  CA  GLU D 570     -18.033  -6.348 -13.375  1.00 32.92     0.160 C 
ENDROOT
BRANCH  14  15
ATOM     15  CB  GLU D 570     -19.500  -6.345 -13.794  1.00 32.92     0.043 C 
BRANCH  15  16
ATOM     16  CG  GLU D 570     -19.815  -6.757 -15.186  1.00 32.92     0.100 C 
BRANCH  16  17
ATOM     17  CD  GLU D 570     -20.661  -5.746 -15.923  1.00 32.92     0.185 C 
ATOM     18  OE1 GLU D 570     -20.595  -5.691 -17.166  1.00 32.92    -0.647 OA
ATOM     19  OE2 GLU D 570     -21.386  -4.988 -15.249  1.00 32.92    -0.647 OA
ENDBRANCH  16  17
ENDBRANCH  15  16
ENDBRANCH  14  15
END_RES GLU D 570
ENDMDL
MODEL 8
REMARK VINA RESULT:      -6.9     10.213     15.902
REMARK  7 active torsions:
REMARK  status: ('A' for Active; 'I' for Inactive)
REMARK    1  A    between atoms: C_3  and  C_10 
REMARK    2  A    between atoms: C_11  and  C_12 
REMARK    3  A    between atoms: C_13  and  C_14 
REMARK    4  A    between atoms: C_15  and  C_16 
REMARK    5  A    between atoms: C_17  and  C_18 
REMARK    6  A    between atoms: C_18  and  O_19 
REMARK    7  A    between atoms: O_19  and  C_20 
ROOT
HETATM    1  C   UNL     1     -26.804  10.886  -7.212  1.00  0.00    -0.062 C 
HETATM    2  C   UNL     1     -27.151  10.343  -6.023  1.00  0.00     0.007 C 
HETATM    3  C   UNL     1     -27.234  12.281  -7.586  1.00  0.00     0.048 C 
ENDROOT
BRANCH   1   4
HETATM    4  C   UNL     1     -25.996  10.210  -8.218  1.00  0.00     0.007 C 
HETATM    5  C   UNL     1     -26.380  10.083  -9.500  1.00  0.00     0.009 C 
BRANCH   5   6
HETATM    6  C   UNL     1     -25.516   9.596 -10.577  1.00  0.00    -0.048 C 
HETATM    7  C   UNL     1     -25.298   8.287 -10.843  1.00  0.00    -0.077 C 
HETATM    8  C   UNL     1     -25.970   7.141 -10.133  1.00  0.00     0.044 C 
HETATM    9  C   UNL     1     -24.333   7.822 -11.920  1.00  0.00     0.034 C 
HETATM   10  C   UNL     1     -23.446   8.901 -12.531  1.00  0.00     0.005 C 
HETATM   11  C   UNL     1     -24.210  10.199 -12.699  1.00  0.00     0.014 C 
HETATM   12  C   UNL     1     -24.805  10.711 -11.365  1.00  0.00    -0.020 C 
HETATM   13  C   UNL     1     -25.763  11.852 -11.765  1.00  0.00     0.020 C 
HETATM   14  C   UNL     1     -23.676  11.256 -10.461  1.00  0.00     0.020 C 
ENDBRANCH   5   6
ENDBRANCH   1   4
BRANCH   2  15
HETATM   15  C   UNL     1     -26.907   8.975  -5.591  1.00  0.00     0.001 C 
HETATM   16  C   UNL     1     -25.677   8.458  -5.426  1.00  0.00     0.006 C 
BRANCH  16  17
HETATM   17  C   UNL     1     -25.383   7.065  -5.117  1.00  0.00    -0.064 C 
HETATM   18  C   UNL     1     -25.020   6.557  -3.924  1.00  0.00     0.006 C 
HETATM   19  C   UNL     1     -25.428   6.124  -6.294  1.00  0.00     0.048 C 
BRANCH  18  20
HETATM   20  C   UNL     1     -24.774   7.235  -2.617  1.00  0.00     0.206 C 
BRANCH  20  21
HETATM   21  O   UNL     1     -23.349   7.422  -2.508  1.00  0.00    -0.318 OA
BRANCH  21  22
HETATM   22  C   UNL     1     -22.853   8.616  -2.932  1.00  0.00     0.255 C 
HETATM   23  O   UNL     1     -23.248   9.716  -2.584  1.00  0.00    -0.266 OA
HETATM   24  C   UNL     1     -21.726   8.396  -3.899  1.00  0.00     0.126 C 
ENDBRANCH  21  22
ENDBRANCH  20  21
ENDBRANCH  18  20
ENDBRANCH  16  17
ENDBRANCH   2  15
TORSDOF 7
BEGIN_RES ARG D 557
REMARK  4 active torsions:
REMARK  status: ('A' for Active; 'I' for Inactive)
REMARK    1  A    between atoms: CA   and  CB  
REMARK    2  A    between atoms: CB   and  CG  
REMARK    3  A    between atoms: CG   and  CD  
REMARK    4  A    between atoms: CD   and  NE  
REMARK       I    between atoms: NE   and  CZ  
REMARK       I    between atoms: CZ   and  NH1 
REMARK       I    between atoms: CZ   and  NH2 
ROOT
ATOM      1  CA  ARG D 557     -26.217   2.705 -17.014  1.00 35.49     0.159 C 
ENDROOT
BRANCH   1   2
ATOM      2  CB  ARG D 557     -26.789   1.319 -17.183  1.00 35.49     0.034 C 
BRANCH   2   3
ATOM      3  CG  ARG D 557     -25.864   0.195 -16.994  1.00 35.49     0.027 C 
BRANCH   3   4
ATOM      4  CD  ARG D 557     -26.272  -0.691 -15.880  1.00 35.49     0.116 C 
BRANCH   4   5
ATOM      5  NE  ARG D 557     -25.210  -0.893 -14.931  1.00 35.49    -0.212 N 
ATOM      6  CZ  ARG D 557     -24.897  -2.035 -14.360  1.00 35.49     0.666 C 
ATOM      7  NH1 ARG D 557     -25.560  -3.152 -14.597  1.00 35.49    -0.235 N 
ATOM      8  NH2 ARG D 557     -23.887  -2.039 -13.539  1.00 35.49    -0.235 N 
ATOM      9  HH  ARG D 557     -26.227  -3.173 -15.135  1.00 35.49     0.174 HD
ATOM     10  HH  ARG D 557     -25.309  -3.867 -14.198  1.00 35.49     0.174 HD
ATOM     11  HH  ARG D 557     -23.473  -1.305 -13.410  1.00 35.49     0.174 HD
ATOM     12  HH  ARG D 557     -23.653  -2.758 -13.154  1.00 35.49     0.174 HD
ATOM     13  HE  ARG D 557     -24.776  -0.212 -14.665  1.00 35.49     0.178 HD
ENDBRANCH   4   5
ENDBRANCH   3   4
ENDBRANCH   2   3
ENDBRANCH   1   2
END_RES ARG D 557
BEGIN_RES GLU D 570
REMARK  3 active torsions:
REMARK  status: ('A' for Active; 'I' for Inactive)
REMARK    5  A    between atoms: CA   and  CB  
REMARK    6  A    between atoms: CB   and  CG  
REMARK    7  A    between atoms: CG   and  CD  
ROOT
ATOM     14  CA  GLU D 570     -18.033  -6.348 -13.375  1.00 32.92     0.160 C 
ENDROOT
BRANCH  14  15
ATOM     15  CB  GLU D 570     -19.500  -6.345 -13.794  1.00 32.92     0.043 C 
BRANCH  15  16
ATOM     16  CG  GLU D 570     -20.448  -5.562 -12.960  1.00 32.92     0.100 C 
BRANCH  16  17
ATOM     17  CD  GLU D 570     -21.696  -5.157 -13.710  1.00 32.92     0.185 C 
ATOM     18  OE1 GLU D 570     -22.707  -4.820 -13.064  1.00 32.92    -0.647 OA
ATOM     19  OE2 GLU D 570     -21.668  -5.195 -14.956  1.00 32.92    -0.647 OA
ENDBRANCH  16  17
ENDBRANCH  15  16
ENDBRANCH  14  15
END_RES GLU D 570
ENDMDL
MODEL 9
REMARK VINA RESULT:      -6.7      7.901     12.800
REMARK  7 active torsions:
REMARK  status: ('A' for Active; 'I' for Inactive)
REMARK    1  A    between atoms: C_3  and  C_10 
REMARK    2  A    between atoms: C_11  and  C_12 
REMARK    3  A    between atoms: C_13  and  C_14 
REMARK    4  A    between atoms: C_15  and  C_16 
REMARK    5  A    between atoms: C_17  and  C_18 
REMARK    6  A    between atoms: C_18  and  O_19 
REMARK    7  A    between atoms: O_19  and  C_20 
ROOT
HETATM    1  C   UNL     1     -25.825  -6.507 -19.848  1.00  0.00    -0.062 C 
HETATM    2  C   UNL     1     -24.573  -6.916 -19.538  1.00  0.00     0.007 C 
HETATM    3  C   UNL     1     -26.157  -5.994 -21.225  1.00  0.00     0.048 C 
ENDROOT
BRANCH   1   4
HETATM    4  C   UNL     1     -26.948  -6.529 -18.921  1.00  0.00     0.007 C 
HETATM    5  C   UNL     1     -28.016  -5.724 -19.049  1.00  0.00     0.009 C 
BRANCH   5   6
HETATM    6  C   UNL     1     -29.247  -5.855 -18.266  1.00  0.00    -0.048 C 
HETATM    7  C   UNL     1     -30.014  -6.969 -18.235  1.00  0.00    -0.077 C 
HETATM    8  C   UNL     1     -29.680  -8.264 -18.930  1.00  0.00     0.044 C 
HETATM    9  C   UNL     1     -31.325  -7.038 -17.470  1.00  0.00     0.034 C 
HETATM   10  C   UNL     1     -31.850  -5.714 -16.928  1.00  0.00     0.005 C 
HETATM   11  C   UNL     1     -30.715  -4.848 -16.420  1.00  0.00     0.014 C 
HETATM   12  C   UNL     1     -29.647  -4.576 -17.509  1.00  0.00    -0.020 C 
HETATM   13  C   UNL     1     -28.461  -3.941 -16.755  1.00  0.00     0.020 C 
HETATM   14  C   UNL     1     -30.205  -3.585 -18.556  1.00  0.00     0.020 C 
ENDBRANCH   5   6
ENDBRANCH   1   4
BRANCH   2  15
HETATM   15  C   UNL     1     -24.093  -7.316 -18.223  1.00  0.00     0.001 C 
HETATM   16  C   UNL     1     -22.978  -6.822 -17.659  1.00  0.00     0.006 C 
BRANCH  16  17
HETATM   17  C   UNL     1     -22.392  -7.280 -16.407  1.00  0.00    -0.064 C 
HETATM   18  C   UNL     1     -22.844  -7.036 -15.162  1.00  0.00     0.006 C 
HETATM   19  C   UNL     1     -21.103  -8.050 -16.545  1.00  0.00     0.048 C 
BRANCH  18  20
HETATM   20  C   UNL     1     -24.005  -6.220 -14.695  1.00  0.00     0.206 C 
BRANCH  20  21
HETATM   21  O   UNL     1     -25.186  -7.011 -14.926  1.00  0.00    -0.318 OA
BRANCH  21  22
HETATM   22  C   UNL     1     -26.220  -6.397 -15.563  1.00  0.00     0.255 C 
HETATM   23  O   UNL     1     -26.168  -5.319 -16.132  1.00  0.00    -0.266 OA
HETATM   24  C   UNL     1     -27.457  -7.243 -15.481  1.00  0.00     0.126 C 
ENDBRANCH  21  22
ENDBRANCH  20  21
ENDBRANCH  18  20
ENDBRANCH  16  17
ENDBRANCH   2  15
TORSDOF 7
BEGIN_RES ARG D 557
REMARK  4 active torsions:
REMARK  status: ('A' for Active; 'I' for Inactive)
REMARK    1  A    between atoms: CA   and  CB  
REMARK    2  A    between atoms: CB   and  CG  
REMARK    3  A    between atoms: CG   and  CD  
REMARK    4  A    between atoms: CD   and  NE  
REMARK       I    between atoms: NE   and  CZ  
REMARK       I    between atoms: CZ   and  NH1 
REMARK       I    between atoms: CZ   and  NH2 
ROOT
ATOM      1  CA  ARG D 557     -26.217   2.705 -17.014  1.00 35.49     0.159 C 
ENDROOT
BRANCH   1   2
ATOM      2  CB  ARG D 557     -26.789   1.319 -17.183  1.00 35.49     0.034 C 
BRANCH   2   3
ATOM      3  CG  ARG D 557     -25.861   0.195 -17.008  1.00 35.49     0.027 C 
BRANCH   3   4
ATOM      4  CD  ARG D 557     -26.234  -0.673 -15.868  1.00 35.49     0.116 C 
BRANCH   4   5
ATOM      5  NE  ARG D 557     -25.127  -0.907 -14.979  1.00 35.49    -0.212 N 
ATOM      6  CZ  ARG D 557     -24.931  -1.994 -14.266  1.00 35.49     0.666 C 
ATOM      7  NH1 ARG D 557     -25.771  -3.013 -14.281  1.00 35.49    -0.235 N 
ATOM      8  NH2 ARG D 557     -23.859  -2.043 -13.529  1.00 35.49    -0.235 N 
ATOM      9  HH  ARG D 557     -26.481  -3.002 -14.760  1.00 35.49     0.174 HD
ATOM     10  HH  ARG D 557     -25.590  -3.696 -13.797  1.00 35.49     0.174 HD
ATOM     11  HH  ARG D 557     -23.332  -1.374 -13.545  1.00 35.49     0.174 HD
ATOM     12  HH  ARG D 557     -23.697  -2.729 -13.058  1.00 35.49     0.174 HD
ATOM     13  HE  ARG D 557     -24.575  -0.273 -14.853  1.00 35.49     0.178 HD
ENDBRANCH   4   5
ENDBRANCH   3   4
ENDBRANCH   2   3
ENDBRANCH   1   2
END_RES ARG D 557
BEGIN_RES GLU D 570
REMARK  3 active torsions:
REMARK  status: ('A' for Active; 'I' for Inactive)
REMARK    5  A    between atoms: CA   and  CB  
REMARK    6  A    between atoms: CB   and  CG  
REMARK    7  A    between atoms: CG   and  CD  
ROOT
ATOM     14  CA  GLU D 570     -18.033  -6.348 -13.375  1.00 32.92     0.160 C 
ENDROOT
BRANCH  14  15
ATOM     15  CB  GLU D 570     -19.500  -6.345 -13.794  1.00 32.92     0.043 C 
BRANCH  15  16
ATOM     16  CG  GLU D 570     -20.519  -6.221 -12.719  1.00 32.92     0.100 C 
BRANCH  16  17
ATOM     17  CD  GLU D 570     -20.811  -4.786 -12.347  1.00 32.92     0.185 C 
ATOM     18  OE1 GLU D 570     -20.054  -4.202 -11.549  1.00 32.92    -0.647 OA
ATOM     19  OE2 GLU D 570     -21.819  -4.247 -12.846  1.00 32.92    -0.647 OA
ENDBRANCH  16  17
ENDBRANCH  15  16
ENDBRANCH  14  15
END_RES GLU D 570
ENDMDL
