MODEL 1
REMARK VINA RESULT:      -5.6      0.000      0.000
REMARK  6 active torsions:
REMARK  status: ('A' for Active; 'I' for Inactive)
REMARK    1  A    between atoms: C_2  and  C_3 
REMARK    2  A    between atoms: C_2  and  C_9 
REMARK    3  A    between atoms: C_3  and  C_4 
REMARK    4  A    between atoms: C_4  and  C_5 
REMARK    5  A    between atoms: C_9  and  C_10 
REMARK    6  A    between atoms: C_10  and  O_11 
ROOT
HETATM    1  C   UNL     1     -21.470  -4.018  -9.882  1.00  0.00     0.010 C 
HETATM    2  C   UNL     1     -22.104  -4.400  -8.539  1.00  0.00    -0.016 C 
ENDROOT
BRANCH   2   3
HETATM    3  C   UNL     1     -21.335  -3.683  -7.404  1.00  0.00     0.008 C 
BRANCH   3   4
HETATM    4  C   UNL     1     -20.246  -4.541  -6.755  1.00  0.00     0.027 C 
BRANCH   4   5
HETATM    5  C   UNL     1     -20.570  -4.893  -5.330  1.00  0.00    -0.025 C 
HETATM    6  C   UNL     1     -21.051  -6.073  -4.890  1.00  0.00    -0.091 C 
HETATM    7  C   UNL     1     -21.431  -7.227  -5.778  1.00  0.00     0.042 C 
HETATM    8  C   UNL     1     -21.262  -6.326  -3.422  1.00  0.00     0.042 C 
ENDBRANCH   4   5
ENDBRANCH   3   4
ENDBRANCH   2   3
BRANCH   2   9
HETATM    9  C   UNL     1     -23.609  -4.067  -8.515  1.00  0.00     0.030 C 
BRANCH   9  10
HETATM   10  C   UNL     1     -24.153  -3.527  -9.833  1.00  0.00     0.164 C 
BRANCH  10  11
HETATM   11  O   UNL     1     -25.547  -3.266  -9.703  1.00  0.00    -0.401 OA
HETATM   12  H   UNL     1     -25.754  -2.491 -10.255  1.00  0.00     0.209 HD
ENDBRANCH  10  11
ENDBRANCH   9  10
ENDBRANCH   2   9
TORSDOF 6
BEGIN_RES ARG D 557
REMARK  4 active torsions:
REMARK  status: ('A' for Active; 'I' for Inactive)
REMARK    1  A    between atoms: CA   and  CB  
REMARK    2  A    between atoms: CB   and  CG  
REMARK    3  A    between atoms: CG   and  CD  
REMARK    4  A    between atoms: CD   and  NE  
REMARK       I    between atoms: NE   and  CZ  
REMARK       I    between atoms: CZ   and  NH1 
REMARK       I    between atoms: CZ   and  NH2 
ROOT
ATOM      1  CA  ARG D 557     -26.217   2.705 -17.014  1.00 35.49     0.159 C 
ENDROOT
BRANCH   1   2
ATOM      2  CB  ARG D 557     -26.789   1.319 -17.183  1.00 35.49     0.034 C 
BRANCH   2   3
ATOM      3  CG  ARG D 557     -25.835   0.204 -17.164  1.00 35.49     0.027 C 
BRANCH   3   4
ATOM      4  CD  ARG D 557     -24.752   0.405 -16.174  1.00 35.49     0.116 C 
BRANCH   4   5
ATOM      5  NE  ARG D 557     -24.906  -0.442 -15.021  1.00 35.49    -0.212 N 
ATOM      6  CZ  ARG D 557     -24.094  -1.412 -14.666  1.00 35.49     0.666 C 
ATOM      7  NH1 ARG D 557     -23.021  -1.730 -15.365  1.00 35.49    -0.235 N 
ATOM      8  NH2 ARG D 557     -24.378  -2.064 -13.576  1.00 35.49    -0.235 N 
ATOM      9  HH  ARG D 557     -22.813  -1.313 -16.085  1.00 35.49     0.174 HD
ATOM     10  HH  ARG D 557     -22.526  -2.371 -15.084  1.00 35.49     0.174 HD
ATOM     11  HH  ARG D 557     -25.074  -1.832 -13.140  1.00 35.49     0.174 HD
ATOM     12  HH  ARG D 557     -23.876  -2.694 -13.313  1.00 35.49     0.174 HD
ATOM     13  HE  ARG D 557     -25.611  -0.354 -14.553  1.00 35.49     0.178 HD
ENDBRANCH   4   5
ENDBRANCH   3   4
ENDBRANCH   2   3
ENDBRANCH   1   2
END_RES ARG D 557
BEGIN_RES GLU D 570
REMARK  3 active torsions:
REMARK  status: ('A' for Active; 'I' for Inactive)
REMARK    5  A    between atoms: CA   and  CB  
REMARK    6  A    between atoms: CB   and  CG  
REMARK    7  A    between atoms: CG   and  CD  
ROOT
ATOM     14  CA  GLU D 570     -18.033  -6.348 -13.375  1.00 32.92     0.160 C 
ENDROOT
BRANCH  14  15
ATOM     15  CB  GLU D 570     -19.500  -6.345 -13.794  1.00 32.92     0.043 C 
BRANCH  15  16
ATOM     16  CG  GLU D 570     -20.442  -5.531 -12.983  1.00 32.92     0.100 C 
BRANCH  16  17
ATOM     17  CD  GLU D 570     -21.738  -5.239 -13.702  1.00 32.92     0.185 C 
ATOM     18  OE1 GLU D 570     -22.319  -4.158 -13.488  1.00 32.92    -0.647 OA
ATOM     19  OE2 GLU D 570     -22.187  -6.109 -14.475  1.00 32.92    -0.647 OA
ENDBRANCH  16  17
ENDBRANCH  15  16
ENDBRANCH  14  15
END_RES GLU D 570
ENDMDL
MODEL 2
REMARK VINA RESULT:      -5.6      2.795      3.849
REMARK  6 active torsions:
REMARK  status: ('A' for Active; 'I' for Inactive)
REMARK    1  A    between atoms: C_2  and  C_3 
REMARK    2  A    between atoms: C_2  and  C_9 
REMARK    3  A    between atoms: C_3  and  C_4 
REMARK    4  A    between atoms: C_4  and  C_5 
REMARK    5  A    between atoms: C_9  and  C_10 
REMARK    6  A    between atoms: C_10  and  O_11 
ROOT
HETATM    1  C   UNL     1     -24.181  -4.201 -10.468  1.00  0.00     0.010 C 
HETATM    2  C   UNL     1     -23.657  -3.024 -11.301  1.00  0.00    -0.016 C 
ENDROOT
BRANCH   2   3
HETATM    3  C   UNL     1     -22.115  -3.125 -11.388  1.00  0.00     0.008 C 
BRANCH   3   4
HETATM    4  C   UNL     1     -21.558  -4.482 -10.950  1.00  0.00     0.027 C 
BRANCH   4   5
HETATM    5  C   UNL     1     -20.409  -4.345  -9.989  1.00  0.00    -0.025 C 
HETATM    6  C   UNL     1     -20.492  -4.349  -8.644  1.00  0.00    -0.091 C 
HETATM    7  C   UNL     1     -21.779  -4.406  -7.865  1.00  0.00     0.042 C 
HETATM    8  C   UNL     1     -19.255  -4.280  -7.790  1.00  0.00     0.042 C 
ENDBRANCH   4   5
ENDBRANCH   3   4
ENDBRANCH   2   3
BRANCH   2   9
HETATM    9  C   UNL     1     -24.310  -2.989 -12.697  1.00  0.00     0.030 C 
BRANCH   9  10
HETATM   10  C   UNL     1     -23.458  -2.321 -13.771  1.00  0.00     0.164 C 
BRANCH  10  11
HETATM   11  O   UNL     1     -23.601  -3.026 -15.000  1.00  0.00    -0.401 OA
HETATM   12  H   UNL     1     -23.212  -2.475 -15.703  1.00  0.00     0.209 HD
ENDBRANCH  10  11
ENDBRANCH   9  10
ENDBRANCH   2   9
TORSDOF 6
BEGIN_RES ARG D 557
REMARK  4 active torsions:
REMARK  status: ('A' for Active; 'I' for Inactive)
REMARK    1  A    between atoms: CA   and  CB  
REMARK    2  A    between atoms: CB   and  CG  
REMARK    3  A    between atoms: CG   and  CD  
REMARK    4  A    between atoms: CD   and  NE  
REMARK       I    between atoms: NE   and  CZ  
REMARK       I    between atoms: CZ   and  NH1 
REMARK       I    between atoms: CZ   and  NH2 
ROOT
ATOM      1  CA  ARG D 557     -26.217   2.705 -17.014  1.00 35.49     0.159 C 
ENDROOT
BRANCH   1   2
ATOM      2  CB  ARG D 557     -26.789   1.319 -17.183  1.00 35.49     0.034 C 
BRANCH   2   3
ATOM      3  CG  ARG D 557     -28.228   1.164 -16.938  1.00 35.49     0.027 C 
BRANCH   3   4
ATOM      4  CD  ARG D 557     -28.633  -0.257 -16.837  1.00 35.49     0.116 C 
BRANCH   4   5
ATOM      5  NE  ARG D 557     -27.658  -1.050 -16.136  1.00 35.49    -0.212 N 
ATOM      6  CZ  ARG D 557     -27.542  -2.358 -16.201  1.00 35.49     0.666 C 
ATOM      7  NH1 ARG D 557     -28.347  -3.106 -16.933  1.00 35.49    -0.235 N 
ATOM      8  NH2 ARG D 557     -26.584  -2.910 -15.514  1.00 35.49    -0.235 N 
ATOM      9  HH  ARG D 557     -28.982  -2.764 -17.395  1.00 35.49     0.174 HD
ATOM     10  HH  ARG D 557     -28.221  -3.953 -16.938  1.00 35.49     0.174 HD
ATOM     11  HH  ARG D 557     -26.075  -2.401 -15.056  1.00 35.49     0.174 HD
ATOM     12  HH  ARG D 557     -26.475  -3.750 -15.533  1.00 35.49     0.174 HD
ATOM     13  HE  ARG D 557     -27.145  -0.656 -15.585  1.00 35.49     0.178 HD
ENDBRANCH   4   5
ENDBRANCH   3   4
ENDBRANCH   2   3
ENDBRANCH   1   2
END_RES ARG D 557
BEGIN_RES GLU D 570
REMARK  3 active torsions:
REMARK  status: ('A' for Active; 'I' for Inactive)
REMARK    5  A    between atoms: CA   and  CB  
REMARK    6  A    between atoms: CB   and  CG  
REMARK    7  A    between atoms: CG   and  CD  
ROOT
ATOM     14  CA  GLU D 570     -18.033  -6.348 -13.375  1.00 32.92     0.160 C 
ENDROOT
BRANCH  14  15
ATOM     15  CB  GLU D 570     -19.500  -6.345 -13.794  1.00 32.92     0.043 C 
BRANCH  15  16
ATOM     16  CG  GLU D 570     -19.813  -5.938 -15.188  1.00 32.92     0.100 C 
BRANCH  16  17
ATOM     17  CD  GLU D 570     -21.218  -5.406 -15.346  1.00 32.92     0.185 C 
ATOM     18  OE1 GLU D 570     -21.552  -4.891 -16.430  1.00 32.92    -0.647 OA
ATOM     19  OE2 GLU D 570     -21.988  -5.489 -14.368  1.00 32.92    -0.647 OA
ENDBRANCH  16  17
ENDBRANCH  15  16
ENDBRANCH  14  15
END_RES GLU D 570
ENDMDL
MODEL 3
REMARK VINA RESULT:      -5.6      2.309      3.197
REMARK  6 active torsions:
REMARK  status: ('A' for Active; 'I' for Inactive)
REMARK    1  A    between atoms: C_2  and  C_3 
REMARK    2  A    between atoms: C_2  and  C_9 
REMARK    3  A    between atoms: C_3  and  C_4 
REMARK    4  A    between atoms: C_4  and  C_5 
REMARK    5  A    between atoms: C_9  and  C_10 
REMARK    6  A    between atoms: C_10  and  O_11 
ROOT
HETATM    1  C   UNL     1     -23.046  -2.586 -11.873  1.00  0.00     0.010 C 
HETATM    2  C   UNL     1     -22.982  -4.100 -11.641  1.00  0.00    -0.016 C 
ENDROOT
BRANCH   2   3
HETATM    3  C   UNL     1     -21.499  -4.516 -11.483  1.00  0.00     0.008 C 
BRANCH   3   4
HETATM    4  C   UNL     1     -20.746  -3.727 -10.409  1.00  0.00     0.027 C 
BRANCH   4   5
HETATM    5  C   UNL     1     -20.153  -4.620  -9.354  1.00  0.00    -0.025 C 
HETATM    6  C   UNL     1     -20.487  -4.642  -8.049  1.00  0.00    -0.091 C 
HETATM    7  C   UNL     1     -21.465  -3.700  -7.400  1.00  0.00     0.042 C 
HETATM    8  C   UNL     1     -19.871  -5.641  -7.107  1.00  0.00     0.042 C 
ENDBRANCH   4   5
ENDBRANCH   3   4
ENDBRANCH   2   3
BRANCH   2   9
HETATM    9  C   UNL     1     -23.829  -4.518 -10.422  1.00  0.00     0.030 C 
BRANCH   9  10
HETATM   10  C   UNL     1     -24.445  -3.350  -9.658  1.00  0.00     0.164 C 
BRANCH  10  11
HETATM   11  O   UNL     1     -25.862  -3.390  -9.789  1.00  0.00    -0.401 OA
HETATM   12  H   UNL     1     -26.067  -3.733 -10.677  1.00  0.00     0.209 HD
ENDBRANCH  10  11
ENDBRANCH   9  10
ENDBRANCH   2   9
TORSDOF 6
BEGIN_RES ARG D 557
REMARK  4 active torsions:
REMARK  status: ('A' for Active; 'I' for Inactive)
REMARK    1  A    between atoms: CA   and  CB  
REMARK    2  A    between atoms: CB   and  CG  
REMARK    3  A    between atoms: CG   and  CD  
REMARK    4  A    between atoms: CD   and  NE  
REMARK       I    between atoms: NE   and  CZ  
REMARK       I    between atoms: CZ   and  NH1 
REMARK       I    between atoms: CZ   and  NH2 
ROOT
ATOM      1  CA  ARG D 557     -26.217   2.705 -17.014  1.00 35.49     0.159 C 
ENDROOT
BRANCH   1   2
ATOM      2  CB  ARG D 557     -26.789   1.319 -17.183  1.00 35.49     0.034 C 
BRANCH   2   3
ATOM      3  CG  ARG D 557     -28.215   1.151 -16.876  1.00 35.49     0.027 C 
BRANCH   3   4
ATOM      4  CD  ARG D 557     -28.589  -0.271 -16.698  1.00 35.49     0.116 C 
BRANCH   4   5
ATOM      5  NE  ARG D 557     -27.581  -1.013 -15.988  1.00 35.49    -0.212 N 
ATOM      6  CZ  ARG D 557     -27.390  -2.311 -16.060  1.00 35.49     0.666 C 
ATOM      7  NH1 ARG D 557     -28.139  -3.098 -16.809  1.00 35.49    -0.235 N 
ATOM      8  NH2 ARG D 557     -26.413  -2.813 -15.361  1.00 35.49    -0.235 N 
ATOM      9  HH  ARG D 557     -28.786  -2.789 -17.278  1.00 35.49     0.174 HD
ATOM     10  HH  ARG D 557     -27.965  -3.937 -16.818  1.00 35.49     0.174 HD
ATOM     11  HH  ARG D 557     -25.941  -2.280 -14.892  1.00 35.49     0.174 HD
ATOM     12  HH  ARG D 557     -26.256  -3.646 -15.385  1.00 35.49     0.174 HD
ATOM     13  HE  ARG D 557     -27.100  -0.595 -15.425  1.00 35.49     0.178 HD
ENDBRANCH   4   5
ENDBRANCH   3   4
ENDBRANCH   2   3
ENDBRANCH   1   2
END_RES ARG D 557
BEGIN_RES GLU D 570
REMARK  3 active torsions:
REMARK  status: ('A' for Active; 'I' for Inactive)
REMARK    5  A    between atoms: CA   and  CB  
REMARK    6  A    between atoms: CB   and  CG  
REMARK    7  A    between atoms: CG   and  CD  
ROOT
ATOM     14  CA  GLU D 570     -18.033  -6.348 -13.375  1.00 32.92     0.160 C 
ENDROOT
BRANCH  14  15
ATOM     15  CB  GLU D 570     -19.500  -6.345 -13.794  1.00 32.92     0.043 C 
BRANCH  15  16
ATOM     16  CG  GLU D 570     -19.812  -5.950 -15.192  1.00 32.92     0.100 C 
BRANCH  16  17
ATOM     17  CD  GLU D 570     -21.269  -5.608 -15.397  1.00 32.92     0.185 C 
ATOM     18  OE1 GLU D 570     -21.587  -4.852 -16.334  1.00 32.92    -0.647 OA
ATOM     19  OE2 GLU D 570     -22.100  -6.088 -14.601  1.00 32.92    -0.647 OA
ENDBRANCH  16  17
ENDBRANCH  15  16
ENDBRANCH  14  15
END_RES GLU D 570
ENDMDL
MODEL 4
REMARK VINA RESULT:      -5.6      7.528     10.584
REMARK  6 active torsions:
REMARK  status: ('A' for Active; 'I' for Inactive)
REMARK    1  A    between atoms: C_2  and  C_3 
REMARK    2  A    between atoms: C_2  and  C_9 
REMARK    3  A    between atoms: C_3  and  C_4 
REMARK    4  A    between atoms: C_4  and  C_5 
REMARK    5  A    between atoms: C_9  and  C_10 
REMARK    6  A    between atoms: C_10  and  O_11 
ROOT
HETATM    1  C   UNL     1     -32.604  -3.953 -11.824  1.00  0.00     0.010 C 
HETATM    2  C   UNL     1     -33.649  -3.801 -10.711  1.00  0.00    -0.016 C 
ENDROOT
BRANCH   2   3
HETATM    3  C   UNL     1     -33.946  -2.295 -10.512  1.00  0.00     0.008 C 
BRANCH   3   4
HETATM    4  C   UNL     1     -35.107  -1.775 -11.365  1.00  0.00     0.027 C 
BRANCH   4   5
HETATM    5  C   UNL     1     -34.663  -0.744 -12.366  1.00  0.00    -0.025 C 
HETATM    6  C   UNL     1     -35.464  -0.011 -13.163  1.00  0.00    -0.091 C 
HETATM    7  C   UNL     1     -36.959  -0.164 -13.248  1.00  0.00     0.042 C 
HETATM    8  C   UNL     1     -34.898   1.047 -14.070  1.00  0.00     0.042 C 
ENDBRANCH   4   5
ENDBRANCH   3   4
ENDBRANCH   2   3
BRANCH   2   9
HETATM    9  C   UNL     1     -34.926  -4.603 -11.027  1.00  0.00     0.030 C 
BRANCH   9  10
HETATM   10  C   UNL     1     -34.669  -6.012 -11.551  1.00  0.00     0.164 C 
BRANCH  10  11
HETATM   11  O   UNL     1     -35.155  -6.121 -12.885  1.00  0.00    -0.401 OA
HETATM   12  H   UNL     1     -35.959  -5.576 -12.951  1.00  0.00     0.209 HD
ENDBRANCH  10  11
ENDBRANCH   9  10
ENDBRANCH   2   9
TORSDOF 6
BEGIN_RES ARG D 557
REMARK  4 active torsions:
REMARK  status: ('A' for Active; 'I' for Inactive)
REMARK    1  A    between atoms: CA   and  CB  
REMARK    2  A    between atoms: CB   and  CG  
REMARK    3  A    between atoms: CG   and  CD  
REMARK    4  A    between atoms: CD   and  NE  
REMARK       I    between atoms: NE   and  CZ  
REMARK       I    between atoms: CZ   and  NH1 
REMARK       I    between atoms: CZ   and  NH2 
ROOT
ATOM      1  CA  ARG D 557     -26.217   2.705 -17.014  1.00 35.49     0.159 C 
ENDROOT
BRANCH   1   2
ATOM      2  CB  ARG D 557     -26.789   1.319 -17.183  1.00 35.49     0.034 C 
BRANCH   2   3
ATOM      3  CG  ARG D 557     -25.864   0.195 -16.993  1.00 35.49     0.027 C 
BRANCH   3   4
ATOM      4  CD  ARG D 557     -26.289  -0.707 -15.898  1.00 35.49     0.116 C 
BRANCH   4   5
ATOM      5  NE  ARG D 557     -25.241  -0.923 -14.936  1.00 35.49    -0.212 N 
ATOM      6  CZ  ARG D 557     -24.956  -2.067 -14.355  1.00 35.49     0.666 C 
ATOM      7  NH1 ARG D 557     -25.637  -3.173 -14.593  1.00 35.49    -0.235 N 
ATOM      8  NH2 ARG D 557     -23.956  -2.085 -13.523  1.00 35.49    -0.235 N 
ATOM      9  HH  ARG D 557     -26.298  -3.185 -15.139  1.00 35.49     0.174 HD
ATOM     10  HH  ARG D 557     -25.404  -3.890 -14.187  1.00 35.49     0.174 HD
ATOM     11  HH  ARG D 557     -23.529  -1.357 -13.394  1.00 35.49     0.174 HD
ATOM     12  HH  ARG D 557     -23.739  -2.805 -13.131  1.00 35.49     0.174 HD
ATOM     13  HE  ARG D 557     -24.798  -0.248 -14.670  1.00 35.49     0.178 HD
ENDBRANCH   4   5
ENDBRANCH   3   4
ENDBRANCH   2   3
ENDBRANCH   1   2
END_RES ARG D 557
BEGIN_RES GLU D 570
REMARK  3 active torsions:
REMARK  status: ('A' for Active; 'I' for Inactive)
REMARK    5  A    between atoms: CA   and  CB  
REMARK    6  A    between atoms: CB   and  CG  
REMARK    7  A    between atoms: CG   and  CD  
ROOT
ATOM     14  CA  GLU D 570     -18.033  -6.348 -13.375  1.00 32.92     0.160 C 
ENDROOT
BRANCH  14  15
ATOM     15  CB  GLU D 570     -19.500  -6.345 -13.794  1.00 32.92     0.043 C 
BRANCH  15  16
ATOM     16  CG  GLU D 570     -20.448  -5.560 -12.962  1.00 32.92     0.100 C 
BRANCH  16  17
ATOM     17  CD  GLU D 570     -21.674  -5.116 -13.725  1.00 32.92     0.185 C 
ATOM     18  OE1 GLU D 570     -21.606  -4.997 -14.963  1.00 32.92    -0.647 OA
ATOM     19  OE2 GLU D 570     -22.709  -4.869 -13.075  1.00 32.92    -0.647 OA
ENDBRANCH  16  17
ENDBRANCH  15  16
ENDBRANCH  14  15
END_RES GLU D 570
ENDMDL
MODEL 5
REMARK VINA RESULT:      -5.4      7.916     10.159
REMARK  6 active torsions:
REMARK  status: ('A' for Active; 'I' for Inactive)
REMARK    1  A    between atoms: C_2  and  C_3 
REMARK    2  A    between atoms: C_2  and  C_9 
REMARK    3  A    between atoms: C_3  and  C_4 
REMARK    4  A    between atoms: C_4  and  C_5 
REMARK    5  A    between atoms: C_9  and  C_10 
REMARK    6  A    between atoms: C_10  and  O_11 
ROOT
HETATM    1  C   UNL     1     -36.074  -1.876 -10.524  1.00  0.00     0.010 C 
HETATM    2  C   UNL     1     -34.848  -1.426 -11.329  1.00  0.00    -0.016 C 
ENDROOT
BRANCH   2   3
HETATM    3  C   UNL     1     -33.583  -2.057 -10.700  1.00  0.00     0.008 C 
BRANCH   3   4
HETATM    4  C   UNL     1     -33.124  -3.345 -11.390  1.00  0.00     0.027 C 
BRANCH   4   5
HETATM    5  C   UNL     1     -33.553  -4.577 -10.642  1.00  0.00    -0.025 C 
HETATM    6  C   UNL     1     -34.316  -5.577 -11.125  1.00  0.00    -0.091 C 
HETATM    7  C   UNL     1     -34.948  -5.589 -12.491  1.00  0.00     0.042 C 
HETATM    8  C   UNL     1     -34.612  -6.797 -10.295  1.00  0.00     0.042 C 
ENDBRANCH   4   5
ENDBRANCH   3   4
ENDBRANCH   2   3
BRANCH   2   9
HETATM    9  C   UNL     1     -34.992  -1.791 -12.820  1.00  0.00     0.030 C 
BRANCH   9  10
HETATM   10  C   UNL     1     -35.581  -0.680 -13.683  1.00  0.00     0.164 C 
BRANCH  10  11
HETATM   11  O   UNL     1     -36.977  -0.902 -13.859  1.00  0.00    -0.401 OA
HETATM   12  H   UNL     1     -37.224  -1.671 -13.315  1.00  0.00     0.209 HD
ENDBRANCH  10  11
ENDBRANCH   9  10
ENDBRANCH   2   9
TORSDOF 6
BEGIN_RES ARG D 557
REMARK  4 active torsions:
REMARK  status: ('A' for Active; 'I' for Inactive)
REMARK    1  A    between atoms: CA   and  CB  
REMARK    2  A    between atoms: CB   and  CG  
REMARK    3  A    between atoms: CG   and  CD  
REMARK    4  A    between atoms: CD   and  NE  
REMARK       I    between atoms: NE   and  CZ  
REMARK       I    between atoms: CZ   and  NH1 
REMARK       I    between atoms: CZ   and  NH2 
ROOT
ATOM      1  CA  ARG D 557     -26.217   2.705 -17.014  1.00 35.49     0.159 C 
ENDROOT
BRANCH   1   2
ATOM      2  CB  ARG D 557     -26.789   1.319 -17.183  1.00 35.49     0.034 C 
BRANCH   2   3
ATOM      3  CG  ARG D 557     -28.223   1.158 -16.912  1.00 35.49     0.027 C 
BRANCH   3   4
ATOM      4  CD  ARG D 557     -28.600  -0.256 -16.689  1.00 35.49     0.116 C 
BRANCH   4   5
ATOM      5  NE  ARG D 557     -27.584  -0.982 -15.973  1.00 35.49    -0.212 N 
ATOM      6  CZ  ARG D 557     -27.370  -2.277 -16.045  1.00 35.49     0.666 C 
ATOM      7  NH1 ARG D 557     -28.102  -3.075 -16.801  1.00 35.49    -0.235 N 
ATOM      8  NH2 ARG D 557     -26.390  -2.763 -15.341  1.00 35.49    -0.235 N 
ATOM      9  HH  ARG D 557     -28.750  -2.777 -17.274  1.00 35.49     0.174 HD
ATOM     10  HH  ARG D 557     -27.914  -3.911 -16.810  1.00 35.49     0.174 HD
ATOM     11  HH  ARG D 557     -25.930  -2.223 -14.869  1.00 35.49     0.174 HD
ATOM     12  HH  ARG D 557     -26.219  -3.593 -15.365  1.00 35.49     0.174 HD
ATOM     13  HE  ARG D 557     -27.113  -0.557 -15.407  1.00 35.49     0.178 HD
ENDBRANCH   4   5
ENDBRANCH   3   4
ENDBRANCH   2   3
ENDBRANCH   1   2
END_RES ARG D 557
BEGIN_RES GLU D 570
REMARK  3 active torsions:
REMARK  status: ('A' for Active; 'I' for Inactive)
REMARK    5  A    between atoms: CA   and  CB  
REMARK    6  A    between atoms: CB   and  CG  
REMARK    7  A    between atoms: CG   and  CD  
ROOT
ATOM     14  CA  GLU D 570     -18.033  -6.348 -13.375  1.00 32.92     0.160 C 
ENDROOT
BRANCH  14  15
ATOM     15  CB  GLU D 570     -19.500  -6.345 -13.794  1.00 32.92     0.043 C 
BRANCH  15  16
ATOM     16  CG  GLU D 570     -20.451  -5.574 -12.952  1.00 32.92     0.100 C 
BRANCH  16  17
ATOM     17  CD  GLU D 570     -21.697  -5.159 -13.699  1.00 32.92     0.185 C 
ATOM     18  OE1 GLU D 570     -21.729  -5.282 -14.939  1.00 32.92    -0.647 OA
ATOM     19  OE2 GLU D 570     -22.645  -4.689 -13.039  1.00 32.92    -0.647 OA
ENDBRANCH  16  17
ENDBRANCH  15  16
ENDBRANCH  14  15
END_RES GLU D 570
ENDMDL
MODEL 6
REMARK VINA RESULT:      -5.3      7.650     10.268
REMARK  6 active torsions:
REMARK  status: ('A' for Active; 'I' for Inactive)
REMARK    1  A    between atoms: C_2  and  C_3 
REMARK    2  A    between atoms: C_2  and  C_9 
REMARK    3  A    between atoms: C_3  and  C_4 
REMARK    4  A    between atoms: C_4  and  C_5 
REMARK    5  A    between atoms: C_9  and  C_10 
REMARK    6  A    between atoms: C_10  and  O_11 
ROOT
HETATM    1  C   UNL     1     -36.558  -0.089 -11.364  1.00  0.00     0.010 C 
HETATM    2  C   UNL     1     -35.340  -0.056 -12.296  1.00  0.00    -0.016 C 
ENDROOT
BRANCH   2   3
HETATM    3  C   UNL     1     -34.738  -1.479 -12.377  1.00  0.00     0.008 C 
BRANCH   3   4
HETATM    4  C   UNL     1     -34.017  -1.920 -11.099  1.00  0.00     0.027 C 
BRANCH   4   5
HETATM    5  C   UNL     1     -34.364  -3.329 -10.706  1.00  0.00    -0.025 C 
HETATM    6  C   UNL     1     -33.696  -4.443 -11.063  1.00  0.00    -0.091 C 
HETATM    7  C   UNL     1     -32.520  -4.472 -12.002  1.00  0.00     0.042 C 
HETATM    8  C   UNL     1     -34.102  -5.794 -10.537  1.00  0.00     0.042 C 
ENDBRANCH   4   5
ENDBRANCH   3   4
ENDBRANCH   2   3
BRANCH   2   9
HETATM    9  C   UNL     1     -35.713   0.490 -13.689  1.00  0.00     0.030 C 
BRANCH   9  10
HETATM   10  C   UNL     1     -35.671  -0.551 -14.802  1.00  0.00     0.164 C 
BRANCH  10  11
HETATM   11  O   UNL     1     -36.988  -0.774 -15.297  1.00  0.00    -0.401 OA
HETATM   12  H   UNL     1     -36.979  -0.585 -16.252  1.00  0.00     0.209 HD
ENDBRANCH  10  11
ENDBRANCH   9  10
ENDBRANCH   2   9
TORSDOF 6
BEGIN_RES ARG D 557
REMARK  4 active torsions:
REMARK  status: ('A' for Active; 'I' for Inactive)
REMARK    1  A    between atoms: CA   and  CB  
REMARK    2  A    between atoms: CB   and  CG  
REMARK    3  A    between atoms: CG   and  CD  
REMARK    4  A    between atoms: CD   and  NE  
REMARK       I    between atoms: NE   and  CZ  
REMARK       I    between atoms: CZ   and  NH1 
REMARK       I    between atoms: CZ   and  NH2 
ROOT
ATOM      1  CA  ARG D 557     -26.217   2.705 -17.014  1.00 35.49     0.159 C 
ENDROOT
BRANCH   1   2
ATOM      2  CB  ARG D 557     -26.789   1.319 -17.183  1.00 35.49     0.034 C 
BRANCH   2   3
ATOM      3  CG  ARG D 557     -25.839   0.201 -17.130  1.00 35.49     0.027 C 
BRANCH   3   4
ATOM      4  CD  ARG D 557     -24.772   0.415 -16.126  1.00 35.49     0.116 C 
BRANCH   4   5
ATOM      5  NE  ARG D 557     -24.923  -0.447 -14.983  1.00 35.49    -0.212 N 
ATOM      6  CZ  ARG D 557     -24.112  -1.425 -14.646  1.00 35.49     0.666 C 
ATOM      7  NH1 ARG D 557     -23.044  -1.737 -15.356  1.00 35.49    -0.235 N 
ATOM      8  NH2 ARG D 557     -24.392  -2.091 -13.563  1.00 35.49    -0.235 N 
ATOM      9  HH  ARG D 557     -22.839  -1.311 -16.071  1.00 35.49     0.174 HD
ATOM     10  HH  ARG D 557     -22.550  -2.383 -15.086  1.00 35.49     0.174 HD
ATOM     11  HH  ARG D 557     -25.084  -1.862 -13.120  1.00 35.49     0.174 HD
ATOM     12  HH  ARG D 557     -23.890  -2.726 -13.311  1.00 35.49     0.174 HD
ATOM     13  HE  ARG D 557     -25.624  -0.364 -14.509  1.00 35.49     0.178 HD
ENDBRANCH   4   5
ENDBRANCH   3   4
ENDBRANCH   2   3
ENDBRANCH   1   2
END_RES ARG D 557
BEGIN_RES GLU D 570
REMARK  3 active torsions:
REMARK  status: ('A' for Active; 'I' for Inactive)
REMARK    5  A    between atoms: CA   and  CB  
REMARK    6  A    between atoms: CB   and  CG  
REMARK    7  A    between atoms: CG   and  CD  
ROOT
ATOM     14  CA  GLU D 570     -18.033  -6.348 -13.375  1.00 32.92     0.160 C 
ENDROOT
BRANCH  14  15
ATOM     15  CB  GLU D 570     -19.500  -6.345 -13.794  1.00 32.92     0.043 C 
BRANCH  15  16
ATOM     16  CG  GLU D 570     -20.450  -5.568 -12.956  1.00 32.92     0.100 C 
BRANCH  16  17
ATOM     17  CD  GLU D 570     -21.731  -5.227 -13.680  1.00 32.92     0.185 C 
ATOM     18  OE1 GLU D 570     -22.262  -4.118 -13.480  1.00 32.92    -0.647 OA
ATOM     19  OE2 GLU D 570     -22.218  -6.085 -14.442  1.00 32.92    -0.647 OA
ENDBRANCH  16  17
ENDBRANCH  15  16
ENDBRANCH  14  15
END_RES GLU D 570
ENDMDL
MODEL 7
REMARK VINA RESULT:      -5.3      1.856      2.739
REMARK  6 active torsions:
REMARK  status: ('A' for Active; 'I' for Inactive)
REMARK    1  A    between atoms: C_2  and  C_3 
REMARK    2  A    between atoms: C_2  and  C_9 
REMARK    3  A    between atoms: C_3  and  C_4 
REMARK    4  A    between atoms: C_4  and  C_5 
REMARK    5  A    between atoms: C_9  and  C_10 
REMARK    6  A    between atoms: C_10  and  O_11 
ROOT
HETATM    1  C   UNL     1     -23.391  -5.145 -12.330  1.00  0.00     0.010 C 
HETATM    2  C   UNL     1     -22.701  -4.562 -11.091  1.00  0.00    -0.016 C 
ENDROOT
BRANCH   2   3
HETATM    3  C   UNL     1     -21.251  -4.174 -11.466  1.00  0.00     0.008 C 
BRANCH   3   4
HETATM    4  C   UNL     1     -20.432  -3.630 -10.293  1.00  0.00     0.027 C 
BRANCH   4   5
HETATM    5  C   UNL     1     -20.134  -4.687  -9.265  1.00  0.00    -0.025 C 
HETATM    6  C   UNL     1     -20.546  -4.689  -7.982  1.00  0.00    -0.091 C 
HETATM    7  C   UNL     1     -21.316  -3.573  -7.328  1.00  0.00     0.042 C 
HETATM    8  C   UNL     1     -20.244  -5.849  -7.072  1.00  0.00     0.042 C 
ENDBRANCH   4   5
ENDBRANCH   3   4
ENDBRANCH   2   3
BRANCH   2   9
HETATM    9  C   UNL     1     -23.488  -3.364 -10.522  1.00  0.00     0.030 C 
BRANCH   9  10
HETATM   10  C   UNL     1     -24.469  -3.729  -9.413  1.00  0.00     0.164 C 
BRANCH  10  11
HETATM   11  O   UNL     1     -25.758  -3.213  -9.728  1.00  0.00    -0.401 OA
HETATM   12  H   UNL     1     -25.655  -2.598 -10.476  1.00  0.00     0.209 HD
ENDBRANCH  10  11
ENDBRANCH   9  10
ENDBRANCH   2   9
TORSDOF 6
BEGIN_RES ARG D 557
REMARK  4 active torsions:
REMARK  status: ('A' for Active; 'I' for Inactive)
REMARK    1  A    between atoms: CA   and  CB  
REMARK    2  A    between atoms: CB   and  CG  
REMARK    3  A    between atoms: CG   and  CD  
REMARK    4  A    between atoms: CD   and  NE  
REMARK       I    between atoms: NE   and  CZ  
REMARK       I    between atoms: CZ   and  NH1 
REMARK       I    between atoms: CZ   and  NH2 
ROOT
ATOM      1  CA  ARG D 557     -26.217   2.705 -17.014  1.00 35.49     0.159 C 
ENDROOT
BRANCH   1   2
ATOM      2  CB  ARG D 557     -26.789   1.319 -17.183  1.00 35.49     0.034 C 
BRANCH   2   3
ATOM      3  CG  ARG D 557     -25.834   0.204 -17.172  1.00 35.49     0.027 C 
BRANCH   3   4
ATOM      4  CD  ARG D 557     -24.712   0.432 -16.233  1.00 35.49     0.116 C 
BRANCH   4   5
ATOM      5  NE  ARG D 557     -24.821  -0.382 -15.051  1.00 35.49    -0.212 N 
ATOM      6  CZ  ARG D 557     -24.005  -1.354 -14.709  1.00 35.49     0.666 C 
ATOM      7  NH1 ARG D 557     -22.970  -1.705 -15.451  1.00 35.49    -0.235 N 
ATOM      8  NH2 ARG D 557     -24.243  -1.973 -13.590  1.00 35.49    -0.235 N 
ATOM      9  HH  ARG D 557     -22.793  -1.310 -16.191  1.00 35.49     0.174 HD
ATOM     10  HH  ARG D 557     -22.471  -2.345 -15.177  1.00 35.49     0.174 HD
ATOM     11  HH  ARG D 557     -24.914  -1.720 -13.128  1.00 35.49     0.174 HD
ATOM     12  HH  ARG D 557     -23.736  -2.603 -13.334  1.00 35.49     0.174 HD
ATOM     13  HE  ARG D 557     -25.501  -0.273 -14.552  1.00 35.49     0.178 HD
ENDBRANCH   4   5
ENDBRANCH   3   4
ENDBRANCH   2   3
ENDBRANCH   1   2
END_RES ARG D 557
BEGIN_RES GLU D 570
REMARK  3 active torsions:
REMARK  status: ('A' for Active; 'I' for Inactive)
REMARK    5  A    between atoms: CA   and  CB  
REMARK    6  A    between atoms: CB   and  CG  
REMARK    7  A    between atoms: CG   and  CD  
ROOT
ATOM     14  CA  GLU D 570     -18.033  -6.348 -13.375  1.00 32.92     0.160 C 
ENDROOT
BRANCH  14  15
ATOM     15  CB  GLU D 570     -19.500  -6.345 -13.794  1.00 32.92     0.043 C 
BRANCH  15  16
ATOM     16  CG  GLU D 570     -19.797  -6.253 -15.247  1.00 32.92     0.100 C 
BRANCH  16  17
ATOM     17  CD  GLU D 570     -20.693  -7.366 -15.737  1.00 32.92     0.185 C 
ATOM     18  OE1 GLU D 570     -20.604  -8.491 -15.210  1.00 32.92    -0.647 OA
ATOM     19  OE2 GLU D 570     -21.481  -7.114 -16.670  1.00 32.92    -0.647 OA
ENDBRANCH  16  17
ENDBRANCH  15  16
ENDBRANCH  14  15
END_RES GLU D 570
ENDMDL
MODEL 8
REMARK VINA RESULT:      -5.3      2.334      3.231
REMARK  6 active torsions:
REMARK  status: ('A' for Active; 'I' for Inactive)
REMARK    1  A    between atoms: C_2  and  C_3 
REMARK    2  A    between atoms: C_2  and  C_9 
REMARK    3  A    between atoms: C_3  and  C_4 
REMARK    4  A    between atoms: C_4  and  C_5 
REMARK    5  A    between atoms: C_9  and  C_10 
REMARK    6  A    between atoms: C_10  and  O_11 
ROOT
HETATM    1  C   UNL     1     -21.214  -4.087 -11.474  1.00  0.00     0.010 C 
HETATM    2  C   UNL     1     -22.701  -4.388 -11.249  1.00  0.00    -0.016 C 
ENDROOT
BRANCH   2   3
HETATM    3  C   UNL     1     -22.915  -4.749  -9.760  1.00  0.00     0.008 C 
BRANCH   3   4
HETATM    4  C   UNL     1     -22.530  -3.628  -8.790  1.00  0.00     0.027 C 
BRANCH   4   5
HETATM    5  C   UNL     1     -22.030  -4.158  -7.474  1.00  0.00    -0.025 C 
HETATM    6  C   UNL     1     -20.741  -4.340  -7.127  1.00  0.00    -0.091 C 
HETATM    7  C   UNL     1     -19.568  -4.120  -8.043  1.00  0.00     0.042 C 
HETATM    8  C   UNL     1     -20.369  -4.807  -5.746  1.00  0.00     0.042 C 
ENDBRANCH   4   5
ENDBRANCH   3   4
ENDBRANCH   2   3
BRANCH   2   9
HETATM    9  C   UNL     1     -23.586  -3.205 -11.687  1.00  0.00     0.030 C 
BRANCH   9  10
HETATM   10  C   UNL     1     -23.200  -2.597 -13.032  1.00  0.00     0.164 C 
BRANCH  10  11
HETATM   11  O   UNL     1     -24.293  -1.843 -13.546  1.00  0.00    -0.401 OA
HETATM   12  H   UNL     1     -24.916  -1.690 -12.814  1.00  0.00     0.209 HD
ENDBRANCH  10  11
ENDBRANCH   9  10
ENDBRANCH   2   9
TORSDOF 6
BEGIN_RES ARG D 557
REMARK  4 active torsions:
REMARK  status: ('A' for Active; 'I' for Inactive)
REMARK    1  A    between atoms: CA   and  CB  
REMARK    2  A    between atoms: CB   and  CG  
REMARK    3  A    between atoms: CG   and  CD  
REMARK    4  A    between atoms: CD   and  NE  
REMARK       I    between atoms: NE   and  CZ  
REMARK       I    between atoms: CZ   and  NH1 
REMARK       I    between atoms: CZ   and  NH2 
ROOT
ATOM      1  CA  ARG D 557     -26.217   2.705 -17.014  1.00 35.49     0.159 C 
ENDROOT
BRANCH   1   2
ATOM      2  CB  ARG D 557     -26.789   1.319 -17.183  1.00 35.49     0.034 C 
BRANCH   2   3
ATOM      3  CG  ARG D 557     -28.236   1.172 -16.982  1.00 35.49     0.027 C 
BRANCH   3   4
ATOM      4  CD  ARG D 557     -28.628  -0.228 -16.704  1.00 35.49     0.116 C 
BRANCH   4   5
ATOM      5  NE  ARG D 557     -27.604  -0.947 -15.992  1.00 35.49    -0.212 N 
ATOM      6  CZ  ARG D 557     -27.383  -2.240 -16.063  1.00 35.49     0.666 C 
ATOM      7  NH1 ARG D 557     -28.113  -3.045 -16.813  1.00 35.49    -0.235 N 
ATOM      8  NH2 ARG D 557     -26.396  -2.720 -15.363  1.00 35.49    -0.235 N 
ATOM      9  HH  ARG D 557     -28.766  -2.751 -17.283  1.00 35.49     0.174 HD
ATOM     10  HH  ARG D 557     -27.920  -3.880 -16.821  1.00 35.49     0.174 HD
ATOM     11  HH  ARG D 557     -25.937  -2.175 -14.894  1.00 35.49     0.174 HD
ATOM     12  HH  ARG D 557     -26.220  -3.549 -15.386  1.00 35.49     0.174 HD
ATOM     13  HE  ARG D 557     -27.133  -0.517 -15.429  1.00 35.49     0.178 HD
ENDBRANCH   4   5
ENDBRANCH   3   4
ENDBRANCH   2   3
ENDBRANCH   1   2
END_RES ARG D 557
BEGIN_RES GLU D 570
REMARK  3 active torsions:
REMARK  status: ('A' for Active; 'I' for Inactive)
REMARK    5  A    between atoms: CA   and  CB  
REMARK    6  A    between atoms: CB   and  CG  
REMARK    7  A    between atoms: CG   and  CD  
ROOT
ATOM     14  CA  GLU D 570     -18.033  -6.348 -13.375  1.00 32.92     0.160 C 
ENDROOT
BRANCH  14  15
ATOM     15  CB  GLU D 570     -19.500  -6.345 -13.794  1.00 32.92     0.043 C 
BRANCH  15  16
ATOM     16  CG  GLU D 570     -19.804  -6.605 -15.225  1.00 32.92     0.100 C 
BRANCH  16  17
ATOM     17  CD  GLU D 570     -20.801  -5.628 -15.802  1.00 32.92     0.185 C 
ATOM     18  OE1 GLU D 570     -21.540  -4.989 -15.029  1.00 32.92    -0.647 OA
ATOM     19  OE2 GLU D 570     -20.856  -5.512 -17.043  1.00 32.92    -0.647 OA
ENDBRANCH  16  17
ENDBRANCH  15  16
ENDBRANCH  14  15
END_RES GLU D 570
ENDMDL
MODEL 9
REMARK VINA RESULT:      -5.2      2.227      2.627
REMARK  6 active torsions:
REMARK  status: ('A' for Active; 'I' for Inactive)
REMARK    1  A    between atoms: C_2  and  C_3 
REMARK    2  A    between atoms: C_2  and  C_9 
REMARK    3  A    between atoms: C_3  and  C_4 
REMARK    4  A    between atoms: C_4  and  C_5 
REMARK    5  A    between atoms: C_9  and  C_10 
REMARK    6  A    between atoms: C_10  and  O_11 
ROOT
HETATM    1  C   UNL     1     -20.235  -4.452  -9.557  1.00  0.00     0.010 C 
HETATM    2  C   UNL     1     -21.613  -4.481  -8.883  1.00  0.00    -0.016 C 
ENDROOT
BRANCH   2   3
HETATM    3  C   UNL     1     -21.463  -3.981  -7.426  1.00  0.00     0.008 C 
BRANCH   3   4
HETATM    4  C   UNL     1     -20.268  -4.586  -6.684  1.00  0.00     0.027 C 
BRANCH   4   5
HETATM    5  C   UNL     1     -20.604  -4.954  -5.265  1.00  0.00    -0.025 C 
HETATM    6  C   UNL     1     -21.056  -6.149  -4.837  1.00  0.00    -0.091 C 
HETATM    7  C   UNL     1     -21.387  -7.310  -5.735  1.00  0.00     0.042 C 
HETATM    8  C   UNL     1     -21.283  -6.414  -3.373  1.00  0.00     0.042 C 
ENDBRANCH   4   5
ENDBRANCH   3   4
ENDBRANCH   2   3
BRANCH   2   9
HETATM    9  C   UNL     1     -22.641  -3.648  -9.674  1.00  0.00     0.030 C 
BRANCH   9  10
HETATM   10  C   UNL     1     -24.091  -4.066  -9.451  1.00  0.00     0.164 C 
BRANCH  10  11
HETATM   11  O   UNL     1     -24.886  -2.914  -9.192  1.00  0.00    -0.401 OA
HETATM   12  H   UNL     1     -24.650  -2.239  -9.853  1.00  0.00     0.209 HD
ENDBRANCH  10  11
ENDBRANCH   9  10
ENDBRANCH   2   9
TORSDOF 6
BEGIN_RES ARG D 557
REMARK  4 active torsions:
REMARK  status: ('A' for Active; 'I' for Inactive)
REMARK    1  A    between atoms: CA   and  CB  
REMARK    2  A    between atoms: CB   and  CG  
REMARK    3  A    between atoms: CG   and  CD  
REMARK    4  A    between atoms: CD   and  NE  
REMARK       I    between atoms: NE   and  CZ  
REMARK       I    between atoms: CZ   and  NH1 
REMARK       I    between atoms: CZ   and  NH2 
ROOT
ATOM      1  CA  ARG D 557     -26.217   2.705 -17.014  1.00 35.49     0.159 C 
ENDROOT
BRANCH   1   2
ATOM      2  CB  ARG D 557     -26.789   1.319 -17.183  1.00 35.49     0.034 C 
BRANCH   2   3
ATOM      3  CG  ARG D 557     -28.231   1.226 -17.440  1.00 35.49     0.027 C 
BRANCH   3   4
ATOM      4  CD  ARG D 557     -28.914   0.307 -16.501  1.00 35.49     0.116 C 
BRANCH   4   5
ATOM      5  NE  ARG D 557     -29.314  -0.920 -17.138  1.00 35.49    -0.212 N 
ATOM      6  CZ  ARG D 557     -28.693  -2.074 -17.041  1.00 35.49     0.666 C 
ATOM      7  NH1 ARG D 557     -27.588  -2.228 -16.334  1.00 35.49    -0.235 N 
ATOM      8  NH2 ARG D 557     -29.210  -3.089 -17.670  1.00 35.49    -0.235 N 
ATOM      9  HH  ARG D 557     -27.232  -1.574 -15.910  1.00 35.49     0.174 HD
ATOM     10  HH  ARG D 557     -27.228  -3.005 -16.305  1.00 35.49     0.174 HD
ATOM     11  HH  ARG D 557     -29.928  -2.962 -18.113  1.00 35.49     0.174 HD
ATOM     12  HH  ARG D 557     -28.840  -3.851 -17.628  1.00 35.49     0.174 HD
ATOM     13  HE  ARG D 557     -29.975  -0.895 -17.672  1.00 35.49     0.178 HD
ENDBRANCH   4   5
ENDBRANCH   3   4
ENDBRANCH   2   3
ENDBRANCH   1   2
END_RES ARG D 557
BEGIN_RES GLU D 570
REMARK  3 active torsions:
REMARK  status: ('A' for Active; 'I' for Inactive)
REMARK    5  A    between atoms: CA   and  CB  
REMARK    6  A    between atoms: CB   and  CG  
REMARK    7  A    between atoms: CG   and  CD  
ROOT
ATOM     14  CA  GLU D 570     -18.033  -6.348 -13.375  1.00 32.92     0.160 C 
ENDROOT
BRANCH  14  15
ATOM     15  CB  GLU D 570     -19.500  -6.345 -13.794  1.00 32.92     0.043 C 
BRANCH  15  16
ATOM     16  CG  GLU D 570     -20.450  -5.569 -12.955  1.00 32.92     0.100 C 
BRANCH  16  17
ATOM     17  CD  GLU D 570     -21.736  -5.237 -13.675  1.00 32.92     0.185 C 
ATOM     18  OE1 GLU D 570     -22.262  -4.123 -13.492  1.00 32.92    -0.647 OA
ATOM     19  OE2 GLU D 570     -22.232  -6.108 -14.417  1.00 32.92    -0.647 OA
ENDBRANCH  16  17
ENDBRANCH  15  16
ENDBRANCH  14  15
END_RES GLU D 570
ENDMDL
