MODEL 1
REMARK VINA RESULT:      -8.8      0.000      0.000
REMARK  6 active torsions:
REMARK  status: ('A' for Active; 'I' for Inactive)
REMARK    1  A    between atoms: C_9  and  N_15 
REMARK    2  A    between atoms: C_10  and  S_11 
REMARK    3  A    between atoms: S_11  and  O_12 
REMARK    4  A    between atoms: N_17  and  C_19 
REMARK    5  A    between atoms: C_21  and  C_29 
REMARK    6  A    between atoms: C_29  and  O_31 
ROOT
HETATM    1  N   UNL     1     -17.635  -9.476  -3.301  1.00  0.00    -0.299 N 
ATOM      2  HN  UNL     1     -17.311  -8.567  -3.630  1.00  0.00     0.187 HD
HETATM    3  N   UNL     1     -18.845  -9.788  -3.219  1.00  0.00    -0.296 N 
ATOM      4  HN  UNL     1     -19.183 -10.719  -2.973  1.00  0.00     0.187 HD
ENDROOT
BRANCH   1   5
HETATM    5  C   UNL     1     -16.764 -10.511  -2.892  1.00  0.00     0.072 A 
HETATM    6  C   UNL     1     -16.922 -11.140  -1.647  1.00  0.00     0.033 A 
HETATM    7  C   UNL     1     -16.218 -12.291  -1.324  1.00  0.00     0.014 A 
HETATM    8  C   UNL     1     -15.290 -12.847  -2.209  1.00  0.00    -0.024 A 
HETATM    9  C   UNL     1     -15.014 -12.205  -3.440  1.00  0.00     0.000 A 
HETATM   10  C   UNL     1     -14.671 -14.061  -1.873  1.00  0.00     0.012 A 
HETATM   11  C   UNL     1     -13.981 -12.801  -4.232  1.00  0.00     0.014 A 
HETATM   12  C   UNL     1     -15.805 -11.064  -3.778  1.00  0.00     0.127 A 
HETATM   13  C   UNL     1     -13.385 -14.020  -3.892  1.00  0.00     0.001 A 
HETATM   14  C   UNL     1     -13.748 -14.663  -2.721  1.00  0.00     0.001 A 
BRANCH  12  15
HETATM   15  S   UNL     1     -15.981 -10.563  -5.526  1.00  0.00     0.328 S 
HETATM   16  O   UNL     1     -15.686  -9.155  -5.575  1.00  0.00    -0.191 OA
HETATM   17  O   UNL     1     -15.139 -11.501  -6.260  1.00  0.00    -0.191 OA
BRANCH  15  18
HETATM   18  O   UNL     1     -17.357 -11.011  -5.803  1.00  0.00    -0.086 OA
HETATM   19 CA   UNL     2     -18.499 -10.338  -7.352  1.00  0.00     0.000 Ca
ENDBRANCH  15  18
ENDBRANCH  12  15
ENDBRANCH   1   5
BRANCH   3  20
HETATM   20  C   UNL     1     -19.693  -8.676  -3.512  1.00  0.00     0.110 A 
HETATM   21  C   UNL     1     -19.686  -8.140  -4.851  1.00  0.00     0.217 A 
HETATM   22  C   UNL     1     -20.631  -7.095  -5.076  1.00  0.00     0.090 A 
HETATM   23  O   UNL     1     -18.883  -8.564  -5.766  1.00  0.00    -0.285 OA
HETATM   24  C   UNL     1     -21.477  -6.599  -4.063  1.00  0.00     0.034 A 
HETATM   25  C   UNL     1     -21.444  -7.119  -2.771  1.00  0.00    -0.022 A 
HETATM   26  C   UNL     1     -22.285  -6.595  -1.773  1.00  0.00     0.012 A 
HETATM   27  C   UNL     1     -20.567  -8.182  -2.482  1.00  0.00     0.006 A 
HETATM   28  C   UNL     1     -22.271  -7.109  -0.478  1.00  0.00     0.001 A 
HETATM   29  C   UNL     1     -21.429  -8.166  -0.174  1.00  0.00     0.001 A 
HETATM   30  C   UNL     1     -20.604  -8.701  -1.164  1.00  0.00     0.015 A 
BRANCH  22  31
HETATM   31  C   UNL     1     -20.850  -6.423  -6.421  1.00  0.00     0.180 C 
HETATM   32  O   UNL     1     -21.882  -5.868  -6.747  1.00  0.00    -0.646 OA
BRANCH  31  33
HETATM   33  O   UNL     1     -19.784  -6.512  -7.262  1.00  0.00    -0.773 OA
HETATM   34  H   UNL     1     -19.048  -6.960  -6.752  1.00  0.00     0.167 HD
ENDBRANCH  31  33
ENDBRANCH  22  31
ENDBRANCH   3  20
TORSDOF 6
BEGIN_RES ARG D 557
REMARK  4 active torsions:
REMARK  status: ('A' for Active; 'I' for Inactive)
REMARK    1  A    between atoms: CA   and  CB  
REMARK    2  A    between atoms: CB   and  CG  
REMARK    3  A    between atoms: CG   and  CD  
REMARK    4  A    between atoms: CD   and  NE  
REMARK       I    between atoms: NE   and  CZ  
REMARK       I    between atoms: CZ   and  NH1 
REMARK       I    between atoms: CZ   and  NH2 
ROOT
ATOM      1  CA  ARG D 557     -26.217   2.705 -17.014  1.00 35.49     0.159 C 
ENDROOT
BRANCH   1   2
ATOM      2  CB  ARG D 557     -26.789   1.319 -17.183  1.00 35.49     0.034 C 
BRANCH   2   3
ATOM      3  CG  ARG D 557     -25.837   0.202 -17.146  1.00 35.49     0.027 C 
BRANCH   3   4
ATOM      4  CD  ARG D 557     -24.758   0.413 -16.154  1.00 35.49     0.116 C 
BRANCH   4   5
ATOM      5  NE  ARG D 557     -24.901  -0.444 -15.007  1.00 35.49    -0.212 N 
ATOM      6  CZ  ARG D 557     -24.080  -1.412 -14.665  1.00 35.49     0.666 C 
ATOM      7  NH1 ARG D 557     -23.008  -1.716 -15.373  1.00 35.49    -0.235 N 
ATOM      8  NH2 ARG D 557     -24.353  -2.075 -13.579  1.00 35.49    -0.235 N 
ATOM      9  HH  ARG D 557     -22.807  -1.292 -16.089  1.00 35.49     0.174 HD
ATOM     10  HH  ARG D 557     -22.508  -2.356 -15.099  1.00 35.49     0.174 HD
ATOM     11  HH  ARG D 557     -25.048  -1.851 -13.138  1.00 35.49     0.174 HD
ATOM     12  HH  ARG D 557     -23.845  -2.704 -13.324  1.00 35.49     0.174 HD
ATOM     13  HE  ARG D 557     -25.603  -0.365 -14.535  1.00 35.49     0.178 HD
ENDBRANCH   4   5
ENDBRANCH   3   4
ENDBRANCH   2   3
ENDBRANCH   1   2
END_RES ARG D 557
BEGIN_RES GLU D 570
REMARK  3 active torsions:
REMARK  status: ('A' for Active; 'I' for Inactive)
REMARK    5  A    between atoms: CA   and  CB  
REMARK    6  A    between atoms: CB   and  CG  
REMARK    7  A    between atoms: CG   and  CD  
ROOT
ATOM     14  CA  GLU D 570     -18.033  -6.348 -13.375  1.00 32.92     0.160 C 
ENDROOT
BRANCH  14  15
ATOM     15  CB  GLU D 570     -19.500  -6.345 -13.794  1.00 32.92     0.043 C 
BRANCH  15  16
ATOM     16  CG  GLU D 570     -20.445  -5.546 -12.972  1.00 32.92     0.100 C 
BRANCH  16  17
ATOM     17  CD  GLU D 570     -21.739  -5.242 -13.690  1.00 32.92     0.185 C 
ATOM     18  OE1 GLU D 570     -22.276  -4.129 -13.527  1.00 32.92    -0.647 OA
ATOM     19  OE2 GLU D 570     -22.231  -6.133 -14.411  1.00 32.92    -0.647 OA
ENDBRANCH  16  17
ENDBRANCH  15  16
ENDBRANCH  14  15
END_RES GLU D 570
ENDMDL
MODEL 2
REMARK VINA RESULT:      -8.5      3.266      7.507
REMARK  6 active torsions:
REMARK  status: ('A' for Active; 'I' for Inactive)
REMARK    1  A    between atoms: C_9  and  N_15 
REMARK    2  A    between atoms: C_10  and  S_11 
REMARK    3  A    between atoms: S_11  and  O_12 
REMARK    4  A    between atoms: N_17  and  C_19 
REMARK    5  A    between atoms: C_21  and  C_29 
REMARK    6  A    between atoms: C_29  and  O_31 
ROOT
HETATM    1  N   UNL     1     -19.765  -6.991  -5.202  1.00  0.00    -0.299 N 
ATOM      2  HN  UNL     1     -19.571  -6.658  -4.258  1.00  0.00     0.187 HD
HETATM    3  N   UNL     1     -19.660  -8.191  -5.545  1.00  0.00    -0.296 N 
ATOM      4  HN  UNL     1     -19.931  -8.553  -6.459  1.00  0.00     0.187 HD
ENDROOT
BRANCH   1   5
HETATM    5  C   UNL     1     -20.179  -6.145  -6.257  1.00  0.00     0.072 A 
HETATM    6  C   UNL     1     -19.354  -5.920  -7.369  1.00  0.00     0.033 A 
HETATM    7  C   UNL     1     -19.828  -5.271  -8.501  1.00  0.00     0.014 A 
HETATM    8  C   UNL     1     -21.135  -4.779  -8.561  1.00  0.00    -0.024 A 
HETATM    9  C   UNL     1     -21.985  -4.888  -7.435  1.00  0.00     0.000 A 
HETATM   10  C   UNL     1     -21.594  -4.212  -9.760  1.00  0.00     0.012 A 
HETATM   11  C   UNL     1     -23.269  -4.269  -7.565  1.00  0.00     0.014 A 
HETATM   12  C   UNL     1     -21.496  -5.623  -6.312  1.00  0.00     0.127 A 
HETATM   13  C   UNL     1     -23.719  -3.724  -8.772  1.00  0.00     0.001 A 
HETATM   14  C   UNL     1     -22.887  -3.716  -9.879  1.00  0.00     0.001 A 
BRANCH  12  15
HETATM   15  S   UNL     1     -22.672  -6.351  -5.117  1.00  0.00     0.328 S 
HETATM   16  O   UNL     1     -23.961  -5.792  -5.427  1.00  0.00    -0.191 OA
HETATM   17  O   UNL     1     -22.464  -7.791  -5.234  1.00  0.00    -0.191 OA
BRANCH  15  18
HETATM   18  O   UNL     1     -22.027  -5.990  -3.843  1.00  0.00    -0.086 OA
HETATM   19 CA   UNL     2     -23.023  -5.315  -2.197  1.00  0.00     0.000 Ca
ENDBRANCH  15  18
ENDBRANCH  12  15
ENDBRANCH   1   5
BRANCH   3  20
HETATM   20  C   UNL     1     -19.113  -8.989  -4.493  1.00  0.00     0.110 A 
HETATM   21  C   UNL     1     -19.891  -9.171  -3.292  1.00  0.00     0.217 A 
HETATM   22  C   UNL     1     -19.309 -10.058  -2.337  1.00  0.00     0.090 A 
HETATM   23  O   UNL     1     -21.015  -8.571  -3.093  1.00  0.00    -0.285 OA
HETATM   24  C   UNL     1     -18.057 -10.677  -2.535  1.00  0.00     0.034 A 
HETATM   25  C   UNL     1     -17.317 -10.463  -3.695  1.00  0.00    -0.022 A 
HETATM   26  C   UNL     1     -16.063 -11.078  -3.860  1.00  0.00     0.012 A 
HETATM   27  C   UNL     1     -17.844  -9.633  -4.702  1.00  0.00     0.006 A 
HETATM   28  C   UNL     1     -15.312 -10.882  -5.016  1.00  0.00     0.001 A 
HETATM   29  C   UNL     1     -15.817 -10.083  -6.029  1.00  0.00     0.001 A 
HETATM   30  C   UNL     1     -17.069  -9.484  -5.879  1.00  0.00     0.015 A 
BRANCH  22  31
HETATM   31  C   UNL     1     -19.973 -10.452  -1.030  1.00  0.00     0.180 C 
HETATM   32  O   UNL     1     -19.796 -11.517  -0.468  1.00  0.00    -0.646 OA
BRANCH  31  33
HETATM   33  O   UNL     1     -20.819  -9.509  -0.533  1.00  0.00    -0.773 OA
HETATM   34  H   UNL     1     -20.925  -8.811  -1.244  1.00  0.00     0.167 HD
ENDBRANCH  31  33
ENDBRANCH  22  31
ENDBRANCH   3  20
TORSDOF 6
BEGIN_RES ARG D 557
REMARK  4 active torsions:
REMARK  status: ('A' for Active; 'I' for Inactive)
REMARK    1  A    between atoms: CA   and  CB  
REMARK    2  A    between atoms: CB   and  CG  
REMARK    3  A    between atoms: CG   and  CD  
REMARK    4  A    between atoms: CD   and  NE  
REMARK       I    between atoms: NE   and  CZ  
REMARK       I    between atoms: CZ   and  NH1 
REMARK       I    between atoms: CZ   and  NH2 
ROOT
ATOM      1  CA  ARG D 557     -26.217   2.705 -17.014  1.00 35.49     0.159 C 
ENDROOT
BRANCH   1   2
ATOM      2  CB  ARG D 557     -26.789   1.319 -17.183  1.00 35.49     0.034 C 
BRANCH   2   3
ATOM      3  CG  ARG D 557     -25.838   0.202 -17.141  1.00 35.49     0.027 C 
BRANCH   3   4
ATOM      4  CD  ARG D 557     -24.755   0.420 -16.154  1.00 35.49     0.116 C 
BRANCH   4   5
ATOM      5  NE  ARG D 557     -24.893  -0.431 -15.001  1.00 35.49    -0.212 N 
ATOM      6  CZ  ARG D 557     -24.078  -1.405 -14.664  1.00 35.49     0.666 C 
ATOM      7  NH1 ARG D 557     -23.018  -1.724 -15.384  1.00 35.49    -0.235 N 
ATOM      8  NH2 ARG D 557     -24.345  -2.061 -13.572  1.00 35.49    -0.235 N 
ATOM      9  HH  ARG D 557     -22.821  -1.305 -16.105  1.00 35.49     0.174 HD
ATOM     10  HH  ARG D 557     -22.521  -2.368 -15.113  1.00 35.49     0.174 HD
ATOM     11  HH  ARG D 557     -25.032  -1.828 -13.124  1.00 35.49     0.174 HD
ATOM     12  HH  ARG D 557     -23.840  -2.694 -13.320  1.00 35.49     0.174 HD
ATOM     13  HE  ARG D 557     -25.589  -0.343 -14.521  1.00 35.49     0.178 HD
ENDBRANCH   4   5
ENDBRANCH   3   4
ENDBRANCH   2   3
ENDBRANCH   1   2
END_RES ARG D 557
BEGIN_RES GLU D 570
REMARK  3 active torsions:
REMARK  status: ('A' for Active; 'I' for Inactive)
REMARK    5  A    between atoms: CA   and  CB  
REMARK    6  A    between atoms: CB   and  CG  
REMARK    7  A    between atoms: CG   and  CD  
ROOT
ATOM     14  CA  GLU D 570     -18.033  -6.348 -13.375  1.00 32.92     0.160 C 
ENDROOT
BRANCH  14  15
ATOM     15  CB  GLU D 570     -19.500  -6.345 -13.794  1.00 32.92     0.043 C 
BRANCH  15  16
ATOM     16  CG  GLU D 570     -20.447  -5.556 -12.965  1.00 32.92     0.100 C 
BRANCH  16  17
ATOM     17  CD  GLU D 570     -21.729  -5.220 -13.692  1.00 32.92     0.185 C 
ATOM     18  OE1 GLU D 570     -22.287  -4.130 -13.463  1.00 32.92    -0.647 OA
ATOM     19  OE2 GLU D 570     -22.188  -6.064 -14.486  1.00 32.92    -0.647 OA
ENDBRANCH  16  17
ENDBRANCH  15  16
ENDBRANCH  14  15
END_RES GLU D 570
ENDMDL
MODEL 3
REMARK VINA RESULT:      -8.5      1.261      1.446
REMARK  6 active torsions:
REMARK  status: ('A' for Active; 'I' for Inactive)
REMARK    1  A    between atoms: C_9  and  N_15 
REMARK    2  A    between atoms: C_10  and  S_11 
REMARK    3  A    between atoms: S_11  and  O_12 
REMARK    4  A    between atoms: N_17  and  C_19 
REMARK    5  A    between atoms: C_21  and  C_29 
REMARK    6  A    between atoms: C_29  and  O_31 
ROOT
HETATM    1  N   UNL     1     -17.592  -9.392  -3.516  1.00  0.00    -0.299 N 
ATOM      2  HN  UNL     1     -17.298  -8.493  -3.896  1.00  0.00     0.187 HD
HETATM    3  N   UNL     1     -18.791  -9.710  -3.347  1.00  0.00    -0.296 N 
ATOM      4  HN  UNL     1     -19.104 -10.634  -3.048  1.00  0.00     0.187 HD
ENDROOT
BRANCH   1   5
HETATM    5  C   UNL     1     -16.686 -10.405  -3.125  1.00  0.00     0.072 A 
HETATM    6  C   UNL     1     -16.739 -10.966  -1.839  1.00  0.00     0.033 A 
HETATM    7  C   UNL     1     -16.007 -12.098  -1.515  1.00  0.00     0.014 A 
HETATM    8  C   UNL     1     -15.154 -12.702  -2.443  1.00  0.00    -0.024 A 
HETATM    9  C   UNL     1     -14.982 -12.127  -3.725  1.00  0.00     0.000 A 
HETATM   10  C   UNL     1     -14.505 -13.897  -2.095  1.00  0.00     0.012 A 
HETATM   11  C   UNL     1     -14.017 -12.766  -4.567  1.00  0.00     0.014 A 
HETATM   12  C   UNL     1     -15.802 -11.006  -4.056  1.00  0.00     0.127 A 
HETATM   13  C   UNL     1     -13.392 -13.967  -4.213  1.00  0.00     0.001 A 
HETATM   14  C   UNL     1     -13.654 -14.545  -2.983  1.00  0.00     0.001 A 
BRANCH  12  15
HETATM   15  S   UNL     1     -16.125 -10.599  -5.809  1.00  0.00     0.328 S 
HETATM   16  O   UNL     1     -15.875  -9.189  -5.949  1.00  0.00    -0.191 OA
HETATM   17  O   UNL     1     -15.314 -11.552  -6.559  1.00  0.00    -0.191 OA
BRANCH  15  18
HETATM   18  O   UNL     1     -17.504 -11.095  -5.957  1.00  0.00    -0.086 OA
HETATM   19 CA   UNL     2     -18.824 -10.430  -7.361  1.00  0.00     0.000 Ca
ENDBRANCH  15  18
ENDBRANCH  12  15
ENDBRANCH   1   5
BRANCH   3  20
HETATM   20  C   UNL     1     -19.667  -8.616  -3.625  1.00  0.00     0.110 A 
HETATM   21  C   UNL     1     -19.690  -8.078  -4.964  1.00  0.00     0.217 A 
HETATM   22  C   UNL     1     -20.661  -7.052  -5.173  1.00  0.00     0.090 A 
HETATM   23  O   UNL     1     -18.891  -8.482  -5.891  1.00  0.00    -0.285 OA
HETATM   24  C   UNL     1     -21.503  -6.577  -4.147  1.00  0.00     0.034 A 
HETATM   25  C   UNL     1     -21.441  -7.099  -2.857  1.00  0.00    -0.022 A 
HETATM   26  C   UNL     1     -22.279  -6.596  -1.846  1.00  0.00     0.012 A 
HETATM   27  C   UNL     1     -20.537  -8.143  -2.582  1.00  0.00     0.006 A 
HETATM   28  C   UNL     1     -22.236  -7.111  -0.552  1.00  0.00     0.001 A 
HETATM   29  C   UNL     1     -21.367  -8.150  -0.262  1.00  0.00     0.001 A 
HETATM   30  C   UNL     1     -20.545  -8.666  -1.265  1.00  0.00     0.015 A 
BRANCH  22  31
HETATM   31  C   UNL     1     -20.913  -6.384  -6.513  1.00  0.00     0.180 C 
HETATM   32  O   UNL     1     -21.954  -5.833  -6.816  1.00  0.00    -0.646 OA
BRANCH  31  33
HETATM   33  O   UNL     1     -19.866  -6.469  -7.379  1.00  0.00    -0.773 OA
HETATM   34  H   UNL     1     -20.048  -5.819  -8.119  1.00  0.00     0.167 HD
ENDBRANCH  31  33
ENDBRANCH  22  31
ENDBRANCH   3  20
TORSDOF 6
BEGIN_RES ARG D 557
REMARK  4 active torsions:
REMARK  status: ('A' for Active; 'I' for Inactive)
REMARK    1  A    between atoms: CA   and  CB  
REMARK    2  A    between atoms: CB   and  CG  
REMARK    3  A    between atoms: CG   and  CD  
REMARK    4  A    between atoms: CD   and  NE  
REMARK       I    between atoms: NE   and  CZ  
REMARK       I    between atoms: CZ   and  NH1 
REMARK       I    between atoms: CZ   and  NH2 
ROOT
ATOM      1  CA  ARG D 557     -26.217   2.705 -17.014  1.00 35.49     0.159 C 
ENDROOT
BRANCH   1   2
ATOM      2  CB  ARG D 557     -26.789   1.319 -17.183  1.00 35.49     0.034 C 
BRANCH   2   3
ATOM      3  CG  ARG D 557     -28.220   1.156 -16.899  1.00 35.49     0.027 C 
BRANCH   3   4
ATOM      4  CD  ARG D 557     -28.603  -0.265 -16.730  1.00 35.49     0.116 C 
BRANCH   4   5
ATOM      5  NE  ARG D 557     -27.603  -1.016 -16.019  1.00 35.49    -0.212 N 
ATOM      6  CZ  ARG D 557     -27.424  -2.316 -16.089  1.00 35.49     0.666 C 
ATOM      7  NH1 ARG D 557     -28.181  -3.097 -16.837  1.00 35.49    -0.235 N 
ATOM      8  NH2 ARG D 557     -26.452  -2.826 -15.390  1.00 35.49    -0.235 N 
ATOM      9  HH  ARG D 557     -28.825  -2.782 -17.307  1.00 35.49     0.174 HD
ATOM     10  HH  ARG D 557     -28.016  -3.937 -16.845  1.00 35.49     0.174 HD
ATOM     11  HH  ARG D 557     -25.974  -2.297 -14.922  1.00 35.49     0.174 HD
ATOM     12  HH  ARG D 557     -26.303  -3.661 -15.412  1.00 35.49     0.174 HD
ATOM     13  HE  ARG D 557     -27.117  -0.601 -15.457  1.00 35.49     0.178 HD
ENDBRANCH   4   5
ENDBRANCH   3   4
ENDBRANCH   2   3
ENDBRANCH   1   2
END_RES ARG D 557
BEGIN_RES GLU D 570
REMARK  3 active torsions:
REMARK  status: ('A' for Active; 'I' for Inactive)
REMARK    5  A    between atoms: CA   and  CB  
REMARK    6  A    between atoms: CB   and  CG  
REMARK    7  A    between atoms: CG   and  CD  
ROOT
ATOM     14  CA  GLU D 570     -18.033  -6.348 -13.375  1.00 32.92     0.160 C 
ENDROOT
BRANCH  14  15
ATOM     15  CB  GLU D 570     -19.500  -6.345 -13.794  1.00 32.92     0.043 C 
BRANCH  15  16
ATOM     16  CG  GLU D 570     -20.441  -5.528 -12.985  1.00 32.92     0.100 C 
BRANCH  16  17
ATOM     17  CD  GLU D 570     -21.739  -5.241 -13.703  1.00 32.92     0.185 C 
ATOM     18  OE1 GLU D 570     -22.313  -4.153 -13.504  1.00 32.92    -0.647 OA
ATOM     19  OE2 GLU D 570     -22.196  -6.120 -14.460  1.00 32.92    -0.647 OA
ENDBRANCH  16  17
ENDBRANCH  15  16
ENDBRANCH  14  15
END_RES GLU D 570
ENDMDL
MODEL 4
REMARK VINA RESULT:      -8.3      3.638      5.802
REMARK  6 active torsions:
REMARK  status: ('A' for Active; 'I' for Inactive)
REMARK    1  A    between atoms: C_9  and  N_15 
REMARK    2  A    between atoms: C_10  and  S_11 
REMARK    3  A    between atoms: S_11  and  O_12 
REMARK    4  A    between atoms: N_17  and  C_19 
REMARK    5  A    between atoms: C_21  and  C_29 
REMARK    6  A    between atoms: C_29  and  O_31 
ROOT
HETATM    1  N   UNL     1     -21.756  -6.499  -4.882  1.00  0.00    -0.299 N 
ATOM      2  HN  UNL     1     -21.830  -7.141  -5.671  1.00  0.00     0.187 HD
HETATM    3  N   UNL     1     -21.793  -5.253  -5.002  1.00  0.00    -0.296 N 
ATOM      4  HN  UNL     1     -21.805  -4.601  -4.218  1.00  0.00     0.187 HD
ENDROOT
BRANCH   1   5
HETATM    5  C   UNL     1     -21.600  -6.926  -3.544  1.00  0.00     0.072 A 
HETATM    6  C   UNL     1     -22.240  -6.253  -2.491  1.00  0.00     0.033 A 
HETATM    7  C   UNL     1     -22.272  -6.782  -1.209  1.00  0.00     0.014 A 
HETATM    8  C   UNL     1     -21.631  -7.987  -0.905  1.00  0.00    -0.024 A 
HETATM    9  C   UNL     1     -20.886  -8.663  -1.900  1.00  0.00     0.000 A 
HETATM   10  C   UNL     1     -21.769  -8.525   0.385  1.00  0.00     0.012 A 
HETATM   11  C   UNL     1     -20.190  -9.835  -1.464  1.00  0.00     0.014 A 
HETATM   12  C   UNL     1     -20.931  -8.135  -3.226  1.00  0.00     0.127 A 
HETATM   13  C   UNL     1     -20.351 -10.369  -0.181  1.00  0.00     0.001 A 
HETATM   14  C   UNL     1     -21.161  -9.724   0.738  1.00  0.00     0.001 A 
BRANCH  12  15
HETATM   15  S   UNL     1     -20.564  -9.217  -4.652  1.00  0.00     0.328 S 
HETATM   16  O   UNL     1     -20.589 -10.566  -4.152  1.00  0.00    -0.191 OA
HETATM   17  O   UNL     1     -21.521  -8.810  -5.674  1.00  0.00    -0.191 OA
BRANCH  15  18
HETATM   18  O   UNL     1     -19.281  -8.651  -5.104  1.00  0.00    -0.086 OA
HETATM   19 CA   UNL     2     -18.364  -9.131  -6.860  1.00  0.00     0.000 Ca
ENDBRANCH  15  18
ENDBRANCH  12  15
ENDBRANCH   1   5
BRANCH   3  20
HETATM   20  C   UNL     1     -21.816  -4.860  -6.375  1.00  0.00     0.110 A 
HETATM   21  C   UNL     1     -23.094  -4.735  -7.034  1.00  0.00     0.217 A 
HETATM   22  C   UNL     1     -23.025  -4.246  -8.373  1.00  0.00     0.090 A 
HETATM   23  O   UNL     1     -24.205  -5.050  -6.462  1.00  0.00    -0.285 OA
HETATM   24  C   UNL     1     -21.805  -3.947  -9.015  1.00  0.00     0.034 A 
HETATM   25  C   UNL     1     -20.585  -4.101  -8.362  1.00  0.00    -0.022 A 
HETATM   26  C   UNL     1     -19.381  -3.812  -9.030  1.00  0.00     0.012 A 
HETATM   27  C   UNL     1     -20.573  -4.538  -7.024  1.00  0.00     0.006 A 
HETATM   28  C   UNL     1     -18.152  -3.953  -8.390  1.00  0.00     0.001 A 
HETATM   29  C   UNL     1     -18.115  -4.365  -7.068  1.00  0.00     0.001 A 
HETATM   30  C   UNL     1     -19.307  -4.637  -6.394  1.00  0.00     0.015 A 
BRANCH  22  31
HETATM   31  C   UNL     1     -24.242  -3.973  -9.240  1.00  0.00     0.180 C 
HETATM   32  O   UNL     1     -24.611  -4.697 -10.145  1.00  0.00    -0.646 OA
BRANCH  31  33
HETATM   33  O   UNL     1     -24.891  -2.817  -8.932  1.00  0.00    -0.773 OA
HETATM   34  H   UNL     1     -24.480  -2.469  -8.087  1.00  0.00     0.167 HD
ENDBRANCH  31  33
ENDBRANCH  22  31
ENDBRANCH   3  20
TORSDOF 6
BEGIN_RES ARG D 557
REMARK  4 active torsions:
REMARK  status: ('A' for Active; 'I' for Inactive)
REMARK    1  A    between atoms: CA   and  CB  
REMARK    2  A    between atoms: CB   and  CG  
REMARK    3  A    between atoms: CG   and  CD  
REMARK    4  A    between atoms: CD   and  NE  
REMARK       I    between atoms: NE   and  CZ  
REMARK       I    between atoms: CZ   and  NH1 
REMARK       I    between atoms: CZ   and  NH2 
ROOT
ATOM      1  CA  ARG D 557     -26.217   2.705 -17.014  1.00 35.49     0.159 C 
ENDROOT
BRANCH   1   2
ATOM      2  CB  ARG D 557     -26.789   1.319 -17.183  1.00 35.49     0.034 C 
BRANCH   2   3
ATOM      3  CG  ARG D 557     -25.836   0.203 -17.151  1.00 35.49     0.027 C 
BRANCH   3   4
ATOM      4  CD  ARG D 557     -24.765   0.403 -16.148  1.00 35.49     0.116 C 
BRANCH   4   5
ATOM      5  NE  ARG D 557     -24.928  -0.453 -15.003  1.00 35.49    -0.212 N 
ATOM      6  CZ  ARG D 557     -24.123  -1.432 -14.654  1.00 35.49     0.666 C 
ATOM      7  NH1 ARG D 557     -23.050  -1.750 -15.354  1.00 35.49    -0.235 N 
ATOM      8  NH2 ARG D 557     -24.414  -2.092 -13.571  1.00 35.49    -0.235 N 
ATOM      9  HH  ARG D 557     -22.838  -1.328 -16.069  1.00 35.49     0.174 HD
ATOM     10  HH  ARG D 557     -22.560  -2.396 -15.077  1.00 35.49     0.174 HD
ATOM     11  HH  ARG D 557     -25.109  -1.859 -13.135  1.00 35.49     0.174 HD
ATOM     12  HH  ARG D 557     -23.916  -2.727 -13.312  1.00 35.49     0.174 HD
ATOM     13  HE  ARG D 557     -25.634  -0.365 -14.536  1.00 35.49     0.178 HD
ENDBRANCH   4   5
ENDBRANCH   3   4
ENDBRANCH   2   3
ENDBRANCH   1   2
END_RES ARG D 557
BEGIN_RES GLU D 570
REMARK  3 active torsions:
REMARK  status: ('A' for Active; 'I' for Inactive)
REMARK    5  A    between atoms: CA   and  CB  
REMARK    6  A    between atoms: CB   and  CG  
REMARK    7  A    between atoms: CG   and  CD  
ROOT
ATOM     14  CA  GLU D 570     -18.033  -6.348 -13.375  1.00 32.92     0.160 C 
ENDROOT
BRANCH  14  15
ATOM     15  CB  GLU D 570     -19.500  -6.345 -13.794  1.00 32.92     0.043 C 
BRANCH  15  16
ATOM     16  CG  GLU D 570     -20.444  -5.539 -12.977  1.00 32.92     0.100 C 
BRANCH  16  17
ATOM     17  CD  GLU D 570     -21.720  -5.201 -13.712  1.00 32.92     0.185 C 
ATOM     18  OE1 GLU D 570     -22.331  -4.157 -13.415  1.00 32.92    -0.647 OA
ATOM     19  OE2 GLU D 570     -22.121  -5.998 -14.583  1.00 32.92    -0.647 OA
ENDBRANCH  16  17
ENDBRANCH  15  16
ENDBRANCH  14  15
END_RES GLU D 570
ENDMDL
MODEL 5
REMARK VINA RESULT:      -8.1     10.139     13.657
REMARK  6 active torsions:
REMARK  status: ('A' for Active; 'I' for Inactive)
REMARK    1  A    between atoms: C_9  and  N_15 
REMARK    2  A    between atoms: C_10  and  S_11 
REMARK    3  A    between atoms: S_11  and  O_12 
REMARK    4  A    between atoms: N_17  and  C_19 
REMARK    5  A    between atoms: C_21  and  C_29 
REMARK    6  A    between atoms: C_29  and  O_31 
ROOT
HETATM    1  N   UNL     1     -25.328  -5.035 -15.183  1.00  0.00    -0.299 N 
ATOM      2  HN  UNL     1     -25.821  -4.239 -15.590  1.00  0.00     0.187 HD
HETATM    3  N   UNL     1     -25.475  -6.213 -15.580  1.00  0.00    -0.296 N 
ATOM      4  HN  UNL     1     -24.929  -7.006 -15.242  1.00  0.00     0.187 HD
ENDROOT
BRANCH   1   5
HETATM    5  C   UNL     1     -24.412  -4.918 -14.113  1.00  0.00     0.072 A 
HETATM    6  C   UNL     1     -23.793  -6.051 -13.564  1.00  0.00     0.033 A 
HETATM    7  C   UNL     1     -22.740  -5.936 -12.667  1.00  0.00     0.014 A 
HETATM    8  C   UNL     1     -22.282  -4.686 -12.242  1.00  0.00    -0.024 A 
HETATM    9  C   UNL     1     -22.929  -3.508 -12.683  1.00  0.00     0.000 A 
HETATM   10  C   UNL     1     -21.156  -4.622 -11.405  1.00  0.00     0.012 A 
HETATM   11  C   UNL     1     -22.445  -2.285 -12.117  1.00  0.00     0.014 A 
HETATM   12  C   UNL     1     -23.961  -3.652 -13.661  1.00  0.00     0.127 A 
HETATM   13  C   UNL     1     -21.312  -2.235 -11.299  1.00  0.00     0.001 A 
HETATM   14  C   UNL     1     -20.653  -3.405 -10.961  1.00  0.00     0.001 A 
BRANCH  12  15
HETATM   15  S   UNL     1     -24.405  -2.240 -14.733  1.00  0.00     0.328 S 
HETATM   16  O   UNL     1     -25.655  -2.584 -15.357  1.00  0.00    -0.191 OA
HETATM   17  O   UNL     1     -24.334  -1.078 -13.853  1.00  0.00    -0.191 OA
BRANCH  15  18
HETATM   18  O   UNL     1     -23.196  -2.139 -15.570  1.00  0.00    -0.086 OA
HETATM   19 CA   UNL     2     -21.586  -3.381 -15.424  1.00  0.00     0.000 Ca
ENDBRANCH  15  18
ENDBRANCH  12  15
ENDBRANCH   1   5
BRANCH   3  20
HETATM   20  C   UNL     1     -26.504  -6.308 -16.567  1.00  0.00     0.110 A 
HETATM   21  C   UNL     1     -27.875  -6.139 -16.150  1.00  0.00     0.217 A 
HETATM   22  C   UNL     1     -28.825  -6.156 -17.215  1.00  0.00     0.090 A 
HETATM   23  O   UNL     1     -28.214  -5.997 -14.915  1.00  0.00    -0.285 OA
HETATM   24  C   UNL     1     -28.458  -6.358 -18.562  1.00  0.00     0.034 A 
HETATM   25  C   UNL     1     -27.128  -6.543 -18.932  1.00  0.00    -0.022 A 
HETATM   26  C   UNL     1     -26.791  -6.761 -20.280  1.00  0.00     0.012 A 
HETATM   27  C   UNL     1     -26.128  -6.498 -17.943  1.00  0.00     0.006 A 
HETATM   28  C   UNL     1     -25.465  -6.940 -20.669  1.00  0.00     0.001 A 
HETATM   29  C   UNL     1     -24.462  -6.883 -19.716  1.00  0.00     0.001 A 
HETATM   30  C   UNL     1     -24.789  -6.649 -18.380  1.00  0.00     0.015 A 
BRANCH  22  31
HETATM   31  C   UNL     1     -30.315  -5.934 -17.026  1.00  0.00     0.180 C 
HETATM   32  O   UNL     1     -31.175  -6.691 -17.436  1.00  0.00    -0.646 OA
BRANCH  31  33
HETATM   33  O   UNL     1     -30.624  -4.785 -16.366  1.00  0.00    -0.773 OA
HETATM   34  H   UNL     1     -29.760  -4.306 -16.197  1.00  0.00     0.167 HD
ENDBRANCH  31  33
ENDBRANCH  22  31
ENDBRANCH   3  20
TORSDOF 6
BEGIN_RES ARG D 557
REMARK  4 active torsions:
REMARK  status: ('A' for Active; 'I' for Inactive)
REMARK    1  A    between atoms: CA   and  CB  
REMARK    2  A    between atoms: CB   and  CG  
REMARK    3  A    between atoms: CG   and  CD  
REMARK    4  A    between atoms: CD   and  NE  
REMARK       I    between atoms: NE   and  CZ  
REMARK       I    between atoms: CZ   and  NH1 
REMARK       I    between atoms: CZ   and  NH2 
ROOT
ATOM      1  CA  ARG D 557     -26.217   2.705 -17.014  1.00 35.49     0.159 C 
ENDROOT
BRANCH   1   2
ATOM      2  CB  ARG D 557     -26.789   1.319 -17.183  1.00 35.49     0.034 C 
BRANCH   2   3
ATOM      3  CG  ARG D 557     -28.234   1.226 -17.427  1.00 35.49     0.027 C 
BRANCH   3   4
ATOM      4  CD  ARG D 557     -28.916   0.348 -16.449  1.00 35.49     0.116 C 
BRANCH   4   5
ATOM      5  NE  ARG D 557     -28.268  -0.931 -16.324  1.00 35.49    -0.212 N 
ATOM      6  CZ  ARG D 557     -28.690  -2.060 -16.849  1.00 35.49     0.666 C 
ATOM      7  NH1 ARG D 557     -29.800  -2.140 -17.560  1.00 35.49    -0.235 N 
ATOM      8  NH2 ARG D 557     -27.964  -3.122 -16.652  1.00 35.49    -0.235 N 
ATOM      9  HH  ARG D 557     -30.292  -1.454 -17.704  1.00 35.49     0.174 HD
ATOM     10  HH  ARG D 557     -30.024  -2.903 -17.880  1.00 35.49     0.174 HD
ATOM     11  HH  ARG D 557     -27.248  -3.038 -16.196  1.00 35.49     0.174 HD
ATOM     12  HH  ARG D 557     -28.202  -3.867 -16.979  1.00 35.49     0.174 HD
ATOM     13  HE  ARG D 557     -27.584  -0.986 -15.822  1.00 35.49     0.178 HD
ENDBRANCH   4   5
ENDBRANCH   3   4
ENDBRANCH   2   3
ENDBRANCH   1   2
END_RES ARG D 557
BEGIN_RES GLU D 570
REMARK  3 active torsions:
REMARK  status: ('A' for Active; 'I' for Inactive)
REMARK    5  A    between atoms: CA   and  CB  
REMARK    6  A    between atoms: CB   and  CG  
REMARK    7  A    between atoms: CG   and  CD  
ROOT
ATOM     14  CA  GLU D 570     -18.033  -6.348 -13.375  1.00 32.92     0.160 C 
ENDROOT
BRANCH  14  15
ATOM     15  CB  GLU D 570     -19.500  -6.345 -13.794  1.00 32.92     0.043 C 
BRANCH  15  16
ATOM     16  CG  GLU D 570     -19.834  -5.748 -15.113  1.00 32.92     0.100 C 
BRANCH  16  17
ATOM     17  CD  GLU D 570     -20.989  -6.441 -15.798  1.00 32.92     0.185 C 
ATOM     18  OE1 GLU D 570     -21.820  -5.756 -16.424  1.00 32.92    -0.647 OA
ATOM     19  OE2 GLU D 570     -21.072  -7.680 -15.693  1.00 32.92    -0.647 OA
ENDBRANCH  16  17
ENDBRANCH  15  16
ENDBRANCH  14  15
END_RES GLU D 570
ENDMDL
MODEL 6
REMARK VINA RESULT:      -8.0      3.098      6.724
REMARK  6 active torsions:
REMARK  status: ('A' for Active; 'I' for Inactive)
REMARK    1  A    between atoms: C_9  and  N_15 
REMARK    2  A    between atoms: C_10  and  S_11 
REMARK    3  A    between atoms: S_11  and  O_12 
REMARK    4  A    between atoms: N_17  and  C_19 
REMARK    5  A    between atoms: C_21  and  C_29 
REMARK    6  A    between atoms: C_29  and  O_31 
ROOT
HETATM    1  N   UNL     1     -18.643 -10.491  -3.999  1.00  0.00    -0.299 N 
ATOM      2  HN  UNL     1     -18.299 -11.356  -3.583  1.00  0.00     0.187 HD
HETATM    3  N   UNL     1     -18.435 -10.170  -5.191  1.00  0.00    -0.296 N 
ATOM      4  HN  UNL     1     -18.841  -9.352  -5.645  1.00  0.00     0.187 HD
ENDROOT
BRANCH   1   5
HETATM    5  C   UNL     1     -19.401  -9.533  -3.288  1.00  0.00     0.072 A 
HETATM    6  C   UNL     1     -19.953  -8.419  -3.940  1.00  0.00     0.033 A 
HETATM    7  C   UNL     1     -20.870  -7.593  -3.307  1.00  0.00     0.014 A 
HETATM    8  C   UNL     1     -21.250  -7.812  -1.979  1.00  0.00    -0.024 A 
HETATM    9  C   UNL     1     -20.654  -8.860  -1.237  1.00  0.00     0.000 A 
HETATM   10  C   UNL     1     -22.248  -7.003  -1.414  1.00  0.00     0.012 A 
HETATM   11  C   UNL     1     -21.039  -8.941   0.139  1.00  0.00     0.014 A 
HETATM   12  C   UNL     1     -19.769  -9.738  -1.935  1.00  0.00     0.127 A 
HETATM   13  C   UNL     1     -22.048  -8.140   0.684  1.00  0.00     0.001 A 
HETATM   14  C   UNL     1     -22.670  -7.184  -0.101  1.00  0.00     0.001 A 
BRANCH  12  15
HETATM   15  S   UNL     1     -19.460 -11.420  -1.291  1.00  0.00     0.328 S 
HETATM   16  O   UNL     1     -20.020 -11.455   0.034  1.00  0.00    -0.191 OA
HETATM   17  O   UNL     1     -19.989 -12.307  -2.321  1.00  0.00    -0.191 OA
BRANCH  15  18
HETATM   18  O   UNL     1     -17.998 -11.509  -1.447  1.00  0.00    -0.086 OA
HETATM   19 CA   UNL     2     -16.661 -11.317   0.080  1.00  0.00     0.000 Ca
ENDBRANCH  15  18
ENDBRANCH  12  15
ENDBRANCH   1   5
BRANCH   3  20
HETATM   20  C   UNL     1     -17.556 -11.094  -5.836  1.00  0.00     0.110 A 
HETATM   21  C   UNL     1     -16.162 -11.091  -5.464  1.00  0.00     0.217 A 
HETATM   22  C   UNL     1     -15.380 -12.109  -6.089  1.00  0.00     0.090 A 
HETATM   23  O   UNL     1     -15.662 -10.232  -4.643  1.00  0.00    -0.285 OA
HETATM   24  C   UNL     1     -15.917 -13.018  -7.023  1.00  0.00     0.034 A 
HETATM   25  C   UNL     1     -17.262 -12.981  -7.382  1.00  0.00    -0.022 A 
HETATM   26  C   UNL     1     -17.769 -13.888  -8.330  1.00  0.00     0.012 A 
HETATM   27  C   UNL     1     -18.107 -12.032  -6.777  1.00  0.00     0.006 A 
HETATM   28  C   UNL     1     -19.113 -13.870  -8.695  1.00  0.00     0.001 A 
HETATM   29  C   UNL     1     -19.968 -12.957  -8.100  1.00  0.00     0.001 A 
HETATM   30  C   UNL     1     -19.475 -12.066  -7.146  1.00  0.00     0.015 A 
BRANCH  22  31
HETATM   31  C   UNL     1     -13.906 -12.341  -5.804  1.00  0.00     0.180 C 
HETATM   32  O   UNL     1     -13.079 -12.603  -6.657  1.00  0.00    -0.646 OA
BRANCH  31  33
HETATM   33  O   UNL     1     -13.578 -12.253  -4.486  1.00  0.00    -0.773 OA
HETATM   34  H   UNL     1     -12.589 -12.399  -4.423  1.00  0.00     0.167 HD
ENDBRANCH  31  33
ENDBRANCH  22  31
ENDBRANCH   3  20
TORSDOF 6
BEGIN_RES ARG D 557
REMARK  4 active torsions:
REMARK  status: ('A' for Active; 'I' for Inactive)
REMARK    1  A    between atoms: CA   and  CB  
REMARK    2  A    between atoms: CB   and  CG  
REMARK    3  A    between atoms: CG   and  CD  
REMARK    4  A    between atoms: CD   and  NE  
REMARK       I    between atoms: NE   and  CZ  
REMARK       I    between atoms: CZ   and  NH1 
REMARK       I    between atoms: CZ   and  NH2 
ROOT
ATOM      1  CA  ARG D 557     -26.217   2.705 -17.014  1.00 35.49     0.159 C 
ENDROOT
BRANCH   1   2
ATOM      2  CB  ARG D 557     -26.789   1.319 -17.183  1.00 35.49     0.034 C 
BRANCH   2   3
ATOM      3  CG  ARG D 557     -25.835   0.204 -17.166  1.00 35.49     0.027 C 
BRANCH   3   4
ATOM      4  CD  ARG D 557     -24.750   0.404 -16.179  1.00 35.49     0.116 C 
BRANCH   4   5
ATOM      5  NE  ARG D 557     -24.904  -0.441 -15.024  1.00 35.49    -0.212 N 
ATOM      6  CZ  ARG D 557     -24.090  -1.409 -14.667  1.00 35.49     0.666 C 
ATOM      7  NH1 ARG D 557     -23.015  -1.726 -15.365  1.00 35.49    -0.235 N 
ATOM      8  NH2 ARG D 557     -24.374  -2.060 -13.576  1.00 35.49    -0.235 N 
ATOM      9  HH  ARG D 557     -22.808  -1.309 -16.084  1.00 35.49     0.174 HD
ATOM     10  HH  ARG D 557     -22.519  -2.365 -15.081  1.00 35.49     0.174 HD
ATOM     11  HH  ARG D 557     -25.071  -1.829 -13.142  1.00 35.49     0.174 HD
ATOM     12  HH  ARG D 557     -23.870  -2.689 -13.312  1.00 35.49     0.174 HD
ATOM     13  HE  ARG D 557     -25.609  -0.354 -14.557  1.00 35.49     0.178 HD
ENDBRANCH   4   5
ENDBRANCH   3   4
ENDBRANCH   2   3
ENDBRANCH   1   2
END_RES ARG D 557
BEGIN_RES GLU D 570
REMARK  3 active torsions:
REMARK  status: ('A' for Active; 'I' for Inactive)
REMARK    5  A    between atoms: CA   and  CB  
REMARK    6  A    between atoms: CB   and  CG  
REMARK    7  A    between atoms: CG   and  CD  
ROOT
ATOM     14  CA  GLU D 570     -18.033  -6.348 -13.375  1.00 32.92     0.160 C 
ENDROOT
BRANCH  14  15
ATOM     15  CB  GLU D 570     -19.500  -6.345 -13.794  1.00 32.92     0.043 C 
BRANCH  15  16
ATOM     16  CG  GLU D 570     -20.442  -5.531 -12.983  1.00 32.92     0.100 C 
BRANCH  16  17
ATOM     17  CD  GLU D 570     -21.732  -5.225 -13.708  1.00 32.92     0.185 C 
ATOM     18  OE1 GLU D 570     -22.173  -6.049 -14.532  1.00 32.92    -0.647 OA
ATOM     19  OE2 GLU D 570     -22.298  -4.142 -13.462  1.00 32.92    -0.647 OA
ENDBRANCH  16  17
ENDBRANCH  15  16
ENDBRANCH  14  15
END_RES GLU D 570
ENDMDL
MODEL 7
REMARK VINA RESULT:      -7.8      4.097      6.113
REMARK  6 active torsions:
REMARK  status: ('A' for Active; 'I' for Inactive)
REMARK    1  A    between atoms: C_9  and  N_15 
REMARK    2  A    between atoms: C_10  and  S_11 
REMARK    3  A    between atoms: S_11  and  O_12 
REMARK    4  A    between atoms: N_17  and  C_19 
REMARK    5  A    between atoms: C_21  and  C_29 
REMARK    6  A    between atoms: C_29  and  O_31 
ROOT
HETATM    1  N   UNL     1     -21.750  -6.506  -4.815  1.00  0.00    -0.299 N 
ATOM      2  HN  UNL     1     -21.848  -7.153  -5.597  1.00  0.00     0.187 HD
HETATM    3  N   UNL     1     -21.759  -5.261  -4.945  1.00  0.00    -0.296 N 
ATOM      4  HN  UNL     1     -21.747  -4.601  -4.167  1.00  0.00     0.187 HD
ENDROOT
BRANCH   1   5
HETATM    5  C   UNL     1     -21.590  -6.925  -3.474  1.00  0.00     0.072 A 
HETATM    6  C   UNL     1     -22.233  -6.252  -2.424  1.00  0.00     0.033 A 
HETATM    7  C   UNL     1     -22.259  -6.774  -1.139  1.00  0.00     0.014 A 
HETATM    8  C   UNL     1     -21.609  -7.972  -0.830  1.00  0.00    -0.024 A 
HETATM    9  C   UNL     1     -20.860  -8.648  -1.822  1.00  0.00     0.000 A 
HETATM   10  C   UNL     1     -21.741  -8.505   0.463  1.00  0.00     0.012 A 
HETATM   11  C   UNL     1     -20.155  -9.813  -1.381  1.00  0.00     0.014 A 
HETATM   12  C   UNL     1     -20.911  -8.127  -3.151  1.00  0.00     0.127 A 
HETATM   13  C   UNL     1     -20.310 -10.341  -0.095  1.00  0.00     0.001 A 
HETATM   14  C   UNL     1     -21.124  -9.698   0.821  1.00  0.00     0.001 A 
BRANCH  12  15
HETATM   15  S   UNL     1     -20.537  -9.214  -4.572  1.00  0.00     0.328 S 
HETATM   16  O   UNL     1     -19.816  -8.407  -5.520  1.00  0.00    -0.191 OA
HETATM   17  O   UNL     1     -19.890 -10.379  -3.977  1.00  0.00    -0.191 OA
BRANCH  15  18
HETATM   18  O   UNL     1     -21.889  -9.685  -4.921  1.00  0.00    -0.086 OA
HETATM   19 CA   UNL     2     -23.227 -10.442  -3.583  1.00  0.00     0.000 Ca
ENDBRANCH  15  18
ENDBRANCH  12  15
ENDBRANCH   1   5
BRANCH   3  20
HETATM   20  C   UNL     1     -21.788  -4.879  -6.322  1.00  0.00     0.110 A 
HETATM   21  C   UNL     1     -23.068  -4.763  -6.976  1.00  0.00     0.217 A 
HETATM   22  C   UNL     1     -23.006  -4.286  -8.320  1.00  0.00     0.090 A 
HETATM   23  O   UNL     1     -24.177  -5.076  -6.398  1.00  0.00    -0.285 OA
HETATM   24  C   UNL     1     -21.789  -3.988  -8.969  1.00  0.00     0.034 A 
HETATM   25  C   UNL     1     -20.566  -4.133  -8.319  1.00  0.00    -0.022 A 
HETATM   26  C   UNL     1     -19.365  -3.847  -8.994  1.00  0.00     0.012 A 
HETATM   27  C   UNL     1     -20.548  -4.560  -6.977  1.00  0.00     0.006 A 
HETATM   28  C   UNL     1     -18.133  -3.979  -8.357  1.00  0.00     0.001 A 
HETATM   29  C   UNL     1     -18.091  -4.380  -7.032  1.00  0.00     0.001 A 
HETATM   30  C   UNL     1     -19.280  -4.649  -6.352  1.00  0.00     0.015 A 
BRANCH  22  31
HETATM   31  C   UNL     1     -24.226  -4.023  -9.185  1.00  0.00     0.180 C 
HETATM   32  O   UNL     1     -24.615  -4.770 -10.062  1.00  0.00    -0.646 OA
BRANCH  31  33
HETATM   33  O   UNL     1     -24.855  -2.847  -8.910  1.00  0.00    -0.773 OA
HETATM   34  H   UNL     1     -25.629  -2.777  -9.542  1.00  0.00     0.167 HD
ENDBRANCH  31  33
ENDBRANCH  22  31
ENDBRANCH   3  20
TORSDOF 6
BEGIN_RES ARG D 557
REMARK  4 active torsions:
REMARK  status: ('A' for Active; 'I' for Inactive)
REMARK    1  A    between atoms: CA   and  CB  
REMARK    2  A    between atoms: CB   and  CG  
REMARK    3  A    between atoms: CG   and  CD  
REMARK    4  A    between atoms: CD   and  NE  
REMARK       I    between atoms: NE   and  CZ  
REMARK       I    between atoms: CZ   and  NH1 
REMARK       I    between atoms: CZ   and  NH2 
ROOT
ATOM      1  CA  ARG D 557     -26.217   2.705 -17.014  1.00 35.49     0.159 C 
ENDROOT
BRANCH   1   2
ATOM      2  CB  ARG D 557     -26.789   1.319 -17.183  1.00 35.49     0.034 C 
BRANCH   2   3
ATOM      3  CG  ARG D 557     -28.150   1.100 -16.679  1.00 35.49     0.027 C 
BRANCH   3   4
ATOM      4  CD  ARG D 557     -28.787  -0.097 -17.275  1.00 35.49     0.116 C 
BRANCH   4   5
ATOM      5  NE  ARG D 557     -28.169  -1.318 -16.829  1.00 35.49    -0.212 N 
ATOM      6  CZ  ARG D 557     -28.648  -2.529 -17.004  1.00 35.49     0.666 C 
ATOM      7  NH1 ARG D 557     -29.795  -2.757 -17.617  1.00 35.49    -0.235 N 
ATOM      8  NH2 ARG D 557     -27.942  -3.525 -16.552  1.00 35.49    -0.235 N 
ATOM      9  HH  ARG D 557     -30.275  -2.117 -17.925  1.00 35.49     0.174 HD
ATOM     10  HH  ARG D 557     -30.056  -3.568 -17.705  1.00 35.49     0.174 HD
ATOM     11  HH  ARG D 557     -27.202  -3.348 -16.167  1.00 35.49     0.174 HD
ATOM     12  HH  ARG D 557     -28.217  -4.321 -16.650  1.00 35.49     0.174 HD
ATOM     13  HE  ARG D 557     -27.462  -1.260 -16.361  1.00 35.49     0.178 HD
ENDBRANCH   4   5
ENDBRANCH   3   4
ENDBRANCH   2   3
ENDBRANCH   1   2
END_RES ARG D 557
BEGIN_RES GLU D 570
REMARK  3 active torsions:
REMARK  status: ('A' for Active; 'I' for Inactive)
REMARK    5  A    between atoms: CA   and  CB  
REMARK    6  A    between atoms: CB   and  CG  
REMARK    7  A    between atoms: CG   and  CD  
ROOT
ATOM     14  CA  GLU D 570     -18.033  -6.348 -13.375  1.00 32.92     0.160 C 
ENDROOT
BRANCH  14  15
ATOM     15  CB  GLU D 570     -19.500  -6.345 -13.794  1.00 32.92     0.043 C 
BRANCH  15  16
ATOM     16  CG  GLU D 570     -20.441  -5.527 -12.986  1.00 32.92     0.100 C 
BRANCH  16  17
ATOM     17  CD  GLU D 570     -21.740  -5.243 -13.703  1.00 32.92     0.185 C 
ATOM     18  OE1 GLU D 570     -22.330  -4.167 -13.485  1.00 32.92    -0.647 OA
ATOM     19  OE2 GLU D 570     -22.182  -6.113 -14.480  1.00 32.92    -0.647 OA
ENDBRANCH  16  17
ENDBRANCH  15  16
ENDBRANCH  14  15
END_RES GLU D 570
ENDMDL
MODEL 8
REMARK VINA RESULT:      -7.7      2.995      3.399
REMARK  6 active torsions:
REMARK  status: ('A' for Active; 'I' for Inactive)
REMARK    1  A    between atoms: C_9  and  N_15 
REMARK    2  A    between atoms: C_10  and  S_11 
REMARK    3  A    between atoms: S_11  and  O_12 
REMARK    4  A    between atoms: N_17  and  C_19 
REMARK    5  A    between atoms: C_21  and  C_29 
REMARK    6  A    between atoms: C_29  and  O_31 
ROOT
HETATM    1  N   UNL     1     -19.014  -9.471  -5.661  1.00  0.00    -0.299 N 
ATOM      2  HN  UNL     1     -19.809  -9.356  -6.290  1.00  0.00     0.187 HD
HETATM    3  N   UNL     1     -18.887  -8.840  -4.588  1.00  0.00    -0.296 N 
ATOM      4  HN  UNL     1     -18.143  -9.005  -3.909  1.00  0.00     0.187 HD
ENDROOT
BRANCH   1   5
HETATM    5  C   UNL     1     -17.944 -10.360  -5.916  1.00  0.00     0.072 A 
HETATM    6  C   UNL     1     -16.611  -9.957  -5.736  1.00  0.00     0.033 A 
HETATM    7  C   UNL     1     -15.569 -10.872  -5.773  1.00  0.00     0.014 A 
HETATM    8  C   UNL     1     -15.800 -12.226  -6.033  1.00  0.00    -0.024 A 
HETATM    9  C   UNL     1     -17.110 -12.677  -6.320  1.00  0.00     0.000 A 
HETATM   10  C   UNL     1     -14.724 -13.125  -5.970  1.00  0.00     0.012 A 
HETATM   11  C   UNL     1     -17.227 -14.061  -6.667  1.00  0.00     0.014 A 
HETATM   12  C   UNL     1     -18.172 -11.729  -6.204  1.00  0.00     0.127 A 
HETATM   13  C   UNL     1     -16.149 -14.948  -6.582  1.00  0.00     0.001 A 
HETATM   14  C   UNL     1     -14.899 -14.483  -6.211  1.00  0.00     0.001 A 
BRANCH  12  15
HETATM   15  S   UNL     1     -19.884 -12.307  -5.928  1.00  0.00     0.328 S 
HETATM   16  O   UNL     1     -20.667 -11.783  -7.017  1.00  0.00    -0.191 OA
HETATM   17  O   UNL     1     -19.758 -13.751  -5.761  1.00  0.00    -0.191 OA
BRANCH  15  18
HETATM   18  O   UNL     1     -20.130 -11.800  -4.567  1.00  0.00    -0.086 OA
HETATM   19 CA   UNL     2     -21.606 -10.484  -4.076  1.00  0.00     0.000 Ca
ENDBRANCH  15  18
ENDBRANCH  12  15
ENDBRANCH   1   5
BRANCH   3  20
HETATM   20  C   UNL     1     -19.915  -7.860  -4.432  1.00  0.00     0.110 A 
HETATM   21  C   UNL     1     -20.267  -7.046  -5.570  1.00  0.00     0.217 A 
HETATM   22  C   UNL     1     -21.366  -6.162  -5.350  1.00  0.00     0.090 A 
HETATM   23  O   UNL     1     -19.633  -7.106  -6.691  1.00  0.00    -0.285 OA
HETATM   24  C   UNL     1     -22.028  -6.064  -4.109  1.00  0.00     0.034 A 
HETATM   25  C   UNL     1     -21.650  -6.845  -3.019  1.00  0.00    -0.022 A 
HETATM   26  C   UNL     1     -22.316  -6.715  -1.787  1.00  0.00     0.012 A 
HETATM   27  C   UNL     1     -20.601  -7.772  -3.171  1.00  0.00     0.006 A 
HETATM   28  C   UNL     1     -21.956  -7.493  -0.689  1.00  0.00     0.001 A 
HETATM   29  C   UNL     1     -20.938  -8.424  -0.819  1.00  0.00     0.001 A 
HETATM   30  C   UNL     1     -20.286  -8.570  -2.044  1.00  0.00     0.015 A 
BRANCH  22  31
HETATM   31  C   UNL     1     -21.955  -5.258  -6.418  1.00  0.00     0.180 C 
HETATM   32  O   UNL     1     -23.118  -4.904  -6.446  1.00  0.00    -0.646 OA
BRANCH  31  33
HETATM   33  O   UNL     1     -21.064  -4.882  -7.376  1.00  0.00    -0.773 OA
HETATM   34  H   UNL     1     -20.159  -4.879  -6.947  1.00  0.00     0.167 HD
ENDBRANCH  31  33
ENDBRANCH  22  31
ENDBRANCH   3  20
TORSDOF 6
BEGIN_RES ARG D 557
REMARK  4 active torsions:
REMARK  status: ('A' for Active; 'I' for Inactive)
REMARK    1  A    between atoms: CA   and  CB  
REMARK    2  A    between atoms: CB   and  CG  
REMARK    3  A    between atoms: CG   and  CD  
REMARK    4  A    between atoms: CD   and  NE  
REMARK       I    between atoms: NE   and  CZ  
REMARK       I    between atoms: CZ   and  NH1 
REMARK       I    between atoms: CZ   and  NH2 
ROOT
ATOM      1  CA  ARG D 557     -26.217   2.705 -17.014  1.00 35.49     0.159 C 
ENDROOT
BRANCH   1   2
ATOM      2  CB  ARG D 557     -26.789   1.319 -17.183  1.00 35.49     0.034 C 
BRANCH   2   3
ATOM      3  CG  ARG D 557     -28.230   1.227 -17.445  1.00 35.49     0.027 C 
BRANCH   3   4
ATOM      4  CD  ARG D 557     -28.916   0.305 -16.510  1.00 35.49     0.116 C 
BRANCH   4   5
ATOM      5  NE  ARG D 557     -28.141  -0.880 -16.251  1.00 35.49    -0.212 N 
ATOM      6  CZ  ARG D 557     -28.392  -2.080 -16.723  1.00 35.49     0.666 C 
ATOM      7  NH1 ARG D 557     -29.428  -2.334 -17.501  1.00 35.49    -0.235 N 
ATOM      8  NH2 ARG D 557     -27.570  -3.036 -16.401  1.00 35.49    -0.235 N 
ATOM      9  HH  ARG D 557     -29.981  -1.719 -17.727  1.00 35.49     0.174 HD
ATOM     10  HH  ARG D 557     -29.540  -3.136 -17.781  1.00 35.49     0.174 HD
ATOM     11  HH  ARG D 557     -26.905  -2.841 -15.903  1.00 35.49     0.174 HD
ATOM     12  HH  ARG D 557     -27.697  -3.823 -16.690  1.00 35.49     0.174 HD
ATOM     13  HE  ARG D 557     -27.496  -0.822 -15.699  1.00 35.49     0.178 HD
ENDBRANCH   4   5
ENDBRANCH   3   4
ENDBRANCH   2   3
ENDBRANCH   1   2
END_RES ARG D 557
BEGIN_RES GLU D 570
REMARK  3 active torsions:
REMARK  status: ('A' for Active; 'I' for Inactive)
REMARK    5  A    between atoms: CA   and  CB  
REMARK    6  A    between atoms: CB   and  CG  
REMARK    7  A    between atoms: CG   and  CD  
ROOT
ATOM     14  CA  GLU D 570     -18.033  -6.348 -13.375  1.00 32.92     0.160 C 
ENDROOT
BRANCH  14  15
ATOM     15  CB  GLU D 570     -19.500  -6.345 -13.794  1.00 32.92     0.043 C 
BRANCH  15  16
ATOM     16  CG  GLU D 570     -20.094  -7.640 -14.216  1.00 32.92     0.100 C 
BRANCH  16  17
ATOM     17  CD  GLU D 570     -20.633  -7.609 -15.627  1.00 32.92     0.185 C 
ATOM     18  OE1 GLU D 570     -21.040  -8.667 -16.143  1.00 32.92    -0.647 OA
ATOM     19  OE2 GLU D 570     -20.632  -6.517 -16.230  1.00 32.92    -0.647 OA
ENDBRANCH  16  17
ENDBRANCH  15  16
ENDBRANCH  14  15
END_RES GLU D 570
ENDMDL
MODEL 9
REMARK VINA RESULT:      -7.6      3.320      6.865
REMARK  6 active torsions:
REMARK  status: ('A' for Active; 'I' for Inactive)
REMARK    1  A    between atoms: C_9  and  N_15 
REMARK    2  A    between atoms: C_10  and  S_11 
REMARK    3  A    between atoms: S_11  and  O_12 
REMARK    4  A    between atoms: N_17  and  C_19 
REMARK    5  A    between atoms: C_21  and  C_29 
REMARK    6  A    between atoms: C_29  and  O_31 
ROOT
HETATM    1  N   UNL     1     -18.681 -10.522  -4.014  1.00  0.00    -0.299 N 
ATOM      2  HN  UNL     1     -18.405 -11.425  -3.627  1.00  0.00     0.187 HD
HETATM    3  N   UNL     1     -18.390 -10.151  -5.173  1.00  0.00    -0.296 N 
ATOM      4  HN  UNL     1     -18.729  -9.290  -5.603  1.00  0.00     0.187 HD
ENDROOT
BRANCH   1   5
HETATM    5  C   UNL     1     -19.431  -9.565  -3.293  1.00  0.00     0.072 A 
HETATM    6  C   UNL     1     -19.990  -8.451  -3.938  1.00  0.00     0.033 A 
HETATM    7  C   UNL     1     -20.900  -7.624  -3.293  1.00  0.00     0.014 A 
HETATM    8  C   UNL     1     -21.263  -7.845  -1.962  1.00  0.00    -0.024 A 
HETATM    9  C   UNL     1     -20.660  -8.893  -1.227  1.00  0.00     0.000 A 
HETATM   10  C   UNL     1     -22.255  -7.036  -1.384  1.00  0.00     0.012 A 
HETATM   11  C   UNL     1     -21.029  -8.975   0.153  1.00  0.00     0.014 A 
HETATM   12  C   UNL     1     -19.783  -9.771  -1.935  1.00  0.00     0.127 A 
HETATM   13  C   UNL     1     -22.031  -8.174   0.710  1.00  0.00     0.001 A 
HETATM   14  C   UNL     1     -22.661  -7.217  -0.067  1.00  0.00     0.001 A 
BRANCH  12  15
HETATM   15  S   UNL     1     -19.466 -11.453  -1.296  1.00  0.00     0.328 S 
HETATM   16  O   UNL     1     -19.988 -11.481   0.044  1.00  0.00    -0.191 OA
HETATM   17  O   UNL     1     -20.033 -12.339  -2.308  1.00  0.00    -0.191 OA
BRANCH  15  18
HETATM   18  O   UNL     1     -18.010 -11.553  -1.496  1.00  0.00    -0.086 OA
HETATM   19 CA   UNL     2     -16.624 -11.273  -0.029  1.00  0.00     0.000 Ca
ENDBRANCH  15  18
ENDBRANCH  12  15
ENDBRANCH   1   5
BRANCH   3  20
HETATM   20  C   UNL     1     -17.522 -11.084  -5.820  1.00  0.00     0.110 A 
HETATM   21  C   UNL     1     -16.128 -11.096  -5.450  1.00  0.00     0.217 A 
HETATM   22  C   UNL     1     -15.357 -12.122  -6.076  1.00  0.00     0.090 A 
HETATM   23  O   UNL     1     -15.617 -10.242  -4.630  1.00  0.00    -0.285 OA
HETATM   24  C   UNL     1     -15.906 -13.026  -7.009  1.00  0.00     0.034 A 
HETATM   25  C   UNL     1     -17.251 -12.975  -7.365  1.00  0.00    -0.022 A 
HETATM   26  C   UNL     1     -17.770 -13.877  -8.312  1.00  0.00     0.012 A 
HETATM   27  C   UNL     1     -18.085 -12.017  -6.758  1.00  0.00     0.006 A 
HETATM   28  C   UNL     1     -19.114 -13.845  -8.674  1.00  0.00     0.001 A 
HETATM   29  C   UNL     1     -19.958 -12.923  -8.078  1.00  0.00     0.001 A 
HETATM   30  C   UNL     1     -19.454 -12.036  -7.126  1.00  0.00     0.015 A 
BRANCH  22  31
HETATM   31  C   UNL     1     -13.886 -12.370  -5.793  1.00  0.00     0.180 C 
HETATM   32  O   UNL     1     -13.064 -12.644  -6.647  1.00  0.00    -0.646 OA
BRANCH  31  33
HETATM   33  O   UNL     1     -13.554 -12.282  -4.476  1.00  0.00    -0.773 OA
HETATM   34  H   UNL     1     -14.401 -12.395  -3.955  1.00  0.00     0.167 HD
ENDBRANCH  31  33
ENDBRANCH  22  31
ENDBRANCH   3  20
TORSDOF 6
BEGIN_RES ARG D 557
REMARK  4 active torsions:
REMARK  status: ('A' for Active; 'I' for Inactive)
REMARK    1  A    between atoms: CA   and  CB  
REMARK    2  A    between atoms: CB   and  CG  
REMARK    3  A    between atoms: CG   and  CD  
REMARK    4  A    between atoms: CD   and  NE  
REMARK       I    between atoms: NE   and  CZ  
REMARK       I    between atoms: CZ   and  NH1 
REMARK       I    between atoms: CZ   and  NH2 
ROOT
ATOM      1  CA  ARG D 557     -26.217   2.705 -17.014  1.00 35.49     0.159 C 
ENDROOT
BRANCH   1   2
ATOM      2  CB  ARG D 557     -26.789   1.319 -17.183  1.00 35.49     0.034 C 
BRANCH   2   3
ATOM      3  CG  ARG D 557     -28.229   1.165 -16.944  1.00 35.49     0.027 C 
BRANCH   3   4
ATOM      4  CD  ARG D 557     -28.611  -0.243 -16.688  1.00 35.49     0.116 C 
BRANCH   4   5
ATOM      5  NE  ARG D 557     -27.588  -0.962 -15.976  1.00 35.49    -0.212 N 
ATOM      6  CZ  ARG D 557     -27.372  -2.256 -16.042  1.00 35.49     0.666 C 
ATOM      7  NH1 ARG D 557     -28.109  -3.062 -16.784  1.00 35.49    -0.235 N 
ATOM      8  NH2 ARG D 557     -26.384  -2.736 -15.344  1.00 35.49    -0.235 N 
ATOM      9  HH  ARG D 557     -28.763  -2.767 -17.253  1.00 35.49     0.174 HD
ATOM     10  HH  ARG D 557     -27.920  -3.897 -16.790  1.00 35.49     0.174 HD
ATOM     11  HH  ARG D 557     -25.920  -2.191 -14.879  1.00 35.49     0.174 HD
ATOM     12  HH  ARG D 557     -26.211  -3.566 -15.363  1.00 35.49     0.174 HD
ATOM     13  HE  ARG D 557     -27.112  -0.531 -15.418  1.00 35.49     0.178 HD
ENDBRANCH   4   5
ENDBRANCH   3   4
ENDBRANCH   2   3
ENDBRANCH   1   2
END_RES ARG D 557
BEGIN_RES GLU D 570
REMARK  3 active torsions:
REMARK  status: ('A' for Active; 'I' for Inactive)
REMARK    5  A    between atoms: CA   and  CB  
REMARK    6  A    between atoms: CB   and  CG  
REMARK    7  A    between atoms: CG   and  CD  
ROOT
ATOM     14  CA  GLU D 570     -18.033  -6.348 -13.375  1.00 32.92     0.160 C 
ENDROOT
BRANCH  14  15
ATOM     15  CB  GLU D 570     -19.500  -6.345 -13.794  1.00 32.92     0.043 C 
BRANCH  15  16
ATOM     16  CG  GLU D 570     -20.447  -5.553 -12.967  1.00 32.92     0.100 C 
BRANCH  16  17
ATOM     17  CD  GLU D 570     -21.710  -5.184 -13.708  1.00 32.92     0.185 C 
ATOM     18  OE1 GLU D 570     -21.898  -5.644 -14.851  1.00 32.92    -0.647 OA
ATOM     19  OE2 GLU D 570     -22.513  -4.413 -13.147  1.00 32.92    -0.647 OA
ENDBRANCH  16  17
ENDBRANCH  15  16
ENDBRANCH  14  15
END_RES GLU D 570
ENDMDL
