MODEL 1
REMARK VINA RESULT:      -1.2      0.000      0.000
REMARK  15 active torsions:
REMARK  status: ('A' for Active; 'I' for Inactive)
REMARK    1  A    between atoms: C_2  and  C_3 
REMARK    2  A    between atoms: C_3  and  C_4 
REMARK    3  A    between atoms: C_4  and  C_5 
REMARK    4  A    between atoms: C_5  and  C_6 
REMARK    5  A    between atoms: C_6  and  C_7 
REMARK    6  A    between atoms: C_7  and  C_8 
REMARK    7  A    between atoms: C_8  and  C_9 
REMARK    8  A    between atoms: C_9  and  C_10 
REMARK    9  A    between atoms: C_10  and  C_11 
REMARK   10  A    between atoms: C_11  and  C_12 
REMARK   11  A    between atoms: C_12  and  N_13 
REMARK   12  A    between atoms: N_13  and  C_14 
REMARK   13  A    between atoms: N_13  and  C_18 
REMARK   14  A    between atoms: C_14  and  C_15 
REMARK   15  A    between atoms: C_18  and  C_19 
ROOT
HETATM    1 NA   UNL     2     -27.069 -13.681 -13.052  1.00  0.00     0.000 Na
ENDROOT
TORSDOF 15
BEGIN_RES ARG D 557
REMARK  4 active torsions:
REMARK  status: ('A' for Active; 'I' for Inactive)
REMARK    1  A    between atoms: CA   and  CB  
REMARK    2  A    between atoms: CB   and  CG  
REMARK    3  A    between atoms: CG   and  CD  
REMARK    4  A    between atoms: CD   and  NE  
REMARK       I    between atoms: NE   and  CZ  
REMARK       I    between atoms: CZ   and  NH1 
REMARK       I    between atoms: CZ   and  NH2 
ROOT
ATOM      1  CA  ARG D 557     -26.217   2.705 -17.014  1.00 35.49     0.159 C 
ENDROOT
BRANCH   1   2
ATOM      2  CB  ARG D 557     -26.789   1.319 -17.183  1.00 35.49     0.034 C 
BRANCH   2   3
ATOM      3  CG  ARG D 557     -25.832   0.205 -17.187  1.00 35.49     0.027 C 
BRANCH   3   4
ATOM      4  CD  ARG D 557     -24.732   0.403 -16.217  1.00 35.49     0.116 C 
BRANCH   4   5
ATOM      5  NE  ARG D 557     -24.886  -0.420 -15.047  1.00 35.49    -0.212 N 
ATOM      6  CZ  ARG D 557     -24.080  -1.390 -14.679  1.00 35.49     0.666 C 
ATOM      7  NH1 ARG D 557     -23.014  -1.731 -15.379  1.00 35.49    -0.235 N 
ATOM      8  NH2 ARG D 557     -24.362  -2.019 -13.575  1.00 35.49    -0.235 N 
ATOM      9  HH  ARG D 557     -22.808  -1.329 -16.108  1.00 35.49     0.174 HD
ATOM     10  HH  ARG D 557     -22.523  -2.371 -15.089  1.00 35.49     0.174 HD
ATOM     11  HH  ARG D 557     -25.052  -1.773 -13.139  1.00 35.49     0.174 HD
ATOM     12  HH  ARG D 557     -23.863  -2.649 -13.303  1.00 35.49     0.174 HD
ATOM     13  HE  ARG D 557     -25.586  -0.317 -14.576  1.00 35.49     0.178 HD
ENDBRANCH   4   5
ENDBRANCH   3   4
ENDBRANCH   2   3
ENDBRANCH   1   2
END_RES ARG D 557
BEGIN_RES GLU D 570
REMARK  3 active torsions:
REMARK  status: ('A' for Active; 'I' for Inactive)
REMARK    5  A    between atoms: CA   and  CB  
REMARK    6  A    between atoms: CB   and  CG  
REMARK    7  A    between atoms: CG   and  CD  
ROOT
ATOM     14  CA  GLU D 570     -18.033  -6.348 -13.375  1.00 32.92     0.160 C 
ENDROOT
BRANCH  14  15
ATOM     15  CB  GLU D 570     -19.500  -6.345 -13.794  1.00 32.92     0.043 C 
BRANCH  15  16
ATOM     16  CG  GLU D 570     -20.438  -5.515 -12.995  1.00 32.92     0.100 C 
BRANCH  16  17
ATOM     17  CD  GLU D 570     -21.734  -5.230 -13.718  1.00 32.92     0.185 C 
ATOM     18  OE1 GLU D 570     -22.331  -4.159 -13.491  1.00 32.92    -0.647 OA
ATOM     19  OE2 GLU D 570     -22.166  -6.093 -14.507  1.00 32.92    -0.647 OA
ENDBRANCH  16  17
ENDBRANCH  15  16
ENDBRANCH  14  15
END_RES GLU D 570
ENDMDL
MODEL 2
REMARK VINA RESULT:      -1.2      8.085      8.139
REMARK  15 active torsions:
REMARK  status: ('A' for Active; 'I' for Inactive)
REMARK    1  A    between atoms: C_2  and  C_3 
REMARK    2  A    between atoms: C_3  and  C_4 
REMARK    3  A    between atoms: C_4  and  C_5 
REMARK    4  A    between atoms: C_5  and  C_6 
REMARK    5  A    between atoms: C_6  and  C_7 
REMARK    6  A    between atoms: C_7  and  C_8 
REMARK    7  A    between atoms: C_8  and  C_9 
REMARK    8  A    between atoms: C_9  and  C_10 
REMARK    9  A    between atoms: C_10  and  C_11 
REMARK   10  A    between atoms: C_11  and  C_12 
REMARK   11  A    between atoms: C_12  and  N_13 
REMARK   12  A    between atoms: N_13  and  C_14 
REMARK   13  A    between atoms: N_13  and  C_18 
REMARK   14  A    between atoms: C_14  and  C_15 
REMARK   15  A    between atoms: C_18  and  C_19 
ROOT
HETATM    1 NA   UNL     2      -9.147   5.829 -17.204  1.00  0.00     0.000 Na
ENDROOT
TORSDOF 15
BEGIN_RES ARG D 557
REMARK  4 active torsions:
REMARK  status: ('A' for Active; 'I' for Inactive)
REMARK    1  A    between atoms: CA   and  CB  
REMARK    2  A    between atoms: CB   and  CG  
REMARK    3  A    between atoms: CG   and  CD  
REMARK    4  A    between atoms: CD   and  NE  
REMARK       I    between atoms: NE   and  CZ  
REMARK       I    between atoms: CZ   and  NH1 
REMARK       I    between atoms: CZ   and  NH2 
ROOT
ATOM      1  CA  ARG D 557     -26.217   2.705 -17.014  1.00 35.49     0.159 C 
ENDROOT
BRANCH   1   2
ATOM      2  CB  ARG D 557     -26.789   1.319 -17.183  1.00 35.49     0.034 C 
BRANCH   2   3
ATOM      3  CG  ARG D 557     -25.836   0.203 -17.154  1.00 35.49     0.027 C 
BRANCH   3   4
ATOM      4  CD  ARG D 557     -24.766   0.400 -16.149  1.00 35.49     0.116 C 
BRANCH   4   5
ATOM      5  NE  ARG D 557     -24.926  -0.466 -15.010  1.00 35.49    -0.212 N 
ATOM      6  CZ  ARG D 557     -24.109  -1.435 -14.662  1.00 35.49     0.666 C 
ATOM      7  NH1 ARG D 557     -23.026  -1.733 -15.356  1.00 35.49    -0.235 N 
ATOM      8  NH2 ARG D 557     -24.398  -2.106 -13.585  1.00 35.49    -0.235 N 
ATOM      9  HH  ARG D 557     -22.815  -1.303 -16.066  1.00 35.49     0.174 HD
ATOM     10  HH  ARG D 557     -22.529  -2.374 -15.079  1.00 35.49     0.174 HD
ATOM     11  HH  ARG D 557     -25.100  -1.886 -13.154  1.00 35.49     0.174 HD
ATOM     12  HH  ARG D 557     -23.893  -2.736 -13.327  1.00 35.49     0.174 HD
ATOM     13  HE  ARG D 557     -25.636  -0.391 -14.548  1.00 35.49     0.178 HD
ENDBRANCH   4   5
ENDBRANCH   3   4
ENDBRANCH   2   3
ENDBRANCH   1   2
END_RES ARG D 557
BEGIN_RES GLU D 570
REMARK  3 active torsions:
REMARK  status: ('A' for Active; 'I' for Inactive)
REMARK    5  A    between atoms: CA   and  CB  
REMARK    6  A    between atoms: CB   and  CG  
REMARK    7  A    between atoms: CG   and  CD  
ROOT
ATOM     14  CA  GLU D 570     -18.033  -6.348 -13.375  1.00 32.92     0.160 C 
ENDROOT
BRANCH  14  15
ATOM     15  CB  GLU D 570     -19.500  -6.345 -13.794  1.00 32.92     0.043 C 
BRANCH  15  16
ATOM     16  CG  GLU D 570     -20.443  -5.536 -12.980  1.00 32.92     0.100 C 
BRANCH  16  17
ATOM     17  CD  GLU D 570     -21.748  -5.260 -13.689  1.00 32.92     0.185 C 
ATOM     18  OE1 GLU D 570     -22.245  -6.147 -14.408  1.00 32.92    -0.647 OA
ATOM     19  OE2 GLU D 570     -22.269  -4.137 -13.539  1.00 32.92    -0.647 OA
ENDBRANCH  16  17
ENDBRANCH  15  16
ENDBRANCH  14  15
END_RES GLU D 570
ENDMDL
MODEL 3
REMARK VINA RESULT:      -1.1      3.566      3.686
REMARK  15 active torsions:
REMARK  status: ('A' for Active; 'I' for Inactive)
REMARK    1  A    between atoms: C_2  and  C_3 
REMARK    2  A    between atoms: C_3  and  C_4 
REMARK    3  A    between atoms: C_4  and  C_5 
REMARK    4  A    between atoms: C_5  and  C_6 
REMARK    5  A    between atoms: C_6  and  C_7 
REMARK    6  A    between atoms: C_7  and  C_8 
REMARK    7  A    between atoms: C_8  and  C_9 
REMARK    8  A    between atoms: C_9  and  C_10 
REMARK    9  A    between atoms: C_10  and  C_11 
REMARK   10  A    between atoms: C_11  and  C_12 
REMARK   11  A    between atoms: C_12  and  N_13 
REMARK   12  A    between atoms: N_13  and  C_14 
REMARK   13  A    between atoms: N_13  and  C_18 
REMARK   14  A    between atoms: C_14  and  C_15 
REMARK   15  A    between atoms: C_18  and  C_19 
ROOT
HETATM    1 NA   UNL     2     -25.234  -5.255  -4.959  1.00  0.00     0.000 Na
ENDROOT
TORSDOF 15
BEGIN_RES ARG D 557
REMARK  4 active torsions:
REMARK  status: ('A' for Active; 'I' for Inactive)
REMARK    1  A    between atoms: CA   and  CB  
REMARK    2  A    between atoms: CB   and  CG  
REMARK    3  A    between atoms: CG   and  CD  
REMARK    4  A    between atoms: CD   and  NE  
REMARK       I    between atoms: NE   and  CZ  
REMARK       I    between atoms: CZ   and  NH1 
REMARK       I    between atoms: CZ   and  NH2 
ROOT
ATOM      1  CA  ARG D 557     -26.217   2.705 -17.014  1.00 35.49     0.159 C 
ENDROOT
BRANCH   1   2
ATOM      2  CB  ARG D 557     -26.789   1.319 -17.183  1.00 35.49     0.034 C 
BRANCH   2   3
ATOM      3  CG  ARG D 557     -25.835   0.203 -17.161  1.00 35.49     0.027 C 
BRANCH   3   4
ATOM      4  CD  ARG D 557     -24.747   0.411 -16.179  1.00 35.49     0.116 C 
BRANCH   4   5
ATOM      5  NE  ARG D 557     -24.891  -0.435 -15.023  1.00 35.49    -0.212 N 
ATOM      6  CZ  ARG D 557     -24.076  -1.405 -14.675  1.00 35.49     0.666 C 
ATOM      7  NH1 ARG D 557     -23.009  -1.724 -15.385  1.00 35.49    -0.235 N 
ATOM      8  NH2 ARG D 557     -24.350  -2.056 -13.582  1.00 35.49    -0.235 N 
ATOM      9  HH  ARG D 557     -22.809  -1.308 -16.106  1.00 35.49     0.174 HD
ATOM     10  HH  ARG D 557     -22.513  -2.365 -15.107  1.00 35.49     0.174 HD
ATOM     11  HH  ARG D 557     -25.041  -1.823 -13.140  1.00 35.49     0.174 HD
ATOM     12  HH  ARG D 557     -23.845  -2.686 -13.323  1.00 35.49     0.174 HD
ATOM     13  HE  ARG D 557     -25.591  -0.346 -14.549  1.00 35.49     0.178 HD
ENDBRANCH   4   5
ENDBRANCH   3   4
ENDBRANCH   2   3
ENDBRANCH   1   2
END_RES ARG D 557
BEGIN_RES GLU D 570
REMARK  3 active torsions:
REMARK  status: ('A' for Active; 'I' for Inactive)
REMARK    5  A    between atoms: CA   and  CB  
REMARK    6  A    between atoms: CB   and  CG  
REMARK    7  A    between atoms: CG   and  CD  
ROOT
ATOM     14  CA  GLU D 570     -18.033  -6.348 -13.375  1.00 32.92     0.160 C 
ENDROOT
BRANCH  14  15
ATOM     15  CB  GLU D 570     -19.500  -6.345 -13.794  1.00 32.92     0.043 C 
BRANCH  15  16
ATOM     16  CG  GLU D 570     -20.441  -5.528 -12.985  1.00 32.92     0.100 C 
BRANCH  16  17
ATOM     17  CD  GLU D 570     -21.742  -5.246 -13.701  1.00 32.92     0.185 C 
ATOM     18  OE1 GLU D 570     -22.225  -6.122 -14.445  1.00 32.92    -0.647 OA
ATOM     19  OE2 GLU D 570     -22.275  -4.133 -13.529  1.00 32.92    -0.647 OA
ENDBRANCH  16  17
ENDBRANCH  15  16
ENDBRANCH  14  15
END_RES GLU D 570
ENDMDL
MODEL 4
REMARK VINA RESULT:      -1.1      3.746      3.746
REMARK  15 active torsions:
REMARK  status: ('A' for Active; 'I' for Inactive)
REMARK    1  A    between atoms: C_2  and  C_3 
REMARK    2  A    between atoms: C_3  and  C_4 
REMARK    3  A    between atoms: C_4  and  C_5 
REMARK    4  A    between atoms: C_5  and  C_6 
REMARK    5  A    between atoms: C_6  and  C_7 
REMARK    6  A    between atoms: C_7  and  C_8 
REMARK    7  A    between atoms: C_8  and  C_9 
REMARK    8  A    between atoms: C_9  and  C_10 
REMARK    9  A    between atoms: C_10  and  C_11 
REMARK   10  A    between atoms: C_11  and  C_12 
REMARK   11  A    between atoms: C_12  and  N_13 
REMARK   12  A    between atoms: N_13  and  C_14 
REMARK   13  A    between atoms: N_13  and  C_18 
REMARK   14  A    between atoms: C_14  and  C_15 
REMARK   15  A    between atoms: C_18  and  C_19 
ROOT
HETATM    1 NA   UNL     2     -32.703  -6.028  -5.049  1.00  0.00     0.000 Na
ENDROOT
TORSDOF 15
BEGIN_RES ARG D 557
REMARK  4 active torsions:
REMARK  status: ('A' for Active; 'I' for Inactive)
REMARK    1  A    between atoms: CA   and  CB  
REMARK    2  A    between atoms: CB   and  CG  
REMARK    3  A    between atoms: CG   and  CD  
REMARK    4  A    between atoms: CD   and  NE  
REMARK       I    between atoms: NE   and  CZ  
REMARK       I    between atoms: CZ   and  NH1 
REMARK       I    between atoms: CZ   and  NH2 
ROOT
ATOM      1  CA  ARG D 557     -26.217   2.705 -17.014  1.00 35.49     0.159 C 
ENDROOT
BRANCH   1   2
ATOM      2  CB  ARG D 557     -26.789   1.319 -17.183  1.00 35.49     0.034 C 
BRANCH   2   3
ATOM      3  CG  ARG D 557     -25.835   0.203 -17.161  1.00 35.49     0.027 C 
BRANCH   3   4
ATOM      4  CD  ARG D 557     -24.751   0.407 -16.173  1.00 35.49     0.116 C 
BRANCH   4   5
ATOM      5  NE  ARG D 557     -24.903  -0.438 -15.019  1.00 35.49    -0.212 N 
ATOM      6  CZ  ARG D 557     -24.093  -1.412 -14.667  1.00 35.49     0.666 C 
ATOM      7  NH1 ARG D 557     -23.024  -1.734 -15.372  1.00 35.49    -0.235 N 
ATOM      8  NH2 ARG D 557     -24.374  -2.062 -13.576  1.00 35.49    -0.235 N 
ATOM      9  HH  ARG D 557     -22.819  -1.318 -16.093  1.00 35.49     0.174 HD
ATOM     10  HH  ARG D 557     -22.531  -2.376 -15.093  1.00 35.49     0.174 HD
ATOM     11  HH  ARG D 557     -25.066  -1.827 -13.137  1.00 35.49     0.174 HD
ATOM     12  HH  ARG D 557     -23.872  -2.694 -13.315  1.00 35.49     0.174 HD
ATOM     13  HE  ARG D 557     -25.605  -0.348 -14.547  1.00 35.49     0.178 HD
ENDBRANCH   4   5
ENDBRANCH   3   4
ENDBRANCH   2   3
ENDBRANCH   1   2
END_RES ARG D 557
BEGIN_RES GLU D 570
REMARK  3 active torsions:
REMARK  status: ('A' for Active; 'I' for Inactive)
REMARK    5  A    between atoms: CA   and  CB  
REMARK    6  A    between atoms: CB   and  CG  
REMARK    7  A    between atoms: CG   and  CD  
ROOT
ATOM     14  CA  GLU D 570     -18.033  -6.348 -13.375  1.00 32.92     0.160 C 
ENDROOT
BRANCH  14  15
ATOM     15  CB  GLU D 570     -19.500  -6.345 -13.794  1.00 32.92     0.043 C 
BRANCH  15  16
ATOM     16  CG  GLU D 570     -20.441  -5.525 -12.988  1.00 32.92     0.100 C 
BRANCH  16  17
ATOM     17  CD  GLU D 570     -21.738  -5.239 -13.706  1.00 32.92     0.185 C 
ATOM     18  OE1 GLU D 570     -22.325  -4.161 -13.490  1.00 32.92    -0.647 OA
ATOM     19  OE2 GLU D 570     -22.182  -6.109 -14.481  1.00 32.92    -0.647 OA
ENDBRANCH  16  17
ENDBRANCH  15  16
ENDBRANCH  14  15
END_RES GLU D 570
ENDMDL
MODEL 5
REMARK VINA RESULT:      -1.0      5.808      5.882
REMARK  15 active torsions:
REMARK  status: ('A' for Active; 'I' for Inactive)
REMARK    1  A    between atoms: C_2  and  C_3 
REMARK    2  A    between atoms: C_3  and  C_4 
REMARK    3  A    between atoms: C_4  and  C_5 
REMARK    4  A    between atoms: C_5  and  C_6 
REMARK    5  A    between atoms: C_6  and  C_7 
REMARK    6  A    between atoms: C_7  and  C_8 
REMARK    7  A    between atoms: C_8  and  C_9 
REMARK    8  A    between atoms: C_9  and  C_10 
REMARK    9  A    between atoms: C_10  and  C_11 
REMARK   10  A    between atoms: C_11  and  C_12 
REMARK   11  A    between atoms: C_12  and  N_13 
REMARK   12  A    between atoms: N_13  and  C_14 
REMARK   13  A    between atoms: N_13  and  C_18 
REMARK   14  A    between atoms: C_14  and  C_15 
REMARK   15  A    between atoms: C_18  and  C_19 
ROOT
HETATM    1 NA   UNL     2      -8.813  -9.495 -17.549  1.00  0.00     0.000 Na
ENDROOT
TORSDOF 15
BEGIN_RES ARG D 557
REMARK  4 active torsions:
REMARK  status: ('A' for Active; 'I' for Inactive)
REMARK    1  A    between atoms: CA   and  CB  
REMARK    2  A    between atoms: CB   and  CG  
REMARK    3  A    between atoms: CG   and  CD  
REMARK    4  A    between atoms: CD   and  NE  
REMARK       I    between atoms: NE   and  CZ  
REMARK       I    between atoms: CZ   and  NH1 
REMARK       I    between atoms: CZ   and  NH2 
ROOT
ATOM      1  CA  ARG D 557     -26.217   2.705 -17.014  1.00 35.49     0.159 C 
ENDROOT
BRANCH   1   2
ATOM      2  CB  ARG D 557     -26.789   1.319 -17.183  1.00 35.49     0.034 C 
BRANCH   2   3
ATOM      3  CG  ARG D 557     -25.835   0.203 -17.159  1.00 35.49     0.027 C 
BRANCH   3   4
ATOM      4  CD  ARG D 557     -24.751   0.409 -16.172  1.00 35.49     0.116 C 
BRANCH   4   5
ATOM      5  NE  ARG D 557     -24.900  -0.438 -15.018  1.00 35.49    -0.212 N 
ATOM      6  CZ  ARG D 557     -24.088  -1.410 -14.668  1.00 35.49     0.666 C 
ATOM      7  NH1 ARG D 557     -23.019  -1.730 -15.375  1.00 35.49    -0.235 N 
ATOM      8  NH2 ARG D 557     -24.367  -2.063 -13.577  1.00 35.49    -0.235 N 
ATOM      9  HH  ARG D 557     -22.816  -1.313 -16.095  1.00 35.49     0.174 HD
ATOM     10  HH  ARG D 557     -22.524  -2.372 -15.097  1.00 35.49     0.174 HD
ATOM     11  HH  ARG D 557     -25.059  -1.830 -13.137  1.00 35.49     0.174 HD
ATOM     12  HH  ARG D 557     -23.863  -2.694 -13.318  1.00 35.49     0.174 HD
ATOM     13  HE  ARG D 557     -25.602  -0.350 -14.545  1.00 35.49     0.178 HD
ENDBRANCH   4   5
ENDBRANCH   3   4
ENDBRANCH   2   3
ENDBRANCH   1   2
END_RES ARG D 557
BEGIN_RES GLU D 570
REMARK  3 active torsions:
REMARK  status: ('A' for Active; 'I' for Inactive)
REMARK    5  A    between atoms: CA   and  CB  
REMARK    6  A    between atoms: CB   and  CG  
REMARK    7  A    between atoms: CG   and  CD  
ROOT
ATOM     14  CA  GLU D 570     -18.033  -6.348 -13.375  1.00 32.92     0.160 C 
ENDROOT
BRANCH  14  15
ATOM     15  CB  GLU D 570     -19.500  -6.345 -13.794  1.00 32.92     0.043 C 
BRANCH  15  16
ATOM     16  CG  GLU D 570     -20.443  -5.538 -12.978  1.00 32.92     0.100 C 
BRANCH  16  17
ATOM     17  CD  GLU D 570     -21.744  -5.252 -13.692  1.00 32.92     0.185 C 
ATOM     18  OE1 GLU D 570     -22.210  -6.108 -14.467  1.00 32.92    -0.647 OA
ATOM     19  OE2 GLU D 570     -22.294  -4.152 -13.486  1.00 32.92    -0.647 OA
ENDBRANCH  16  17
ENDBRANCH  15  16
ENDBRANCH  14  15
END_RES GLU D 570
ENDMDL
MODEL 6
REMARK VINA RESULT:      -1.0      2.904      3.050
REMARK  15 active torsions:
REMARK  status: ('A' for Active; 'I' for Inactive)
REMARK    1  A    between atoms: C_2  and  C_3 
REMARK    2  A    between atoms: C_3  and  C_4 
REMARK    3  A    between atoms: C_4  and  C_5 
REMARK    4  A    between atoms: C_5  and  C_6 
REMARK    5  A    between atoms: C_6  and  C_7 
REMARK    6  A    between atoms: C_7  and  C_8 
REMARK    7  A    between atoms: C_8  and  C_9 
REMARK    8  A    between atoms: C_9  and  C_10 
REMARK    9  A    between atoms: C_10  and  C_11 
REMARK   10  A    between atoms: C_11  and  C_12 
REMARK   11  A    between atoms: C_12  and  N_13 
REMARK   12  A    between atoms: N_13  and  C_14 
REMARK   13  A    between atoms: N_13  and  C_18 
REMARK   14  A    between atoms: C_14  and  C_15 
REMARK   15  A    between atoms: C_18  and  C_19 
ROOT
HETATM    1 NA   UNL     2     -35.110  -8.570 -11.656  1.00  0.00     0.000 Na
ENDROOT
TORSDOF 15
BEGIN_RES ARG D 557
REMARK  4 active torsions:
REMARK  status: ('A' for Active; 'I' for Inactive)
REMARK    1  A    between atoms: CA   and  CB  
REMARK    2  A    between atoms: CB   and  CG  
REMARK    3  A    between atoms: CG   and  CD  
REMARK    4  A    between atoms: CD   and  NE  
REMARK       I    between atoms: NE   and  CZ  
REMARK       I    between atoms: CZ   and  NH1 
REMARK       I    between atoms: CZ   and  NH2 
ROOT
ATOM      1  CA  ARG D 557     -26.217   2.705 -17.014  1.00 35.49     0.159 C 
ENDROOT
BRANCH   1   2
ATOM      2  CB  ARG D 557     -26.789   1.319 -17.183  1.00 35.49     0.034 C 
BRANCH   2   3
ATOM      3  CG  ARG D 557     -25.835   0.203 -17.160  1.00 35.49     0.027 C 
BRANCH   3   4
ATOM      4  CD  ARG D 557     -24.754   0.406 -16.169  1.00 35.49     0.116 C 
BRANCH   4   5
ATOM      5  NE  ARG D 557     -24.907  -0.444 -15.018  1.00 35.49    -0.212 N 
ATOM      6  CZ  ARG D 557     -24.095  -1.417 -14.668  1.00 35.49     0.666 C 
ATOM      7  NH1 ARG D 557     -23.023  -1.734 -15.371  1.00 35.49    -0.235 N 
ATOM      8  NH2 ARG D 557     -24.378  -2.072 -13.579  1.00 35.49    -0.235 N 
ATOM      9  HH  ARG D 557     -22.817  -1.315 -16.089  1.00 35.49     0.174 HD
ATOM     10  HH  ARG D 557     -22.529  -2.376 -15.092  1.00 35.49     0.174 HD
ATOM     11  HH  ARG D 557     -25.072  -1.840 -13.142  1.00 35.49     0.174 HD
ATOM     12  HH  ARG D 557     -23.875  -2.703 -13.319  1.00 35.49     0.174 HD
ATOM     13  HE  ARG D 557     -25.610  -0.357 -14.548  1.00 35.49     0.178 HD
ENDBRANCH   4   5
ENDBRANCH   3   4
ENDBRANCH   2   3
ENDBRANCH   1   2
END_RES ARG D 557
BEGIN_RES GLU D 570
REMARK  3 active torsions:
REMARK  status: ('A' for Active; 'I' for Inactive)
REMARK    5  A    between atoms: CA   and  CB  
REMARK    6  A    between atoms: CB   and  CG  
REMARK    7  A    between atoms: CG   and  CD  
ROOT
ATOM     14  CA  GLU D 570     -18.033  -6.348 -13.375  1.00 32.92     0.160 C 
ENDROOT
BRANCH  14  15
ATOM     15  CB  GLU D 570     -19.500  -6.345 -13.794  1.00 32.92     0.043 C 
BRANCH  15  16
ATOM     16  CG  GLU D 570     -20.441  -5.527 -12.986  1.00 32.92     0.100 C 
BRANCH  16  17
ATOM     17  CD  GLU D 570     -21.738  -5.239 -13.705  1.00 32.92     0.185 C 
ATOM     18  OE1 GLU D 570     -22.195  -6.089 -14.493  1.00 32.92    -0.647 OA
ATOM     19  OE2 GLU D 570     -22.295  -4.144 -13.489  1.00 32.92    -0.647 OA
ENDBRANCH  16  17
ENDBRANCH  15  16
ENDBRANCH  14  15
END_RES GLU D 570
ENDMDL
MODEL 7
REMARK VINA RESULT:      -1.0      3.819      3.819
REMARK  15 active torsions:
REMARK  status: ('A' for Active; 'I' for Inactive)
REMARK    1  A    between atoms: C_2  and  C_3 
REMARK    2  A    between atoms: C_3  and  C_4 
REMARK    3  A    between atoms: C_4  and  C_5 
REMARK    4  A    between atoms: C_5  and  C_6 
REMARK    5  A    between atoms: C_6  and  C_7 
REMARK    6  A    between atoms: C_7  and  C_8 
REMARK    7  A    between atoms: C_8  and  C_9 
REMARK    8  A    between atoms: C_9  and  C_10 
REMARK    9  A    between atoms: C_10  and  C_11 
REMARK   10  A    between atoms: C_11  and  C_12 
REMARK   11  A    between atoms: C_12  and  N_13 
REMARK   12  A    between atoms: N_13  and  C_14 
REMARK   13  A    between atoms: N_13  and  C_18 
REMARK   14  A    between atoms: C_14  and  C_15 
REMARK   15  A    between atoms: C_18  and  C_19 
ROOT
HETATM    1 NA   UNL     2     -21.056  -2.558 -12.347  1.00  0.00     0.000 Na
ENDROOT
TORSDOF 15
BEGIN_RES ARG D 557
REMARK  4 active torsions:
REMARK  status: ('A' for Active; 'I' for Inactive)
REMARK    1  A    between atoms: CA   and  CB  
REMARK    2  A    between atoms: CB   and  CG  
REMARK    3  A    between atoms: CG   and  CD  
REMARK    4  A    between atoms: CD   and  NE  
REMARK       I    between atoms: NE   and  CZ  
REMARK       I    between atoms: CZ   and  NH1 
REMARK       I    between atoms: CZ   and  NH2 
ROOT
ATOM      1  CA  ARG D 557     -26.217   2.705 -17.014  1.00 35.49     0.159 C 
ENDROOT
BRANCH   1   2
ATOM      2  CB  ARG D 557     -26.789   1.319 -17.183  1.00 35.49     0.034 C 
BRANCH   2   3
ATOM      3  CG  ARG D 557     -25.837   0.203 -17.149  1.00 35.49     0.027 C 
BRANCH   3   4
ATOM      4  CD  ARG D 557     -24.754   0.414 -16.161  1.00 35.49     0.116 C 
BRANCH   4   5
ATOM      5  NE  ARG D 557     -24.898  -0.437 -15.009  1.00 35.49    -0.212 N 
ATOM      6  CZ  ARG D 557     -24.085  -1.411 -14.667  1.00 35.49     0.666 C 
ATOM      7  NH1 ARG D 557     -23.021  -1.730 -15.381  1.00 35.49    -0.235 N 
ATOM      8  NH2 ARG D 557     -24.359  -2.067 -13.577  1.00 35.49    -0.235 N 
ATOM      9  HH  ARG D 557     -22.821  -1.311 -16.100  1.00 35.49     0.174 HD
ATOM     10  HH  ARG D 557     -22.526  -2.373 -15.107  1.00 35.49     0.174 HD
ATOM     11  HH  ARG D 557     -25.048  -1.834 -13.132  1.00 35.49     0.174 HD
ATOM     12  HH  ARG D 557     -23.855  -2.700 -13.322  1.00 35.49     0.174 HD
ATOM     13  HE  ARG D 557     -25.597  -0.349 -14.532  1.00 35.49     0.178 HD
ENDBRANCH   4   5
ENDBRANCH   3   4
ENDBRANCH   2   3
ENDBRANCH   1   2
END_RES ARG D 557
BEGIN_RES GLU D 570
REMARK  3 active torsions:
REMARK  status: ('A' for Active; 'I' for Inactive)
REMARK    5  A    between atoms: CA   and  CB  
REMARK    6  A    between atoms: CB   and  CG  
REMARK    7  A    between atoms: CG   and  CD  
ROOT
ATOM     14  CA  GLU D 570     -18.033  -6.348 -13.375  1.00 32.92     0.160 C 
ENDROOT
BRANCH  14  15
ATOM     15  CB  GLU D 570     -19.500  -6.345 -13.794  1.00 32.92     0.043 C 
BRANCH  15  16
ATOM     16  CG  GLU D 570     -20.437  -5.509 -13.000  1.00 32.92     0.100 C 
BRANCH  16  17
ATOM     17  CD  GLU D 570     -21.747  -5.256 -13.709  1.00 32.92     0.185 C 
ATOM     18  OE1 GLU D 570     -22.333  -4.171 -13.529  1.00 32.92    -0.647 OA
ATOM     19  OE2 GLU D 570     -22.200  -6.159 -14.440  1.00 32.92    -0.647 OA
ENDBRANCH  16  17
ENDBRANCH  15  16
ENDBRANCH  14  15
END_RES GLU D 570
ENDMDL
MODEL 8
REMARK VINA RESULT:      -0.9      8.146      8.182
REMARK  15 active torsions:
REMARK  status: ('A' for Active; 'I' for Inactive)
REMARK    1  A    between atoms: C_2  and  C_3 
REMARK    2  A    between atoms: C_3  and  C_4 
REMARK    3  A    between atoms: C_4  and  C_5 
REMARK    4  A    between atoms: C_5  and  C_6 
REMARK    5  A    between atoms: C_6  and  C_7 
REMARK    6  A    between atoms: C_7  and  C_8 
REMARK    7  A    between atoms: C_8  and  C_9 
REMARK    8  A    between atoms: C_9  and  C_10 
REMARK    9  A    between atoms: C_10  and  C_11 
REMARK   10  A    between atoms: C_11  and  C_12 
REMARK   11  A    between atoms: C_12  and  N_13 
REMARK   12  A    between atoms: N_13  and  C_14 
REMARK   13  A    between atoms: N_13  and  C_18 
REMARK   14  A    between atoms: C_14  and  C_15 
REMARK   15  A    between atoms: C_18  and  C_19 
ROOT
HETATM    1 NA   UNL     2     -11.099   1.203   2.502  1.00  0.00     0.000 Na
ENDROOT
TORSDOF 15
BEGIN_RES ARG D 557
REMARK  4 active torsions:
REMARK  status: ('A' for Active; 'I' for Inactive)
REMARK    1  A    between atoms: CA   and  CB  
REMARK    2  A    between atoms: CB   and  CG  
REMARK    3  A    between atoms: CG   and  CD  
REMARK    4  A    between atoms: CD   and  NE  
REMARK       I    between atoms: NE   and  CZ  
REMARK       I    between atoms: CZ   and  NH1 
REMARK       I    between atoms: CZ   and  NH2 
ROOT
ATOM      1  CA  ARG D 557     -26.217   2.705 -17.014  1.00 35.49     0.159 C 
ENDROOT
BRANCH   1   2
ATOM      2  CB  ARG D 557     -26.789   1.319 -17.183  1.00 35.49     0.034 C 
BRANCH   2   3
ATOM      3  CG  ARG D 557     -25.867   0.195 -16.980  1.00 35.49     0.027 C 
BRANCH   3   4
ATOM      4  CD  ARG D 557     -26.290  -0.689 -15.870  1.00 35.49     0.116 C 
BRANCH   4   5
ATOM      5  NE  ARG D 557     -25.229  -0.919 -14.926  1.00 35.49    -0.212 N 
ATOM      6  CZ  ARG D 557     -24.939  -2.070 -14.362  1.00 35.49     0.666 C 
ATOM      7  NH1 ARG D 557     -25.627  -3.171 -14.602  1.00 35.49    -0.235 N 
ATOM      8  NH2 ARG D 557     -23.927  -2.100 -13.544  1.00 35.49    -0.235 N 
ATOM      9  HH  ARG D 557     -26.296  -3.175 -15.138  1.00 35.49     0.174 HD
ATOM     10  HH  ARG D 557     -25.390  -3.894 -14.207  1.00 35.49     0.174 HD
ATOM     11  HH  ARG D 557     -23.496  -1.376 -13.413  1.00 35.49     0.174 HD
ATOM     12  HH  ARG D 557     -23.707  -2.826 -13.164  1.00 35.49     0.174 HD
ATOM     13  HE  ARG D 557     -24.780  -0.248 -14.658  1.00 35.49     0.178 HD
ENDBRANCH   4   5
ENDBRANCH   3   4
ENDBRANCH   2   3
ENDBRANCH   1   2
END_RES ARG D 557
BEGIN_RES GLU D 570
REMARK  3 active torsions:
REMARK  status: ('A' for Active; 'I' for Inactive)
REMARK    5  A    between atoms: CA   and  CB  
REMARK    6  A    between atoms: CB   and  CG  
REMARK    7  A    between atoms: CG   and  CD  
ROOT
ATOM     14  CA  GLU D 570     -18.033  -6.348 -13.375  1.00 32.92     0.160 C 
ENDROOT
BRANCH  14  15
ATOM     15  CB  GLU D 570     -19.500  -6.345 -13.794  1.00 32.92     0.043 C 
BRANCH  15  16
ATOM     16  CG  GLU D 570     -20.444  -5.542 -12.975  1.00 32.92     0.100 C 
BRANCH  16  17
ATOM     17  CD  GLU D 570     -21.689  -5.142 -13.733  1.00 32.92     0.185 C 
ATOM     18  OE1 GLU D 570     -22.752  -4.975 -13.105  1.00 32.92    -0.647 OA
ATOM     19  OE2 GLU D 570     -21.603  -5.009 -14.969  1.00 32.92    -0.647 OA
ENDBRANCH  16  17
ENDBRANCH  15  16
ENDBRANCH  14  15
END_RES GLU D 570
ENDMDL
MODEL 9
REMARK VINA RESULT:      -0.9      3.237      3.823
REMARK  15 active torsions:
REMARK  status: ('A' for Active; 'I' for Inactive)
REMARK    1  A    between atoms: C_2  and  C_3 
REMARK    2  A    between atoms: C_3  and  C_4 
REMARK    3  A    between atoms: C_4  and  C_5 
REMARK    4  A    between atoms: C_5  and  C_6 
REMARK    5  A    between atoms: C_6  and  C_7 
REMARK    6  A    between atoms: C_7  and  C_8 
REMARK    7  A    between atoms: C_8  and  C_9 
REMARK    8  A    between atoms: C_9  and  C_10 
REMARK    9  A    between atoms: C_10  and  C_11 
REMARK   10  A    between atoms: C_11  and  C_12 
REMARK   11  A    between atoms: C_12  and  N_13 
REMARK   12  A    between atoms: N_13  and  C_14 
REMARK   13  A    between atoms: N_13  and  C_18 
REMARK   14  A    between atoms: C_14  and  C_15 
REMARK   15  A    between atoms: C_18  and  C_19 
ROOT
HETATM    1 NA   UNL     2     -27.087 -13.663 -13.078  1.00  0.00     0.000 Na
ENDROOT
TORSDOF 15
BEGIN_RES ARG D 557
REMARK  4 active torsions:
REMARK  status: ('A' for Active; 'I' for Inactive)
REMARK    1  A    between atoms: CA   and  CB  
REMARK    2  A    between atoms: CB   and  CG  
REMARK    3  A    between atoms: CG   and  CD  
REMARK    4  A    between atoms: CD   and  NE  
REMARK       I    between atoms: NE   and  CZ  
REMARK       I    between atoms: CZ   and  NH1 
REMARK       I    between atoms: CZ   and  NH2 
ROOT
ATOM      1  CA  ARG D 557     -26.217   2.705 -17.014  1.00 35.49     0.159 C 
ENDROOT
BRANCH   1   2
ATOM      2  CB  ARG D 557     -26.789   1.319 -17.183  1.00 35.49     0.034 C 
BRANCH   2   3
ATOM      3  CG  ARG D 557     -28.230   1.227 -17.447  1.00 35.49     0.027 C 
BRANCH   3   4
ATOM      4  CD  ARG D 557     -28.915   0.296 -16.521  1.00 35.49     0.116 C 
BRANCH   4   5
ATOM      5  NE  ARG D 557     -29.288  -0.935 -17.166  1.00 35.49    -0.212 N 
ATOM      6  CZ  ARG D 557     -28.658  -2.083 -17.054  1.00 35.49     0.666 C 
ATOM      7  NH1 ARG D 557     -27.569  -2.225 -16.321  1.00 35.49    -0.235 N 
ATOM      8  NH2 ARG D 557     -29.150  -3.103 -17.695  1.00 35.49    -0.235 N 
ATOM      9  HH  ARG D 557     -27.229  -1.567 -15.889  1.00 35.49     0.174 HD
ATOM     10  HH  ARG D 557     -27.202  -2.998 -16.283  1.00 35.49     0.174 HD
ATOM     11  HH  ARG D 557     -29.859  -2.983 -18.154  1.00 35.49     0.174 HD
ATOM     12  HH  ARG D 557     -28.774  -3.861 -17.643  1.00 35.49     0.174 HD
ATOM     13  HE  ARG D 557     -29.937  -0.917 -17.716  1.00 35.49     0.178 HD
ENDBRANCH   4   5
ENDBRANCH   3   4
ENDBRANCH   2   3
ENDBRANCH   1   2
END_RES ARG D 557
BEGIN_RES GLU D 570
REMARK  3 active torsions:
REMARK  status: ('A' for Active; 'I' for Inactive)
REMARK    5  A    between atoms: CA   and  CB  
REMARK    6  A    between atoms: CB   and  CG  
REMARK    7  A    between atoms: CG   and  CD  
ROOT
ATOM     14  CA  GLU D 570     -18.033  -6.348 -13.375  1.00 32.92     0.160 C 
ENDROOT
BRANCH  14  15
ATOM     15  CB  GLU D 570     -19.500  -6.345 -13.794  1.00 32.92     0.043 C 
BRANCH  15  16
ATOM     16  CG  GLU D 570     -19.801  -6.123 -15.232  1.00 32.92     0.100 C 
BRANCH  16  17
ATOM     17  CD  GLU D 570     -21.085  -5.359 -15.455  1.00 32.92     0.185 C 
ATOM     18  OE1 GLU D 570     -21.450  -5.116 -16.621  1.00 32.92    -0.647 OA
ATOM     19  OE2 GLU D 570     -21.723  -4.984 -14.452  1.00 32.92    -0.647 OA
ENDBRANCH  16  17
ENDBRANCH  15  16
ENDBRANCH  14  15
END_RES GLU D 570
ENDMDL
