MODEL 1
REMARK VINA RESULT:      -9.9      0.000      0.000
REMARK  23 active torsions:
REMARK  status: ('A' for Active; 'I' for Inactive)
REMARK    1  A    between atoms: C_2  and  C_3 
REMARK    2  A    between atoms: C_3  and  C_4 
REMARK    3  A    between atoms: C_4  and  C_5 
REMARK    4  A    between atoms: C_5  and  C_6 
REMARK    5  A    between atoms: C_6  and  C_7 
REMARK    6  A    between atoms: C_7  and  C_8 
REMARK    7  A    between atoms: C_8  and  C_9 
REMARK    8  A    between atoms: C_9  and  C_10 
REMARK    9  A    between atoms: C_10  and  C_11 
REMARK   10  A    between atoms: C_11  and  C_12 
REMARK   11  A    between atoms: C_12  and  C_13 
REMARK   12  A    between atoms: C_13  and  C_14 
REMARK   13  A    between atoms: C_14  and  C_15 
REMARK   14  A    between atoms: C_15  and  C_16 
REMARK   15  A    between atoms: C_16  and  C_17 
REMARK   16  A    between atoms: C_17  and  C_18 
REMARK   17  A    between atoms: C_18  and  O_19 
REMARK   18  A    between atoms: O_19  and  C_20 
REMARK   19  A    between atoms: C_20  and  C_22 
REMARK   20  A    between atoms: C_31  and  O_32 
REMARK   21  A    between atoms: C_34  and  C_39 
REMARK   22  A    between atoms: C_36  and  C_37 
REMARK   23  A    between atoms: C_42  and  O_46 
ROOT
HETATM    1  C   UNL     1     -21.037  -6.472  -5.047  1.00  0.00     0.045 C 
HETATM    2  C   UNL     1     -20.374  -7.788  -5.266  1.00  0.00     0.020 C 
HETATM    3  C   UNL     1     -21.570  -8.695  -5.314  1.00  0.00     0.011 C 
HETATM    4  C   UNL     1     -20.995  -9.512  -4.310  1.00  0.00    -0.036 C 
HETATM    5  C   UNL     1     -21.848 -10.765  -4.170  1.00  0.00     0.011 C 
HETATM    6  C   UNL     1     -21.216 -11.256  -2.971  1.00  0.00     0.015 C 
HETATM    7  C   UNL     1     -21.917 -10.366  -1.987  1.00  0.00    -0.012 C 
HETATM    8  C   UNL     1     -22.021  -8.726  -1.906  1.00  0.00    -0.064 C 
HETATM    9  C   UNL     1     -22.129  -8.176  -0.648  1.00  0.00     0.036 C 
HETATM   10  C   UNL     1     -21.640  -9.359   0.453  1.00  0.00     0.048 C 
HETATM   11  C   UNL     1     -21.645 -11.005  -0.191  1.00  0.00     0.049 A 
HETATM   12  C   UNL     1     -20.715 -10.553  -1.089  1.00  0.00    -0.023 A 
HETATM   13  C   UNL     1     -20.273 -11.370   0.101  1.00  0.00     0.022 A 
HETATM   14  C   UNL     1     -19.578  -9.598  -1.346  1.00  0.00     0.017 C 
HETATM   15  C   UNL     1     -21.133  -7.976  -3.055  1.00  0.00     0.025 C 
HETATM   16  C   UNL     1     -20.438  -6.332  -3.660  1.00  0.00     0.029 C 
HETATM   17  C   UNL     1     -23.337 -11.256  -2.026  1.00  0.00     0.021 C 
HETATM   18  C   UNL     1     -19.930 -10.415  -5.416  1.00  0.00     0.016 C 
HETATM   19  C   UNL     1     -22.646  -6.435  -4.843  1.00  0.00     0.026 C 
ENDROOT
BRANCH   1  20
HETATM   20  C   UNL     1     -20.694  -5.711  -6.288  1.00  0.00     0.267 C 
HETATM   21  O   UNL     1     -19.955  -6.168  -7.159  1.00  0.00    -0.264 OA
BRANCH  20  22
HETATM   22  O   UNL     1     -21.164  -4.454  -6.204  1.00  0.00    -0.321 OA
BRANCH  22  23
HETATM   23  C   UNL     1     -21.248  -3.776  -7.451  1.00  0.00     0.178 C 
BRANCH  23  24
HETATM   24  C   UNL     1     -22.607  -4.006  -8.092  1.00  0.00     0.027 C 
BRANCH  24  25
HETATM   25  C   UNL     1     -22.399  -4.490  -9.513  1.00  0.00     0.002 C 
BRANCH  25  26
HETATM   26  C   UNL     1     -20.945  -4.352  -9.920  1.00  0.00     0.000 C 
BRANCH  26  27
HETATM   27  C   UNL     1     -20.857  -3.829 -11.341  1.00  0.00     0.000 C 
BRANCH  27  28
HETATM   28  C   UNL     1     -22.046  -2.935 -11.638  1.00  0.00     0.000 C 
BRANCH  28  29
HETATM   29  C   UNL     1     -22.583  -3.233 -13.025  1.00  0.00     0.000 C 
BRANCH  29  30
HETATM   30  C   UNL     1     -22.770  -4.729 -13.196  1.00  0.00     0.000 C 
BRANCH  30  31
HETATM   31  C   UNL     1     -23.473  -5.014 -14.510  1.00  0.00     0.000 C 
BRANCH  31  32
HETATM   32  C   UNL     1     -24.107  -6.391 -14.466  1.00  0.00     0.000 C 
BRANCH  32  33
HETATM   33  C   UNL     1     -24.615  -6.767 -15.844  1.00  0.00     0.000 C 
BRANCH  33  34
HETATM   34  C   UNL     1     -25.969  -6.127 -16.088  1.00  0.00     0.000 C 
BRANCH  34  35
HETATM   35  C   UNL     1     -27.073  -7.108 -15.742  1.00  0.00     0.000 C 
BRANCH  35  36
HETATM   36  C   UNL     1     -28.426  -6.458 -15.957  1.00  0.00     0.000 C 
BRANCH  36  37
HETATM   37  C   UNL     1     -29.244  -7.280 -16.936  1.00  0.00     0.000 C 
BRANCH  37  38
HETATM   38  C   UNL     1     -30.477  -6.503 -17.363  1.00  0.00    -0.000 C 
BRANCH  38  39
HETATM   39  C   UNL     1     -30.652  -5.273 -16.487  1.00  0.00    -0.005 C 
HETATM   40  C   UNL     1     -31.822  -4.446 -16.978  1.00  0.00     0.005 C 
ENDBRANCH  38  39
ENDBRANCH  37  38
ENDBRANCH  36  37
ENDBRANCH  35  36
ENDBRANCH  34  35
ENDBRANCH  33  34
ENDBRANCH  32  33
ENDBRANCH  31  32
ENDBRANCH  30  31
ENDBRANCH  29  30
ENDBRANCH  28  29
ENDBRANCH  27  28
ENDBRANCH  26  27
ENDBRANCH  25  26
ENDBRANCH  24  25
ENDBRANCH  23  24
ENDBRANCH  22  23
ENDBRANCH  20  22
ENDBRANCH   1  20
BRANCH  10  41
HETATM   41  O   UNL     1     -20.972  -8.734   1.470  1.00  0.00    -0.365 OA
ATOM     42  HO  UNL     1     -21.083  -9.256   2.255  1.00  0.00     0.217 HD
ENDBRANCH  10  41
BRANCH  11  43
HETATM   43  C   UNL     1     -21.163 -13.003  -0.037  1.00  0.00    -0.036 A 
HETATM   44  C   UNL     1     -21.823 -13.550   1.355  1.00  0.00     0.005 A 
HETATM   45  C   UNL     1     -22.382 -12.383   0.905  1.00  0.00     0.016 A 
HETATM   46  C   UNL     1     -22.829 -14.687   1.537  1.00  0.00    -0.017 C 
HETATM   47  C   UNL     1     -23.435 -15.082   0.189  1.00  0.00     0.126 C 
HETATM   48  C   UNL     1     -22.189 -15.910   2.254  1.00  0.00     0.018 C 
HETATM   49  C   UNL     1     -23.907 -14.129   2.480  1.00  0.00     0.018 C 
HETATM   50  C   UNL     1     -22.366 -15.509  -0.794  1.00  0.00     0.033 C 
HETATM   51  C   UNL     1     -21.508 -14.269  -1.202  1.00  0.00     0.012 C 
HETATM   52  C   UNL     1     -19.797 -14.258   0.596  1.00  0.00     0.015 C 
BRANCH  47  53
HETATM   53  O   UNL     1     -24.409 -16.102   0.357  1.00  0.00    -0.395 OA
HETATM   54  H   UNL     1     -24.295 -16.742  -0.362  1.00  0.00     0.210 HD
ENDBRANCH  47  53
ENDBRANCH  11  43
TORSDOF 23
BEGIN_RES ARG D 557
REMARK  4 active torsions:
REMARK  status: ('A' for Active; 'I' for Inactive)
REMARK    1  A    between atoms: CA   and  CB  
REMARK    2  A    between atoms: CB   and  CG  
REMARK    3  A    between atoms: CG   and  CD  
REMARK    4  A    between atoms: CD   and  NE  
REMARK       I    between atoms: NE   and  CZ  
REMARK       I    between atoms: CZ   and  NH1 
REMARK       I    between atoms: CZ   and  NH2 
ROOT
ATOM      1  CA  ARG D 557     -26.217   2.705 -17.014  1.00 35.49     0.159 C 
ENDROOT
BRANCH   1   2
ATOM      2  CB  ARG D 557     -26.789   1.319 -17.183  1.00 35.49     0.034 C 
BRANCH   2   3
ATOM      3  CG  ARG D 557     -28.233   1.169 -16.965  1.00 35.49     0.027 C 
BRANCH   3   4
ATOM      4  CD  ARG D 557     -28.600  -0.202 -16.543  1.00 35.49     0.116 C 
BRANCH   4   5
ATOM      5  NE  ARG D 557     -27.518  -0.871 -15.871  1.00 35.49    -0.212 N 
ATOM      6  CZ  ARG D 557     -27.239  -2.153 -15.952  1.00 35.49     0.666 C 
ATOM      7  NH1 ARG D 557     -27.958  -2.991 -16.675  1.00 35.49    -0.235 N 
ATOM      8  NH2 ARG D 557     -26.205  -2.585 -15.290  1.00 35.49    -0.235 N 
ATOM      9  HH  ARG D 557     -28.642  -2.728 -17.120  1.00 35.49     0.174 HD
ATOM     10  HH  ARG D 557     -27.727  -3.816 -16.692  1.00 35.49     0.174 HD
ATOM     11  HH  ARG D 557     -25.754  -2.020 -14.838  1.00 35.49     0.174 HD
ATOM     12  HH  ARG D 557     -25.991  -3.405 -15.321  1.00 35.49     0.174 HD
ATOM     13  HE  ARG D 557     -27.046  -0.420 -15.326  1.00 35.49     0.178 HD
ENDBRANCH   4   5
ENDBRANCH   3   4
ENDBRANCH   2   3
ENDBRANCH   1   2
END_RES ARG D 557
BEGIN_RES GLU D 570
REMARK  3 active torsions:
REMARK  status: ('A' for Active; 'I' for Inactive)
REMARK    5  A    between atoms: CA   and  CB  
REMARK    6  A    between atoms: CB   and  CG  
REMARK    7  A    between atoms: CG   and  CD  
ROOT
ATOM     14  CA  GLU D 570     -18.033  -6.348 -13.375  1.00 32.92     0.160 C 
ENDROOT
BRANCH  14  15
ATOM     15  CB  GLU D 570     -19.500  -6.345 -13.794  1.00 32.92     0.043 C 
BRANCH  15  16
ATOM     16  CG  GLU D 570     -19.812  -5.944 -15.190  1.00 32.92     0.100 C 
BRANCH  16  17
ATOM     17  CD  GLU D 570     -20.696  -6.938 -15.905  1.00 32.92     0.185 C 
ATOM     18  OE1 GLU D 570     -21.251  -6.600 -16.969  1.00 32.92    -0.647 OA
ATOM     19  OE2 GLU D 570     -20.849  -8.062 -15.388  1.00 32.92    -0.647 OA
ENDBRANCH  16  17
ENDBRANCH  15  16
ENDBRANCH  14  15
END_RES GLU D 570
ENDMDL
MODEL 2
REMARK VINA RESULT:      -9.9      1.479      2.150
REMARK  23 active torsions:
REMARK  status: ('A' for Active; 'I' for Inactive)
REMARK    1  A    between atoms: C_2  and  C_3 
REMARK    2  A    between atoms: C_3  and  C_4 
REMARK    3  A    between atoms: C_4  and  C_5 
REMARK    4  A    between atoms: C_5  and  C_6 
REMARK    5  A    between atoms: C_6  and  C_7 
REMARK    6  A    between atoms: C_7  and  C_8 
REMARK    7  A    between atoms: C_8  and  C_9 
REMARK    8  A    between atoms: C_9  and  C_10 
REMARK    9  A    between atoms: C_10  and  C_11 
REMARK   10  A    between atoms: C_11  and  C_12 
REMARK   11  A    between atoms: C_12  and  C_13 
REMARK   12  A    between atoms: C_13  and  C_14 
REMARK   13  A    between atoms: C_14  and  C_15 
REMARK   14  A    between atoms: C_15  and  C_16 
REMARK   15  A    between atoms: C_16  and  C_17 
REMARK   16  A    between atoms: C_17  and  C_18 
REMARK   17  A    between atoms: C_18  and  O_19 
REMARK   18  A    between atoms: O_19  and  C_20 
REMARK   19  A    between atoms: C_20  and  C_22 
REMARK   20  A    between atoms: C_31  and  O_32 
REMARK   21  A    between atoms: C_34  and  C_39 
REMARK   22  A    between atoms: C_36  and  C_37 
REMARK   23  A    between atoms: C_42  and  O_46 
ROOT
HETATM    1  C   UNL     1     -21.054  -6.562  -5.071  1.00  0.00     0.045 C 
HETATM    2  C   UNL     1     -20.394  -7.882  -5.279  1.00  0.00     0.020 C 
HETATM    3  C   UNL     1     -21.592  -8.787  -5.316  1.00  0.00     0.011 C 
HETATM    4  C   UNL     1     -21.017  -9.595  -4.305  1.00  0.00    -0.036 C 
HETATM    5  C   UNL     1     -21.874 -10.845  -4.152  1.00  0.00     0.011 C 
HETATM    6  C   UNL     1     -21.240 -11.325  -2.949  1.00  0.00     0.015 C 
HETATM    7  C   UNL     1     -21.938 -10.424  -1.972  1.00  0.00    -0.012 C 
HETATM    8  C   UNL     1     -22.038  -8.783  -1.907  1.00  0.00    -0.064 C 
HETATM    9  C   UNL     1     -22.143  -8.221  -0.654  1.00  0.00     0.036 C 
HETATM   10  C   UNL     1     -21.655  -9.394   0.458  1.00  0.00     0.048 C 
HETATM   11  C   UNL     1     -21.664 -11.047  -0.171  1.00  0.00     0.049 A 
HETATM   12  C   UNL     1     -20.735 -10.605  -1.075  1.00  0.00    -0.023 A 
HETATM   13  C   UNL     1     -20.293 -11.412   0.122  1.00  0.00     0.022 A 
HETATM   14  C   UNL     1     -19.596  -9.655  -1.343  1.00  0.00     0.017 C 
HETATM   15  C   UNL     1     -21.150  -8.046  -3.064  1.00  0.00     0.025 C 
HETATM   16  C   UNL     1     -20.453  -6.410  -3.687  1.00  0.00     0.029 C 
HETATM   17  C   UNL     1     -23.360 -11.312  -2.001  1.00  0.00     0.021 C 
HETATM   18  C   UNL     1     -19.957 -10.511  -5.404  1.00  0.00     0.016 C 
HETATM   19  C   UNL     1     -22.663  -6.519  -4.865  1.00  0.00     0.026 C 
ENDROOT
BRANCH   1  20
HETATM   20  C   UNL     1     -20.711  -5.813  -6.320  1.00  0.00     0.267 C 
HETATM   21  O   UNL     1     -20.071  -6.322  -7.239  1.00  0.00    -0.264 OA
BRANCH  20  22
HETATM   22  O   UNL     1     -21.052  -4.519  -6.192  1.00  0.00    -0.321 OA
BRANCH  22  23
HETATM   23  C   UNL     1     -21.205  -3.829  -7.425  1.00  0.00     0.178 C 
BRANCH  23  24
HETATM   24  C   UNL     1     -22.587  -4.075  -8.007  1.00  0.00     0.027 C 
BRANCH  24  25
HETATM   25  C   UNL     1     -22.450  -4.337  -9.494  1.00  0.00     0.002 C 
BRANCH  25  26
HETATM   26  C   UNL     1     -21.001  -4.226  -9.927  1.00  0.00     0.000 C 
BRANCH  26  27
HETATM   27  C   UNL     1     -20.925  -3.616 -11.314  1.00  0.00     0.000 C 
BRANCH  27  28
HETATM   28  C   UNL     1     -22.241  -2.944 -11.657  1.00  0.00     0.000 C 
BRANCH  28  29
HETATM   29  C   UNL     1     -22.594  -3.207 -13.108  1.00  0.00     0.000 C 
BRANCH  29  30
HETATM   30  C   UNL     1     -23.739  -4.198 -13.191  1.00  0.00     0.000 C 
BRANCH  30  31
HETATM   31  C   UNL     1     -23.210  -5.565 -13.581  1.00  0.00     0.000 C 
BRANCH  31  32
HETATM   32  C   UNL     1     -23.553  -5.855 -15.029  1.00  0.00     0.000 C 
BRANCH  32  33
HETATM   33  C   UNL     1     -25.020  -6.219 -15.149  1.00  0.00     0.000 C 
BRANCH  33  34
HETATM   34  C   UNL     1     -25.322  -6.687 -16.559  1.00  0.00     0.000 C 
BRANCH  34  35
HETATM   35  C   UNL     1     -24.105  -7.375 -17.147  1.00  0.00     0.000 C 
BRANCH  35  36
HETATM   36  C   UNL     1     -23.957  -7.002 -18.610  1.00  0.00     0.000 C 
BRANCH  36  37
HETATM   37  C   UNL     1     -25.328  -6.825 -19.238  1.00  0.00     0.000 C 
BRANCH  37  38
HETATM   38  C   UNL     1     -25.189  -6.626 -20.737  1.00  0.00    -0.000 C 
BRANCH  38  39
HETATM   39  C   UNL     1     -24.935  -7.959 -21.423  1.00  0.00    -0.005 C 
HETATM   40  C   UNL     1     -23.944  -7.781 -22.555  1.00  0.00     0.005 C 
ENDBRANCH  38  39
ENDBRANCH  37  38
ENDBRANCH  36  37
ENDBRANCH  35  36
ENDBRANCH  34  35
ENDBRANCH  33  34
ENDBRANCH  32  33
ENDBRANCH  31  32
ENDBRANCH  30  31
ENDBRANCH  29  30
ENDBRANCH  28  29
ENDBRANCH  27  28
ENDBRANCH  26  27
ENDBRANCH  25  26
ENDBRANCH  24  25
ENDBRANCH  23  24
ENDBRANCH  22  23
ENDBRANCH  20  22
ENDBRANCH   1  20
BRANCH  10  41
HETATM   41  O   UNL     1     -20.984  -8.761   1.467  1.00  0.00    -0.365 OA
ATOM     42  HO  UNL     1     -21.119  -7.827   1.364  1.00  0.00     0.217 HD
ENDBRANCH  10  41
BRANCH  11  43
HETATM   43  C   UNL     1     -21.187 -13.044   0.002  1.00  0.00    -0.036 A 
HETATM   44  C   UNL     1     -21.844 -13.576   1.402  1.00  0.00     0.005 A 
HETATM   45  C   UNL     1     -22.401 -12.412   0.941  1.00  0.00     0.016 A 
HETATM   46  C   UNL     1     -22.852 -14.708   1.598  1.00  0.00    -0.017 C 
HETATM   47  C   UNL     1     -23.463 -15.115   0.255  1.00  0.00     0.126 C 
HETATM   48  C   UNL     1     -22.212 -15.926   2.325  1.00  0.00     0.018 C 
HETATM   49  C   UNL     1     -23.926 -14.139   2.538  1.00  0.00     0.018 C 
HETATM   50  C   UNL     1     -22.398 -15.554  -0.727  1.00  0.00     0.033 C 
HETATM   51  C   UNL     1     -21.538 -14.321  -1.149  1.00  0.00     0.012 C 
HETATM   52  C   UNL     1     -19.821 -14.296   0.643  1.00  0.00     0.015 C 
BRANCH  47  53
HETATM   53  O   UNL     1     -24.439 -16.131   0.437  1.00  0.00    -0.395 OA
HETATM   54  H   UNL     1     -25.198 -15.916  -0.127  1.00  0.00     0.210 HD
ENDBRANCH  47  53
ENDBRANCH  11  43
TORSDOF 23
BEGIN_RES ARG D 557
REMARK  4 active torsions:
REMARK  status: ('A' for Active; 'I' for Inactive)
REMARK    1  A    between atoms: CA   and  CB  
REMARK    2  A    between atoms: CB   and  CG  
REMARK    3  A    between atoms: CG   and  CD  
REMARK    4  A    between atoms: CD   and  NE  
REMARK       I    between atoms: NE   and  CZ  
REMARK       I    between atoms: CZ   and  NH1 
REMARK       I    between atoms: CZ   and  NH2 
ROOT
ATOM      1  CA  ARG D 557     -26.217   2.705 -17.014  1.00 35.49     0.159 C 
ENDROOT
BRANCH   1   2
ATOM      2  CB  ARG D 557     -26.789   1.319 -17.183  1.00 35.49     0.034 C 
BRANCH   2   3
ATOM      3  CG  ARG D 557     -28.252   1.204 -17.189  1.00 35.49     0.027 C 
BRANCH   3   4
ATOM      4  CD  ARG D 557     -28.715  -0.138 -16.770  1.00 35.49     0.116 C 
BRANCH   4   5
ATOM      5  NE  ARG D 557     -27.683  -0.882 -16.096  1.00 35.49    -0.212 N 
ATOM      6  CZ  ARG D 557     -27.509  -2.183 -16.158  1.00 35.49     0.666 C 
ATOM      7  NH1 ARG D 557     -28.301  -2.972 -16.859  1.00 35.49    -0.235 N 
ATOM      8  NH2 ARG D 557     -26.506  -2.686 -15.499  1.00 35.49    -0.235 N 
ATOM      9  HH  ARG D 557     -28.966  -2.662 -17.303  1.00 35.49     0.174 HD
ATOM     10  HH  ARG D 557     -28.137  -3.813 -16.865  1.00 35.49     0.174 HD
ATOM     11  HH  ARG D 557     -26.006  -2.152 -15.060  1.00 35.49     0.174 HD
ATOM     12  HH  ARG D 557     -26.359  -3.521 -15.518  1.00 35.49     0.174 HD
ATOM     13  HE  ARG D 557     -27.171  -0.461 -15.563  1.00 35.49     0.178 HD
ENDBRANCH   4   5
ENDBRANCH   3   4
ENDBRANCH   2   3
ENDBRANCH   1   2
END_RES ARG D 557
BEGIN_RES GLU D 570
REMARK  3 active torsions:
REMARK  status: ('A' for Active; 'I' for Inactive)
REMARK    5  A    between atoms: CA   and  CB  
REMARK    6  A    between atoms: CB   and  CG  
REMARK    7  A    between atoms: CG   and  CD  
ROOT
ATOM     14  CA  GLU D 570     -18.033  -6.348 -13.375  1.00 32.92     0.160 C 
ENDROOT
BRANCH  14  15
ATOM     15  CB  GLU D 570     -19.500  -6.345 -13.794  1.00 32.92     0.043 C 
BRANCH  15  16
ATOM     16  CG  GLU D 570     -20.103  -7.646 -14.183  1.00 32.92     0.100 C 
BRANCH  16  17
ATOM     17  CD  GLU D 570     -20.472  -7.709 -15.647  1.00 32.92     0.185 C 
ATOM     18  OE1 GLU D 570     -20.662  -8.822 -16.176  1.00 32.92    -0.647 OA
ATOM     19  OE2 GLU D 570     -20.557  -6.636 -16.276  1.00 32.92    -0.647 OA
ENDBRANCH  16  17
ENDBRANCH  15  16
ENDBRANCH  14  15
END_RES GLU D 570
ENDMDL
MODEL 3
REMARK VINA RESULT:      -8.8      2.792      4.306
REMARK  23 active torsions:
REMARK  status: ('A' for Active; 'I' for Inactive)
REMARK    1  A    between atoms: C_2  and  C_3 
REMARK    2  A    between atoms: C_3  and  C_4 
REMARK    3  A    between atoms: C_4  and  C_5 
REMARK    4  A    between atoms: C_5  and  C_6 
REMARK    5  A    between atoms: C_6  and  C_7 
REMARK    6  A    between atoms: C_7  and  C_8 
REMARK    7  A    between atoms: C_8  and  C_9 
REMARK    8  A    between atoms: C_9  and  C_10 
REMARK    9  A    between atoms: C_10  and  C_11 
REMARK   10  A    between atoms: C_11  and  C_12 
REMARK   11  A    between atoms: C_12  and  C_13 
REMARK   12  A    between atoms: C_13  and  C_14 
REMARK   13  A    between atoms: C_14  and  C_15 
REMARK   14  A    between atoms: C_15  and  C_16 
REMARK   15  A    between atoms: C_16  and  C_17 
REMARK   16  A    between atoms: C_17  and  C_18 
REMARK   17  A    between atoms: C_18  and  O_19 
REMARK   18  A    between atoms: O_19  and  C_20 
REMARK   19  A    between atoms: C_20  and  C_22 
REMARK   20  A    between atoms: C_31  and  O_32 
REMARK   21  A    between atoms: C_34  and  C_39 
REMARK   22  A    between atoms: C_36  and  C_37 
REMARK   23  A    between atoms: C_42  and  O_46 
ROOT
HETATM    1  C   UNL     1     -21.553  -7.032  -5.516  1.00  0.00     0.045 C 
HETATM    2  C   UNL     1     -21.916  -7.582  -4.180  1.00  0.00     0.020 C 
HETATM    3  C   UNL     1     -20.666  -7.276  -3.407  1.00  0.00     0.011 C 
HETATM    4  C   UNL     1     -20.571  -8.633  -3.016  1.00  0.00    -0.036 C 
HETATM    5  C   UNL     1     -19.464  -8.752  -1.976  1.00  0.00     0.011 C 
HETATM    6  C   UNL     1     -19.418 -10.193  -1.957  1.00  0.00     0.015 C 
HETATM    7  C   UNL     1     -18.609 -10.392  -3.206  1.00  0.00    -0.012 C 
HETATM    8  C   UNL     1     -18.872  -9.884  -4.749  1.00  0.00    -0.064 C 
HETATM    9  C   UNL     1     -18.395 -10.694  -5.755  1.00  0.00     0.036 C 
HETATM   10  C   UNL     1     -18.097 -12.209  -5.072  1.00  0.00     0.048 C 
HETATM   11  C   UNL     1     -17.967 -12.204  -3.309  1.00  0.00     0.049 A 
HETATM   12  C   UNL     1     -19.260 -11.753  -3.310  1.00  0.00    -0.023 A 
HETATM   13  C   UNL     1     -18.971 -13.202  -3.000  1.00  0.00     0.022 A 
HETATM   14  C   UNL     1     -20.593 -11.765  -4.012  1.00  0.00     0.017 C 
HETATM   15  C   UNL     1     -20.301  -9.111  -4.928  1.00  0.00     0.025 C 
HETATM   16  C   UNL     1     -21.550  -8.409  -6.152  1.00  0.00     0.029 C 
HETATM   17  C   UNL     1     -17.161  -9.982  -2.466  1.00  0.00     0.021 C 
HETATM   18  C   UNL     1     -21.746  -8.508  -1.684  1.00  0.00     0.016 C 
HETATM   19  C   UNL     1     -20.060  -6.436  -5.735  1.00  0.00     0.026 C 
ENDROOT
BRANCH   1  20
HETATM   20  C   UNL     1     -22.541  -5.924  -5.705  1.00  0.00     0.267 C 
HETATM   21  O   UNL     1     -23.673  -5.961  -5.222  1.00  0.00    -0.264 OA
BRANCH  20  22
HETATM   22  O   UNL     1     -22.066  -5.024  -6.582  1.00  0.00    -0.321 OA
BRANCH  22  23
HETATM   23  C   UNL     1     -23.063  -4.398  -7.378  1.00  0.00     0.178 C 
BRANCH  23  24
HETATM   24  C   UNL     1     -22.469  -3.898  -8.685  1.00  0.00     0.027 C 
BRANCH  24  25
HETATM   25  C   UNL     1     -21.047  -4.412  -8.800  1.00  0.00     0.002 C 
BRANCH  25  26
HETATM   26  C   UNL     1     -20.458  -4.063 -10.152  1.00  0.00     0.000 C 
BRANCH  26  27
HETATM   27  C   UNL     1     -21.531  -3.456 -11.038  1.00  0.00     0.000 C 
BRANCH  27  28
HETATM   28  C   UNL     1     -21.727  -4.314 -12.273  1.00  0.00     0.000 C 
BRANCH  28  29
HETATM   29  C   UNL     1     -23.138  -4.871 -12.298  1.00  0.00     0.000 C 
BRANCH  29  30
HETATM   30  C   UNL     1     -23.290  -5.840 -13.455  1.00  0.00     0.000 C 
BRANCH  30  31
HETATM   31  C   UNL     1     -24.136  -5.211 -14.546  1.00  0.00     0.000 C 
BRANCH  31  32
HETATM   32  C   UNL     1     -24.949  -6.282 -15.247  1.00  0.00     0.000 C 
BRANCH  32  33
HETATM   33  C   UNL     1     -26.118  -5.646 -15.976  1.00  0.00     0.000 C 
BRANCH  33  34
HETATM   34  C   UNL     1     -26.361  -4.248 -15.439  1.00  0.00     0.000 C 
BRANCH  34  35
HETATM   35  C   UNL     1     -27.516  -3.604 -16.181  1.00  0.00     0.000 C 
BRANCH  35  36
HETATM   36  C   UNL     1     -28.694  -4.558 -16.231  1.00  0.00     0.000 C 
BRANCH  36  37
HETATM   37  C   UNL     1     -29.636  -4.158 -17.351  1.00  0.00     0.000 C 
BRANCH  37  38
HETATM   38  C   UNL     1     -29.731  -5.276 -18.374  1.00  0.00    -0.000 C 
BRANCH  38  39
HETATM   39  C   UNL     1     -29.241  -6.583 -17.771  1.00  0.00    -0.005 C 
HETATM   40  C   UNL     1     -29.938  -7.754 -18.432  1.00  0.00     0.005 C 
ENDBRANCH  38  39
ENDBRANCH  37  38
ENDBRANCH  36  37
ENDBRANCH  35  36
ENDBRANCH  34  35
ENDBRANCH  33  34
ENDBRANCH  32  33
ENDBRANCH  31  32
ENDBRANCH  30  31
ENDBRANCH  29  30
ENDBRANCH  28  29
ENDBRANCH  27  28
ENDBRANCH  26  27
ENDBRANCH  25  26
ENDBRANCH  24  25
ENDBRANCH  23  24
ENDBRANCH  22  23
ENDBRANCH  20  22
ENDBRANCH   1  20
BRANCH  10  41
HETATM   41  O   UNL     1     -18.421 -13.158  -6.002  1.00  0.00    -0.365 OA
ATOM     42  HO  UNL     1     -17.664 -13.289  -6.559  1.00  0.00     0.217 HD
ENDBRANCH  10  41
BRANCH  11  43
HETATM   43  C   UNL     1     -17.856 -13.197  -1.506  1.00  0.00    -0.036 A 
HETATM   44  C   UNL     1     -16.513 -14.129  -1.553  1.00  0.00     0.005 A 
HETATM   45  C   UNL     1     -16.512 -13.118  -2.477  1.00  0.00     0.016 A 
HETATM   46  C   UNL     1     -15.314 -14.100  -0.604  1.00  0.00    -0.017 C 
HETATM   47  C   UNL     1     -15.345 -12.835   0.255  1.00  0.00     0.126 C 
HETATM   48  C   UNL     1     -15.247 -15.383   0.273  1.00  0.00     0.018 C 
HETATM   49  C   UNL     1     -14.075 -14.114  -1.513  1.00  0.00     0.018 C 
HETATM   50  C   UNL     1     -16.625 -12.743   1.059  1.00  0.00     0.033 C 
HETATM   51  C   UNL     1     -17.827 -12.483   0.096  1.00  0.00     0.012 C 
HETATM   52  C   UNL     1     -18.440 -14.801  -0.543  1.00  0.00     0.015 C 
BRANCH  47  53
HETATM   53  O   UNL     1     -14.207 -12.776   1.102  1.00  0.00    -0.395 OA
HETATM   54  H   UNL     1     -13.777 -13.645   1.081  1.00  0.00     0.210 HD
ENDBRANCH  47  53
ENDBRANCH  11  43
TORSDOF 23
BEGIN_RES ARG D 557
REMARK  4 active torsions:
REMARK  status: ('A' for Active; 'I' for Inactive)
REMARK    1  A    between atoms: CA   and  CB  
REMARK    2  A    between atoms: CB   and  CG  
REMARK    3  A    between atoms: CG   and  CD  
REMARK    4  A    between atoms: CD   and  NE  
REMARK       I    between atoms: NE   and  CZ  
REMARK       I    between atoms: CZ   and  NH1 
REMARK       I    between atoms: CZ   and  NH2 
ROOT
ATOM      1  CA  ARG D 557     -26.217   2.705 -17.014  1.00 35.49     0.159 C 
ENDROOT
BRANCH   1   2
ATOM      2  CB  ARG D 557     -26.789   1.319 -17.183  1.00 35.49     0.034 C 
BRANCH   2   3
ATOM      3  CG  ARG D 557     -25.830   0.208 -17.217  1.00 35.49     0.027 C 
BRANCH   3   4
ATOM      4  CD  ARG D 557     -24.683   0.424 -16.305  1.00 35.49     0.116 C 
BRANCH   4   5
ATOM      5  NE  ARG D 557     -24.805  -0.338 -15.091  1.00 35.49    -0.212 N 
ATOM      6  CZ  ARG D 557     -24.001  -1.304 -14.706  1.00 35.49     0.666 C 
ATOM      7  NH1 ARG D 557     -22.968  -1.696 -15.428  1.00 35.49    -0.235 N 
ATOM      8  NH2 ARG D 557     -24.250  -1.873 -13.562  1.00 35.49    -0.235 N 
ATOM      9  HH  ARG D 557     -22.784  -1.334 -16.183  1.00 35.49     0.174 HD
ATOM     10  HH  ARG D 557     -22.476  -2.329 -15.125  1.00 35.49     0.174 HD
ATOM     11  HH  ARG D 557     -24.919  -1.594 -13.114  1.00 35.49     0.174 HD
ATOM     12  HH  ARG D 557     -23.751  -2.497 -13.279  1.00 35.49     0.174 HD
ATOM     13  HE  ARG D 557     -25.486  -0.201 -14.599  1.00 35.49     0.178 HD
ENDBRANCH   4   5
ENDBRANCH   3   4
ENDBRANCH   2   3
ENDBRANCH   1   2
END_RES ARG D 557
BEGIN_RES GLU D 570
REMARK  3 active torsions:
REMARK  status: ('A' for Active; 'I' for Inactive)
REMARK    5  A    between atoms: CA   and  CB  
REMARK    6  A    between atoms: CB   and  CG  
REMARK    7  A    between atoms: CG   and  CD  
ROOT
ATOM     14  CA  GLU D 570     -18.033  -6.348 -13.375  1.00 32.92     0.160 C 
ENDROOT
BRANCH  14  15
ATOM     15  CB  GLU D 570     -19.500  -6.345 -13.794  1.00 32.92     0.043 C 
BRANCH  15  16
ATOM     16  CG  GLU D 570     -20.087  -7.635 -14.241  1.00 32.92     0.100 C 
BRANCH  16  17
ATOM     17  CD  GLU D 570     -20.729  -7.548 -15.606  1.00 32.92     0.185 C 
ATOM     18  OE1 GLU D 570     -20.931  -6.426 -16.110  1.00 32.92    -0.647 OA
ATOM     19  OE2 GLU D 570     -21.048  -8.613 -16.171  1.00 32.92    -0.647 OA
ENDBRANCH  16  17
ENDBRANCH  15  16
ENDBRANCH  14  15
END_RES GLU D 570
ENDMDL
MODEL 4
REMARK VINA RESULT:      -8.7      1.522      2.086
REMARK  23 active torsions:
REMARK  status: ('A' for Active; 'I' for Inactive)
REMARK    1  A    between atoms: C_2  and  C_3 
REMARK    2  A    between atoms: C_3  and  C_4 
REMARK    3  A    between atoms: C_4  and  C_5 
REMARK    4  A    between atoms: C_5  and  C_6 
REMARK    5  A    between atoms: C_6  and  C_7 
REMARK    6  A    between atoms: C_7  and  C_8 
REMARK    7  A    between atoms: C_8  and  C_9 
REMARK    8  A    between atoms: C_9  and  C_10 
REMARK    9  A    between atoms: C_10  and  C_11 
REMARK   10  A    between atoms: C_11  and  C_12 
REMARK   11  A    between atoms: C_12  and  C_13 
REMARK   12  A    between atoms: C_13  and  C_14 
REMARK   13  A    between atoms: C_14  and  C_15 
REMARK   14  A    between atoms: C_15  and  C_16 
REMARK   15  A    between atoms: C_16  and  C_17 
REMARK   16  A    between atoms: C_17  and  C_18 
REMARK   17  A    between atoms: C_18  and  O_19 
REMARK   18  A    between atoms: O_19  and  C_20 
REMARK   19  A    between atoms: C_20  and  C_22 
REMARK   20  A    between atoms: C_31  and  O_32 
REMARK   21  A    between atoms: C_34  and  C_39 
REMARK   22  A    between atoms: C_36  and  C_37 
REMARK   23  A    between atoms: C_42  and  O_46 
ROOT
HETATM    1  C   UNL     1     -20.755  -7.719  -4.510  1.00  0.00     0.045 C 
HETATM    2  C   UNL     1     -20.475  -9.148  -4.824  1.00  0.00     0.020 C 
HETATM    3  C   UNL     1     -21.841  -9.744  -4.638  1.00  0.00     0.011 C 
HETATM    4  C   UNL     1     -21.306 -10.700  -3.741  1.00  0.00    -0.036 C 
HETATM    5  C   UNL     1     -22.394 -11.719  -3.426  1.00  0.00     0.011 C 
HETATM    6  C   UNL     1     -21.690 -12.377  -2.354  1.00  0.00     0.015 C 
HETATM    7  C   UNL     1     -21.970 -11.373  -1.274  1.00  0.00    -0.012 C 
HETATM    8  C   UNL     1     -21.665  -9.757  -1.204  1.00  0.00    -0.064 C 
HETATM    9  C   UNL     1     -21.411  -9.232   0.043  1.00  0.00     0.036 C 
HETATM   10  C   UNL     1     -21.027 -10.525   1.058  1.00  0.00     0.048 C 
HETATM   11  C   UNL     1     -21.539 -12.106   0.453  1.00  0.00     0.049 A 
HETATM   12  C   UNL     1     -20.706 -11.863  -0.607  1.00  0.00    -0.023 A 
HETATM   13  C   UNL     1     -20.264 -12.793   0.498  1.00  0.00     0.022 A 
HETATM   14  C   UNL     1     -19.440 -11.199  -1.082  1.00  0.00     0.017 C 
HETATM   15  C   UNL     1     -20.846  -9.209  -2.508  1.00  0.00     0.025 C 
HETATM   16  C   UNL     1     -19.901  -7.762  -3.258  1.00  0.00     0.029 C 
HETATM   17  C   UNL     1     -23.545 -11.900  -1.040  1.00  0.00     0.021 C 
HETATM   18  C   UNL     1     -20.704 -11.800  -5.006  1.00  0.00     0.016 C 
HETATM   19  C   UNL     1     -22.246  -7.306  -4.019  1.00  0.00     0.026 C 
ENDROOT
BRANCH   1  20
HETATM   20  C   UNL     1     -20.471  -7.027  -5.806  1.00  0.00     0.267 C 
HETATM   21  O   UNL     1     -19.564  -7.382  -6.557  1.00  0.00    -0.264 OA
BRANCH  20  22
HETATM   22  O   UNL     1     -21.219  -5.915  -5.911  1.00  0.00    -0.321 OA
BRANCH  22  23
HETATM   23  C   UNL     1     -20.505  -4.706  -5.691  1.00  0.00     0.178 C 
BRANCH  23  24
HETATM   24  C   UNL     1     -19.316  -4.609  -6.633  1.00  0.00     0.027 C 
BRANCH  24  25
HETATM   25  C   UNL     1     -19.776  -3.977  -7.932  1.00  0.00     0.002 C 
BRANCH  25  26
HETATM   26  C   UNL     1     -21.265  -3.694  -7.894  1.00  0.00     0.000 C 
BRANCH  26  27
HETATM   27  C   UNL     1     -21.916  -4.200  -9.168  1.00  0.00     0.000 C 
BRANCH  27  28
HETATM   28  C   UNL     1     -20.938  -4.102 -10.323  1.00  0.00     0.000 C 
BRANCH  28  29
HETATM   29  C   UNL     1     -21.693  -4.018 -11.636  1.00  0.00     0.000 C 
BRANCH  29  30
HETATM   30  C   UNL     1     -23.137  -4.435 -11.428  1.00  0.00     0.000 C 
BRANCH  30  31
HETATM   31  C   UNL     1     -23.507  -5.522 -12.418  1.00  0.00     0.000 C 
BRANCH  31  32
HETATM   32  C   UNL     1     -23.059  -5.125 -13.812  1.00  0.00     0.000 C 
BRANCH  32  33
HETATM   33  C   UNL     1     -24.201  -5.309 -14.792  1.00  0.00     0.000 C 
BRANCH  33  34
HETATM   34  C   UNL     1     -24.253  -6.752 -15.258  1.00  0.00     0.000 C 
BRANCH  34  35
HETATM   35  C   UNL     1     -25.619  -7.056 -15.842  1.00  0.00     0.000 C 
BRANCH  35  36
HETATM   36  C   UNL     1     -25.674  -6.602 -17.288  1.00  0.00     0.000 C 
BRANCH  36  37
HETATM   37  C   UNL     1     -27.007  -5.933 -17.569  1.00  0.00     0.000 C 
BRANCH  37  38
HETATM   38  C   UNL     1     -27.931  -6.095 -16.375  1.00  0.00    -0.000 C 
BRANCH  38  39
HETATM   39  C   UNL     1     -28.530  -4.753 -15.988  1.00  0.00    -0.005 C 
HETATM   40  C   UNL     1     -27.501  -3.655 -16.156  1.00  0.00     0.005 C 
ENDBRANCH  38  39
ENDBRANCH  37  38
ENDBRANCH  36  37
ENDBRANCH  35  36
ENDBRANCH  34  35
ENDBRANCH  33  34
ENDBRANCH  32  33
ENDBRANCH  31  32
ENDBRANCH  30  31
ENDBRANCH  29  30
ENDBRANCH  28  29
ENDBRANCH  27  28
ENDBRANCH  26  27
ENDBRANCH  25  26
ENDBRANCH  24  25
ENDBRANCH  23  24
ENDBRANCH  22  23
ENDBRANCH  20  22
ENDBRANCH   1  20
BRANCH  10  41
HETATM   41  O   UNL     1     -20.057 -10.104   1.925  1.00  0.00    -0.365 OA
ATOM     42  HO  UNL     1     -20.190  -9.176   2.080  1.00  0.00     0.217 HD
ENDBRANCH  10  41
BRANCH  11  43
HETATM   43  C   UNL     1     -21.527 -14.164   0.552  1.00  0.00    -0.036 A 
HETATM   44  C   UNL     1     -22.192 -14.580   1.987  1.00  0.00     0.005 A 
HETATM   45  C   UNL     1     -22.494 -13.304   1.591  1.00  0.00     0.016 A 
HETATM   46  C   UNL     1     -23.419 -15.457   2.237  1.00  0.00    -0.017 C 
HETATM   47  C   UNL     1     -24.198 -15.665   0.937  1.00  0.00     0.126 C 
HETATM   48  C   UNL     1     -23.030 -16.814   2.891  1.00  0.00     0.018 C 
HETATM   49  C   UNL     1     -24.265 -14.690   3.265  1.00  0.00     0.018 C 
HETATM   50  C   UNL     1     -23.334 -16.302  -0.131  1.00  0.00     0.033 C 
HETATM   51  C   UNL     1     -22.243 -15.284  -0.593  1.00  0.00     0.012 C 
HETATM   52  C   UNL     1     -20.448 -15.719   1.065  1.00  0.00     0.015 C 
BRANCH  47  53
HETATM   53  O   UNL     1     -25.368 -16.435   1.171  1.00  0.00    -0.395 OA
HETATM   54  H   UNL     1     -25.638 -16.291   2.091  1.00  0.00     0.210 HD
ENDBRANCH  47  53
ENDBRANCH  11  43
TORSDOF 23
BEGIN_RES ARG D 557
REMARK  4 active torsions:
REMARK  status: ('A' for Active; 'I' for Inactive)
REMARK    1  A    between atoms: CA   and  CB  
REMARK    2  A    between atoms: CB   and  CG  
REMARK    3  A    between atoms: CG   and  CD  
REMARK    4  A    between atoms: CD   and  NE  
REMARK       I    between atoms: NE   and  CZ  
REMARK       I    between atoms: CZ   and  NH1 
REMARK       I    between atoms: CZ   and  NH2 
ROOT
ATOM      1  CA  ARG D 557     -26.217   2.705 -17.014  1.00 35.49     0.159 C 
ENDROOT
BRANCH   1   2
ATOM      2  CB  ARG D 557     -26.789   1.319 -17.183  1.00 35.49     0.034 C 
BRANCH   2   3
ATOM      3  CG  ARG D 557     -25.834   0.204 -17.173  1.00 35.49     0.027 C 
BRANCH   3   4
ATOM      4  CD  ARG D 557     -24.695   0.445 -16.257  1.00 35.49     0.116 C 
BRANCH   4   5
ATOM      5  NE  ARG D 557     -24.796  -0.333 -15.050  1.00 35.49    -0.212 N 
ATOM      6  CZ  ARG D 557     -23.991  -1.309 -14.697  1.00 35.49     0.666 C 
ATOM      7  NH1 ARG D 557     -22.977  -1.700 -15.447  1.00 35.49    -0.235 N 
ATOM      8  NH2 ARG D 557     -24.219  -1.892 -13.556  1.00 35.49    -0.235 N 
ATOM      9  HH  ARG D 557     -22.807  -1.329 -16.200  1.00 35.49     0.174 HD
ATOM     10  HH  ARG D 557     -22.484  -2.340 -15.164  1.00 35.49     0.174 HD
ATOM     11  HH  ARG D 557     -24.876  -1.614 -13.089  1.00 35.49     0.174 HD
ATOM     12  HH  ARG D 557     -23.718  -2.524 -13.292  1.00 35.49     0.174 HD
ATOM     13  HE  ARG D 557     -25.464  -0.197 -14.542  1.00 35.49     0.178 HD
ENDBRANCH   4   5
ENDBRANCH   3   4
ENDBRANCH   2   3
ENDBRANCH   1   2
END_RES ARG D 557
BEGIN_RES GLU D 570
REMARK  3 active torsions:
REMARK  status: ('A' for Active; 'I' for Inactive)
REMARK    5  A    between atoms: CA   and  CB  
REMARK    6  A    between atoms: CB   and  CG  
REMARK    7  A    between atoms: CG   and  CD  
ROOT
ATOM     14  CA  GLU D 570     -18.033  -6.348 -13.375  1.00 32.92     0.160 C 
ENDROOT
BRANCH  14  15
ATOM     15  CB  GLU D 570     -19.500  -6.345 -13.794  1.00 32.92     0.043 C 
BRANCH  15  16
ATOM     16  CG  GLU D 570     -19.807  -6.012 -15.209  1.00 32.92     0.100 C 
BRANCH  16  17
ATOM     17  CD  GLU D 570     -20.636  -7.072 -15.897  1.00 32.92     0.185 C 
ATOM     18  OE1 GLU D 570     -20.729  -8.200 -15.377  1.00 32.92    -0.647 OA
ATOM     19  OE2 GLU D 570     -21.185  -6.775 -16.977  1.00 32.92    -0.647 OA
ENDBRANCH  16  17
ENDBRANCH  15  16
ENDBRANCH  14  15
END_RES GLU D 570
ENDMDL
MODEL 5
REMARK VINA RESULT:      -8.6      2.616      4.267
REMARK  23 active torsions:
REMARK  status: ('A' for Active; 'I' for Inactive)
REMARK    1  A    between atoms: C_2  and  C_3 
REMARK    2  A    between atoms: C_3  and  C_4 
REMARK    3  A    between atoms: C_4  and  C_5 
REMARK    4  A    between atoms: C_5  and  C_6 
REMARK    5  A    between atoms: C_6  and  C_7 
REMARK    6  A    between atoms: C_7  and  C_8 
REMARK    7  A    between atoms: C_8  and  C_9 
REMARK    8  A    between atoms: C_9  and  C_10 
REMARK    9  A    between atoms: C_10  and  C_11 
REMARK   10  A    between atoms: C_11  and  C_12 
REMARK   11  A    between atoms: C_12  and  C_13 
REMARK   12  A    between atoms: C_13  and  C_14 
REMARK   13  A    between atoms: C_14  and  C_15 
REMARK   14  A    between atoms: C_15  and  C_16 
REMARK   15  A    between atoms: C_16  and  C_17 
REMARK   16  A    between atoms: C_17  and  C_18 
REMARK   17  A    between atoms: C_18  and  O_19 
REMARK   18  A    between atoms: O_19  and  C_20 
REMARK   19  A    between atoms: C_20  and  C_22 
REMARK   20  A    between atoms: C_31  and  O_32 
REMARK   21  A    between atoms: C_34  and  C_39 
REMARK   22  A    between atoms: C_36  and  C_37 
REMARK   23  A    between atoms: C_42  and  O_46 
ROOT
HETATM    1  C   UNL     1     -21.462  -7.257  -5.308  1.00  0.00     0.045 C 
HETATM    2  C   UNL     1     -21.776  -7.770  -3.945  1.00  0.00     0.020 C 
HETATM    3  C   UNL     1     -20.475  -7.503  -3.243  1.00  0.00     0.011 C 
HETATM    4  C   UNL     1     -20.414  -8.856  -2.833  1.00  0.00    -0.036 C 
HETATM    5  C   UNL     1     -19.260  -9.004  -1.851  1.00  0.00     0.011 C 
HETATM    6  C   UNL     1     -19.271 -10.445  -1.807  1.00  0.00     0.015 C 
HETATM    7  C   UNL     1     -18.538 -10.698  -3.093  1.00  0.00    -0.012 C 
HETATM    8  C   UNL     1     -18.862 -10.205  -4.629  1.00  0.00    -0.064 C 
HETATM    9  C   UNL     1     -18.472 -11.051  -5.643  1.00  0.00     0.036 C 
HETATM   10  C   UNL     1     -18.200 -12.565  -4.948  1.00  0.00     0.048 C 
HETATM   11  C   UNL     1     -17.976 -12.536  -3.195  1.00  0.00     0.049 A 
HETATM   12  C   UNL     1     -19.248 -12.032  -3.137  1.00  0.00    -0.023 A 
HETATM   13  C   UNL     1     -19.003 -13.486  -2.816  1.00  0.00     0.022 A 
HETATM   14  C   UNL     1     -20.616 -12.001  -3.768  1.00  0.00     0.017 C 
HETATM   15  C   UNL     1     -20.266  -9.376  -4.747  1.00  0.00     0.025 C 
HETATM   16  C   UNL     1     -21.548  -8.643  -5.917  1.00  0.00     0.029 C 
HETATM   17  C   UNL     1     -17.038 -10.336  -2.437  1.00  0.00     0.021 C 
HETATM   18  C   UNL     1     -21.512  -8.661  -1.444  1.00  0.00     0.016 C 
HETATM   19  C   UNL     1     -19.959  -6.727  -5.615  1.00  0.00     0.026 C 
ENDROOT
BRANCH   1  20
HETATM   20  C   UNL     1     -22.413  -6.113  -5.465  1.00  0.00     0.267 C 
HETATM   21  O   UNL     1     -23.578  -6.165  -5.073  1.00  0.00    -0.264 OA
BRANCH  20  22
HETATM   22  O   UNL     1     -21.857  -5.148  -6.218  1.00  0.00    -0.321 OA
BRANCH  22  23
HETATM   23  C   UNL     1     -22.752  -4.528  -7.131  1.00  0.00     0.178 C 
BRANCH  23  24
HETATM   24  C   UNL     1     -21.994  -3.636  -8.100  1.00  0.00     0.027 C 
BRANCH  24  25
HETATM   25  C   UNL     1     -20.528  -4.024  -8.073  1.00  0.00     0.002 C 
BRANCH  25  26
HETATM   26  C   UNL     1     -20.139  -4.741  -9.350  1.00  0.00     0.000 C 
BRANCH  26  27
HETATM   27  C   UNL     1     -21.154  -4.441 -10.438  1.00  0.00     0.000 C 
BRANCH  27  28
HETATM   28  C   UNL     1     -20.724  -3.216 -11.222  1.00  0.00     0.000 C 
BRANCH  28  29
HETATM   29  C   UNL     1     -21.930  -2.573 -11.879  1.00  0.00     0.000 C 
BRANCH  29  30
HETATM   30  C   UNL     1     -23.197  -3.285 -11.445  1.00  0.00     0.000 C 
BRANCH  30  31
HETATM   31  C   UNL     1     -23.989  -3.718 -12.663  1.00  0.00     0.000 C 
BRANCH  31  32
HETATM   32  C   UNL     1     -23.187  -3.449 -13.921  1.00  0.00     0.000 C 
BRANCH  32  33
HETATM   33  C   UNL     1     -22.835  -4.760 -14.598  1.00  0.00     0.000 C 
BRANCH  33  34
HETATM   34  C   UNL     1     -23.992  -5.733 -14.470  1.00  0.00     0.000 C 
BRANCH  34  35
HETATM   35  C   UNL     1     -23.761  -6.930 -15.372  1.00  0.00     0.000 C 
BRANCH  35  36
HETATM   36  C   UNL     1     -25.005  -7.203 -16.195  1.00  0.00     0.000 C 
BRANCH  36  37
HETATM   37  C   UNL     1     -26.102  -6.227 -15.812  1.00  0.00     0.000 C 
BRANCH  37  38
HETATM   38  C   UNL     1     -27.208  -6.255 -16.852  1.00  0.00    -0.000 C 
BRANCH  38  39
HETATM   39  C   UNL     1     -28.481  -6.829 -16.251  1.00  0.00    -0.005 C 
HETATM   40  C   UNL     1     -29.450  -7.211 -17.351  1.00  0.00     0.005 C 
ENDBRANCH  38  39
ENDBRANCH  37  38
ENDBRANCH  36  37
ENDBRANCH  35  36
ENDBRANCH  34  35
ENDBRANCH  33  34
ENDBRANCH  32  33
ENDBRANCH  31  32
ENDBRANCH  30  31
ENDBRANCH  29  30
ENDBRANCH  28  29
ENDBRANCH  27  28
ENDBRANCH  26  27
ENDBRANCH  25  26
ENDBRANCH  24  25
ENDBRANCH  23  24
ENDBRANCH  22  23
ENDBRANCH  20  22
ENDBRANCH   1  20
BRANCH  10  41
HETATM   41  O   UNL     1     -18.611 -13.515  -5.842  1.00  0.00    -0.365 OA
ATOM     42  HO  UNL     1     -18.902 -14.272  -5.349  1.00  0.00     0.217 HD
ENDBRANCH  10  41
BRANCH  11  43
HETATM   43  C   UNL     1     -17.810 -13.503  -1.383  1.00  0.00    -0.036 A 
HETATM   44  C   UNL     1     -16.431 -14.381  -1.431  1.00  0.00     0.005 A 
HETATM   45  C   UNL     1     -16.479 -13.382  -2.367  1.00  0.00     0.016 A 
HETATM   46  C   UNL     1     -15.227 -14.295  -0.494  1.00  0.00    -0.017 C 
HETATM   47  C   UNL     1     -15.301 -13.022   0.352  1.00  0.00     0.126 C 
HETATM   48  C   UNL     1     -15.101 -15.563   0.397  1.00  0.00     0.018 C 
HETATM   49  C   UNL     1     -13.996 -14.270  -1.414  1.00  0.00     0.018 C 
HETATM   50  C   UNL     1     -16.576 -12.971   1.166  1.00  0.00     0.033 C 
HETATM   51  C   UNL     1     -17.796 -12.770   0.211  1.00  0.00     0.012 C 
HETATM   52  C   UNL     1     -18.322 -15.118  -0.397  1.00  0.00     0.015 C 
BRANCH  47  53
HETATM   53  O   UNL     1     -14.158 -12.908   1.187  1.00  0.00    -0.395 OA
HETATM   54  H   UNL     1     -13.438 -12.538   0.655  1.00  0.00     0.210 HD
ENDBRANCH  47  53
ENDBRANCH  11  43
TORSDOF 23
BEGIN_RES ARG D 557
REMARK  4 active torsions:
REMARK  status: ('A' for Active; 'I' for Inactive)
REMARK    1  A    between atoms: CA   and  CB  
REMARK    2  A    between atoms: CB   and  CG  
REMARK    3  A    between atoms: CG   and  CD  
REMARK    4  A    between atoms: CD   and  NE  
REMARK       I    between atoms: NE   and  CZ  
REMARK       I    between atoms: CZ   and  NH1 
REMARK       I    between atoms: CZ   and  NH2 
ROOT
ATOM      1  CA  ARG D 557     -26.217   2.705 -17.014  1.00 35.49     0.159 C 
ENDROOT
BRANCH   1   2
ATOM      2  CB  ARG D 557     -26.789   1.319 -17.183  1.00 35.49     0.034 C 
BRANCH   2   3
ATOM      3  CG  ARG D 557     -28.225   1.160 -16.922  1.00 35.49     0.027 C 
BRANCH   3   4
ATOM      4  CD  ARG D 557     -28.616  -0.259 -16.765  1.00 35.49     0.116 C 
BRANCH   4   5
ATOM      5  NE  ARG D 557     -27.616  -1.023 -16.067  1.00 35.49    -0.212 N 
ATOM      6  CZ  ARG D 557     -27.470  -2.328 -16.122  1.00 35.49     0.666 C 
ATOM      7  NH1 ARG D 557     -28.264  -3.101 -16.839  1.00 35.49    -0.235 N 
ATOM      8  NH2 ARG D 557     -26.493  -2.852 -15.440  1.00 35.49    -0.235 N 
ATOM      9  HH  ARG D 557     -28.911  -2.778 -17.298  1.00 35.49     0.174 HD
ATOM     10  HH  ARG D 557     -28.118  -3.946 -16.839  1.00 35.49     0.174 HD
ATOM     11  HH  ARG D 557     -25.992  -2.327 -14.991  1.00 35.49     0.174 HD
ATOM     12  HH  ARG D 557     -26.365  -3.690 -15.454  1.00 35.49     0.174 HD
ATOM     13  HE  ARG D 557     -27.107  -0.613 -15.524  1.00 35.49     0.178 HD
ENDBRANCH   4   5
ENDBRANCH   3   4
ENDBRANCH   2   3
ENDBRANCH   1   2
END_RES ARG D 557
BEGIN_RES GLU D 570
REMARK  3 active torsions:
REMARK  status: ('A' for Active; 'I' for Inactive)
REMARK    5  A    between atoms: CA   and  CB  
REMARK    6  A    between atoms: CB   and  CG  
REMARK    7  A    between atoms: CG   and  CD  
ROOT
ATOM     14  CA  GLU D 570     -18.033  -6.348 -13.375  1.00 32.92     0.160 C 
ENDROOT
BRANCH  14  15
ATOM     15  CB  GLU D 570     -19.500  -6.345 -13.794  1.00 32.92     0.043 C 
BRANCH  15  16
ATOM     16  CG  GLU D 570     -20.087  -7.634 -14.242  1.00 32.92     0.100 C 
BRANCH  16  17
ATOM     17  CD  GLU D 570     -20.445  -7.641 -15.710  1.00 32.92     0.185 C 
ATOM     18  OE1 GLU D 570     -20.809  -8.708 -16.240  1.00 32.92    -0.647 OA
ATOM     19  OE2 GLU D 570     -20.344  -6.570 -16.341  1.00 32.92    -0.647 OA
ENDBRANCH  16  17
ENDBRANCH  15  16
ENDBRANCH  14  15
END_RES GLU D 570
ENDMDL
MODEL 6
REMARK VINA RESULT:      -8.6      2.316      3.770
REMARK  23 active torsions:
REMARK  status: ('A' for Active; 'I' for Inactive)
REMARK    1  A    between atoms: C_2  and  C_3 
REMARK    2  A    between atoms: C_3  and  C_4 
REMARK    3  A    between atoms: C_4  and  C_5 
REMARK    4  A    between atoms: C_5  and  C_6 
REMARK    5  A    between atoms: C_6  and  C_7 
REMARK    6  A    between atoms: C_7  and  C_8 
REMARK    7  A    between atoms: C_8  and  C_9 
REMARK    8  A    between atoms: C_9  and  C_10 
REMARK    9  A    between atoms: C_10  and  C_11 
REMARK   10  A    between atoms: C_11  and  C_12 
REMARK   11  A    between atoms: C_12  and  C_13 
REMARK   12  A    between atoms: C_13  and  C_14 
REMARK   13  A    between atoms: C_14  and  C_15 
REMARK   14  A    between atoms: C_15  and  C_16 
REMARK   15  A    between atoms: C_16  and  C_17 
REMARK   16  A    between atoms: C_17  and  C_18 
REMARK   17  A    between atoms: C_18  and  O_19 
REMARK   18  A    between atoms: O_19  and  C_20 
REMARK   19  A    between atoms: C_20  and  C_22 
REMARK   20  A    between atoms: C_31  and  O_32 
REMARK   21  A    between atoms: C_34  and  C_39 
REMARK   22  A    between atoms: C_36  and  C_37 
REMARK   23  A    between atoms: C_42  and  O_46 
ROOT
HETATM    1  C   UNL     1     -20.948  -5.341  -6.539  1.00  0.00     0.045 C 
HETATM    2  C   UNL     1     -21.751  -5.887  -5.409  1.00  0.00     0.020 C 
HETATM    3  C   UNL     1     -20.754  -5.790  -4.290  1.00  0.00     0.011 C 
HETATM    4  C   UNL     1     -20.945  -7.162  -3.996  1.00  0.00    -0.036 C 
HETATM    5  C   UNL     1     -20.214  -7.476  -2.697  1.00  0.00     0.011 C 
HETATM    6  C   UNL     1     -20.352  -8.909  -2.779  1.00  0.00     0.015 C 
HETATM    7  C   UNL     1     -19.245  -9.170  -3.758  1.00  0.00    -0.012 C 
HETATM    8  C   UNL     1     -18.981  -8.569  -5.267  1.00  0.00    -0.064 C 
HETATM    9  C   UNL     1     -18.333  -9.398  -6.156  1.00  0.00     0.036 C 
HETATM   10  C   UNL     1     -18.437 -10.966  -5.538  1.00  0.00     0.048 C 
HETATM   11  C   UNL     1     -18.828 -11.049  -3.815  1.00  0.00     0.049 A 
HETATM   12  C   UNL     1     -19.998 -10.420  -4.149  1.00  0.00    -0.023 A 
HETATM   13  C   UNL     1     -19.993 -11.907  -3.885  1.00  0.00     0.022 A 
HETATM   14  C   UNL     1     -21.059 -10.218  -5.200  1.00  0.00     0.017 C 
HETATM   15  C   UNL     1     -20.188  -7.597  -5.783  1.00  0.00     0.025 C 
HETATM   16  C   UNL     1     -20.928  -6.678  -7.253  1.00  0.00     0.029 C 
HETATM   17  C   UNL     1     -18.038  -8.996  -2.606  1.00  0.00     0.021 C 
HETATM   18  C   UNL     1     -22.434  -6.926  -3.049  1.00  0.00     0.016 C 
HETATM   19  C   UNL     1     -19.395  -4.952  -6.276  1.00  0.00     0.026 C 
ENDROOT
BRANCH   1  20
HETATM   20  C   UNL     1     -21.694  -4.099  -6.913  1.00  0.00     0.267 C 
HETATM   21  O   UNL     1     -21.252  -2.972  -6.689  1.00  0.00    -0.264 OA
BRANCH  20  22
HETATM   22  O   UNL     1     -22.927  -4.412  -7.347  1.00  0.00    -0.321 OA
BRANCH  22  23
HETATM   23  C   UNL     1     -23.208  -3.984  -8.673  1.00  0.00     0.178 C 
BRANCH  23  24
HETATM   24  C   UNL     1     -22.377  -4.770  -9.674  1.00  0.00     0.027 C 
BRANCH  24  25
HETATM   25  C   UNL     1     -21.305  -3.859 -10.239  1.00  0.00     0.002 C 
BRANCH  25  26
HETATM   26  C   UNL     1     -21.524  -3.627 -11.721  1.00  0.00     0.000 C 
BRANCH  26  27
HETATM   27  C   UNL     1     -22.560  -2.536 -11.922  1.00  0.00     0.000 C 
BRANCH  27  28
HETATM   28  C   UNL     1     -23.380  -2.826 -13.165  1.00  0.00     0.000 C 
BRANCH  28  29
HETATM   29  C   UNL     1     -22.926  -4.130 -13.793  1.00  0.00     0.000 C 
BRANCH  29  30
HETATM   30  C   UNL     1     -24.118  -4.869 -14.368  1.00  0.00     0.000 C 
BRANCH  30  31
HETATM   31  C   UNL     1     -23.726  -6.294 -14.711  1.00  0.00     0.000 C 
BRANCH  31  32
HETATM   32  C   UNL     1     -24.791  -6.925 -15.586  1.00  0.00     0.000 C 
BRANCH  32  33
HETATM   33  C   UNL     1     -24.225  -7.205 -16.965  1.00  0.00     0.000 C 
BRANCH  33  34
HETATM   34  C   UNL     1     -25.214  -6.767 -18.028  1.00  0.00     0.000 C 
BRANCH  34  35
HETATM   35  C   UNL     1     -26.509  -6.321 -17.375  1.00  0.00     0.000 C 
BRANCH  35  36
HETATM   36  C   UNL     1     -27.554  -6.044 -18.439  1.00  0.00     0.000 C 
BRANCH  36  37
HETATM   37  C   UNL     1     -28.930  -6.420 -17.920  1.00  0.00     0.000 C 
BRANCH  37  38
HETATM   38  C   UNL     1     -28.943  -6.376 -16.403  1.00  0.00    -0.000 C 
BRANCH  38  39
HETATM   39  C   UNL     1     -30.074  -5.488 -15.911  1.00  0.00    -0.005 C 
HETATM   40  C   UNL     1     -31.134  -5.353 -16.984  1.00  0.00     0.005 C 
ENDBRANCH  38  39
ENDBRANCH  37  38
ENDBRANCH  36  37
ENDBRANCH  35  36
ENDBRANCH  34  35
ENDBRANCH  33  34
ENDBRANCH  32  33
ENDBRANCH  31  32
ENDBRANCH  30  31
ENDBRANCH  29  30
ENDBRANCH  28  29
ENDBRANCH  27  28
ENDBRANCH  26  27
ENDBRANCH  25  26
ENDBRANCH  24  25
ENDBRANCH  23  24
ENDBRANCH  22  23
ENDBRANCH  20  22
ENDBRANCH   1  20
BRANCH  10  41
HETATM   41  O   UNL     1     -18.588 -11.822  -6.593  1.00  0.00    -0.365 OA
ATOM     42  HO  UNL     1     -18.603 -12.707  -6.249  1.00  0.00     0.217 HD
ENDBRANCH  10  41
BRANCH  11  43
HETATM   43  C   UNL     1     -19.372 -12.118  -2.140  1.00  0.00    -0.036 A 
HETATM   44  C   UNL     1     -18.148 -13.151  -1.811  1.00  0.00     0.005 A 
HETATM   45  C   UNL     1     -17.783 -12.108  -2.620  1.00  0.00     0.016 A 
HETATM   46  C   UNL     1     -17.324 -13.257  -0.528  1.00  0.00    -0.017 C 
HETATM   47  C   UNL     1     -17.553 -12.028   0.354  1.00  0.00     0.126 C 
HETATM   48  C   UNL     1     -17.627 -14.574   0.241  1.00  0.00     0.018 C 
HETATM   49  C   UNL     1     -15.860 -13.334  -0.990  1.00  0.00     0.018 C 
HETATM   50  C   UNL     1     -19.016 -11.866   0.708  1.00  0.00     0.033 C 
HETATM   51  C   UNL     1     -19.821 -11.472  -0.571  1.00  0.00     0.012 C 
HETATM   52  C   UNL     1     -20.338 -13.707  -1.520  1.00  0.00     0.015 C 
BRANCH  47  53
HETATM   53  O   UNL     1     -16.751 -12.094   1.524  1.00  0.00    -0.395 OA
HETATM   54  H   UNL     1     -16.673 -13.027   1.777  1.00  0.00     0.210 HD
ENDBRANCH  47  53
ENDBRANCH  11  43
TORSDOF 23
BEGIN_RES ARG D 557
REMARK  4 active torsions:
REMARK  status: ('A' for Active; 'I' for Inactive)
REMARK    1  A    between atoms: CA   and  CB  
REMARK    2  A    between atoms: CB   and  CG  
REMARK    3  A    between atoms: CG   and  CD  
REMARK    4  A    between atoms: CD   and  NE  
REMARK       I    between atoms: NE   and  CZ  
REMARK       I    between atoms: CZ   and  NH1 
REMARK       I    between atoms: CZ   and  NH2 
ROOT
ATOM      1  CA  ARG D 557     -26.217   2.705 -17.014  1.00 35.49     0.159 C 
ENDROOT
BRANCH   1   2
ATOM      2  CB  ARG D 557     -26.789   1.319 -17.183  1.00 35.49     0.034 C 
BRANCH   2   3
ATOM      3  CG  ARG D 557     -28.228   1.227 -17.459  1.00 35.49     0.027 C 
BRANCH   3   4
ATOM      4  CD  ARG D 557     -28.924   0.309 -16.528  1.00 35.49     0.116 C 
BRANCH   4   5
ATOM      5  NE  ARG D 557     -28.146  -0.868 -16.245  1.00 35.49    -0.212 N 
ATOM      6  CZ  ARG D 557     -28.377  -2.073 -16.715  1.00 35.49     0.666 C 
ATOM      7  NH1 ARG D 557     -29.394  -2.340 -17.513  1.00 35.49    -0.235 N 
ATOM      8  NH2 ARG D 557     -27.554  -3.021 -16.369  1.00 35.49    -0.235 N 
ATOM      9  HH  ARG D 557     -29.947  -1.731 -17.755  1.00 35.49     0.174 HD
ATOM     10  HH  ARG D 557     -29.494  -3.144 -17.791  1.00 35.49     0.174 HD
ATOM     11  HH  ARG D 557     -26.902  -2.818 -15.858  1.00 35.49     0.174 HD
ATOM     12  HH  ARG D 557     -27.669  -3.810 -16.655  1.00 35.49     0.174 HD
ATOM     13  HE  ARG D 557     -27.513  -0.802 -15.680  1.00 35.49     0.178 HD
ENDBRANCH   4   5
ENDBRANCH   3   4
ENDBRANCH   2   3
ENDBRANCH   1   2
END_RES ARG D 557
BEGIN_RES GLU D 570
REMARK  3 active torsions:
REMARK  status: ('A' for Active; 'I' for Inactive)
REMARK    5  A    between atoms: CA   and  CB  
REMARK    6  A    between atoms: CB   and  CG  
REMARK    7  A    between atoms: CG   and  CD  
ROOT
ATOM     14  CA  GLU D 570     -18.033  -6.348 -13.375  1.00 32.92     0.160 C 
ENDROOT
BRANCH  14  15
ATOM     15  CB  GLU D 570     -19.500  -6.345 -13.794  1.00 32.92     0.043 C 
BRANCH  15  16
ATOM     16  CG  GLU D 570     -20.080  -7.629 -14.264  1.00 32.92     0.100 C 
BRANCH  16  17
ATOM     17  CD  GLU D 570     -20.551  -7.573 -15.699  1.00 32.92     0.185 C 
ATOM     18  OE1 GLU D 570     -20.876  -8.631 -16.271  1.00 32.92    -0.647 OA
ATOM     19  OE2 GLU D 570     -20.580  -6.461 -16.262  1.00 32.92    -0.647 OA
ENDBRANCH  16  17
ENDBRANCH  15  16
ENDBRANCH  14  15
END_RES GLU D 570
ENDMDL
MODEL 7
REMARK VINA RESULT:      -8.6      3.964     10.704
REMARK  23 active torsions:
REMARK  status: ('A' for Active; 'I' for Inactive)
REMARK    1  A    between atoms: C_2  and  C_3 
REMARK    2  A    between atoms: C_3  and  C_4 
REMARK    3  A    between atoms: C_4  and  C_5 
REMARK    4  A    between atoms: C_5  and  C_6 
REMARK    5  A    between atoms: C_6  and  C_7 
REMARK    6  A    between atoms: C_7  and  C_8 
REMARK    7  A    between atoms: C_8  and  C_9 
REMARK    8  A    between atoms: C_9  and  C_10 
REMARK    9  A    between atoms: C_10  and  C_11 
REMARK   10  A    between atoms: C_11  and  C_12 
REMARK   11  A    between atoms: C_12  and  C_13 
REMARK   12  A    between atoms: C_13  and  C_14 
REMARK   13  A    between atoms: C_14  and  C_15 
REMARK   14  A    between atoms: C_15  and  C_16 
REMARK   15  A    between atoms: C_16  and  C_17 
REMARK   16  A    between atoms: C_17  and  C_18 
REMARK   17  A    between atoms: C_18  and  O_19 
REMARK   18  A    between atoms: O_19  and  C_20 
REMARK   19  A    between atoms: C_20  and  C_22 
REMARK   20  A    between atoms: C_31  and  O_32 
REMARK   21  A    between atoms: C_34  and  C_39 
REMARK   22  A    between atoms: C_36  and  C_37 
REMARK   23  A    between atoms: C_42  and  O_46 
ROOT
HETATM    1  C   UNL     1     -21.062  -7.990  -4.860  1.00  0.00     0.045 C 
HETATM    2  C   UNL     1     -20.834  -8.784  -3.621  1.00  0.00     0.020 C 
HETATM    3  C   UNL     1     -19.346  -8.641  -3.471  1.00  0.00     0.011 C 
HETATM    4  C   UNL     1     -19.214 -10.049  -3.401  1.00  0.00    -0.036 C 
HETATM    5  C   UNL     1     -17.775 -10.374  -3.025  1.00  0.00     0.011 C 
HETATM    6  C   UNL     1     -17.861 -11.792  -3.271  1.00  0.00     0.015 C 
HETATM    7  C   UNL     1     -17.725 -11.752  -4.765  1.00  0.00    -0.012 C 
HETATM    8  C   UNL     1     -18.605 -10.954  -5.904  1.00  0.00    -0.064 C 
HETATM    9  C   UNL     1     -18.711 -11.559  -7.137  1.00  0.00     0.036 C 
HETATM   10  C   UNL     1     -18.282 -13.179  -6.932  1.00  0.00     0.048 C 
HETATM   11  C   UNL     1     -17.371 -13.515  -5.455  1.00  0.00     0.049 A 
HETATM   12  C   UNL     1     -18.478 -13.062  -4.785  1.00  0.00    -0.023 A 
HETATM   13  C   UNL     1     -18.219 -14.546  -4.891  1.00  0.00     0.022 A 
HETATM   14  C   UNL     1     -19.978 -12.931  -4.785  1.00  0.00     0.017 C 
HETATM   15  C   UNL     1     -19.881 -10.152  -5.272  1.00  0.00     0.025 C 
HETATM   16  C   UNL     1     -21.475  -9.218  -5.647  1.00  0.00     0.029 C 
HETATM   17  C   UNL     1     -16.067 -11.502  -4.717  1.00  0.00     0.021 C 
HETATM   18  C   UNL     1     -19.646 -10.175  -1.678  1.00  0.00     0.016 C 
HETATM   19  C   UNL     1     -19.778  -7.373  -5.638  1.00  0.00     0.026 C 
ENDROOT
BRANCH   1  20
HETATM   20  C   UNL     1     -21.919  -6.860  -4.384  1.00  0.00     0.267 C 
HETATM   21  O   UNL     1     -22.919  -6.488  -4.996  1.00  0.00    -0.264 OA
BRANCH  20  22
HETATM   22  O   UNL     1     -21.341  -6.251  -3.334  1.00  0.00    -0.321 OA
BRANCH  22  23
HETATM   23  C   UNL     1     -22.186  -6.108  -2.201  1.00  0.00     0.178 C 
BRANCH  23  24
HETATM   24  C   UNL     1     -21.625  -6.878  -1.016  1.00  0.00     0.027 C 
BRANCH  24  25
HETATM   25  C   UNL     1     -22.762  -7.608  -0.327  1.00  0.00     0.002 C 
BRANCH  25  26
HETATM   26  C   UNL     1     -22.231  -8.536   0.747  1.00  0.00     0.000 C 
BRANCH  26  27
HETATM   27  C   UNL     1     -22.448  -9.979   0.331  1.00  0.00     0.000 C 
BRANCH  27  28
HETATM   28  C   UNL     1     -23.901 -10.196  -0.047  1.00  0.00     0.000 C 
BRANCH  28  29
HETATM   29  C   UNL     1     -24.039 -11.468  -0.862  1.00  0.00     0.000 C 
BRANCH  29  30
HETATM   30  C   UNL     1     -23.159 -11.390  -2.095  1.00  0.00     0.000 C 
BRANCH  30  31
HETATM   31  C   UNL     1     -22.326 -12.651  -2.215  1.00  0.00     0.000 C 
BRANCH  31  32
HETATM   32  C   UNL     1     -22.347 -13.409  -0.902  1.00  0.00     0.000 C 
BRANCH  32  33
HETATM   33  C   UNL     1     -20.955 -13.439  -0.302  1.00  0.00     0.000 C 
BRANCH  33  34
HETATM   34  C   UNL     1     -20.012 -14.187  -1.225  1.00  0.00     0.000 C 
BRANCH  34  35
HETATM   35  C   UNL     1     -18.602 -14.146  -0.666  1.00  0.00     0.000 C 
BRANCH  35  36
HETATM   36  C   UNL     1     -18.448 -12.953   0.257  1.00  0.00     0.000 C 
BRANCH  36  37
HETATM   37  C   UNL     1     -17.052 -12.372   0.121  1.00  0.00     0.000 C 
BRANCH  37  38
HETATM   38  C   UNL     1     -16.330 -12.439   1.455  1.00  0.00    -0.000 C 
BRANCH  38  39
HETATM   39  C   UNL     1     -15.454 -13.680   1.517  1.00  0.00    -0.005 C 
HETATM   40  C   UNL     1     -15.627 -14.373   2.852  1.00  0.00     0.005 C 
ENDBRANCH  38  39
ENDBRANCH  37  38
ENDBRANCH  36  37
ENDBRANCH  35  36
ENDBRANCH  34  35
ENDBRANCH  33  34
ENDBRANCH  32  33
ENDBRANCH  31  32
ENDBRANCH  30  31
ENDBRANCH  29  30
ENDBRANCH  28  29
ENDBRANCH  27  28
ENDBRANCH  26  27
ENDBRANCH  25  26
ENDBRANCH  24  25
ENDBRANCH  23  24
ENDBRANCH  22  23
ENDBRANCH  20  22
ENDBRANCH   1  20
BRANCH  10  41
HETATM   41  O   UNL     1     -19.078 -13.929  -7.753  1.00  0.00    -0.365 OA
ATOM     42  HO  UNL     1     -19.468 -14.619  -7.229  1.00  0.00     0.217 HD
ENDBRANCH  10  41
BRANCH  11  43
HETATM   43  C   UNL     1     -16.555 -14.836  -4.101  1.00  0.00    -0.036 A 
HETATM   44  C   UNL     1     -15.356 -15.637  -4.874  1.00  0.00     0.005 A 
HETATM   45  C   UNL     1     -15.716 -14.464  -5.484  1.00  0.00     0.016 A 
HETATM   46  C   UNL     1     -13.877 -15.709  -4.497  1.00  0.00    -0.017 C 
HETATM   47  C   UNL     1     -13.543 -14.647  -3.447  1.00  0.00     0.126 C 
HETATM   48  C   UNL     1     -13.478 -17.133  -4.013  1.00  0.00     0.018 C 
HETATM   49  C   UNL     1     -13.111 -15.448  -5.803  1.00  0.00     0.018 C 
HETATM   50  C   UNL     1     -14.388 -14.814  -2.203  1.00  0.00     0.033 C 
HETATM   51  C   UNL     1     -15.873 -14.457  -2.529  1.00  0.00     0.012 C 
HETATM   52  C   UNL     1     -16.721 -16.640  -3.351  1.00  0.00     0.015 C 
BRANCH  47  53
HETATM   53  O   UNL     1     -12.159 -14.674  -3.131  1.00  0.00    -0.395 OA
HETATM   54  H   UNL     1     -12.015 -14.075  -2.382  1.00  0.00     0.210 HD
ENDBRANCH  47  53
ENDBRANCH  11  43
TORSDOF 23
BEGIN_RES ARG D 557
REMARK  4 active torsions:
REMARK  status: ('A' for Active; 'I' for Inactive)
REMARK    1  A    between atoms: CA   and  CB  
REMARK    2  A    between atoms: CB   and  CG  
REMARK    3  A    between atoms: CG   and  CD  
REMARK    4  A    between atoms: CD   and  NE  
REMARK       I    between atoms: NE   and  CZ  
REMARK       I    between atoms: CZ   and  NH1 
REMARK       I    between atoms: CZ   and  NH2 
ROOT
ATOM      1  CA  ARG D 557     -26.217   2.705 -17.014  1.00 35.49     0.159 C 
ENDROOT
BRANCH   1   2
ATOM      2  CB  ARG D 557     -26.789   1.319 -17.183  1.00 35.49     0.034 C 
BRANCH   2   3
ATOM      3  CG  ARG D 557     -25.871   0.194 -16.964  1.00 35.49     0.027 C 
BRANCH   3   4
ATOM      4  CD  ARG D 557     -26.309  -0.683 -15.854  1.00 35.49     0.116 C 
BRANCH   4   5
ATOM      5  NE  ARG D 557     -25.248  -0.942 -14.917  1.00 35.49    -0.212 N 
ATOM      6  CZ  ARG D 557     -24.965  -2.108 -14.381  1.00 35.49     0.666 C 
ATOM      7  NH1 ARG D 557     -25.660  -3.199 -14.646  1.00 35.49    -0.235 N 
ATOM      8  NH2 ARG D 557     -23.952  -2.163 -13.565  1.00 35.49    -0.235 N 
ATOM      9  HH  ARG D 557     -26.329  -3.186 -15.181  1.00 35.49     0.174 HD
ATOM     10  HH  ARG D 557     -25.427  -3.932 -14.269  1.00 35.49     0.174 HD
ATOM     11  HH  ARG D 557     -23.517  -1.445 -13.418  1.00 35.49     0.174 HD
ATOM     12  HH  ARG D 557     -23.736  -2.899 -13.203  1.00 35.49     0.174 HD
ATOM     13  HE  ARG D 557     -24.795  -0.281 -14.634  1.00 35.49     0.178 HD
ENDBRANCH   4   5
ENDBRANCH   3   4
ENDBRANCH   2   3
ENDBRANCH   1   2
END_RES ARG D 557
BEGIN_RES GLU D 570
REMARK  3 active torsions:
REMARK  status: ('A' for Active; 'I' for Inactive)
REMARK    5  A    between atoms: CA   and  CB  
REMARK    6  A    between atoms: CB   and  CG  
REMARK    7  A    between atoms: CG   and  CD  
ROOT
ATOM     14  CA  GLU D 570     -18.033  -6.348 -13.375  1.00 32.92     0.160 C 
ENDROOT
BRANCH  14  15
ATOM     15  CB  GLU D 570     -19.500  -6.345 -13.794  1.00 32.92     0.043 C 
BRANCH  15  16
ATOM     16  CG  GLU D 570     -20.433  -5.492 -13.013  1.00 32.92     0.100 C 
BRANCH  16  17
ATOM     17  CD  GLU D 570     -21.691  -5.144 -13.775  1.00 32.92     0.185 C 
ATOM     18  OE1 GLU D 570     -21.611  -4.897 -14.994  1.00 32.92    -0.647 OA
ATOM     19  OE2 GLU D 570     -22.764  -5.101 -13.143  1.00 32.92    -0.647 OA
ENDBRANCH  16  17
ENDBRANCH  15  16
ENDBRANCH  14  15
END_RES GLU D 570
ENDMDL
MODEL 8
REMARK VINA RESULT:      -8.5      3.884      8.564
REMARK  23 active torsions:
REMARK  status: ('A' for Active; 'I' for Inactive)
REMARK    1  A    between atoms: C_2  and  C_3 
REMARK    2  A    between atoms: C_3  and  C_4 
REMARK    3  A    between atoms: C_4  and  C_5 
REMARK    4  A    between atoms: C_5  and  C_6 
REMARK    5  A    between atoms: C_6  and  C_7 
REMARK    6  A    between atoms: C_7  and  C_8 
REMARK    7  A    between atoms: C_8  and  C_9 
REMARK    8  A    between atoms: C_9  and  C_10 
REMARK    9  A    between atoms: C_10  and  C_11 
REMARK   10  A    between atoms: C_11  and  C_12 
REMARK   11  A    between atoms: C_12  and  C_13 
REMARK   12  A    between atoms: C_13  and  C_14 
REMARK   13  A    between atoms: C_14  and  C_15 
REMARK   14  A    between atoms: C_15  and  C_16 
REMARK   15  A    between atoms: C_16  and  C_17 
REMARK   16  A    between atoms: C_17  and  C_18 
REMARK   17  A    between atoms: C_18  and  O_19 
REMARK   18  A    between atoms: O_19  and  C_20 
REMARK   19  A    between atoms: C_20  and  C_22 
REMARK   20  A    between atoms: C_31  and  O_32 
REMARK   21  A    between atoms: C_34  and  C_39 
REMARK   22  A    between atoms: C_36  and  C_37 
REMARK   23  A    between atoms: C_42  and  O_46 
ROOT
HETATM    1  C   UNL     1     -15.327 -15.948  -3.086  1.00  0.00     0.045 C 
HETATM    2  C   UNL     1     -16.325 -15.270  -3.961  1.00  0.00     0.020 C 
HETATM    3  C   UNL     1     -16.146 -13.842  -3.529  1.00  0.00     0.011 C 
HETATM    4  C   UNL     1     -17.535 -13.740  -3.277  1.00  0.00    -0.036 C 
HETATM    5  C   UNL     1     -17.859 -12.282  -2.980  1.00  0.00     0.011 C 
HETATM    6  C   UNL     1     -19.210 -12.507  -2.530  1.00  0.00     0.015 C 
HETATM    7  C   UNL     1     -18.891 -12.979  -1.142  1.00  0.00    -0.012 C 
HETATM    8  C   UNL     1     -17.938 -14.214  -0.619  1.00  0.00    -0.064 C 
HETATM    9  C   UNL     1     -18.311 -14.824   0.558  1.00  0.00     0.036 C 
HETATM   10  C   UNL     1     -19.921 -14.404   0.846  1.00  0.00     0.048 C 
HETATM   11  C   UNL     1     -20.480 -12.990  -0.055  1.00  0.00     0.049 A 
HETATM   12  C   UNL     1     -20.208 -13.720  -1.181  1.00  0.00    -0.023 A 
HETATM   13  C   UNL     1     -21.634 -13.575  -0.708  1.00  0.00     0.022 A 
HETATM   14  C   UNL     1     -20.145 -15.090  -1.805  1.00  0.00     0.017 C 
HETATM   15  C   UNL     1     -17.322 -15.103  -1.844  1.00  0.00     0.025 C 
HETATM   16  C   UNL     1     -16.408 -16.682  -2.317  1.00  0.00     0.029 C 
HETATM   17  C   UNL     1     -18.581 -11.433  -0.570  1.00  0.00     0.021 C 
HETATM   18  C   UNL     1     -17.993 -13.451  -4.973  1.00  0.00     0.016 C 
HETATM   19  C   UNL     1     -14.522 -15.063  -1.990  1.00  0.00     0.026 C 
ENDROOT
BRANCH   1  20
HETATM   20  C   UNL     1     -14.343 -16.504  -4.066  1.00  0.00     0.267 C 
HETATM   21  O   UNL     1     -13.378 -17.183  -3.717  1.00  0.00    -0.264 OA
BRANCH  20  22
HETATM   22  O   UNL     1     -14.585 -16.016  -5.295  1.00  0.00    -0.321 OA
BRANCH  22  23
HETATM   23  C   UNL     1     -13.428 -15.562  -5.983  1.00  0.00     0.178 C 
BRANCH  23  24
HETATM   24  C   UNL     1     -13.328 -14.047  -5.918  1.00  0.00     0.027 C 
BRANCH  24  25
HETATM   25  C   UNL     1     -14.583 -13.449  -6.523  1.00  0.00     0.002 C 
BRANCH  25  26
HETATM   26  C   UNL     1     -14.422 -11.956  -6.727  1.00  0.00     0.000 C 
BRANCH  26  27
HETATM   27  C   UNL     1     -15.703 -11.243  -6.335  1.00  0.00     0.000 C 
BRANCH  27  28
HETATM   28  C   UNL     1     -15.470 -10.409  -5.090  1.00  0.00     0.000 C 
BRANCH  28  29
HETATM   29  C   UNL     1     -16.739  -9.664  -4.721  1.00  0.00     0.000 C 
BRANCH  29  30
HETATM   30  C   UNL     1     -17.746  -9.769  -5.850  1.00  0.00     0.000 C 
BRANCH  30  31
HETATM   31  C   UNL     1     -19.152  -9.830  -5.284  1.00  0.00     0.000 C 
BRANCH  31  32
HETATM   32  C   UNL     1     -19.486  -8.523  -4.592  1.00  0.00     0.000 C 
BRANCH  32  33
HETATM   33  C   UNL     1     -20.677  -7.872  -5.269  1.00  0.00     0.000 C 
BRANCH  33  34
HETATM   34  C   UNL     1     -20.981  -6.540  -4.610  1.00  0.00     0.000 C 
BRANCH  34  35
HETATM   35  C   UNL     1     -21.137  -5.464  -5.667  1.00  0.00     0.000 C 
BRANCH  35  36
HETATM   36  C   UNL     1     -19.776  -4.921  -6.056  1.00  0.00     0.000 C 
BRANCH  36  37
HETATM   37  C   UNL     1     -19.796  -4.466  -7.504  1.00  0.00     0.000 C 
BRANCH  37  38
HETATM   38  C   UNL     1     -21.178  -4.682  -8.096  1.00  0.00    -0.000 C 
BRANCH  38  39
HETATM   39  C   UNL     1     -21.271  -4.028  -9.466  1.00  0.00    -0.005 C 
HETATM   40  C   UNL     1     -22.680  -4.149 -10.006  1.00  0.00     0.005 C 
ENDBRANCH  38  39
ENDBRANCH  37  38
ENDBRANCH  36  37
ENDBRANCH  35  36
ENDBRANCH  34  35
ENDBRANCH  33  34
ENDBRANCH  32  33
ENDBRANCH  31  32
ENDBRANCH  30  31
ENDBRANCH  29  30
ENDBRANCH  28  29
ENDBRANCH  27  28
ENDBRANCH  26  27
ENDBRANCH  25  26
ENDBRANCH  24  25
ENDBRANCH  23  24
ENDBRANCH  22  23
ENDBRANCH  20  22
ENDBRANCH   1  20
BRANCH  10  41
HETATM   41  O   UNL     1     -20.542 -15.487   1.405  1.00  0.00    -0.365 OA
ATOM     42  HO  UNL     1     -21.217 -15.164   1.991  1.00  0.00     0.217 HD
ENDBRANCH  10  41
BRANCH  11  43
HETATM   43  C   UNL     1     -21.990 -11.744  -0.699  1.00  0.00    -0.036 A 
HETATM   44  C   UNL     1     -22.172 -10.582   0.437  1.00  0.00     0.005 A 
HETATM   45  C   UNL     1     -20.967 -11.231   0.503  1.00  0.00     0.016 A 
HETATM   46  C   UNL     1     -22.051  -9.069   0.263  1.00  0.00    -0.017 C 
HETATM   47  C   UNL     1     -21.396  -8.738  -1.079  1.00  0.00     0.126 C 
HETATM   48  C   UNL     1     -23.428  -8.362   0.415  1.00  0.00     0.018 C 
HETATM   49  C   UNL     1     -21.173  -8.594   1.432  1.00  0.00     0.018 C 
HETATM   50  C   UNL     1     -22.184  -9.315  -2.236  1.00  0.00     0.033 C 
HETATM   51  C   UNL     1     -22.068 -10.873  -2.220  1.00  0.00     0.012 C 
HETATM   52  C   UNL     1     -23.932 -11.478  -0.698  1.00  0.00     0.015 C 
BRANCH  47  53
HETATM   53  O   UNL     1     -21.233  -7.335  -1.225  1.00  0.00    -0.395 OA
HETATM   54  H   UNL     1     -20.306  -7.167  -1.455  1.00  0.00     0.210 HD
ENDBRANCH  47  53
ENDBRANCH  11  43
TORSDOF 23
BEGIN_RES ARG D 557
REMARK  4 active torsions:
REMARK  status: ('A' for Active; 'I' for Inactive)
REMARK    1  A    between atoms: CA   and  CB  
REMARK    2  A    between atoms: CB   and  CG  
REMARK    3  A    between atoms: CG   and  CD  
REMARK    4  A    between atoms: CD   and  NE  
REMARK       I    between atoms: NE   and  CZ  
REMARK       I    between atoms: CZ   and  NH1 
REMARK       I    between atoms: CZ   and  NH2 
ROOT
ATOM      1  CA  ARG D 557     -26.217   2.705 -17.014  1.00 35.49     0.159 C 
ENDROOT
BRANCH   1   2
ATOM      2  CB  ARG D 557     -26.789   1.319 -17.183  1.00 35.49     0.034 C 
BRANCH   2   3
ATOM      3  CG  ARG D 557     -25.870   0.194 -16.968  1.00 35.49     0.027 C 
BRANCH   3   4
ATOM      4  CD  ARG D 557     -26.313  -0.694 -15.869  1.00 35.49     0.116 C 
BRANCH   4   5
ATOM      5  NE  ARG D 557     -25.258  -0.958 -14.927  1.00 35.49    -0.212 N 
ATOM      6  CZ  ARG D 557     -25.001  -2.119 -14.367  1.00 35.49     0.666 C 
ATOM      7  NH1 ARG D 557     -25.720  -3.199 -14.611  1.00 35.49    -0.235 N 
ATOM      8  NH2 ARG D 557     -23.989  -2.181 -13.551  1.00 35.49    -0.235 N 
ATOM      9  HH  ARG D 557     -26.389  -3.181 -15.146  1.00 35.49     0.174 HD
ATOM     10  HH  ARG D 557     -25.504  -3.929 -14.219  1.00 35.49     0.174 HD
ATOM     11  HH  ARG D 557     -23.537  -1.470 -13.418  1.00 35.49     0.174 HD
ATOM     12  HH  ARG D 557     -23.790  -2.914 -13.174  1.00 35.49     0.174 HD
ATOM     13  HE  ARG D 557     -24.789  -0.301 -14.657  1.00 35.49     0.178 HD
ENDBRANCH   4   5
ENDBRANCH   3   4
ENDBRANCH   2   3
ENDBRANCH   1   2
END_RES ARG D 557
BEGIN_RES GLU D 570
REMARK  3 active torsions:
REMARK  status: ('A' for Active; 'I' for Inactive)
REMARK    5  A    between atoms: CA   and  CB  
REMARK    6  A    between atoms: CB   and  CG  
REMARK    7  A    between atoms: CG   and  CD  
ROOT
ATOM     14  CA  GLU D 570     -18.033  -6.348 -13.375  1.00 32.92     0.160 C 
ENDROOT
BRANCH  14  15
ATOM     15  CB  GLU D 570     -19.500  -6.345 -13.794  1.00 32.92     0.043 C 
BRANCH  15  16
ATOM     16  CG  GLU D 570     -20.429  -5.477 -13.026  1.00 32.92     0.100 C 
BRANCH  16  17
ATOM     17  CD  GLU D 570     -21.680  -5.125 -13.797  1.00 32.92     0.185 C 
ATOM     18  OE1 GLU D 570     -21.581  -4.807 -14.998  1.00 32.92    -0.647 OA
ATOM     19  OE2 GLU D 570     -22.769  -5.152 -13.190  1.00 32.92    -0.647 OA
ENDBRANCH  16  17
ENDBRANCH  15  16
ENDBRANCH  14  15
END_RES GLU D 570
ENDMDL
MODEL 9
REMARK VINA RESULT:      -7.8      1.897      3.815
REMARK  23 active torsions:
REMARK  status: ('A' for Active; 'I' for Inactive)
REMARK    1  A    between atoms: C_2  and  C_3 
REMARK    2  A    between atoms: C_3  and  C_4 
REMARK    3  A    between atoms: C_4  and  C_5 
REMARK    4  A    between atoms: C_5  and  C_6 
REMARK    5  A    between atoms: C_6  and  C_7 
REMARK    6  A    between atoms: C_7  and  C_8 
REMARK    7  A    between atoms: C_8  and  C_9 
REMARK    8  A    between atoms: C_9  and  C_10 
REMARK    9  A    between atoms: C_10  and  C_11 
REMARK   10  A    between atoms: C_11  and  C_12 
REMARK   11  A    between atoms: C_12  and  C_13 
REMARK   12  A    between atoms: C_13  and  C_14 
REMARK   13  A    between atoms: C_14  and  C_15 
REMARK   14  A    between atoms: C_15  and  C_16 
REMARK   15  A    between atoms: C_16  and  C_17 
REMARK   16  A    between atoms: C_17  and  C_18 
REMARK   17  A    between atoms: C_18  and  O_19 
REMARK   18  A    between atoms: O_19  and  C_20 
REMARK   19  A    between atoms: C_20  and  C_22 
REMARK   20  A    between atoms: C_31  and  O_32 
REMARK   21  A    between atoms: C_34  and  C_39 
REMARK   22  A    between atoms: C_36  and  C_37 
REMARK   23  A    between atoms: C_42  and  O_46 
ROOT
HETATM    1  C   UNL     1     -20.250  -5.068  -6.999  1.00  0.00     0.045 C 
HETATM    2  C   UNL     1     -21.518  -5.575  -6.403  1.00  0.00     0.020 C 
HETATM    3  C   UNL     1     -21.157  -5.573  -4.945  1.00  0.00     0.011 C 
HETATM    4  C   UNL     1     -21.541  -6.932  -4.845  1.00  0.00    -0.036 C 
HETATM    5  C   UNL     1     -21.522  -7.324  -3.373  1.00  0.00     0.011 C 
HETATM    6  C   UNL     1     -21.687  -8.741  -3.583  1.00  0.00     0.015 C 
HETATM    7  C   UNL     1     -20.267  -9.064  -3.945  1.00  0.00    -0.012 C 
HETATM    8  C   UNL     1     -19.293  -8.456  -5.124  1.00  0.00    -0.064 C 
HETATM    9  C   UNL     1     -18.352  -9.314  -5.650  1.00  0.00     0.036 C 
HETATM   10  C   UNL     1     -18.822 -10.881  -5.233  1.00  0.00     0.048 C 
HETATM   11  C   UNL     1     -19.978 -10.967  -3.898  1.00  0.00     0.049 A 
HETATM   12  C   UNL     1     -20.818 -10.248  -4.706  1.00  0.00    -0.023 A 
HETATM   13  C   UNL     1     -21.022 -11.735  -4.547  1.00  0.00     0.022 A 
HETATM   14  C   UNL     1     -21.250  -9.948  -6.118  1.00  0.00     0.017 C 
HETATM   15  C   UNL     1     -20.061  -7.387  -6.093  1.00  0.00     0.025 C 
HETATM   16  C   UNL     1     -19.973  -6.389  -7.689  1.00  0.00     0.029 C 
HETATM   17  C   UNL     1     -19.732  -9.003  -2.357  1.00  0.00     0.021 C 
HETATM   18  C   UNL     1     -23.284  -6.605  -4.689  1.00  0.00     0.016 C 
HETATM   19  C   UNL     1     -18.982  -4.800  -6.022  1.00  0.00     0.026 C 
ENDROOT
BRANCH   1  20
HETATM   20  C   UNL     1     -20.662  -3.767  -7.613  1.00  0.00     0.267 C 
HETATM   21  O   UNL     1     -21.737  -3.226  -7.352  1.00  0.00    -0.264 OA
BRANCH  20  22
HETATM   22  O   UNL     1     -19.788  -3.408  -8.569  1.00  0.00    -0.321 OA
BRANCH  22  23
HETATM   23  C   UNL     1     -20.380  -3.135  -9.831  1.00  0.00     0.178 C 
BRANCH  23  24
HETATM   24  C   UNL     1     -20.448  -4.398 -10.674  1.00  0.00     0.027 C 
BRANCH  24  25
HETATM   25  C   UNL     1     -21.669  -4.320 -11.570  1.00  0.00     0.002 C 
BRANCH  25  26
HETATM   26  C   UNL     1     -22.190  -2.899 -11.645  1.00  0.00     0.000 C 
BRANCH  26  27
HETATM   27  C   UNL     1     -23.510  -2.874 -12.393  1.00  0.00     0.000 C 
BRANCH  27  28
HETATM   28  C   UNL     1     -23.287  -3.245 -13.847  1.00  0.00     0.000 C 
BRANCH  28  29
HETATM   29  C   UNL     1     -24.273  -4.320 -14.263  1.00  0.00     0.000 C 
BRANCH  29  30
HETATM   30  C   UNL     1     -23.561  -5.654 -14.383  1.00  0.00     0.000 C 
BRANCH  30  31
HETATM   31  C   UNL     1     -24.423  -6.631 -15.159  1.00  0.00     0.000 C 
BRANCH  31  32
HETATM   32  C   UNL     1     -25.680  -5.936 -15.644  1.00  0.00     0.000 C 
BRANCH  32  33
HETATM   33  C   UNL     1     -26.852  -6.897 -15.593  1.00  0.00     0.000 C 
BRANCH  33  34
HETATM   34  C   UNL     1     -27.826  -6.582 -16.713  1.00  0.00     0.000 C 
BRANCH  34  35
HETATM   35  C   UNL     1     -27.075  -6.034 -17.911  1.00  0.00     0.000 C 
BRANCH  35  36
HETATM   36  C   UNL     1     -27.900  -6.227 -19.169  1.00  0.00     0.000 C 
BRANCH  36  37
HETATM   37  C   UNL     1     -26.996  -6.197 -20.389  1.00  0.00     0.000 C 
BRANCH  37  38
HETATM   38  C   UNL     1     -26.382  -7.567 -20.613  1.00  0.00    -0.000 C 
BRANCH  38  39
HETATM   39  C   UNL     1     -24.887  -7.439 -20.858  1.00  0.00    -0.005 C 
HETATM   40  C   UNL     1     -24.151  -7.325 -19.539  1.00  0.00     0.005 C 
ENDBRANCH  38  39
ENDBRANCH  37  38
ENDBRANCH  36  37
ENDBRANCH  35  36
ENDBRANCH  34  35
ENDBRANCH  33  34
ENDBRANCH  32  33
ENDBRANCH  31  32
ENDBRANCH  30  31
ENDBRANCH  29  30
ENDBRANCH  28  29
ENDBRANCH  27  28
ENDBRANCH  26  27
ENDBRANCH  25  26
ENDBRANCH  24  25
ENDBRANCH  23  24
ENDBRANCH  22  23
ENDBRANCH  20  22
ENDBRANCH   1  20
BRANCH  10  41
HETATM   41  O   UNL     1     -18.510 -11.704  -6.280  1.00  0.00    -0.365 OA
ATOM     42  HO  UNL     1     -19.165 -12.390  -6.315  1.00  0.00     0.217 HD
ENDBRANCH  10  41
BRANCH  11  43
HETATM   43  C   UNL     1     -21.303 -12.025  -2.727  1.00  0.00    -0.036 A 
HETATM   44  C   UNL     1     -20.416 -13.002  -1.761  1.00  0.00     0.005 A 
HETATM   45  C   UNL     1     -19.702 -11.960  -2.292  1.00  0.00     0.016 A 
HETATM   46  C   UNL     1     -20.397 -13.049  -0.233  1.00  0.00    -0.017 C 
HETATM   47  C   UNL     1     -21.088 -11.814   0.347  1.00  0.00     0.126 C 
HETATM   48  C   UNL     1     -21.030 -14.363   0.308  1.00  0.00     0.018 C 
HETATM   49  C   UNL     1     -18.910 -13.077   0.154  1.00  0.00     0.018 C 
HETATM   50  C   UNL     1     -22.519 -11.704  -0.134  1.00  0.00     0.033 C 
HETATM   51  C   UNL     1     -22.532 -11.368  -1.660  1.00  0.00     0.012 C 
HETATM   52  C   UNL     1     -22.412 -13.639  -2.653  1.00  0.00     0.015 C 
BRANCH  47  53
HETATM   53  O   UNL     1     -21.028 -11.826   1.765  1.00  0.00    -0.395 OA
HETATM   54  H   UNL     1     -20.732 -12.707   2.042  1.00  0.00     0.210 HD
ENDBRANCH  47  53
ENDBRANCH  11  43
TORSDOF 23
BEGIN_RES ARG D 557
REMARK  4 active torsions:
REMARK  status: ('A' for Active; 'I' for Inactive)
REMARK    1  A    between atoms: CA   and  CB  
REMARK    2  A    between atoms: CB   and  CG  
REMARK    3  A    between atoms: CG   and  CD  
REMARK    4  A    between atoms: CD   and  NE  
REMARK       I    between atoms: NE   and  CZ  
REMARK       I    between atoms: CZ   and  NH1 
REMARK       I    between atoms: CZ   and  NH2 
ROOT
ATOM      1  CA  ARG D 557     -26.217   2.705 -17.014  1.00 35.49     0.159 C 
ENDROOT
BRANCH   1   2
ATOM      2  CB  ARG D 557     -26.789   1.319 -17.183  1.00 35.49     0.034 C 
BRANCH   2   3
ATOM      3  CG  ARG D 557     -28.228   1.227 -17.459  1.00 35.49     0.027 C 
BRANCH   3   4
ATOM      4  CD  ARG D 557     -28.925   0.315 -16.523  1.00 35.49     0.116 C 
BRANCH   4   5
ATOM      5  NE  ARG D 557     -29.306  -0.921 -17.154  1.00 35.49    -0.212 N 
ATOM      6  CZ  ARG D 557     -28.670  -2.066 -17.047  1.00 35.49     0.666 C 
ATOM      7  NH1 ARG D 557     -27.567  -2.201 -16.335  1.00 35.49    -0.235 N 
ATOM      8  NH2 ARG D 557     -29.171  -3.092 -17.672  1.00 35.49    -0.235 N 
ATOM      9  HH  ARG D 557     -27.220  -1.540 -15.914  1.00 35.49     0.174 HD
ATOM     10  HH  ARG D 557     -27.197  -2.973 -16.300  1.00 35.49     0.174 HD
ATOM     11  HH  ARG D 557     -29.889  -2.977 -18.119  1.00 35.49     0.174 HD
ATOM     12  HH  ARG D 557     -28.791  -3.848 -17.624  1.00 35.49     0.174 HD
ATOM     13  HE  ARG D 557     -29.965  -0.909 -17.691  1.00 35.49     0.178 HD
ENDBRANCH   4   5
ENDBRANCH   3   4
ENDBRANCH   2   3
ENDBRANCH   1   2
END_RES ARG D 557
BEGIN_RES GLU D 570
REMARK  3 active torsions:
REMARK  status: ('A' for Active; 'I' for Inactive)
REMARK    5  A    between atoms: CA   and  CB  
REMARK    6  A    between atoms: CB   and  CG  
REMARK    7  A    between atoms: CG   and  CD  
ROOT
ATOM     14  CA  GLU D 570     -18.033  -6.348 -13.375  1.00 32.92     0.160 C 
ENDROOT
BRANCH  14  15
ATOM     15  CB  GLU D 570     -19.500  -6.345 -13.794  1.00 32.92     0.043 C 
BRANCH  15  16
ATOM     16  CG  GLU D 570     -20.099  -7.643 -14.197  1.00 32.92     0.100 C 
BRANCH  16  17
ATOM     17  CD  GLU D 570     -20.574  -7.653 -15.632  1.00 32.92     0.185 C 
ATOM     18  OE1 GLU D 570     -20.744  -6.568 -16.221  1.00 32.92    -0.647 OA
ATOM     19  OE2 GLU D 570     -20.794  -8.757 -16.167  1.00 32.92    -0.647 OA
ENDBRANCH  16  17
ENDBRANCH  15  16
ENDBRANCH  14  15
END_RES GLU D 570
ENDMDL
