MODEL 1
REMARK VINA RESULT:      -7.3      0.000      0.000
REMARK  17 active torsions:
REMARK  status: ('A' for Active; 'I' for Inactive)
REMARK    1  A    between atoms: C_1  and  C_2 
REMARK    2  A    between atoms: C_1  and  O_24 
REMARK    3  A    between atoms: C_3  and  O_23 
REMARK    4  A    between atoms: C_4  and  O_22 
REMARK    5  A    between atoms: C_5  and  O_21 
REMARK    6  A    between atoms: C_6  and  O_8 
REMARK    7  A    between atoms: O_8  and  C_9 
REMARK    8  A    between atoms: C_9  and  C_10 
REMARK    9  A    between atoms: C_9  and  C_14 
REMARK   10  A    between atoms: C_10  and  C_11 
REMARK   11  A    between atoms: C_10  and  O_13 
REMARK   12  A    between atoms: C_11  and  O_12 
REMARK   13  A    between atoms: C_14  and  C_15 
REMARK   14  A    between atoms: C_14  and  O_20 
REMARK   15  A    between atoms: C_15  and  C_16 
REMARK   16  A    between atoms: C_15  and  O_19 
REMARK   17  A    between atoms: C_16  and  O_18 
ROOT
HETATM    1  C   UNL     1     -23.888  -3.129 -14.396  1.00  0.00     0.187 C 
ENDROOT
BRANCH   1   2
HETATM    2  O   UNL     1     -25.164  -3.819 -14.395  1.00  0.00    -0.348 OA
BRANCH   2   3
HETATM    3  C   UNL     1     -25.369  -4.868 -15.365  1.00  0.00     0.292 C 
HETATM    4  C   UNL     1     -26.836  -4.728 -15.834  1.00  0.00     0.204 C 
HETATM    5  C   UNL     1     -27.192  -5.854 -16.805  1.00  0.00     0.183 C 
HETATM    6  C   UNL     1     -26.947  -7.222 -16.148  1.00  0.00     0.180 C 
HETATM    7  C   UNL     1     -25.508  -7.296 -15.606  1.00  0.00     0.179 C 
HETATM    8  O   UNL     1     -25.149  -6.153 -14.780  1.00  0.00    -0.348 OA
BRANCH   4   9
HETATM    9  O   UNL     1     -27.731  -4.808 -14.695  1.00  0.00    -0.388 OA
HETATM   10  H   UNL     1     -28.621  -4.912 -15.085  1.00  0.00     0.210 HD
ENDBRANCH   4   9
BRANCH   5  11
HETATM   11  O   UNL     1     -28.555  -5.725 -17.215  1.00  0.00    -0.390 OA
HETATM   12  H   UNL     1     -28.706  -6.441 -17.865  1.00  0.00     0.210 HD
ENDBRANCH   5  11
BRANCH   6  13
HETATM   13  O   UNL     1     -27.877  -7.449 -15.077  1.00  0.00    -0.390 OA
HETATM   14  H   UNL     1     -28.557  -6.745 -15.126  1.00  0.00     0.210 HD
ENDBRANCH   6  13
BRANCH   7  15
HETATM   15  C   UNL     1     -24.487  -7.497 -16.739  1.00  0.00     0.198 C 
BRANCH  15  16
HETATM   16  O   UNL     1     -23.530  -8.483 -16.361  1.00  0.00    -0.398 OA
HETATM   17  H   UNL     1     -23.331  -8.980 -17.174  1.00  0.00     0.209 HD
ENDBRANCH  15  16
ENDBRANCH   7  15
ENDBRANCH   2   3
ENDBRANCH   1   2
BRANCH   1  18
HETATM   18  C   UNL     1     -24.043  -1.573 -14.379  1.00  0.00     0.173 C 
BRANCH  18  19
HETATM   19  C   UNL     1     -23.251  -0.794 -15.444  1.00  0.00     0.198 C 
BRANCH  19  20
HETATM   20  O   UNL     1     -23.949   0.405 -15.791  1.00  0.00    -0.398 OA
HETATM   21  H   UNL     1     -24.261   0.804 -14.957  1.00  0.00     0.209 HD
ENDBRANCH  19  20
ENDBRANCH  18  19
BRANCH  18  22
HETATM   22  O   UNL     1     -25.427  -1.219 -14.611  1.00  0.00    -0.391 OA
HETATM   23  H   UNL     1     -25.767  -0.807 -13.795  1.00  0.00     0.210 HD
ENDBRANCH  18  22
ENDBRANCH   1  18
BRANCH   1  24
HETATM   24  C   UNL     1     -23.110  -3.669 -13.146  1.00  0.00     0.189 C 
BRANCH  24  25
HETATM   25  C   UNL     1     -23.090  -2.741 -11.917  1.00  0.00     0.246 C 
BRANCH  25  26
HETATM   26  C   UNL     1     -23.964  -3.258 -10.771  1.00  0.00     0.172 C 
HETATM   27  O   UNL     1     -25.178  -3.197 -10.732  1.00  0.00    -0.648 OA
BRANCH  26  28
HETATM   28  O   UNL     1     -23.219  -3.859  -9.807  1.00  0.00    -0.774 OA
HETATM   29  H   UNL     1     -23.418  -3.428  -8.939  1.00  0.00     0.167 HD
ENDBRANCH  26  28
ENDBRANCH  25  26
BRANCH  25  30
HETATM   30  O   UNL     1     -21.742  -2.697 -11.377  1.00  0.00    -0.382 OA
HETATM   31  H   UNL     1     -21.420  -1.784 -11.553  1.00  0.00     0.210 HD
ENDBRANCH  25  30
ENDBRANCH  24  25
BRANCH  24  32
HETATM   32  O   UNL     1     -23.545  -4.958 -12.696  1.00  0.00    -0.390 OA
HETATM   33  H   UNL     1     -24.460  -4.878 -12.361  1.00  0.00     0.210 HD
ENDBRANCH  24  32
ENDBRANCH   1  24
TORSDOF 17
BEGIN_RES ARG D 557
REMARK  4 active torsions:
REMARK  status: ('A' for Active; 'I' for Inactive)
REMARK    1  A    between atoms: CA   and  CB  
REMARK    2  A    between atoms: CB   and  CG  
REMARK    3  A    between atoms: CG   and  CD  
REMARK    4  A    between atoms: CD   and  NE  
REMARK       I    between atoms: NE   and  CZ  
REMARK       I    between atoms: CZ   and  NH1 
REMARK       I    between atoms: CZ   and  NH2 
ROOT
ATOM      1  CA  ARG D 557     -26.217   2.705 -17.014  1.00 35.49     0.159 C 
ENDROOT
BRANCH   1   2
ATOM      2  CB  ARG D 557     -26.789   1.319 -17.183  1.00 35.49     0.034 C 
BRANCH   2   3
ATOM      3  CG  ARG D 557     -28.204   1.230 -17.564  1.00 35.49     0.027 C 
BRANCH   3   4
ATOM      4  CD  ARG D 557     -28.999   0.433 -16.602  1.00 35.49     0.116 C 
BRANCH   4   5
ATOM      5  NE  ARG D 557     -29.431  -0.820 -17.162  1.00 35.49    -0.212 N 
ATOM      6  CZ  ARG D 557     -28.796  -1.966 -17.062  1.00 35.49     0.666 C 
ATOM      7  NH1 ARG D 557     -27.646  -2.086 -16.425  1.00 35.49    -0.235 N 
ATOM      8  NH2 ARG D 557     -29.347  -3.008 -17.615  1.00 35.49    -0.235 N 
ATOM      9  HH  ARG D 557     -27.267  -1.415 -16.052  1.00 35.49     0.174 HD
ATOM     10  HH  ARG D 557     -27.279  -2.860 -16.390  1.00 35.49     0.174 HD
ATOM     11  HH  ARG D 557     -30.093  -2.902 -18.013  1.00 35.49     0.174 HD
ATOM     12  HH  ARG D 557     -28.969  -3.765 -17.568  1.00 35.49     0.174 HD
ATOM     13  HE  ARG D 557     -30.127  -0.820 -17.651  1.00 35.49     0.178 HD
ENDBRANCH   4   5
ENDBRANCH   3   4
ENDBRANCH   2   3
ENDBRANCH   1   2
END_RES ARG D 557
BEGIN_RES GLU D 570
REMARK  3 active torsions:
REMARK  status: ('A' for Active; 'I' for Inactive)
REMARK    5  A    between atoms: CA   and  CB  
REMARK    6  A    between atoms: CB   and  CG  
REMARK    7  A    between atoms: CG   and  CD  
ROOT
ATOM     14  CA  GLU D 570     -18.033  -6.348 -13.375  1.00 32.92     0.160 C 
ENDROOT
BRANCH  14  15
ATOM     15  CB  GLU D 570     -19.500  -6.345 -13.794  1.00 32.92     0.043 C 
BRANCH  15  16
ATOM     16  CG  GLU D 570     -19.809  -5.985 -15.202  1.00 32.92     0.100 C 
BRANCH  16  17
ATOM     17  CD  GLU D 570     -21.292  -5.880 -15.472  1.00 32.92     0.185 C 
ATOM     18  OE1 GLU D 570     -21.689  -5.135 -16.388  1.00 32.92    -0.647 OA
ATOM     19  OE2 GLU D 570     -22.066  -6.537 -14.748  1.00 32.92    -0.647 OA
ENDBRANCH  16  17
ENDBRANCH  15  16
ENDBRANCH  14  15
END_RES GLU D 570
ENDMDL
MODEL 2
REMARK VINA RESULT:      -6.9      1.705      5.447
REMARK  17 active torsions:
REMARK  status: ('A' for Active; 'I' for Inactive)
REMARK    1  A    between atoms: C_1  and  C_2 
REMARK    2  A    between atoms: C_1  and  O_24 
REMARK    3  A    between atoms: C_3  and  O_23 
REMARK    4  A    between atoms: C_4  and  O_22 
REMARK    5  A    between atoms: C_5  and  O_21 
REMARK    6  A    between atoms: C_6  and  O_8 
REMARK    7  A    between atoms: O_8  and  C_9 
REMARK    8  A    between atoms: C_9  and  C_10 
REMARK    9  A    between atoms: C_9  and  C_14 
REMARK   10  A    between atoms: C_10  and  C_11 
REMARK   11  A    between atoms: C_10  and  O_13 
REMARK   12  A    between atoms: C_11  and  O_12 
REMARK   13  A    between atoms: C_14  and  C_15 
REMARK   14  A    between atoms: C_14  and  O_20 
REMARK   15  A    between atoms: C_15  and  C_16 
REMARK   16  A    between atoms: C_15  and  O_19 
REMARK   17  A    between atoms: C_16  and  O_18 
ROOT
HETATM    1  C   UNL     1     -24.761  -3.656 -13.766  1.00  0.00     0.187 C 
ENDROOT
BRANCH   1   2
HETATM    2  O   UNL     1     -23.860  -4.519 -13.025  1.00  0.00    -0.348 OA
BRANCH   2   3
HETATM    3  C   UNL     1     -23.320  -4.025 -11.780  1.00  0.00     0.292 C 
HETATM    4  C   UNL     1     -21.967  -3.368 -12.140  1.00  0.00     0.204 C 
HETATM    5  C   UNL     1     -21.260  -2.886 -10.873  1.00  0.00     0.183 C 
HETATM    6  C   UNL     1     -21.066  -4.054  -9.893  1.00  0.00     0.180 C 
HETATM    7  C   UNL     1     -22.414  -4.748  -9.629  1.00  0.00     0.179 C 
HETATM    8  O   UNL     1     -23.128  -5.093 -10.849  1.00  0.00    -0.348 OA
BRANCH   4   9
HETATM    9  O   UNL     1     -21.109  -4.330 -12.803  1.00  0.00    -0.388 OA
HETATM   10  H   UNL     1     -20.879  -3.912 -13.657  1.00  0.00     0.210 HD
ENDBRANCH   4   9
BRANCH   5  11
HETATM   11  O   UNL     1     -20.002  -2.299 -11.216  1.00  0.00    -0.390 OA
HETATM   12  H   UNL     1     -20.184  -1.348 -11.364  1.00  0.00     0.210 HD
ENDBRANCH   5  11
BRANCH   6  13
HETATM   13  O   UNL     1     -20.127  -5.009 -10.412  1.00  0.00    -0.390 OA
HETATM   14  H   UNL     1     -19.435  -4.507 -10.893  1.00  0.00     0.210 HD
ENDBRANCH   6  13
BRANCH   7  15
HETATM   15  C   UNL     1     -23.303  -3.918  -8.688  1.00  0.00     0.198 C 
BRANCH  15  16
HETATM   16  O   UNL     1     -22.548  -3.490  -7.557  1.00  0.00    -0.398 OA
HETATM   17  H   UNL     1     -21.780  -3.014  -7.920  1.00  0.00     0.209 HD
ENDBRANCH  15  16
ENDBRANCH   7  15
ENDBRANCH   2   3
ENDBRANCH   1   2
BRANCH   1  18
HETATM   18  C   UNL     1     -24.155  -2.240 -14.037  1.00  0.00     0.173 C 
BRANCH  18  19
HETATM   19  C   UNL     1     -23.166  -2.131 -15.211  1.00  0.00     0.198 C 
BRANCH  19  20
HETATM   20  O   UNL     1     -22.287  -3.259 -15.214  1.00  0.00    -0.398 OA
HETATM   21  H   UNL     1     -21.754  -3.201 -16.030  1.00  0.00     0.209 HD
ENDBRANCH  19  20
ENDBRANCH  18  19
BRANCH  18  22
HETATM   22  O   UNL     1     -25.216  -1.308 -14.354  1.00  0.00    -0.391 OA
HETATM   23  H   UNL     1     -26.032  -1.825 -14.489  1.00  0.00     0.210 HD
ENDBRANCH  18  22
ENDBRANCH   1  18
BRANCH   1  24
HETATM   24  C   UNL     1     -25.099  -4.428 -15.089  1.00  0.00     0.189 C 
BRANCH  24  25
HETATM   25  C   UNL     1     -24.653  -5.901 -15.139  1.00  0.00     0.246 C 
BRANCH  25  26
HETATM   26  C   UNL     1     -25.627  -6.787 -15.919  1.00  0.00     0.172 C 
HETATM   27  O   UNL     1     -26.504  -7.471 -15.425  1.00  0.00    -0.648 OA
BRANCH  26  28
HETATM   28  O   UNL     1     -25.437  -6.679 -17.260  1.00  0.00    -0.774 OA
HETATM   29  H   UNL     1     -26.308  -6.488 -17.688  1.00  0.00     0.167 HD
ENDBRANCH  26  28
ENDBRANCH  25  26
BRANCH  25  30
HETATM   30  O   UNL     1     -23.395  -5.992 -15.860  1.00  0.00    -0.382 OA
HETATM   31  H   UNL     1     -22.720  -5.606 -15.257  1.00  0.00     0.210 HD
ENDBRANCH  25  30
ENDBRANCH  24  25
BRANCH  24  32
HETATM   32  O   UNL     1     -26.486  -4.392 -15.451  1.00  0.00    -0.390 OA
HETATM   33  H   UNL     1     -26.755  -5.286 -15.739  1.00  0.00     0.210 HD
ENDBRANCH  24  32
ENDBRANCH   1  24
TORSDOF 17
BEGIN_RES ARG D 557
REMARK  4 active torsions:
REMARK  status: ('A' for Active; 'I' for Inactive)
REMARK    1  A    between atoms: CA   and  CB  
REMARK    2  A    between atoms: CB   and  CG  
REMARK    3  A    between atoms: CG   and  CD  
REMARK    4  A    between atoms: CD   and  NE  
REMARK       I    between atoms: NE   and  CZ  
REMARK       I    between atoms: CZ   and  NH1 
REMARK       I    between atoms: CZ   and  NH2 
ROOT
ATOM      1  CA  ARG D 557     -26.217   2.705 -17.014  1.00 35.49     0.159 C 
ENDROOT
BRANCH   1   2
ATOM      2  CB  ARG D 557     -26.789   1.319 -17.183  1.00 35.49     0.034 C 
BRANCH   2   3
ATOM      3  CG  ARG D 557     -28.183   1.230 -17.634  1.00 35.49     0.027 C 
BRANCH   3   4
ATOM      4  CD  ARG D 557     -29.028   0.446 -16.704  1.00 35.49     0.116 C 
BRANCH   4   5
ATOM      5  NE  ARG D 557     -29.273  -0.887 -17.188  1.00 35.49    -0.212 N 
ATOM      6  CZ  ARG D 557     -28.528  -1.942 -16.945  1.00 35.49     0.666 C 
ATOM      7  NH1 ARG D 557     -27.429  -1.881 -16.217  1.00 35.49    -0.235 N 
ATOM      8  NH2 ARG D 557     -28.914  -3.079 -17.448  1.00 35.49    -0.235 N 
ATOM      9  HH  ARG D 557     -27.157  -1.144 -15.874  1.00 35.49     0.174 HD
ATOM     10  HH  ARG D 557     -26.984  -2.603 -16.090  1.00 35.49     0.174 HD
ATOM     11  HH  ARG D 557     -29.632  -3.089 -17.909  1.00 35.49     0.174 HD
ATOM     12  HH  ARG D 557     -28.461  -3.782 -17.310  1.00 35.49     0.174 HD
ATOM     13  HE  ARG D 557     -29.922  -1.004 -17.726  1.00 35.49     0.178 HD
ENDBRANCH   4   5
ENDBRANCH   3   4
ENDBRANCH   2   3
ENDBRANCH   1   2
END_RES ARG D 557
BEGIN_RES GLU D 570
REMARK  3 active torsions:
REMARK  status: ('A' for Active; 'I' for Inactive)
REMARK    5  A    between atoms: CA   and  CB  
REMARK    6  A    between atoms: CB   and  CG  
REMARK    7  A    between atoms: CG   and  CD  
ROOT
ATOM     14  CA  GLU D 570     -18.033  -6.348 -13.375  1.00 32.92     0.160 C 
ENDROOT
BRANCH  14  15
ATOM     15  CB  GLU D 570     -19.500  -6.345 -13.794  1.00 32.92     0.043 C 
BRANCH  15  16
ATOM     16  CG  GLU D 570     -20.089  -7.637 -14.232  1.00 32.92     0.100 C 
BRANCH  16  17
ATOM     17  CD  GLU D 570     -20.513  -7.629 -15.683  1.00 32.92     0.185 C 
ATOM     18  OE1 GLU D 570     -20.595  -6.541 -16.284  1.00 32.92    -0.647 OA
ATOM     19  OE2 GLU D 570     -20.781  -8.722 -16.219  1.00 32.92    -0.647 OA
ENDBRANCH  16  17
ENDBRANCH  15  16
ENDBRANCH  14  15
END_RES GLU D 570
ENDMDL
MODEL 3
REMARK VINA RESULT:      -6.5      1.614      4.729
REMARK  17 active torsions:
REMARK  status: ('A' for Active; 'I' for Inactive)
REMARK    1  A    between atoms: C_1  and  C_2 
REMARK    2  A    between atoms: C_1  and  O_24 
REMARK    3  A    between atoms: C_3  and  O_23 
REMARK    4  A    between atoms: C_4  and  O_22 
REMARK    5  A    between atoms: C_5  and  O_21 
REMARK    6  A    between atoms: C_6  and  O_8 
REMARK    7  A    between atoms: O_8  and  C_9 
REMARK    8  A    between atoms: C_9  and  C_10 
REMARK    9  A    between atoms: C_9  and  C_14 
REMARK   10  A    between atoms: C_10  and  C_11 
REMARK   11  A    between atoms: C_10  and  O_13 
REMARK   12  A    between atoms: C_11  and  O_12 
REMARK   13  A    between atoms: C_14  and  C_15 
REMARK   14  A    between atoms: C_14  and  O_20 
REMARK   15  A    between atoms: C_15  and  C_16 
REMARK   16  A    between atoms: C_15  and  O_19 
REMARK   17  A    between atoms: C_16  and  O_18 
ROOT
HETATM    1  C   UNL     1     -24.388  -2.535 -13.716  1.00  0.00     0.187 C 
ENDROOT
BRANCH   1   2
HETATM    2  O   UNL     1     -23.563  -2.186 -12.575  1.00  0.00    -0.348 OA
BRANCH   2   3
HETATM    3  C   UNL     1     -23.013  -3.259 -11.781  1.00  0.00     0.292 C 
HETATM    4  C   UNL     1     -24.207  -3.861 -11.003  1.00  0.00     0.204 C 
HETATM    5  C   UNL     1     -23.721  -4.958 -10.054  1.00  0.00     0.183 C 
HETATM    6  C   UNL     1     -22.657  -4.400  -9.095  1.00  0.00     0.180 C 
HETATM    7  C   UNL     1     -21.531  -3.722  -9.895  1.00  0.00     0.179 C 
HETATM    8  O   UNL     1     -22.021  -2.768 -10.877  1.00  0.00    -0.348 OA
BRANCH   4   9
HETATM    9  O   UNL     1     -24.856  -2.831 -10.215  1.00  0.00    -0.388 OA
HETATM   10  H   UNL     1     -25.534  -2.453 -10.810  1.00  0.00     0.210 HD
ENDBRANCH   4   9
BRANCH   5  11
HETATM   11  O   UNL     1     -24.830  -5.492  -9.327  1.00  0.00    -0.390 OA
HETATM   12  H   UNL     1     -24.962  -4.892  -8.565  1.00  0.00     0.210 HD
ENDBRANCH   5  11
BRANCH   6  13
HETATM   13  O   UNL     1     -23.236  -3.453  -8.183  1.00  0.00    -0.390 OA
HETATM   14  H   UNL     1     -22.631  -2.683  -8.139  1.00  0.00     0.210 HD
ENDBRANCH   6  13
BRANCH   7  15
HETATM   15  C   UNL     1     -20.602  -4.758 -10.552  1.00  0.00     0.198 C 
BRANCH  15  16
HETATM   16  O   UNL     1     -19.810  -4.132 -11.558  1.00  0.00    -0.398 OA
HETATM   17  H   UNL     1     -20.260  -4.320 -12.400  1.00  0.00     0.209 HD
ENDBRANCH  15  16
ENDBRANCH   7  15
ENDBRANCH   2   3
ENDBRANCH   1   2
BRANCH   1  18
HETATM   18  C   UNL     1     -24.650  -1.321 -14.666  1.00  0.00     0.173 C 
BRANCH  18  19
HETATM   19  C   UNL     1     -23.420  -0.725 -15.372  1.00  0.00     0.198 C 
BRANCH  19  20
HETATM   20  O   UNL     1     -23.761   0.527 -15.974  1.00  0.00    -0.398 OA
HETATM   21  H   UNL     1     -23.406   0.511 -16.883  1.00  0.00     0.209 HD
ENDBRANCH  19  20
ENDBRANCH  18  19
BRANCH  18  22
HETATM   22  O   UNL     1     -25.538  -1.722 -15.736  1.00  0.00    -0.391 OA
HETATM   23  H   UNL     1     -25.269  -1.240 -16.539  1.00  0.00     0.210 HD
ENDBRANCH  18  22
ENDBRANCH   1  18
BRANCH   1  24
HETATM   24  C   UNL     1     -23.642  -3.711 -14.437  1.00  0.00     0.189 C 
BRANCH  24  25
HETATM   25  C   UNL     1     -24.537  -4.707 -15.199  1.00  0.00     0.246 C 
BRANCH  25  26
HETATM   26  C   UNL     1     -24.440  -6.131 -14.646  1.00  0.00     0.172 C 
HETATM   27  O   UNL     1     -24.965  -7.112 -15.136  1.00  0.00    -0.648 OA
BRANCH  26  28
HETATM   28  O   UNL     1     -23.635  -6.189 -13.552  1.00  0.00    -0.774 OA
HETATM   29  H   UNL     1     -24.184  -6.443 -12.769  1.00  0.00     0.167 HD
ENDBRANCH  26  28
ENDBRANCH  25  26
BRANCH  25  30
HETATM   30  O   UNL     1     -25.927  -4.325 -15.025  1.00  0.00    -0.382 OA
HETATM   31  H   UNL     1     -25.979  -3.387 -15.317  1.00  0.00     0.210 HD
ENDBRANCH  25  30
ENDBRANCH  24  25
BRANCH  24  32
HETATM   32  O   UNL     1     -22.615  -3.286 -15.343  1.00  0.00    -0.390 OA
HETATM   33  H   UNL     1     -22.530  -2.314 -15.283  1.00  0.00     0.210 HD
ENDBRANCH  24  32
ENDBRANCH   1  24
TORSDOF 17
BEGIN_RES ARG D 557
REMARK  4 active torsions:
REMARK  status: ('A' for Active; 'I' for Inactive)
REMARK    1  A    between atoms: CA   and  CB  
REMARK    2  A    between atoms: CB   and  CG  
REMARK    3  A    between atoms: CG   and  CD  
REMARK    4  A    between atoms: CD   and  NE  
REMARK       I    between atoms: NE   and  CZ  
REMARK       I    between atoms: CZ   and  NH1 
REMARK       I    between atoms: CZ   and  NH2 
ROOT
ATOM      1  CA  ARG D 557     -26.217   2.705 -17.014  1.00 35.49     0.159 C 
ENDROOT
BRANCH   1   2
ATOM      2  CB  ARG D 557     -26.789   1.319 -17.183  1.00 35.49     0.034 C 
BRANCH   2   3
ATOM      3  CG  ARG D 557     -28.229   1.227 -17.454  1.00 35.49     0.027 C 
BRANCH   3   4
ATOM      4  CD  ARG D 557     -28.924   0.322 -16.510  1.00 35.49     0.116 C 
BRANCH   4   5
ATOM      5  NE  ARG D 557     -28.264  -0.951 -16.394  1.00 35.49    -0.212 N 
ATOM      6  CZ  ARG D 557     -28.696  -2.088 -16.892  1.00 35.49     0.666 C 
ATOM      7  NH1 ARG D 557     -29.829  -2.184 -17.563  1.00 35.49    -0.235 N 
ATOM      8  NH2 ARG D 557     -27.957  -3.144 -16.709  1.00 35.49    -0.235 N 
ATOM      9  HH  ARG D 557     -30.330  -1.502 -17.698  1.00 35.49     0.174 HD
ATOM     10  HH  ARG D 557     -30.059  -2.951 -17.867  1.00 35.49     0.174 HD
ATOM     11  HH  ARG D 557     -27.227  -3.051 -16.278  1.00 35.49     0.174 HD
ATOM     12  HH  ARG D 557     -28.201  -3.894 -17.019  1.00 35.49     0.174 HD
ATOM     13  HE  ARG D 557     -27.563  -0.996 -15.915  1.00 35.49     0.178 HD
ENDBRANCH   4   5
ENDBRANCH   3   4
ENDBRANCH   2   3
ENDBRANCH   1   2
END_RES ARG D 557
BEGIN_RES GLU D 570
REMARK  3 active torsions:
REMARK  status: ('A' for Active; 'I' for Inactive)
REMARK    5  A    between atoms: CA   and  CB  
REMARK    6  A    between atoms: CB   and  CG  
REMARK    7  A    between atoms: CG   and  CD  
ROOT
ATOM     14  CA  GLU D 570     -18.033  -6.348 -13.375  1.00 32.92     0.160 C 
ENDROOT
BRANCH  14  15
ATOM     15  CB  GLU D 570     -19.500  -6.345 -13.794  1.00 32.92     0.043 C 
BRANCH  15  16
ATOM     16  CG  GLU D 570     -19.845  -5.672 -15.073  1.00 32.92     0.100 C 
BRANCH  16  17
ATOM     17  CD  GLU D 570     -20.998  -6.331 -15.794  1.00 32.92     0.185 C 
ATOM     18  OE1 GLU D 570     -21.533  -5.737 -16.749  1.00 32.92    -0.647 OA
ATOM     19  OE2 GLU D 570     -21.380  -7.447 -15.388  1.00 32.92    -0.647 OA
ENDBRANCH  16  17
ENDBRANCH  15  16
ENDBRANCH  14  15
END_RES GLU D 570
ENDMDL
MODEL 4
REMARK VINA RESULT:      -6.1      2.489      4.852
REMARK  17 active torsions:
REMARK  status: ('A' for Active; 'I' for Inactive)
REMARK    1  A    between atoms: C_1  and  C_2 
REMARK    2  A    between atoms: C_1  and  O_24 
REMARK    3  A    between atoms: C_3  and  O_23 
REMARK    4  A    between atoms: C_4  and  O_22 
REMARK    5  A    between atoms: C_5  and  O_21 
REMARK    6  A    between atoms: C_6  and  O_8 
REMARK    7  A    between atoms: O_8  and  C_9 
REMARK    8  A    between atoms: C_9  and  C_10 
REMARK    9  A    between atoms: C_9  and  C_14 
REMARK   10  A    between atoms: C_10  and  C_11 
REMARK   11  A    between atoms: C_10  and  O_13 
REMARK   12  A    between atoms: C_11  and  O_12 
REMARK   13  A    between atoms: C_14  and  C_15 
REMARK   14  A    between atoms: C_14  and  O_20 
REMARK   15  A    between atoms: C_15  and  C_16 
REMARK   16  A    between atoms: C_15  and  O_19 
REMARK   17  A    between atoms: C_16  and  O_18 
ROOT
HETATM    1  C   UNL     1     -22.985  -2.980  -9.802  1.00  0.00     0.187 C 
ENDROOT
BRANCH   1   2
HETATM    2  O   UNL     1     -22.321  -2.925 -11.091  1.00  0.00    -0.348 OA
BRANCH   2   3
HETATM    3  C   UNL     1     -23.133  -3.050 -12.278  1.00  0.00     0.292 C 
HETATM    4  C   UNL     1     -22.886  -4.482 -12.808  1.00  0.00     0.204 C 
HETATM    5  C   UNL     1     -23.634  -4.695 -14.125  1.00  0.00     0.183 C 
HETATM    6  C   UNL     1     -23.209  -3.639 -15.157  1.00  0.00     0.180 C 
HETATM    7  C   UNL     1     -23.375  -2.228 -14.566  1.00  0.00     0.179 C 
HETATM    8  O   UNL     1     -22.757  -2.079 -13.257  1.00  0.00    -0.348 OA
BRANCH   4   9
HETATM    9  O   UNL     1     -21.471  -4.683 -13.050  1.00  0.00    -0.388 OA
HETATM   10  H   UNL     1     -21.047  -3.851 -12.760  1.00  0.00     0.210 HD
ENDBRANCH   4   9
BRANCH   5  11
HETATM   11  O   UNL     1     -23.382  -6.014 -14.615  1.00  0.00    -0.390 OA
HETATM   12  H   UNL     1     -22.597  -5.936 -15.195  1.00  0.00     0.210 HD
ENDBRANCH   5  11
BRANCH   6  13
HETATM   13  O   UNL     1     -21.843  -3.834 -15.557  1.00  0.00    -0.390 OA
HETATM   14  H   UNL     1     -21.669  -4.799 -15.543  1.00  0.00     0.210 HD
ENDBRANCH   6  13
BRANCH   7  15
HETATM   15  C   UNL     1     -24.853  -1.802 -14.527  1.00  0.00     0.198 C 
BRANCH  15  16
HETATM   16  O   UNL     1     -24.959  -0.393 -14.717  1.00  0.00    -0.398 OA
HETATM   17  H   UNL     1     -25.202  -0.273 -15.652  1.00  0.00     0.209 HD
ENDBRANCH  15  16
ENDBRANCH   7  15
ENDBRANCH   2   3
ENDBRANCH   1   2
BRANCH   1  18
HETATM   18  C   UNL     1     -24.465  -3.477  -9.906  1.00  0.00     0.173 C 
BRANCH  18  19
HETATM   19  C   UNL     1     -24.736  -4.922  -9.454  1.00  0.00     0.198 C 
BRANCH  19  20
HETATM   20  O   UNL     1     -24.169  -5.841 -10.391  1.00  0.00    -0.398 OA
HETATM   21  H   UNL     1     -24.579  -5.653 -11.257  1.00  0.00     0.209 HD
ENDBRANCH  19  20
ENDBRANCH  18  19
BRANCH  18  22
HETATM   22  O   UNL     1     -25.314  -2.657  -9.067  1.00  0.00    -0.391 OA
HETATM   23  H   UNL     1     -24.797  -2.407  -8.280  1.00  0.00     0.210 HD
ENDBRANCH  18  22
ENDBRANCH   1  18
BRANCH   1  24
HETATM   24  C   UNL     1     -22.100  -3.914  -8.905  1.00  0.00     0.189 C 
BRANCH  24  25
HETATM   25  C   UNL     1     -20.609  -3.991  -9.283  1.00  0.00     0.246 C 
BRANCH  25  26
HETATM   26  C   UNL     1     -19.756  -4.649  -8.196  1.00  0.00     0.172 C 
HETATM   27  O   UNL     1     -18.850  -4.109  -7.590  1.00  0.00    -0.648 OA
BRANCH  26  28
HETATM   28  O   UNL     1     -20.172  -5.915  -7.933  1.00  0.00    -0.774 OA
HETATM   29  H   UNL     1     -20.108  -6.074  -6.959  1.00  0.00     0.167 HD
ENDBRANCH  26  28
ENDBRANCH  25  26
BRANCH  25  30
HETATM   30  O   UNL     1     -20.458  -4.841 -10.451  1.00  0.00    -0.382 OA
HETATM   31  H   UNL     1     -19.798  -5.524 -10.193  1.00  0.00     0.210 HD
ENDBRANCH  25  30
ENDBRANCH  24  25
BRANCH  24  32
HETATM   32  O   UNL     1     -22.167  -3.618  -7.504  1.00  0.00    -0.390 OA
HETATM   33  H   UNL     1     -21.387  -3.082  -7.262  1.00  0.00     0.210 HD
ENDBRANCH  24  32
ENDBRANCH   1  24
TORSDOF 17
BEGIN_RES ARG D 557
REMARK  4 active torsions:
REMARK  status: ('A' for Active; 'I' for Inactive)
REMARK    1  A    between atoms: CA   and  CB  
REMARK    2  A    between atoms: CB   and  CG  
REMARK    3  A    between atoms: CG   and  CD  
REMARK    4  A    between atoms: CD   and  NE  
REMARK       I    between atoms: NE   and  CZ  
REMARK       I    between atoms: CZ   and  NH1 
REMARK       I    between atoms: CZ   and  NH2 
ROOT
ATOM      1  CA  ARG D 557     -26.217   2.705 -17.014  1.00 35.49     0.159 C 
ENDROOT
BRANCH   1   2
ATOM      2  CB  ARG D 557     -26.789   1.319 -17.183  1.00 35.49     0.034 C 
BRANCH   2   3
ATOM      3  CG  ARG D 557     -28.155   1.104 -16.691  1.00 35.49     0.027 C 
BRANCH   3   4
ATOM      4  CD  ARG D 557     -28.780  -0.107 -17.272  1.00 35.49     0.116 C 
BRANCH   4   5
ATOM      5  NE  ARG D 557     -28.151  -1.316 -16.812  1.00 35.49    -0.212 N 
ATOM      6  CZ  ARG D 557     -28.603  -2.536 -16.998  1.00 35.49     0.666 C 
ATOM      7  NH1 ARG D 557     -29.731  -2.784 -17.639  1.00 35.49    -0.235 N 
ATOM      8  NH2 ARG D 557     -27.890  -3.519 -16.530  1.00 35.49    -0.235 N 
ATOM      9  HH  ARG D 557     -30.215  -2.153 -17.957  1.00 35.49     0.174 HD
ATOM     10  HH  ARG D 557     -29.974  -3.600 -17.732  1.00 35.49     0.174 HD
ATOM     11  HH  ARG D 557     -27.163  -3.329 -16.127  1.00 35.49     0.174 HD
ATOM     12  HH  ARG D 557     -28.148  -4.320 -16.634  1.00 35.49     0.174 HD
ATOM     13  HE  ARG D 557     -27.456  -1.245 -16.327  1.00 35.49     0.178 HD
ENDBRANCH   4   5
ENDBRANCH   3   4
ENDBRANCH   2   3
ENDBRANCH   1   2
END_RES ARG D 557
BEGIN_RES GLU D 570
REMARK  3 active torsions:
REMARK  status: ('A' for Active; 'I' for Inactive)
REMARK    5  A    between atoms: CA   and  CB  
REMARK    6  A    between atoms: CB   and  CG  
REMARK    7  A    between atoms: CG   and  CD  
ROOT
ATOM     14  CA  GLU D 570     -18.033  -6.348 -13.375  1.00 32.92     0.160 C 
ENDROOT
BRANCH  14  15
ATOM     15  CB  GLU D 570     -19.500  -6.345 -13.794  1.00 32.92     0.043 C 
BRANCH  15  16
ATOM     16  CG  GLU D 570     -20.101  -7.644 -14.193  1.00 32.92     0.100 C 
BRANCH  16  17
ATOM     17  CD  GLU D 570     -20.611  -7.646 -15.615  1.00 32.92     0.185 C 
ATOM     18  OE1 GLU D 570     -20.949  -6.566 -16.138  1.00 32.92    -0.647 OA
ATOM     19  OE2 GLU D 570     -20.690  -8.740 -16.207  1.00 32.92    -0.647 OA
ENDBRANCH  16  17
ENDBRANCH  15  16
ENDBRANCH  14  15
END_RES GLU D 570
ENDMDL
MODEL 5
REMARK VINA RESULT:      -5.9      2.112      4.557
REMARK  17 active torsions:
REMARK  status: ('A' for Active; 'I' for Inactive)
REMARK    1  A    between atoms: C_1  and  C_2 
REMARK    2  A    between atoms: C_1  and  O_24 
REMARK    3  A    between atoms: C_3  and  O_23 
REMARK    4  A    between atoms: C_4  and  O_22 
REMARK    5  A    between atoms: C_5  and  O_21 
REMARK    6  A    between atoms: C_6  and  O_8 
REMARK    7  A    between atoms: O_8  and  C_9 
REMARK    8  A    between atoms: C_9  and  C_10 
REMARK    9  A    between atoms: C_9  and  C_14 
REMARK   10  A    between atoms: C_10  and  C_11 
REMARK   11  A    between atoms: C_10  and  O_13 
REMARK   12  A    between atoms: C_11  and  O_12 
REMARK   13  A    between atoms: C_14  and  C_15 
REMARK   14  A    between atoms: C_14  and  O_20 
REMARK   15  A    between atoms: C_15  and  C_16 
REMARK   16  A    between atoms: C_15  and  O_19 
REMARK   17  A    between atoms: C_16  and  O_18 
ROOT
HETATM    1  C   UNL     1     -22.902  -3.777 -10.260  1.00  0.00     0.187 C 
ENDROOT
BRANCH   1   2
HETATM    2  O   UNL     1     -22.887  -4.758 -11.329  1.00  0.00    -0.348 OA
BRANCH   2   3
HETATM    3  C   UNL     1     -23.564  -4.429 -12.561  1.00  0.00     0.292 C 
HETATM    4  C   UNL     1     -22.492  -3.783 -13.470  1.00  0.00     0.204 C 
HETATM    5  C   UNL     1     -23.125  -3.310 -14.780  1.00  0.00     0.183 C 
HETATM    6  C   UNL     1     -24.274  -2.330 -14.494  1.00  0.00     0.180 C 
HETATM    7  C   UNL     1     -25.274  -2.965 -13.511  1.00  0.00     0.179 C 
HETATM    8  O   UNL     1     -24.638  -3.516 -12.324  1.00  0.00    -0.348 OA
BRANCH   4   9
HETATM    9  O   UNL     1     -21.905  -2.635 -12.807  1.00  0.00    -0.388 OA
HETATM   10  H   UNL     1     -21.338  -3.015 -12.107  1.00  0.00     0.210 HD
ENDBRANCH   4   9
BRANCH   5  11
HETATM   11  O   UNL     1     -22.129  -2.698 -15.603  1.00  0.00    -0.390 OA
HETATM   12  H   UNL     1     -21.273  -2.876 -15.162  1.00  0.00     0.210 HD
ENDBRANCH   5  11
BRANCH   6  13
HETATM   13  O   UNL     1     -23.774  -1.101 -13.944  1.00  0.00    -0.390 OA
HETATM   14  H   UNL     1     -23.281  -0.641 -14.657  1.00  0.00     0.210 HD
ENDBRANCH   6  13
BRANCH   7  15
HETATM   15  C   UNL     1     -26.155  -4.020 -14.203  1.00  0.00     0.198 C 
BRANCH  15  16
HETATM   16  O   UNL     1     -25.752  -4.174 -15.561  1.00  0.00    -0.398 OA
HETATM   17  H   UNL     1     -26.570  -4.340 -16.060  1.00  0.00     0.209 HD
ENDBRANCH  15  16
ENDBRANCH   7  15
ENDBRANCH   2   3
ENDBRANCH   1   2
BRANCH   1  18
HETATM   18  C   UNL     1     -24.073  -4.005  -9.249  1.00  0.00     0.173 C 
BRANCH  18  19
HETATM   19  C   UNL     1     -25.089  -2.859  -9.106  1.00  0.00     0.198 C 
BRANCH  19  20
HETATM   20  O   UNL     1     -26.315  -3.210  -9.753  1.00  0.00    -0.398 OA
HETATM   21  H   UNL     1     -26.125  -3.271 -10.709  1.00  0.00     0.209 HD
ENDBRANCH  19  20
ENDBRANCH  18  19
BRANCH  18  22
HETATM   22  O   UNL     1     -24.858  -5.150  -9.662  1.00  0.00    -0.391 OA
HETATM   23  H   UNL     1     -24.973  -5.095 -10.628  1.00  0.00     0.210 HD
ENDBRANCH  18  22
ENDBRANCH   1  18
BRANCH   1  24
HETATM   24  C   UNL     1     -21.493  -3.867  -9.577  1.00  0.00     0.189 C 
BRANCH  24  25
HETATM   25  C   UNL     1     -21.489  -4.322  -8.106  1.00  0.00     0.246 C 
BRANCH  25  26
HETATM   26  C   UNL     1     -20.181  -5.007  -7.703  1.00  0.00     0.172 C 
HETATM   27  O   UNL     1     -19.112  -4.447  -7.549  1.00  0.00    -0.648 OA
BRANCH  26  28
HETATM   28  O   UNL     1     -20.362  -6.334  -7.473  1.00  0.00    -0.774 OA
HETATM   29  H   UNL     1     -19.969  -6.559  -6.593  1.00  0.00     0.167 HD
ENDBRANCH  26  28
ENDBRANCH  25  26
BRANCH  25  30
HETATM   30  O   UNL     1     -21.587  -3.154  -7.248  1.00  0.00    -0.382 OA
HETATM   31  H   UNL     1     -21.585  -2.382  -7.857  1.00  0.00     0.210 HD
ENDBRANCH  25  30
ENDBRANCH  24  25
BRANCH  24  32
HETATM   32  O   UNL     1     -20.554  -4.692 -10.279  1.00  0.00    -0.390 OA
HETATM   33  H   UNL     1     -20.461  -4.353 -11.190  1.00  0.00     0.210 HD
ENDBRANCH  24  32
ENDBRANCH   1  24
TORSDOF 17
BEGIN_RES ARG D 557
REMARK  4 active torsions:
REMARK  status: ('A' for Active; 'I' for Inactive)
REMARK    1  A    between atoms: CA   and  CB  
REMARK    2  A    between atoms: CB   and  CG  
REMARK    3  A    between atoms: CG   and  CD  
REMARK    4  A    between atoms: CD   and  NE  
REMARK       I    between atoms: NE   and  CZ  
REMARK       I    between atoms: CZ   and  NH1 
REMARK       I    between atoms: CZ   and  NH2 
ROOT
ATOM      1  CA  ARG D 557     -26.217   2.705 -17.014  1.00 35.49     0.159 C 
ENDROOT
BRANCH   1   2
ATOM      2  CB  ARG D 557     -26.789   1.319 -17.183  1.00 35.49     0.034 C 
BRANCH   2   3
ATOM      3  CG  ARG D 557     -28.215   1.229 -17.520  1.00 35.49     0.027 C 
BRANCH   3   4
ATOM      4  CD  ARG D 557     -28.966   0.376 -16.571  1.00 35.49     0.116 C 
BRANCH   4   5
ATOM      5  NE  ARG D 557     -29.325  -0.892 -17.149  1.00 35.49    -0.212 N 
ATOM      6  CZ  ARG D 557     -28.647  -2.011 -17.027  1.00 35.49     0.666 C 
ATOM      7  NH1 ARG D 557     -27.517  -2.085 -16.348  1.00 35.49    -0.235 N 
ATOM      8  NH2 ARG D 557     -29.133  -3.073 -17.602  1.00 35.49    -0.235 N 
ATOM      9  HH  ARG D 557     -27.181  -1.400 -15.960  1.00 35.49     0.174 HD
ATOM     10  HH  ARG D 557     -27.120  -2.843 -16.300  1.00 35.49     0.174 HD
ATOM     11  HH  ARG D 557     -29.868  -2.997 -18.028  1.00 35.49     0.174 HD
ATOM     12  HH  ARG D 557     -28.725  -3.814 -17.542  1.00 35.49     0.174 HD
ATOM     13  HE  ARG D 557     -30.002  -0.919 -17.664  1.00 35.49     0.178 HD
ENDBRANCH   4   5
ENDBRANCH   3   4
ENDBRANCH   2   3
ENDBRANCH   1   2
END_RES ARG D 557
BEGIN_RES GLU D 570
REMARK  3 active torsions:
REMARK  status: ('A' for Active; 'I' for Inactive)
REMARK    5  A    between atoms: CA   and  CB  
REMARK    6  A    between atoms: CB   and  CG  
REMARK    7  A    between atoms: CG   and  CD  
ROOT
ATOM     14  CA  GLU D 570     -18.033  -6.348 -13.375  1.00 32.92     0.160 C 
ENDROOT
BRANCH  14  15
ATOM     15  CB  GLU D 570     -19.500  -6.345 -13.794  1.00 32.92     0.043 C 
BRANCH  15  16
ATOM     16  CG  GLU D 570     -19.814  -6.745 -15.190  1.00 32.92     0.100 C 
BRANCH  16  17
ATOM     17  CD  GLU D 570     -21.188  -6.301 -15.636  1.00 32.92     0.185 C 
ATOM     18  OE1 GLU D 570     -21.285  -5.444 -16.535  1.00 32.92    -0.647 OA
ATOM     19  OE2 GLU D 570     -22.177  -6.803 -15.067  1.00 32.92    -0.647 OA
ENDBRANCH  16  17
ENDBRANCH  15  16
ENDBRANCH  14  15
END_RES GLU D 570
ENDMDL
MODEL 6
REMARK VINA RESULT:      -5.7      8.213     10.948
REMARK  17 active torsions:
REMARK  status: ('A' for Active; 'I' for Inactive)
REMARK    1  A    between atoms: C_1  and  C_2 
REMARK    2  A    between atoms: C_1  and  O_24 
REMARK    3  A    between atoms: C_3  and  O_23 
REMARK    4  A    between atoms: C_4  and  O_22 
REMARK    5  A    between atoms: C_5  and  O_21 
REMARK    6  A    between atoms: C_6  and  O_8 
REMARK    7  A    between atoms: O_8  and  C_9 
REMARK    8  A    between atoms: C_9  and  C_10 
REMARK    9  A    between atoms: C_9  and  C_14 
REMARK   10  A    between atoms: C_10  and  C_11 
REMARK   11  A    between atoms: C_10  and  O_13 
REMARK   12  A    between atoms: C_11  and  O_12 
REMARK   13  A    between atoms: C_14  and  C_15 
REMARK   14  A    between atoms: C_14  and  O_20 
REMARK   15  A    between atoms: C_15  and  C_16 
REMARK   16  A    between atoms: C_15  and  O_19 
REMARK   17  A    between atoms: C_16  and  O_18 
ROOT
HETATM    1  C   UNL     1     -21.313  -7.327  -3.942  1.00  0.00     0.187 C 
ENDROOT
BRANCH   1   2
HETATM    2  O   UNL     1     -21.924  -8.535  -4.463  1.00  0.00    -0.348 OA
BRANCH   2   3
HETATM    3  C   UNL     1     -21.059  -9.638  -4.808  1.00  0.00     0.292 C 
HETATM    4  C   UNL     1     -21.690 -10.889  -4.153  1.00  0.00     0.204 C 
HETATM    5  C   UNL     1     -20.800 -12.112  -4.381  1.00  0.00     0.183 C 
HETATM    6  C   UNL     1     -19.386 -11.852  -3.835  1.00  0.00     0.180 C 
HETATM    7  C   UNL     1     -18.823 -10.550  -4.431  1.00  0.00     0.179 C 
HETATM    8  O   UNL     1     -19.736  -9.423  -4.310  1.00  0.00    -0.348 OA
BRANCH   4   9
HETATM    9  O   UNL     1     -21.827 -10.685  -2.724  1.00  0.00    -0.388 OA
HETATM   10  H   UNL     1     -21.183 -11.301  -2.322  1.00  0.00     0.210 HD
ENDBRANCH   4   9
BRANCH   5  11
HETATM   11  O   UNL     1     -21.383 -13.256  -3.754  1.00  0.00    -0.390 OA
HETATM   12  H   UNL     1     -20.682 -13.940  -3.743  1.00  0.00     0.210 HD
ENDBRANCH   5  11
BRANCH   6  13
HETATM   13  O   UNL     1     -19.400 -11.758  -2.402  1.00  0.00    -0.390 OA
HETATM   14  H   UNL     1     -19.860 -10.924  -2.168  1.00  0.00     0.210 HD
ENDBRANCH   6  13
BRANCH   7  15
HETATM   15  C   UNL     1     -18.379 -10.743  -5.892  1.00  0.00     0.198 C 
BRANCH  15  16
HETATM   16  O   UNL     1     -18.003  -9.488  -6.455  1.00  0.00    -0.398 OA
HETATM   17  H   UNL     1     -17.867  -8.891  -5.698  1.00  0.00     0.209 HD
ENDBRANCH  15  16
ENDBRANCH   7  15
ENDBRANCH   2   3
ENDBRANCH   1   2
BRANCH   1  18
HETATM   18  C   UNL     1     -21.530  -6.090  -4.875  1.00  0.00     0.173 C 
BRANCH  18  19
HETATM   19  C   UNL     1     -20.808  -6.122  -6.233  1.00  0.00     0.198 C 
BRANCH  19  20
HETATM   20  O   UNL     1     -19.796  -7.132  -6.225  1.00  0.00    -0.398 OA
HETATM   21  H   UNL     1     -19.533  -7.262  -5.293  1.00  0.00     0.209 HD
ENDBRANCH  19  20
ENDBRANCH  18  19
BRANCH  18  22
HETATM   22  O   UNL     1     -22.935  -5.967  -5.201  1.00  0.00    -0.391 OA
HETATM   23  H   UNL     1     -23.319  -5.299  -4.604  1.00  0.00     0.210 HD
ENDBRANCH  18  22
ENDBRANCH   1  18
BRANCH   1  24
HETATM   24  C   UNL     1     -21.929  -7.118  -2.515  1.00  0.00     0.189 C 
BRANCH  24  25
HETATM   25  C   UNL     1     -21.030  -7.521  -1.331  1.00  0.00     0.246 C 
BRANCH  25  26
HETATM   26  C   UNL     1     -21.832  -7.899  -0.083  1.00  0.00     0.172 C 
HETATM   27  O   UNL     1     -21.403  -8.533   0.863  1.00  0.00    -0.648 OA
BRANCH  26  28
HETATM   28  O   UNL     1     -23.089  -7.385  -0.122  1.00  0.00    -0.774 OA
HETATM   29  H   UNL     1     -23.696  -7.995   0.368  1.00  0.00     0.167 HD
ENDBRANCH  26  28
ENDBRANCH  25  26
BRANCH  25  30
HETATM   30  O   UNL     1     -20.289  -8.719  -1.683  1.00  0.00    -0.382 OA
HETATM   31  H   UNL     1     -19.981  -9.097  -0.829  1.00  0.00     0.210 HD
ENDBRANCH  25  30
ENDBRANCH  24  25
BRANCH  24  32
HETATM   32  O   UNL     1     -22.387  -5.783  -2.264  1.00  0.00    -0.390 OA
HETATM   33  H   UNL     1     -22.864  -5.773  -1.412  1.00  0.00     0.210 HD
ENDBRANCH  24  32
ENDBRANCH   1  24
TORSDOF 17
BEGIN_RES ARG D 557
REMARK  4 active torsions:
REMARK  status: ('A' for Active; 'I' for Inactive)
REMARK    1  A    between atoms: CA   and  CB  
REMARK    2  A    between atoms: CB   and  CG  
REMARK    3  A    between atoms: CG   and  CD  
REMARK    4  A    between atoms: CD   and  NE  
REMARK       I    between atoms: NE   and  CZ  
REMARK       I    between atoms: CZ   and  NH1 
REMARK       I    between atoms: CZ   and  NH2 
ROOT
ATOM      1  CA  ARG D 557     -26.217   2.705 -17.014  1.00 35.49     0.159 C 
ENDROOT
BRANCH   1   2
ATOM      2  CB  ARG D 557     -26.789   1.319 -17.183  1.00 35.49     0.034 C 
BRANCH   2   3
ATOM      3  CG  ARG D 557     -25.835   0.203 -17.159  1.00 35.49     0.027 C 
BRANCH   3   4
ATOM      4  CD  ARG D 557     -24.751   0.409 -16.172  1.00 35.49     0.116 C 
BRANCH   4   5
ATOM      5  NE  ARG D 557     -24.899  -0.439 -15.019  1.00 35.49    -0.212 N 
ATOM      6  CZ  ARG D 557     -24.084  -1.409 -14.669  1.00 35.49     0.666 C 
ATOM      7  NH1 ARG D 557     -23.013  -1.725 -15.373  1.00 35.49    -0.235 N 
ATOM      8  NH2 ARG D 557     -24.362  -2.062 -13.578  1.00 35.49    -0.235 N 
ATOM      9  HH  ARG D 557     -22.810  -1.307 -16.093  1.00 35.49     0.174 HD
ATOM     10  HH  ARG D 557     -22.517  -2.365 -15.095  1.00 35.49     0.174 HD
ATOM     11  HH  ARG D 557     -25.056  -1.831 -13.139  1.00 35.49     0.174 HD
ATOM     12  HH  ARG D 557     -23.857  -2.692 -13.318  1.00 35.49     0.174 HD
ATOM     13  HE  ARG D 557     -25.601  -0.353 -14.548  1.00 35.49     0.178 HD
ENDBRANCH   4   5
ENDBRANCH   3   4
ENDBRANCH   2   3
ENDBRANCH   1   2
END_RES ARG D 557
BEGIN_RES GLU D 570
REMARK  3 active torsions:
REMARK  status: ('A' for Active; 'I' for Inactive)
REMARK    5  A    between atoms: CA   and  CB  
REMARK    6  A    between atoms: CB   and  CG  
REMARK    7  A    between atoms: CG   and  CD  
ROOT
ATOM     14  CA  GLU D 570     -18.033  -6.348 -13.375  1.00 32.92     0.160 C 
ENDROOT
BRANCH  14  15
ATOM     15  CB  GLU D 570     -19.500  -6.345 -13.794  1.00 32.92     0.043 C 
BRANCH  15  16
ATOM     16  CG  GLU D 570     -20.442  -5.533 -12.982  1.00 32.92     0.100 C 
BRANCH  16  17
ATOM     17  CD  GLU D 570     -21.739  -5.241 -13.700  1.00 32.92     0.185 C 
ATOM     18  OE1 GLU D 570     -22.300  -4.144 -13.514  1.00 32.92    -0.647 OA
ATOM     19  OE2 GLU D 570     -22.208  -6.126 -14.443  1.00 32.92    -0.647 OA
ENDBRANCH  16  17
ENDBRANCH  15  16
ENDBRANCH  14  15
END_RES GLU D 570
ENDMDL
MODEL 7
REMARK VINA RESULT:      -5.5      8.450     11.189
REMARK  17 active torsions:
REMARK  status: ('A' for Active; 'I' for Inactive)
REMARK    1  A    between atoms: C_1  and  C_2 
REMARK    2  A    between atoms: C_1  and  O_24 
REMARK    3  A    between atoms: C_3  and  O_23 
REMARK    4  A    between atoms: C_4  and  O_22 
REMARK    5  A    between atoms: C_5  and  O_21 
REMARK    6  A    between atoms: C_6  and  O_8 
REMARK    7  A    between atoms: O_8  and  C_9 
REMARK    8  A    between atoms: C_9  and  C_10 
REMARK    9  A    between atoms: C_9  and  C_14 
REMARK   10  A    between atoms: C_10  and  C_11 
REMARK   11  A    between atoms: C_10  and  O_13 
REMARK   12  A    between atoms: C_11  and  O_12 
REMARK   13  A    between atoms: C_14  and  C_15 
REMARK   14  A    between atoms: C_14  and  O_20 
REMARK   15  A    between atoms: C_15  and  C_16 
REMARK   16  A    between atoms: C_15  and  O_19 
REMARK   17  A    between atoms: C_16  and  O_18 
ROOT
HETATM    1  C   UNL     1     -21.133  -7.219  -3.395  1.00  0.00     0.187 C 
ENDROOT
BRANCH   1   2
HETATM    2  O   UNL     1     -21.435  -8.522  -3.956  1.00  0.00    -0.348 OA
BRANCH   2   3
HETATM    3  C   UNL     1     -20.491  -9.591  -3.735  1.00  0.00     0.292 C 
HETATM    4  C   UNL     1     -19.931  -9.954  -5.130  1.00  0.00     0.204 C 
HETATM    5  C   UNL     1     -18.979 -11.147  -5.024  1.00  0.00     0.183 C 
HETATM    6  C   UNL     1     -19.696 -12.346  -4.384  1.00  0.00     0.180 C 
HETATM    7  C   UNL     1     -20.325 -11.929  -3.043  1.00  0.00     0.179 C 
HETATM    8  O   UNL     1     -21.132 -10.722  -3.141  1.00  0.00    -0.348 OA
BRANCH   4   9
HETATM    9  O   UNL     1     -21.015 -10.315  -6.022  1.00  0.00    -0.388 OA
HETATM   10  H   UNL     1     -21.803 -10.372  -5.446  1.00  0.00     0.210 HD
ENDBRANCH   4   9
BRANCH   5  11
HETATM   11  O   UNL     1     -18.483 -11.485  -6.322  1.00  0.00    -0.390 OA
HETATM   12  H   UNL     1     -17.773 -10.839  -6.512  1.00  0.00     0.210 HD
ENDBRANCH   5  11
BRANCH   6  13
HETATM   13  O   UNL     1     -20.717 -12.858  -5.256  1.00  0.00    -0.390 OA
HETATM   14  H   UNL     1     -21.142 -13.612  -4.797  1.00  0.00     0.210 HD
ENDBRANCH   6  13
BRANCH   7  15
HETATM   15  C   UNL     1     -19.263 -11.792  -1.939  1.00  0.00     0.198 C 
BRANCH  15  16
HETATM   16  O   UNL     1     -19.856 -11.258  -0.758  1.00  0.00    -0.398 OA
HETATM   17  H   UNL     1     -19.392 -10.419  -0.588  1.00  0.00     0.209 HD
ENDBRANCH  15  16
ENDBRANCH   7  15
ENDBRANCH   2   3
ENDBRANCH   1   2
BRANCH   1  18
HETATM   18  C   UNL     1     -21.262  -6.065  -4.443  1.00  0.00     0.173 C 
BRANCH  18  19
HETATM   19  C   UNL     1     -20.413  -6.201  -5.719  1.00  0.00     0.198 C 
BRANCH  19  20
HETATM   20  O   UNL     1     -21.013  -7.149  -6.606  1.00  0.00    -0.398 OA
HETATM   21  H   UNL     1     -20.947  -8.022  -6.175  1.00  0.00     0.209 HD
ENDBRANCH  19  20
ENDBRANCH  18  19
BRANCH  18  22
HETATM   22  O   UNL     1     -22.629  -5.984  -4.911  1.00  0.00    -0.391 OA
HETATM   23  H   UNL     1     -23.121  -5.417  -4.289  1.00  0.00     0.210 HD
ENDBRANCH  18  22
ENDBRANCH   1  18
BRANCH   1  24
HETATM   24  C   UNL     1     -22.110  -7.040  -2.182  1.00  0.00     0.189 C 
BRANCH  24  25
HETATM   25  C   UNL     1     -21.624  -7.614  -0.838  1.00  0.00     0.246 C 
BRANCH  25  26
HETATM   26  C   UNL     1     -22.621  -8.598  -0.220  1.00  0.00     0.172 C 
HETATM   27  O   UNL     1     -23.477  -8.312   0.596  1.00  0.00    -0.648 OA
BRANCH  26  28
HETATM   28  O   UNL     1     -22.480  -9.845  -0.740  1.00  0.00    -0.774 OA
HETATM   29  H   UNL     1     -23.339 -10.117  -1.149  1.00  0.00     0.167 HD
ENDBRANCH  26  28
ENDBRANCH  25  26
BRANCH  25  30
HETATM   30  O   UNL     1     -20.416  -8.388  -1.061  1.00  0.00    -0.382 OA
HETATM   31  H   UNL     1     -19.882  -7.860  -1.696  1.00  0.00     0.210 HD
ENDBRANCH  25  30
ENDBRANCH  24  25
BRANCH  24  32
HETATM   32  O   UNL     1     -22.507  -5.683  -1.944  1.00  0.00    -0.390 OA
HETATM   33  H   UNL     1     -21.830  -5.090  -2.324  1.00  0.00     0.210 HD
ENDBRANCH  24  32
ENDBRANCH   1  24
TORSDOF 17
BEGIN_RES ARG D 557
REMARK  4 active torsions:
REMARK  status: ('A' for Active; 'I' for Inactive)
REMARK    1  A    between atoms: CA   and  CB  
REMARK    2  A    between atoms: CB   and  CG  
REMARK    3  A    between atoms: CG   and  CD  
REMARK    4  A    between atoms: CD   and  NE  
REMARK       I    between atoms: NE   and  CZ  
REMARK       I    between atoms: CZ   and  NH1 
REMARK       I    between atoms: CZ   and  NH2 
ROOT
ATOM      1  CA  ARG D 557     -26.217   2.705 -17.014  1.00 35.49     0.159 C 
ENDROOT
BRANCH   1   2
ATOM      2  CB  ARG D 557     -26.789   1.319 -17.183  1.00 35.49     0.034 C 
BRANCH   2   3
ATOM      3  CG  ARG D 557     -25.835   0.203 -17.161  1.00 35.49     0.027 C 
BRANCH   3   4
ATOM      4  CD  ARG D 557     -24.749   0.410 -16.176  1.00 35.49     0.116 C 
BRANCH   4   5
ATOM      5  NE  ARG D 557     -24.896  -0.436 -15.020  1.00 35.49    -0.212 N 
ATOM      6  CZ  ARG D 557     -24.083  -1.407 -14.670  1.00 35.49     0.666 C 
ATOM      7  NH1 ARG D 557     -23.015  -1.727 -15.378  1.00 35.49    -0.235 N 
ATOM      8  NH2 ARG D 557     -24.360  -2.058 -13.578  1.00 35.49    -0.235 N 
ATOM      9  HH  ARG D 557     -22.812  -1.311 -16.099  1.00 35.49     0.174 HD
ATOM     10  HH  ARG D 557     -22.519  -2.368 -15.099  1.00 35.49     0.174 HD
ATOM     11  HH  ARG D 557     -25.052  -1.824 -13.138  1.00 35.49     0.174 HD
ATOM     12  HH  ARG D 557     -23.856  -2.688 -13.318  1.00 35.49     0.174 HD
ATOM     13  HE  ARG D 557     -25.597  -0.347 -14.547  1.00 35.49     0.178 HD
ENDBRANCH   4   5
ENDBRANCH   3   4
ENDBRANCH   2   3
ENDBRANCH   1   2
END_RES ARG D 557
BEGIN_RES GLU D 570
REMARK  3 active torsions:
REMARK  status: ('A' for Active; 'I' for Inactive)
REMARK    5  A    between atoms: CA   and  CB  
REMARK    6  A    between atoms: CB   and  CG  
REMARK    7  A    between atoms: CG   and  CD  
ROOT
ATOM     14  CA  GLU D 570     -18.033  -6.348 -13.375  1.00 32.92     0.160 C 
ENDROOT
BRANCH  14  15
ATOM     15  CB  GLU D 570     -19.500  -6.345 -13.794  1.00 32.92     0.043 C 
BRANCH  15  16
ATOM     16  CG  GLU D 570     -20.441  -5.526 -12.987  1.00 32.92     0.100 C 
BRANCH  16  17
ATOM     17  CD  GLU D 570     -21.742  -5.246 -13.703  1.00 32.92     0.185 C 
ATOM     18  OE1 GLU D 570     -22.221  -6.119 -14.450  1.00 32.92    -0.647 OA
ATOM     19  OE2 GLU D 570     -22.278  -4.134 -13.527  1.00 32.92    -0.647 OA
ENDBRANCH  16  17
ENDBRANCH  15  16
ENDBRANCH  14  15
END_RES GLU D 570
ENDMDL
MODEL 8
REMARK VINA RESULT:      -5.5      8.066     10.741
REMARK  17 active torsions:
REMARK  status: ('A' for Active; 'I' for Inactive)
REMARK    1  A    between atoms: C_1  and  C_2 
REMARK    2  A    between atoms: C_1  and  O_24 
REMARK    3  A    between atoms: C_3  and  O_23 
REMARK    4  A    between atoms: C_4  and  O_22 
REMARK    5  A    between atoms: C_5  and  O_21 
REMARK    6  A    between atoms: C_6  and  O_8 
REMARK    7  A    between atoms: O_8  and  C_9 
REMARK    8  A    between atoms: C_9  and  C_10 
REMARK    9  A    between atoms: C_9  and  C_14 
REMARK   10  A    between atoms: C_10  and  C_11 
REMARK   11  A    between atoms: C_10  and  O_13 
REMARK   12  A    between atoms: C_11  and  O_12 
REMARK   13  A    between atoms: C_14  and  C_15 
REMARK   14  A    between atoms: C_14  and  O_20 
REMARK   15  A    between atoms: C_15  and  C_16 
REMARK   16  A    between atoms: C_15  and  O_19 
REMARK   17  A    between atoms: C_16  and  O_18 
ROOT
HETATM    1  C   UNL     1     -21.306  -7.298  -3.992  1.00  0.00     0.187 C 
ENDROOT
BRANCH   1   2
HETATM    2  O   UNL     1     -21.876  -8.532  -4.500  1.00  0.00    -0.348 OA
BRANCH   2   3
HETATM    3  C   UNL     1     -20.973  -9.607  -4.837  1.00  0.00     0.292 C 
HETATM    4  C   UNL     1     -21.559 -10.873  -4.169  1.00  0.00     0.204 C 
HETATM    5  C   UNL     1     -20.627 -12.066  -4.388  1.00  0.00     0.183 C 
HETATM    6  C   UNL     1     -19.223 -11.752  -3.849  1.00  0.00     0.180 C 
HETATM    7  C   UNL     1     -18.706 -10.437  -4.459  1.00  0.00     0.179 C 
HETATM    8  O   UNL     1     -19.658  -9.342  -4.346  1.00  0.00    -0.348 OA
BRANCH   4   9
HETATM    9  O   UNL     1     -21.699 -10.661  -2.741  1.00  0.00    -0.388 OA
HETATM   10  H   UNL     1     -21.609 -11.551  -2.347  1.00  0.00     0.210 HD
ENDBRANCH   4   9
BRANCH   5  11
HETATM   11  O   UNL     1     -21.169 -13.225  -3.749  1.00  0.00    -0.390 OA
HETATM   12  H   UNL     1     -20.888 -13.168  -2.813  1.00  0.00     0.210 HD
ENDBRANCH   5  11
BRANCH   6  13
HETATM   13  O   UNL     1     -19.236 -11.645  -2.416  1.00  0.00    -0.390 OA
HETATM   14  H   UNL     1     -20.079 -11.214  -2.163  1.00  0.00     0.210 HD
ENDBRANCH   6  13
BRANCH   7  15
HETATM   15  C   UNL     1     -18.260 -10.628  -5.919  1.00  0.00     0.198 C 
BRANCH  15  16
HETATM   16  O   UNL     1     -17.940  -9.365  -6.498  1.00  0.00    -0.398 OA
HETATM   17  H   UNL     1     -18.792  -8.908  -6.615  1.00  0.00     0.209 HD
ENDBRANCH  15  16
ENDBRANCH   7  15
ENDBRANCH   2   3
ENDBRANCH   1   2
BRANCH   1  18
HETATM   18  C   UNL     1     -21.567  -6.079  -4.936  1.00  0.00     0.173 C 
BRANCH  18  19
HETATM   19  C   UNL     1     -20.894  -6.127  -6.319  1.00  0.00     0.198 C 
BRANCH  19  20
HETATM   20  O   UNL     1     -19.809  -7.058  -6.301  1.00  0.00    -0.398 OA
HETATM   21  H   UNL     1     -19.775  -7.471  -7.185  1.00  0.00     0.209 HD
ENDBRANCH  19  20
ENDBRANCH  18  19
BRANCH  18  22
HETATM   22  O   UNL     1     -22.984  -5.974  -5.214  1.00  0.00    -0.391 OA
HETATM   23  H   UNL     1     -23.452  -5.958  -4.359  1.00  0.00     0.210 HD
ENDBRANCH  18  22
ENDBRANCH   1  18
BRANCH   1  24
HETATM   24  C   UNL     1     -21.926  -7.097  -2.566  1.00  0.00     0.189 C 
BRANCH  24  25
HETATM   25  C   UNL     1     -21.018  -7.474  -1.380  1.00  0.00     0.246 C 
BRANCH  25  26
HETATM   26  C   UNL     1     -21.810  -7.910  -0.144  1.00  0.00     0.172 C 
HETATM   27  O   UNL     1     -21.380  -8.605   0.756  1.00  0.00    -0.648 OA
BRANCH  26  28
HETATM   28  O   UNL     1     -23.058  -7.372  -0.136  1.00  0.00    -0.774 OA
HETATM   29  H   UNL     1     -23.703  -8.066  -0.418  1.00  0.00     0.167 HD
ENDBRANCH  26  28
ENDBRANCH  25  26
BRANCH  25  30
HETATM   30  O   UNL     1     -20.216  -8.628  -1.744  1.00  0.00    -0.382 OA
HETATM   31  H   UNL     1     -19.320  -8.272  -1.940  1.00  0.00     0.210 HD
ENDBRANCH  25  30
ENDBRANCH  24  25
BRANCH  24  32
HETATM   32  O   UNL     1     -22.415  -5.772  -2.321  1.00  0.00    -0.390 OA
HETATM   33  H   UNL     1     -22.265  -5.232  -3.122  1.00  0.00     0.210 HD
ENDBRANCH  24  32
ENDBRANCH   1  24
TORSDOF 17
BEGIN_RES ARG D 557
REMARK  4 active torsions:
REMARK  status: ('A' for Active; 'I' for Inactive)
REMARK    1  A    between atoms: CA   and  CB  
REMARK    2  A    between atoms: CB   and  CG  
REMARK    3  A    between atoms: CG   and  CD  
REMARK    4  A    between atoms: CD   and  NE  
REMARK       I    between atoms: NE   and  CZ  
REMARK       I    between atoms: CZ   and  NH1 
REMARK       I    between atoms: CZ   and  NH2 
ROOT
ATOM      1  CA  ARG D 557     -26.217   2.705 -17.014  1.00 35.49     0.159 C 
ENDROOT
BRANCH   1   2
ATOM      2  CB  ARG D 557     -26.789   1.319 -17.183  1.00 35.49     0.034 C 
BRANCH   2   3
ATOM      3  CG  ARG D 557     -28.235   1.225 -17.418  1.00 35.49     0.027 C 
BRANCH   3   4
ATOM      4  CD  ARG D 557     -28.899   0.288 -16.483  1.00 35.49     0.116 C 
BRANCH   4   5
ATOM      5  NE  ARG D 557     -29.290  -0.937 -17.129  1.00 35.49    -0.212 N 
ATOM      6  CZ  ARG D 557     -28.665  -2.089 -17.035  1.00 35.49     0.666 C 
ATOM      7  NH1 ARG D 557     -27.564  -2.242 -16.322  1.00 35.49    -0.235 N 
ATOM      8  NH2 ARG D 557     -29.174  -3.102 -17.673  1.00 35.49    -0.235 N 
ATOM      9  HH  ARG D 557     -27.212  -1.589 -15.893  1.00 35.49     0.174 HD
ATOM     10  HH  ARG D 557     -27.201  -3.017 -16.296  1.00 35.49     0.174 HD
ATOM     11  HH  ARG D 557     -29.890  -2.975 -18.119  1.00 35.49     0.174 HD
ATOM     12  HH  ARG D 557     -28.801  -3.862 -17.633  1.00 35.49     0.174 HD
ATOM     13  HE  ARG D 557     -29.949  -0.912 -17.667  1.00 35.49     0.178 HD
ENDBRANCH   4   5
ENDBRANCH   3   4
ENDBRANCH   2   3
ENDBRANCH   1   2
END_RES ARG D 557
BEGIN_RES GLU D 570
REMARK  3 active torsions:
REMARK  status: ('A' for Active; 'I' for Inactive)
REMARK    5  A    between atoms: CA   and  CB  
REMARK    6  A    between atoms: CB   and  CG  
REMARK    7  A    between atoms: CG   and  CD  
ROOT
ATOM     14  CA  GLU D 570     -18.033  -6.348 -13.375  1.00 32.92     0.160 C 
ENDROOT
BRANCH  14  15
ATOM     15  CB  GLU D 570     -19.500  -6.345 -13.794  1.00 32.92     0.043 C 
BRANCH  15  16
ATOM     16  CG  GLU D 570     -20.448  -5.561 -12.961  1.00 32.92     0.100 C 
BRANCH  16  17
ATOM     17  CD  GLU D 570     -21.707  -5.178 -13.704  1.00 32.92     0.185 C 
ATOM     18  OE1 GLU D 570     -21.830  -5.510 -14.898  1.00 32.92    -0.647 OA
ATOM     19  OE2 GLU D 570     -22.573  -4.524 -13.089  1.00 32.92    -0.647 OA
ENDBRANCH  16  17
ENDBRANCH  15  16
ENDBRANCH  14  15
END_RES GLU D 570
ENDMDL
MODEL 9
REMARK VINA RESULT:      -5.4      8.969     11.857
REMARK  17 active torsions:
REMARK  status: ('A' for Active; 'I' for Inactive)
REMARK    1  A    between atoms: C_1  and  C_2 
REMARK    2  A    between atoms: C_1  and  O_24 
REMARK    3  A    between atoms: C_3  and  O_23 
REMARK    4  A    between atoms: C_4  and  O_22 
REMARK    5  A    between atoms: C_5  and  O_21 
REMARK    6  A    between atoms: C_6  and  O_8 
REMARK    7  A    between atoms: O_8  and  C_9 
REMARK    8  A    between atoms: C_9  and  C_10 
REMARK    9  A    between atoms: C_9  and  C_14 
REMARK   10  A    between atoms: C_10  and  C_11 
REMARK   11  A    between atoms: C_10  and  O_13 
REMARK   12  A    between atoms: C_11  and  O_12 
REMARK   13  A    between atoms: C_14  and  C_15 
REMARK   14  A    between atoms: C_14  and  O_20 
REMARK   15  A    between atoms: C_15  and  C_16 
REMARK   16  A    between atoms: C_15  and  O_19 
REMARK   17  A    between atoms: C_16  and  O_18 
ROOT
HETATM    1  C   UNL     1     -21.080  -7.631  -2.030  1.00  0.00     0.187 C 
ENDROOT
BRANCH   1   2
HETATM    2  O   UNL     1     -20.999  -8.656  -3.054  1.00  0.00    -0.348 OA
BRANCH   2   3
HETATM    3  C   UNL     1     -19.711  -9.250  -3.319  1.00  0.00     0.292 C 
HETATM    4  C   UNL     1     -19.400  -8.938  -4.802  1.00  0.00     0.204 C 
HETATM    5  C   UNL     1     -18.087  -9.603  -5.218  1.00  0.00     0.183 C 
HETATM    6  C   UNL     1     -18.155 -11.119  -4.971  1.00  0.00     0.180 C 
HETATM    7  C   UNL     1     -18.560 -11.397  -3.513  1.00  0.00     0.179 C 
HETATM    8  O   UNL     1     -19.745 -10.662  -3.099  1.00  0.00    -0.348 OA
BRANCH   4   9
HETATM    9  O   UNL     1     -20.459  -9.451  -5.649  1.00  0.00    -0.388 OA
HETATM   10  H   UNL     1     -21.226  -8.873  -5.465  1.00  0.00     0.210 HD
ENDBRANCH   4   9
BRANCH   5  11
HETATM   11  O   UNL     1     -17.821  -9.324  -6.595  1.00  0.00    -0.390 OA
HETATM   12  H   UNL     1     -16.859  -9.465  -6.714  1.00  0.00     0.210 HD
ENDBRANCH   5  11
BRANCH   6  13
HETATM   13  O   UNL     1     -19.097 -11.741  -5.860  1.00  0.00    -0.390 OA
HETATM   14  H   UNL     1     -19.996 -11.526  -5.530  1.00  0.00     0.210 HD
ENDBRANCH   6  13
BRANCH   7  15
HETATM   15  C   UNL     1     -17.392 -11.147  -2.544  1.00  0.00     0.198 C 
BRANCH  15  16
HETATM   16  O   UNL     1     -17.734 -11.610  -1.240  1.00  0.00    -0.398 OA
HETATM   17  H   UNL     1     -17.909 -12.563  -1.338  1.00  0.00     0.209 HD
ENDBRANCH  15  16
ENDBRANCH   7  15
ENDBRANCH   2   3
ENDBRANCH   1   2
BRANCH   1  18
HETATM   18  C   UNL     1     -21.376  -6.213  -2.619  1.00  0.00     0.173 C 
BRANCH  18  19
HETATM   19  C   UNL     1     -21.349  -6.088  -4.153  1.00  0.00     0.198 C 
BRANCH  19  20
HETATM   20  O   UNL     1     -22.297  -6.988  -4.732  1.00  0.00    -0.398 OA
HETATM   21  H   UNL     1     -22.257  -6.860  -5.699  1.00  0.00     0.209 HD
ENDBRANCH  19  20
ENDBRANCH  18  19
BRANCH  18  22
HETATM   22  O   UNL     1     -22.707  -5.793  -2.234  1.00  0.00    -0.391 OA
HETATM   23  H   UNL     1     -22.702  -4.821  -2.166  1.00  0.00     0.210 HD
ENDBRANCH  18  22
ENDBRANCH   1  18
BRANCH   1  24
HETATM   24  C   UNL     1     -22.191  -8.111  -1.033  1.00  0.00     0.189 C 
BRANCH  24  25
HETATM   25  C   UNL     1     -22.207  -9.619  -0.721  1.00  0.00     0.246 C 
BRANCH  25  26
HETATM   26  C   UNL     1     -21.078 -10.039   0.223  1.00  0.00     0.172 C 
HETATM   27  O   UNL     1     -20.861  -9.556   1.318  1.00  0.00    -0.648 OA
BRANCH  26  28
HETATM   28  O   UNL     1     -20.362 -11.076  -0.285  1.00  0.00    -0.774 OA
HETATM   29  H   UNL     1     -20.060 -10.837  -1.196  1.00  0.00     0.167 HD
ENDBRANCH  26  28
ENDBRANCH  25  26
BRANCH  25  30
HETATM   30  O   UNL     1     -23.434  -9.945  -0.015  1.00  0.00    -0.382 OA
HETATM   31  H   UNL     1     -23.934  -9.100   0.044  1.00  0.00     0.210 HD
ENDBRANCH  25  30
ENDBRANCH  24  25
BRANCH  24  32
HETATM   32  O   UNL     1     -22.190  -7.418   0.222  1.00  0.00    -0.390 OA
HETATM   33  H   UNL     1     -22.156  -6.458   0.048  1.00  0.00     0.210 HD
ENDBRANCH  24  32
ENDBRANCH   1  24
TORSDOF 17
BEGIN_RES ARG D 557
REMARK  4 active torsions:
REMARK  status: ('A' for Active; 'I' for Inactive)
REMARK    1  A    between atoms: CA   and  CB  
REMARK    2  A    between atoms: CB   and  CG  
REMARK    3  A    between atoms: CG   and  CD  
REMARK    4  A    between atoms: CD   and  NE  
REMARK       I    between atoms: NE   and  CZ  
REMARK       I    between atoms: CZ   and  NH1 
REMARK       I    between atoms: CZ   and  NH2 
ROOT
ATOM      1  CA  ARG D 557     -26.217   2.705 -17.014  1.00 35.49     0.159 C 
ENDROOT
BRANCH   1   2
ATOM      2  CB  ARG D 557     -26.789   1.319 -17.183  1.00 35.49     0.034 C 
BRANCH   2   3
ATOM      3  CG  ARG D 557     -25.835   0.204 -17.167  1.00 35.49     0.027 C 
BRANCH   3   4
ATOM      4  CD  ARG D 557     -24.769   0.388 -16.155  1.00 35.49     0.116 C 
BRANCH   4   5
ATOM      5  NE  ARG D 557     -24.948  -0.474 -15.016  1.00 35.49    -0.212 N 
ATOM      6  CZ  ARG D 557     -24.139  -1.444 -14.653  1.00 35.49     0.666 C 
ATOM      7  NH1 ARG D 557     -23.045  -1.746 -15.328  1.00 35.49    -0.235 N 
ATOM      8  NH2 ARG D 557     -24.446  -2.112 -13.579  1.00 35.49    -0.235 N 
ATOM      9  HH  ARG D 557     -22.822  -1.319 -16.036  1.00 35.49     0.174 HD
ATOM     10  HH  ARG D 557     -22.554  -2.387 -15.042  1.00 35.49     0.174 HD
ATOM     11  HH  ARG D 557     -25.154  -1.889 -13.158  1.00 35.49     0.174 HD
ATOM     12  HH  ARG D 557     -23.946  -2.742 -13.310  1.00 35.49     0.174 HD
ATOM     13  HE  ARG D 557     -25.665  -0.397 -14.566  1.00 35.49     0.178 HD
ENDBRANCH   4   5
ENDBRANCH   3   4
ENDBRANCH   2   3
ENDBRANCH   1   2
END_RES ARG D 557
BEGIN_RES GLU D 570
REMARK  3 active torsions:
REMARK  status: ('A' for Active; 'I' for Inactive)
REMARK    5  A    between atoms: CA   and  CB  
REMARK    6  A    between atoms: CB   and  CG  
REMARK    7  A    between atoms: CG   and  CD  
ROOT
ATOM     14  CA  GLU D 570     -18.033  -6.348 -13.375  1.00 32.92     0.160 C 
ENDROOT
BRANCH  14  15
ATOM     15  CB  GLU D 570     -19.500  -6.345 -13.794  1.00 32.92     0.043 C 
BRANCH  15  16
ATOM     16  CG  GLU D 570     -20.439  -5.517 -12.994  1.00 32.92     0.100 C 
BRANCH  16  17
ATOM     17  CD  GLU D 570     -21.607  -5.002 -13.802  1.00 32.92     0.185 C 
ATOM     18  OE1 GLU D 570     -21.766  -5.416 -14.967  1.00 32.92    -0.647 OA
ATOM     19  OE2 GLU D 570     -22.362  -4.164 -13.271  1.00 32.92    -0.647 OA
ENDBRANCH  16  17
ENDBRANCH  15  16
ENDBRANCH  14  15
END_RES GLU D 570
ENDMDL
