MODEL 1
REMARK VINA RESULT:      -9.8      0.000      0.000
REMARK  6 active torsions:
REMARK  status: ('A' for Active; 'I' for Inactive)
REMARK    1  A    between atoms: C_9  and  N_15 
REMARK    2  A    between atoms: C_10  and  S_11 
REMARK    3  A    between atoms: S_11  and  O_13 
REMARK    4  A    between atoms: N_17  and  C_19 
REMARK    5  A    between atoms: C_21  and  C_29 
REMARK    6  A    between atoms: C_29  and  O_31 
ROOT
HETATM    1  N   UNL     1     -25.317  -5.219 -15.578  1.00  0.00    -0.299 N 
ATOM      2  HN  UNL     1     -25.765  -4.428 -16.040  1.00  0.00     0.187 HD
HETATM    3  N   UNL     1     -25.556  -6.414 -15.880  1.00  0.00    -0.296 N 
ATOM      4  HN  UNL     1     -25.083  -7.218 -15.468  1.00  0.00     0.187 HD
ENDROOT
BRANCH   1   5
HETATM    5  C   UNL     1     -24.364  -5.069 -14.534  1.00  0.00     0.072 A 
HETATM    6  C   UNL     1     -23.740  -6.169 -13.932  1.00  0.00     0.033 A 
HETATM    7  C   UNL     1     -22.786  -6.012 -12.926  1.00  0.00     0.014 A 
HETATM    8  C   UNL     1     -22.384  -4.735 -12.508  1.00  0.00    -0.024 A 
HETATM    9  C   UNL     1     -22.959  -3.592 -13.095  1.00  0.00     0.000 A 
HETATM   10  C   UNL     1     -21.422  -4.607 -11.491  1.00  0.00     0.012 A 
HETATM   11  C   UNL     1     -22.481  -2.325 -12.660  1.00  0.00     0.014 A 
HETATM   12  C   UNL     1     -24.001  -3.794 -14.056  1.00  0.00     0.127 A 
HETATM   13  C   UNL     1     -21.549  -2.210 -11.620  1.00  0.00     0.001 A 
HETATM   14  C   UNL     1     -21.029  -3.335 -11.045  1.00  0.00     0.001 A 
BRANCH  12  15
HETATM   15  S   UNL     1     -25.178  -2.454 -14.287  1.00  0.00     0.328 S 
HETATM   16  O   UNL     1     -25.889  -2.250 -13.058  1.00  0.00    -0.191 OA
HETATM   17  O   UNL     1     -25.933  -2.849 -15.496  1.00  0.00    -0.191 OA
BRANCH  15  18
HETATM   18  O   UNL     1     -24.381  -1.360 -14.841  1.00  0.00    -0.086 OA
HETATM   19 CA   UNL     2     -25.247   0.452 -14.384  1.00  0.00     0.000 Ca
ENDBRANCH  15  18
ENDBRANCH  12  15
ENDBRANCH   1   5
BRANCH   3  20
HETATM   20  C   UNL     1     -26.582  -6.499 -16.878  1.00  0.00     0.110 A 
HETATM   21  C   UNL     1     -27.973  -6.492 -16.459  1.00  0.00     0.217 A 
HETATM   22  C   UNL     1     -28.899  -6.563 -17.568  1.00  0.00     0.090 A 
HETATM   23  O   UNL     1     -28.355  -6.435 -15.220  1.00  0.00    -0.285 OA
HETATM   24  C   UNL     1     -28.492  -6.717 -18.905  1.00  0.00     0.034 A 
HETATM   25  C   UNL     1     -27.149  -6.802 -19.263  1.00  0.00    -0.022 A 
HETATM   26  C   UNL     1     -26.788  -7.005 -20.613  1.00  0.00     0.012 A 
HETATM   27  C   UNL     1     -26.170  -6.683 -18.256  1.00  0.00     0.006 A 
HETATM   28  C   UNL     1     -25.450  -7.095 -20.992  1.00  0.00     0.001 A 
HETATM   29  C   UNL     1     -24.462  -6.986 -20.019  1.00  0.00     0.001 A 
HETATM   30  C   UNL     1     -24.815  -6.779 -18.683  1.00  0.00     0.015 A 
BRANCH  22  31
HETATM   31  C   UNL     1     -30.397  -6.470 -17.380  1.00  0.00     0.180 C 
HETATM   32  O   UNL     1     -31.199  -7.182 -17.961  1.00  0.00    -0.646 OA
BRANCH  31  33
HETATM   33  O   UNL     1     -30.786  -5.490 -16.529  1.00  0.00    -0.773 OA
HETATM   34  H   UNL     1     -30.771  -4.647 -17.065  1.00  0.00     0.167 HD
ENDBRANCH  31  33
ENDBRANCH  22  31
ENDBRANCH   3  20
TORSDOF 6
BEGIN_RES ARG D 557
REMARK  4 active torsions:
REMARK  status: ('A' for Active; 'I' for Inactive)
REMARK    1  A    between atoms: CA   and  CB  
REMARK    2  A    between atoms: CB   and  CG  
REMARK    3  A    between atoms: CG   and  CD  
REMARK    4  A    between atoms: CD   and  NE  
REMARK       I    between atoms: NE   and  CZ  
REMARK       I    between atoms: CZ   and  NH1 
REMARK       I    between atoms: CZ   and  NH2 
ROOT
ATOM      1  CA  ARG D 557     -26.217   2.705 -17.014  1.00 35.49     0.159 C 
ENDROOT
BRANCH   1   2
ATOM      2  CB  ARG D 557     -26.789   1.319 -17.183  1.00 35.49     0.034 C 
BRANCH   2   3
ATOM      3  CG  ARG D 557     -28.150   1.100 -16.679  1.00 35.49     0.027 C 
BRANCH   3   4
ATOM      4  CD  ARG D 557     -28.843  -0.003 -17.384  1.00 35.49     0.116 C 
BRANCH   4   5
ATOM      5  NE  ARG D 557     -28.335  -1.294 -17.002  1.00 35.49    -0.212 N 
ATOM      6  CZ  ARG D 557     -28.984  -2.433 -17.096  1.00 35.49     0.666 C 
ATOM      7  NH1 ARG D 557     -30.220  -2.509 -17.555  1.00 35.49    -0.235 N 
ATOM      8  NH2 ARG D 557     -28.360  -3.512 -16.723  1.00 35.49    -0.235 N 
ATOM      9  HH  ARG D 557     -30.649  -1.812 -17.808  1.00 35.49     0.174 HD
ATOM     10  HH  ARG D 557     -30.592  -3.280 -17.596  1.00 35.49     0.174 HD
ATOM     11  HH  ARG D 557     -27.560  -3.433 -16.438  1.00 35.49     0.174 HD
ATOM     12  HH  ARG D 557     -28.745  -4.266 -16.772  1.00 35.49     0.174 HD
ATOM     13  HE  ARG D 557     -27.572  -1.329 -16.629  1.00 35.49     0.178 HD
ENDBRANCH   4   5
ENDBRANCH   3   4
ENDBRANCH   2   3
ENDBRANCH   1   2
END_RES ARG D 557
BEGIN_RES GLU D 570
REMARK  3 active torsions:
REMARK  status: ('A' for Active; 'I' for Inactive)
REMARK    5  A    between atoms: CA   and  CB  
REMARK    6  A    between atoms: CB   and  CG  
REMARK    7  A    between atoms: CG   and  CD  
ROOT
ATOM     14  CA  GLU D 570     -18.033  -6.348 -13.375  1.00 32.92     0.160 C 
ENDROOT
BRANCH  14  15
ATOM     15  CB  GLU D 570     -19.500  -6.345 -13.794  1.00 32.92     0.043 C 
BRANCH  15  16
ATOM     16  CG  GLU D 570     -19.805  -6.052 -15.218  1.00 32.92     0.100 C 
BRANCH  16  17
ATOM     17  CD  GLU D 570     -20.704  -7.086 -15.854  1.00 32.92     0.185 C 
ATOM     18  OE1 GLU D 570     -20.727  -8.240 -15.383  1.00 32.92    -0.647 OA
ATOM     19  OE2 GLU D 570     -21.381  -6.744 -16.843  1.00 32.92    -0.647 OA
ENDBRANCH  16  17
ENDBRANCH  15  16
ENDBRANCH  14  15
END_RES GLU D 570
ENDMDL
MODEL 2
REMARK VINA RESULT:      -9.7      7.818     11.037
REMARK  6 active torsions:
REMARK  status: ('A' for Active; 'I' for Inactive)
REMARK    1  A    between atoms: C_9  and  N_15 
REMARK    2  A    between atoms: C_10  and  S_11 
REMARK    3  A    between atoms: S_11  and  O_13 
REMARK    4  A    between atoms: N_17  and  C_19 
REMARK    5  A    between atoms: C_21  and  C_29 
REMARK    6  A    between atoms: C_29  and  O_31 
ROOT
HETATM    1  N   UNL     1     -21.974  -6.463  -4.850  1.00  0.00    -0.299 N 
ATOM      2  HN  UNL     1     -22.249  -7.038  -5.645  1.00  0.00     0.187 HD
HETATM    3  N   UNL     1     -21.728  -5.236  -4.945  1.00  0.00    -0.296 N 
ATOM      4  HN  UNL     1     -21.502  -4.630  -4.156  1.00  0.00     0.187 HD
ENDROOT
BRANCH   1   5
HETATM    5  C   UNL     1     -21.834  -6.977  -3.532  1.00  0.00     0.072 A 
HETATM    6  C   UNL     1     -22.205  -6.239  -2.402  1.00  0.00     0.033 A 
HETATM    7  C   UNL     1     -22.089  -6.761  -1.113  1.00  0.00     0.014 A 
HETATM    8  C   UNL     1     -21.633  -8.071  -0.905  1.00  0.00    -0.024 A 
HETATM    9  C   UNL     1     -21.269  -8.869  -2.006  1.00  0.00     0.000 A 
HETATM   10  C   UNL     1     -21.525  -8.571   0.404  1.00  0.00     0.012 A 
HETATM   11  C   UNL     1     -20.854 -10.202  -1.736  1.00  0.00     0.014 A 
HETATM   12  C   UNL     1     -21.312  -8.267  -3.305  1.00  0.00     0.127 A 
HETATM   13  C   UNL     1     -20.715 -10.676  -0.425  1.00  0.00     0.001 A 
HETATM   14  C   UNL     1     -21.045  -9.871   0.628  1.00  0.00     0.001 A 
BRANCH  12  15
HETATM   15  S   UNL     1     -20.249  -8.968  -4.573  1.00  0.00     0.328 S 
HETATM   16  O   UNL     1     -20.859 -10.166  -5.074  1.00  0.00    -0.191 OA
HETATM   17  O   UNL     1     -18.926  -9.058  -3.917  1.00  0.00    -0.191 OA
BRANCH  15  18
HETATM   18  O   UNL     1     -19.993  -7.859  -5.491  1.00  0.00    -0.086 OA
HETATM   19 CA   UNL     2     -18.511  -8.368  -6.827  1.00  0.00     0.000 Ca
ENDBRANCH  15  18
ENDBRANCH  12  15
ENDBRANCH   1   5
BRANCH   3  20
HETATM   20  C   UNL     1     -21.806  -4.797  -6.309  1.00  0.00     0.110 A 
HETATM   21  C   UNL     1     -23.105  -4.751  -6.958  1.00  0.00     0.217 A 
HETATM   22  C   UNL     1     -23.039  -4.271  -8.321  1.00  0.00     0.090 A 
HETATM   23  O   UNL     1     -24.214  -5.108  -6.385  1.00  0.00    -0.285 OA
HETATM   24  C   UNL     1     -21.832  -3.971  -8.976  1.00  0.00     0.034 A 
HETATM   25  C   UNL     1     -20.597  -4.104  -8.347  1.00  0.00    -0.022 A 
HETATM   26  C   UNL     1     -19.407  -3.836  -9.060  1.00  0.00     0.012 A 
HETATM   27  C   UNL     1     -20.564  -4.509  -6.997  1.00  0.00     0.006 A 
HETATM   28  C   UNL     1     -18.162  -3.966  -8.450  1.00  0.00     0.001 A 
HETATM   29  C   UNL     1     -18.097  -4.368  -7.119  1.00  0.00     0.001 A 
HETATM   30  C   UNL     1     -19.273  -4.627  -6.410  1.00  0.00     0.015 A 
BRANCH  22  31
HETATM   31  C   UNL     1     -24.277  -4.046  -9.161  1.00  0.00     0.180 C 
HETATM   32  O   UNL     1     -24.721  -4.866  -9.948  1.00  0.00    -0.646 OA
BRANCH  31  33
HETATM   33  O   UNL     1     -24.841  -2.825  -8.995  1.00  0.00    -0.773 OA
HETATM   34  H   UNL     1     -24.111  -2.166  -9.174  1.00  0.00     0.167 HD
ENDBRANCH  31  33
ENDBRANCH  22  31
ENDBRANCH   3  20
TORSDOF 6
BEGIN_RES ARG D 557
REMARK  4 active torsions:
REMARK  status: ('A' for Active; 'I' for Inactive)
REMARK    1  A    between atoms: CA   and  CB  
REMARK    2  A    between atoms: CB   and  CG  
REMARK    3  A    between atoms: CG   and  CD  
REMARK    4  A    between atoms: CD   and  NE  
REMARK       I    between atoms: NE   and  CZ  
REMARK       I    between atoms: CZ   and  NH1 
REMARK       I    between atoms: CZ   and  NH2 
ROOT
ATOM      1  CA  ARG D 557     -26.217   2.705 -17.014  1.00 35.49     0.159 C 
ENDROOT
BRANCH   1   2
ATOM      2  CB  ARG D 557     -26.789   1.319 -17.183  1.00 35.49     0.034 C 
BRANCH   2   3
ATOM      3  CG  ARG D 557     -25.834   0.204 -17.172  1.00 35.49     0.027 C 
BRANCH   3   4
ATOM      4  CD  ARG D 557     -24.755   0.395 -16.175  1.00 35.49     0.116 C 
BRANCH   4   5
ATOM      5  NE  ARG D 557     -24.922  -0.454 -15.025  1.00 35.49    -0.212 N 
ATOM      6  CZ  ARG D 557     -24.116  -1.427 -14.665  1.00 35.49     0.666 C 
ATOM      7  NH1 ARG D 557     -23.037  -1.746 -15.356  1.00 35.49    -0.235 N 
ATOM      8  NH2 ARG D 557     -24.411  -2.081 -13.580  1.00 35.49    -0.235 N 
ATOM      9  HH  ARG D 557     -22.822  -1.327 -16.072  1.00 35.49     0.174 HD
ATOM     10  HH  ARG D 557     -22.547  -2.388 -15.071  1.00 35.49     0.174 HD
ATOM     11  HH  ARG D 557     -25.110  -1.848 -13.150  1.00 35.49     0.174 HD
ATOM     12  HH  ARG D 557     -23.913  -2.713 -13.314  1.00 35.49     0.174 HD
ATOM     13  HE  ARG D 557     -25.631  -0.366 -14.564  1.00 35.49     0.178 HD
ENDBRANCH   4   5
ENDBRANCH   3   4
ENDBRANCH   2   3
ENDBRANCH   1   2
END_RES ARG D 557
BEGIN_RES GLU D 570
REMARK  3 active torsions:
REMARK  status: ('A' for Active; 'I' for Inactive)
REMARK    5  A    between atoms: CA   and  CB  
REMARK    6  A    between atoms: CB   and  CG  
REMARK    7  A    between atoms: CG   and  CD  
ROOT
ATOM     14  CA  GLU D 570     -18.033  -6.348 -13.375  1.00 32.92     0.160 C 
ENDROOT
BRANCH  14  15
ATOM     15  CB  GLU D 570     -19.500  -6.345 -13.794  1.00 32.92     0.043 C 
BRANCH  15  16
ATOM     16  CG  GLU D 570     -20.444  -5.539 -12.977  1.00 32.92     0.100 C 
BRANCH  16  17
ATOM     17  CD  GLU D 570     -21.740  -5.244 -13.694  1.00 32.92     0.185 C 
ATOM     18  OE1 GLU D 570     -22.300  -4.147 -13.507  1.00 32.92    -0.647 OA
ATOM     19  OE2 GLU D 570     -22.210  -6.127 -14.439  1.00 32.92    -0.647 OA
ENDBRANCH  16  17
ENDBRANCH  15  16
ENDBRANCH  14  15
END_RES GLU D 570
ENDMDL
MODEL 3
REMARK VINA RESULT:      -9.5     10.095     13.815
REMARK  6 active torsions:
REMARK  status: ('A' for Active; 'I' for Inactive)
REMARK    1  A    between atoms: C_9  and  N_15 
REMARK    2  A    between atoms: C_10  and  S_11 
REMARK    3  A    between atoms: S_11  and  O_13 
REMARK    4  A    between atoms: N_17  and  C_19 
REMARK    5  A    between atoms: C_21  and  C_29 
REMARK    6  A    between atoms: C_29  and  O_31 
ROOT
HETATM    1  N   UNL     1     -18.034  -9.465  -3.437  1.00  0.00    -0.299 N 
ATOM      2  HN  UNL     1     -17.779  -8.506  -3.672  1.00  0.00     0.187 HD
HETATM    3  N   UNL     1     -19.218  -9.827  -3.227  1.00  0.00    -0.296 N 
ATOM      4  HN  UNL     1     -19.503 -10.788  -3.042  1.00  0.00     0.187 HD
ENDROOT
BRANCH   1   5
HETATM    5  C   UNL     1     -17.083 -10.515  -3.319  1.00  0.00     0.072 A 
HETATM    6  C   UNL     1     -16.249 -10.640  -2.201  1.00  0.00     0.033 A 
HETATM    7  C   UNL     1     -15.336 -11.689  -2.080  1.00  0.00     0.014 A 
HETATM    8  C   UNL     1     -15.250 -12.686  -3.063  1.00  0.00    -0.024 A 
HETATM    9  C   UNL     1     -16.082 -12.624  -4.197  1.00  0.00     0.000 A 
HETATM   10  C   UNL     1     -14.321 -13.730  -2.917  1.00  0.00     0.012 A 
HETATM   11  C   UNL     1     -15.980 -13.686  -5.138  1.00  0.00     0.014 A 
HETATM   12  C   UNL     1     -16.939 -11.485  -4.331  1.00  0.00     0.127 A 
HETATM   13  C   UNL     1     -15.024 -14.701  -5.000  1.00  0.00     0.001 A 
HETATM   14  C   UNL     1     -14.207 -14.720  -3.905  1.00  0.00     0.001 A 
BRANCH  12  15
HETATM   15  S   UNL     1     -17.457 -11.035  -5.993  1.00  0.00     0.328 S 
HETATM   16  O   UNL     1     -18.878 -11.200  -6.092  1.00  0.00    -0.191 OA
HETATM   17  O   UNL     1     -16.579 -11.843  -6.869  1.00  0.00    -0.191 OA
BRANCH  15  18
HETATM   18  O   UNL     1     -16.874  -9.712  -6.212  1.00  0.00    -0.086 OA
HETATM   19 CA   UNL     2     -18.153  -8.549  -7.332  1.00  0.00     0.000 Ca
ENDBRANCH  15  18
ENDBRANCH  12  15
ENDBRANCH   1   5
BRANCH   3  20
HETATM   20  C   UNL     1     -20.117  -8.710  -3.280  1.00  0.00     0.110 A 
HETATM   21  C   UNL     1     -20.193  -7.927  -4.501  1.00  0.00     0.217 A 
HETATM   22  C   UNL     1     -21.152  -6.848  -4.422  1.00  0.00     0.090 A 
HETATM   23  O   UNL     1     -19.474  -8.161  -5.557  1.00  0.00    -0.285 OA
HETATM   24  C   UNL     1     -21.866  -6.533  -3.253  1.00  0.00     0.034 A 
HETATM   25  C   UNL     1     -21.707  -7.256  -2.074  1.00  0.00    -0.022 A 
HETATM   26  C   UNL     1     -22.410  -6.875  -0.909  1.00  0.00     0.012 A 
HETATM   27  C   UNL     1     -20.838  -8.366  -2.070  1.00  0.00     0.006 A 
HETATM   28  C   UNL     1     -22.263  -7.584   0.281  1.00  0.00     0.001 A 
HETATM   29  C   UNL     1     -21.408  -8.681   0.316  1.00  0.00     0.001 A 
HETATM   30  C   UNL     1     -20.717  -9.064  -0.836  1.00  0.00     0.015 A 
BRANCH  22  31
HETATM   31  C   UNL     1     -21.474  -5.961  -5.605  1.00  0.00     0.180 C 
HETATM   32  O   UNL     1     -22.587  -5.522  -5.842  1.00  0.00    -0.646 OA
BRANCH  31  33
HETATM   33  O   UNL     1     -20.416  -5.720  -6.417  1.00  0.00    -0.773 OA
HETATM   34  H   UNL     1     -19.875  -6.560  -6.409  1.00  0.00     0.167 HD
ENDBRANCH  31  33
ENDBRANCH  22  31
ENDBRANCH   3  20
TORSDOF 6
BEGIN_RES ARG D 557
REMARK  4 active torsions:
REMARK  status: ('A' for Active; 'I' for Inactive)
REMARK    1  A    between atoms: CA   and  CB  
REMARK    2  A    between atoms: CB   and  CG  
REMARK    3  A    between atoms: CG   and  CD  
REMARK    4  A    between atoms: CD   and  NE  
REMARK       I    between atoms: NE   and  CZ  
REMARK       I    between atoms: CZ   and  NH1 
REMARK       I    between atoms: CZ   and  NH2 
ROOT
ATOM      1  CA  ARG D 557     -26.217   2.705 -17.014  1.00 35.49     0.159 C 
ENDROOT
BRANCH   1   2
ATOM      2  CB  ARG D 557     -26.789   1.319 -17.183  1.00 35.49     0.034 C 
BRANCH   2   3
ATOM      3  CG  ARG D 557     -25.836   0.203 -17.153  1.00 35.49     0.027 C 
BRANCH   3   4
ATOM      4  CD  ARG D 557     -24.758   0.408 -16.159  1.00 35.49     0.116 C 
BRANCH   4   5
ATOM      5  NE  ARG D 557     -24.909  -0.446 -15.011  1.00 35.49    -0.212 N 
ATOM      6  CZ  ARG D 557     -24.095  -1.418 -14.663  1.00 35.49     0.666 C 
ATOM      7  NH1 ARG D 557     -23.022  -1.730 -15.367  1.00 35.49    -0.235 N 
ATOM      8  NH2 ARG D 557     -24.376  -2.077 -13.577  1.00 35.49    -0.235 N 
ATOM      9  HH  ARG D 557     -22.817  -1.308 -16.084  1.00 35.49     0.174 HD
ATOM     10  HH  ARG D 557     -22.526  -2.371 -15.090  1.00 35.49     0.174 HD
ATOM     11  HH  ARG D 557     -25.071  -1.849 -13.139  1.00 35.49     0.174 HD
ATOM     12  HH  ARG D 557     -23.872  -2.708 -13.319  1.00 35.49     0.174 HD
ATOM     13  HE  ARG D 557     -25.613  -0.363 -14.541  1.00 35.49     0.178 HD
ENDBRANCH   4   5
ENDBRANCH   3   4
ENDBRANCH   2   3
ENDBRANCH   1   2
END_RES ARG D 557
BEGIN_RES GLU D 570
REMARK  3 active torsions:
REMARK  status: ('A' for Active; 'I' for Inactive)
REMARK    5  A    between atoms: CA   and  CB  
REMARK    6  A    between atoms: CB   and  CG  
REMARK    7  A    between atoms: CG   and  CD  
ROOT
ATOM     14  CA  GLU D 570     -18.033  -6.348 -13.375  1.00 32.92     0.160 C 
ENDROOT
BRANCH  14  15
ATOM     15  CB  GLU D 570     -19.500  -6.345 -13.794  1.00 32.92     0.043 C 
BRANCH  15  16
ATOM     16  CG  GLU D 570     -20.442  -5.531 -12.983  1.00 32.92     0.100 C 
BRANCH  16  17
ATOM     17  CD  GLU D 570     -21.731  -5.224 -13.709  1.00 32.92     0.185 C 
ATOM     18  OE1 GLU D 570     -22.306  -4.140 -13.489  1.00 32.92    -0.647 OA
ATOM     19  OE2 GLU D 570     -22.180  -6.083 -14.493  1.00 32.92    -0.647 OA
ENDBRANCH  16  17
ENDBRANCH  15  16
ENDBRANCH  14  15
END_RES GLU D 570
ENDMDL
MODEL 4
REMARK VINA RESULT:      -9.4      7.583     10.738
REMARK  6 active torsions:
REMARK  status: ('A' for Active; 'I' for Inactive)
REMARK    1  A    between atoms: C_9  and  N_15 
REMARK    2  A    between atoms: C_10  and  S_11 
REMARK    3  A    between atoms: S_11  and  O_13 
REMARK    4  A    between atoms: N_17  and  C_19 
REMARK    5  A    between atoms: C_21  and  C_29 
REMARK    6  A    between atoms: C_29  and  O_31 
ROOT
HETATM    1  N   UNL     1     -22.121  -6.393  -4.878  1.00  0.00    -0.299 N 
ATOM      2  HN  UNL     1     -22.501  -6.938  -5.651  1.00  0.00     0.187 HD
HETATM    3  N   UNL     1     -21.758  -5.197  -4.997  1.00  0.00    -0.296 N 
ATOM      4  HN  UNL     1     -21.424  -4.615  -4.228  1.00  0.00     0.187 HD
ENDROOT
BRANCH   1   5
HETATM    5  C   UNL     1     -21.954  -6.916  -3.566  1.00  0.00     0.072 A 
HETATM    6  C   UNL     1     -22.282  -6.177  -2.423  1.00  0.00     0.033 A 
HETATM    7  C   UNL     1     -22.141  -6.708  -1.140  1.00  0.00     0.014 A 
HETATM    8  C   UNL     1     -21.702  -8.026  -0.951  1.00  0.00    -0.024 A 
HETATM    9  C   UNL     1     -21.382  -8.824  -2.065  1.00  0.00     0.000 A 
HETATM   10  C   UNL     1     -21.568  -8.535   0.352  1.00  0.00     0.012 A 
HETATM   11  C   UNL     1     -20.984 -10.167  -1.813  1.00  0.00     0.014 A 
HETATM   12  C   UNL     1     -21.450  -8.215  -3.360  1.00  0.00     0.127 A 
HETATM   13  C   UNL     1     -20.818 -10.650  -0.508  1.00  0.00     0.001 A 
HETATM   14  C   UNL     1     -21.105  -9.844   0.557  1.00  0.00     0.001 A 
BRANCH  12  15
HETATM   15  S   UNL     1     -20.433  -8.929  -4.659  1.00  0.00     0.328 S 
HETATM   16  O   UNL     1     -21.148 -10.020  -5.255  1.00  0.00    -0.191 OA
HETATM   17  O   UNL     1     -19.141  -9.198  -3.991  1.00  0.00    -0.191 OA
BRANCH  15  18
HETATM   18  O   UNL     1     -20.049  -7.789  -5.490  1.00  0.00    -0.086 OA
HETATM   19 CA   UNL     2     -21.291  -7.651  -7.127  1.00  0.00     0.000 Ca
ENDBRANCH  15  18
ENDBRANCH  12  15
ENDBRANCH   1   5
BRANCH   3  20
HETATM   20  C   UNL     1     -21.874  -4.755  -6.357  1.00  0.00     0.110 A 
HETATM   21  C   UNL     1     -23.191  -4.687  -6.963  1.00  0.00     0.217 A 
HETATM   22  C   UNL     1     -23.163  -4.206  -8.327  1.00  0.00     0.090 A 
HETATM   23  O   UNL     1     -24.287  -5.026  -6.355  1.00  0.00    -0.285 OA
HETATM   24  C   UNL     1     -21.973  -3.925  -9.022  1.00  0.00     0.034 A 
HETATM   25  C   UNL     1     -20.720  -4.079  -8.434  1.00  0.00    -0.022 A 
HETATM   26  C   UNL     1     -19.550  -3.830  -9.185  1.00  0.00     0.012 A 
HETATM   27  C   UNL     1     -20.649  -4.486  -7.086  1.00  0.00     0.006 A 
HETATM   28  C   UNL     1     -18.288  -3.981  -8.616  1.00  0.00     0.001 A 
HETATM   29  C   UNL     1     -18.186  -4.386  -7.289  1.00  0.00     0.001 A 
HETATM   30  C   UNL     1     -19.342  -4.627  -6.541  1.00  0.00     0.015 A 
BRANCH  22  31
HETATM   31  C   UNL     1     -24.423  -3.959  -9.126  1.00  0.00     0.180 C 
HETATM   32  O   UNL     1     -24.802  -2.852  -9.472  1.00  0.00    -0.646 OA
BRANCH  31  33
HETATM   33  O   UNL     1     -25.131  -5.082  -9.400  1.00  0.00    -0.773 OA
HETATM   34  H   UNL     1     -25.973  -4.768  -9.836  1.00  0.00     0.167 HD
ENDBRANCH  31  33
ENDBRANCH  22  31
ENDBRANCH   3  20
TORSDOF 6
BEGIN_RES ARG D 557
REMARK  4 active torsions:
REMARK  status: ('A' for Active; 'I' for Inactive)
REMARK    1  A    between atoms: CA   and  CB  
REMARK    2  A    between atoms: CB   and  CG  
REMARK    3  A    between atoms: CG   and  CD  
REMARK    4  A    between atoms: CD   and  NE  
REMARK       I    between atoms: NE   and  CZ  
REMARK       I    between atoms: CZ   and  NH1 
REMARK       I    between atoms: CZ   and  NH2 
ROOT
ATOM      1  CA  ARG D 557     -26.217   2.705 -17.014  1.00 35.49     0.159 C 
ENDROOT
BRANCH   1   2
ATOM      2  CB  ARG D 557     -26.789   1.319 -17.183  1.00 35.49     0.034 C 
BRANCH   2   3
ATOM      3  CG  ARG D 557     -28.156   1.104 -16.693  1.00 35.49     0.027 C 
BRANCH   3   4
ATOM      4  CD  ARG D 557     -28.789  -0.092 -17.294  1.00 35.49     0.116 C 
BRANCH   4   5
ATOM      5  NE  ARG D 557     -28.172  -1.314 -16.850  1.00 35.49    -0.212 N 
ATOM      6  CZ  ARG D 557     -28.651  -2.525 -17.027  1.00 35.49     0.666 C 
ATOM      7  NH1 ARG D 557     -29.797  -2.751 -17.642  1.00 35.49    -0.235 N 
ATOM      8  NH2 ARG D 557     -27.945  -3.521 -16.576  1.00 35.49    -0.235 N 
ATOM      9  HH  ARG D 557     -30.276  -2.111 -17.949  1.00 35.49     0.174 HD
ATOM     10  HH  ARG D 557     -30.057  -3.563 -17.731  1.00 35.49     0.174 HD
ATOM     11  HH  ARG D 557     -27.205  -3.345 -16.190  1.00 35.49     0.174 HD
ATOM     12  HH  ARG D 557     -28.219  -4.317 -16.675  1.00 35.49     0.174 HD
ATOM     13  HE  ARG D 557     -27.465  -1.256 -16.380  1.00 35.49     0.178 HD
ENDBRANCH   4   5
ENDBRANCH   3   4
ENDBRANCH   2   3
ENDBRANCH   1   2
END_RES ARG D 557
BEGIN_RES GLU D 570
REMARK  3 active torsions:
REMARK  status: ('A' for Active; 'I' for Inactive)
REMARK    5  A    between atoms: CA   and  CB  
REMARK    6  A    between atoms: CB   and  CG  
REMARK    7  A    between atoms: CG   and  CD  
ROOT
ATOM     14  CA  GLU D 570     -18.033  -6.348 -13.375  1.00 32.92     0.160 C 
ENDROOT
BRANCH  14  15
ATOM     15  CB  GLU D 570     -19.500  -6.345 -13.794  1.00 32.92     0.043 C 
BRANCH  15  16
ATOM     16  CG  GLU D 570     -20.449  -5.567 -12.957  1.00 32.92     0.100 C 
BRANCH  16  17
ATOM     17  CD  GLU D 570     -21.705  -5.173 -13.700  1.00 32.92     0.185 C 
ATOM     18  OE1 GLU D 570     -21.652  -5.016 -14.935  1.00 32.92    -0.647 OA
ATOM     19  OE2 GLU D 570     -22.747  -5.004 -13.038  1.00 32.92    -0.647 OA
ENDBRANCH  16  17
ENDBRANCH  15  16
ENDBRANCH  14  15
END_RES GLU D 570
ENDMDL
MODEL 5
REMARK VINA RESULT:      -9.3     10.054     13.736
REMARK  6 active torsions:
REMARK  status: ('A' for Active; 'I' for Inactive)
REMARK    1  A    between atoms: C_9  and  N_15 
REMARK    2  A    between atoms: C_10  and  S_11 
REMARK    3  A    between atoms: S_11  and  O_13 
REMARK    4  A    between atoms: N_17  and  C_19 
REMARK    5  A    between atoms: C_21  and  C_29 
REMARK    6  A    between atoms: C_29  and  O_31 
ROOT
HETATM    1  N   UNL     1     -17.880  -9.607  -3.575  1.00  0.00    -0.299 N 
ATOM      2  HN  UNL     1     -17.540  -8.720  -3.947  1.00  0.00     0.187 HD
HETATM    3  N   UNL     1     -19.099  -9.850  -3.393  1.00  0.00    -0.296 N 
ATOM      4  HN  UNL     1     -19.467 -10.745  -3.072  1.00  0.00     0.187 HD
ENDROOT
BRANCH   1   5
HETATM    5  C   UNL     1     -17.020 -10.680  -3.217  1.00  0.00     0.072 A 
HETATM    6  C   UNL     1     -16.621 -10.904  -1.894  1.00  0.00     0.033 A 
HETATM    7  C   UNL     1     -15.798 -11.976  -1.546  1.00  0.00     0.014 A 
HETATM    8  C   UNL     1     -15.372 -12.899  -2.512  1.00  0.00    -0.024 A 
HETATM    9  C   UNL     1     -15.763 -12.738  -3.855  1.00  0.00     0.000 A 
HETATM   10  C   UNL     1     -14.542 -13.969  -2.134  1.00  0.00     0.012 A 
HETATM   11  C   UNL     1     -15.336 -13.730  -4.781  1.00  0.00     0.014 A 
HETATM   12  C   UNL     1     -16.529 -11.576  -4.188  1.00  0.00     0.127 A 
HETATM   13  C   UNL     1     -14.478 -14.770  -4.399  1.00  0.00     0.001 A 
HETATM   14  C   UNL     1     -14.088 -14.885  -3.095  1.00  0.00     0.001 A 
BRANCH  12  15
HETATM   15  S   UNL     1     -16.448 -10.996  -5.888  1.00  0.00     0.328 S 
HETATM   16  O   UNL     1     -17.689 -11.301  -6.538  1.00  0.00    -0.191 OA
HETATM   17  O   UNL     1     -15.199 -11.595  -6.408  1.00  0.00    -0.191 OA
BRANCH  15  18
HETATM   18  O   UNL     1     -16.024  -9.600  -5.778  1.00  0.00    -0.086 OA
HETATM   19 CA   UNL     2     -17.118  -8.421  -7.064  1.00  0.00     0.000 Ca
ENDBRANCH  15  18
ENDBRANCH  12  15
ENDBRANCH   1   5
BRANCH   3  20
HETATM   20  C   UNL     1     -19.906  -8.702  -3.695  1.00  0.00     0.110 A 
HETATM   21  C   UNL     1     -19.811  -8.105  -5.015  1.00  0.00     0.217 A 
HETATM   22  C   UNL     1     -20.692  -6.971  -5.188  1.00  0.00     0.090 A 
HETATM   23  O   UNL     1     -19.016  -8.533  -5.948  1.00  0.00    -0.285 OA
HETATM   24  C   UNL     1     -21.487  -6.447  -4.153  1.00  0.00     0.034 A 
HETATM   25  C   UNL     1     -21.492  -6.997  -2.874  1.00  0.00    -0.022 A 
HETATM   26  C   UNL     1     -22.271  -6.408  -1.853  1.00  0.00     0.012 A 
HETATM   27  C   UNL     1     -20.709  -8.143  -2.625  1.00  0.00     0.006 A 
HETATM   28  C   UNL     1     -22.287  -6.942  -0.567  1.00  0.00     0.001 A 
HETATM   29  C   UNL     1     -21.521  -8.069  -0.290  1.00  0.00     0.001 A 
HETATM   30  C   UNL     1     -20.755  -8.658  -1.300  1.00  0.00     0.015 A 
BRANCH  22  31
HETATM   31  C   UNL     1     -20.837  -6.252  -6.510  1.00  0.00     0.180 C 
HETATM   32  O   UNL     1     -21.846  -5.656  -6.852  1.00  0.00    -0.646 OA
BRANCH  31  33
HETATM   33  O   UNL     1     -19.752  -6.355  -7.316  1.00  0.00    -0.773 OA
HETATM   34  H   UNL     1     -19.317  -7.220  -7.070  1.00  0.00     0.167 HD
ENDBRANCH  31  33
ENDBRANCH  22  31
ENDBRANCH   3  20
TORSDOF 6
BEGIN_RES ARG D 557
REMARK  4 active torsions:
REMARK  status: ('A' for Active; 'I' for Inactive)
REMARK    1  A    between atoms: CA   and  CB  
REMARK    2  A    between atoms: CB   and  CG  
REMARK    3  A    between atoms: CG   and  CD  
REMARK    4  A    between atoms: CD   and  NE  
REMARK       I    between atoms: NE   and  CZ  
REMARK       I    between atoms: CZ   and  NH1 
REMARK       I    between atoms: CZ   and  NH2 
ROOT
ATOM      1  CA  ARG D 557     -26.217   2.705 -17.014  1.00 35.49     0.159 C 
ENDROOT
BRANCH   1   2
ATOM      2  CB  ARG D 557     -26.789   1.319 -17.183  1.00 35.49     0.034 C 
BRANCH   2   3
ATOM      3  CG  ARG D 557     -25.918   0.196 -16.815  1.00 35.49     0.027 C 
BRANCH   3   4
ATOM      4  CD  ARG D 557     -26.655  -0.885 -16.120  1.00 35.49     0.116 C 
BRANCH   4   5
ATOM      5  NE  ARG D 557     -25.872  -1.488 -15.074  1.00 35.49    -0.212 N 
ATOM      6  CZ  ARG D 557     -25.900  -2.755 -14.727  1.00 35.49     0.666 C 
ATOM      7  NH1 ARG D 557     -26.689  -3.634 -15.316  1.00 35.49    -0.235 N 
ATOM      8  NH2 ARG D 557     -25.105  -3.133 -13.768  1.00 35.49    -0.235 N 
ATOM      9  HH  ARG D 557     -27.219  -3.408 -15.951  1.00 35.49     0.174 HD
ATOM     10  HH  ARG D 557     -26.662  -4.448 -15.049  1.00 35.49     0.174 HD
ATOM     11  HH  ARG D 557     -24.601  -2.545 -13.411  1.00 35.49     0.174 HD
ATOM     12  HH  ARG D 557     -25.092  -3.943 -13.519  1.00 35.49     0.174 HD
ATOM     13  HE  ARG D 557     -25.389  -0.980 -14.593  1.00 35.49     0.178 HD
ENDBRANCH   4   5
ENDBRANCH   3   4
ENDBRANCH   2   3
ENDBRANCH   1   2
END_RES ARG D 557
BEGIN_RES GLU D 570
REMARK  3 active torsions:
REMARK  status: ('A' for Active; 'I' for Inactive)
REMARK    5  A    between atoms: CA   and  CB  
REMARK    6  A    between atoms: CB   and  CG  
REMARK    7  A    between atoms: CG   and  CD  
ROOT
ATOM     14  CA  GLU D 570     -18.033  -6.348 -13.375  1.00 32.92     0.160 C 
ENDROOT
BRANCH  14  15
ATOM     15  CB  GLU D 570     -19.500  -6.345 -13.794  1.00 32.92     0.043 C 
BRANCH  15  16
ATOM     16  CG  GLU D 570     -20.444  -5.538 -12.977  1.00 32.92     0.100 C 
BRANCH  16  17
ATOM     17  CD  GLU D 570     -21.739  -5.241 -13.696  1.00 32.92     0.185 C 
ATOM     18  OE1 GLU D 570     -22.285  -4.134 -13.526  1.00 32.92    -0.647 OA
ATOM     19  OE2 GLU D 570     -22.222  -6.132 -14.423  1.00 32.92    -0.647 OA
ENDBRANCH  16  17
ENDBRANCH  15  16
ENDBRANCH  14  15
END_RES GLU D 570
ENDMDL
MODEL 6
REMARK VINA RESULT:      -9.0     10.193     13.771
REMARK  6 active torsions:
REMARK  status: ('A' for Active; 'I' for Inactive)
REMARK    1  A    between atoms: C_9  and  N_15 
REMARK    2  A    between atoms: C_10  and  S_11 
REMARK    3  A    between atoms: S_11  and  O_13 
REMARK    4  A    between atoms: N_17  and  C_19 
REMARK    5  A    between atoms: C_21  and  C_29 
REMARK    6  A    between atoms: C_29  and  O_31 
ROOT
HETATM    1  N   UNL     1     -18.191  -9.632  -4.814  1.00  0.00    -0.299 N 
ATOM      2  HN  UNL     1     -17.817  -8.685  -4.867  1.00  0.00     0.187 HD
HETATM    3  N   UNL     1     -19.387  -9.880  -4.524  1.00  0.00    -0.296 N 
ATOM      4  HN  UNL     1     -19.797 -10.815  -4.515  1.00  0.00     0.187 HD
ENDROOT
BRANCH   1   5
HETATM    5  C   UNL     1     -17.407 -10.791  -5.061  1.00  0.00     0.072 A 
HETATM    6  C   UNL     1     -17.701 -11.681  -6.101  1.00  0.00     0.033 A 
HETATM    7  C   UNL     1     -16.910 -12.803  -6.354  1.00  0.00     0.014 A 
HETATM    8  C   UNL     1     -15.758 -13.057  -5.596  1.00  0.00    -0.024 A 
HETATM    9  C   UNL     1     -15.399 -12.182  -4.553  1.00  0.00     0.000 A 
HETATM   10  C   UNL     1     -14.981 -14.195  -5.872  1.00  0.00     0.012 A 
HETATM   11  C   UNL     1     -14.198 -12.468  -3.848  1.00  0.00     0.014 A 
HETATM   12  C   UNL     1     -16.285 -11.096  -4.264  1.00  0.00     0.127 A 
HETATM   13  C   UNL     1     -13.452 -13.626  -4.107  1.00  0.00     0.001 A 
HETATM   14  C   UNL     1     -13.840 -14.475  -5.104  1.00  0.00     0.001 A 
BRANCH  12  15
HETATM   15  S   UNL     1     -16.242 -10.420  -2.598  1.00  0.00     0.328 S 
HETATM   16  O   UNL     1     -15.294 -11.167  -1.823  1.00  0.00    -0.191 OA
HETATM   17  O   UNL     1     -17.661 -10.411  -2.181  1.00  0.00    -0.191 OA
BRANCH  15  18
HETATM   18  O   UNL     1     -16.033  -8.985  -2.792  1.00  0.00    -0.086 OA
HETATM   19 CA   UNL     2     -15.076  -8.641  -4.582  1.00  0.00     0.000 Ca
ENDBRANCH  15  18
ENDBRANCH  12  15
ENDBRANCH   1   5
BRANCH   3  20
HETATM   20  C   UNL     1     -20.103  -8.678  -4.206  1.00  0.00     0.110 A 
HETATM   21  C   UNL     1     -20.115  -7.593  -5.171  1.00  0.00     0.217 A 
HETATM   22  C   UNL     1     -20.889  -6.453  -4.731  1.00  0.00     0.090 A 
HETATM   23  O   UNL     1     -19.493  -7.630  -6.310  1.00  0.00    -0.285 OA
HETATM   24  C   UNL     1     -21.488  -6.370  -3.462  1.00  0.00     0.034 A 
HETATM   25  C   UNL     1     -21.387  -7.400  -2.529  1.00  0.00    -0.022 A 
HETATM   26  C   UNL     1     -21.965  -7.253  -1.248  1.00  0.00     0.012 A 
HETATM   27  C   UNL     1     -20.702  -8.577  -2.890  1.00  0.00     0.006 A 
HETATM   28  C   UNL     1     -21.873  -8.270  -0.300  1.00  0.00     0.001 A 
HETATM   29  C   UNL     1     -21.198  -9.442  -0.626  1.00  0.00     0.001 A 
HETATM   30  C   UNL     1     -20.631  -9.592  -1.895  1.00  0.00     0.015 A 
BRANCH  22  31
HETATM   31  C   UNL     1     -21.126  -5.246  -5.610  1.00  0.00     0.180 C 
HETATM   32  O   UNL     1     -22.214  -4.946  -6.073  1.00  0.00    -0.646 OA
BRANCH  31  33
HETATM   33  O   UNL     1     -20.006  -4.532  -5.880  1.00  0.00    -0.773 OA
HETATM   34  H   UNL     1     -20.237  -3.956  -6.663  1.00  0.00     0.167 HD
ENDBRANCH  31  33
ENDBRANCH  22  31
ENDBRANCH   3  20
TORSDOF 6
BEGIN_RES ARG D 557
REMARK  4 active torsions:
REMARK  status: ('A' for Active; 'I' for Inactive)
REMARK    1  A    between atoms: CA   and  CB  
REMARK    2  A    between atoms: CB   and  CG  
REMARK    3  A    between atoms: CG   and  CD  
REMARK    4  A    between atoms: CD   and  NE  
REMARK       I    between atoms: NE   and  CZ  
REMARK       I    between atoms: CZ   and  NH1 
REMARK       I    between atoms: CZ   and  NH2 
ROOT
ATOM      1  CA  ARG D 557     -26.217   2.705 -17.014  1.00 35.49     0.159 C 
ENDROOT
BRANCH   1   2
ATOM      2  CB  ARG D 557     -26.789   1.319 -17.183  1.00 35.49     0.034 C 
BRANCH   2   3
ATOM      3  CG  ARG D 557     -25.836   0.203 -17.150  1.00 35.49     0.027 C 
BRANCH   3   4
ATOM      4  CD  ARG D 557     -24.756   0.411 -16.159  1.00 35.49     0.116 C 
BRANCH   4   5
ATOM      5  NE  ARG D 557     -24.899  -0.447 -15.013  1.00 35.49    -0.212 N 
ATOM      6  CZ  ARG D 557     -24.075  -1.411 -14.668  1.00 35.49     0.666 C 
ATOM      7  NH1 ARG D 557     -23.000  -1.711 -15.373  1.00 35.49    -0.235 N 
ATOM      8  NH2 ARG D 557     -24.349  -2.076 -13.583  1.00 35.49    -0.235 N 
ATOM      9  HH  ARG D 557     -22.799  -1.285 -16.089  1.00 35.49     0.174 HD
ATOM     10  HH  ARG D 557     -22.497  -2.348 -15.098  1.00 35.49     0.174 HD
ATOM     11  HH  ARG D 557     -25.046  -1.855 -13.144  1.00 35.49     0.174 HD
ATOM     12  HH  ARG D 557     -23.839  -2.703 -13.327  1.00 35.49     0.174 HD
ATOM     13  HE  ARG D 557     -25.603  -0.371 -14.542  1.00 35.49     0.178 HD
ENDBRANCH   4   5
ENDBRANCH   3   4
ENDBRANCH   2   3
ENDBRANCH   1   2
END_RES ARG D 557
BEGIN_RES GLU D 570
REMARK  3 active torsions:
REMARK  status: ('A' for Active; 'I' for Inactive)
REMARK    5  A    between atoms: CA   and  CB  
REMARK    6  A    between atoms: CB   and  CG  
REMARK    7  A    between atoms: CG   and  CD  
ROOT
ATOM     14  CA  GLU D 570     -18.033  -6.348 -13.375  1.00 32.92     0.160 C 
ENDROOT
BRANCH  14  15
ATOM     15  CB  GLU D 570     -19.500  -6.345 -13.794  1.00 32.92     0.043 C 
BRANCH  15  16
ATOM     16  CG  GLU D 570     -20.443  -5.535 -12.980  1.00 32.92     0.100 C 
BRANCH  16  17
ATOM     17  CD  GLU D 570     -21.733  -5.228 -13.704  1.00 32.92     0.185 C 
ATOM     18  OE1 GLU D 570     -22.193  -6.066 -14.503  1.00 32.92    -0.647 OA
ATOM     19  OE2 GLU D 570     -22.280  -4.130 -13.482  1.00 32.92    -0.647 OA
ENDBRANCH  16  17
ENDBRANCH  15  16
ENDBRANCH  14  15
END_RES GLU D 570
ENDMDL
MODEL 7
REMARK VINA RESULT:      -8.8      6.741     10.589
REMARK  6 active torsions:
REMARK  status: ('A' for Active; 'I' for Inactive)
REMARK    1  A    between atoms: C_9  and  N_15 
REMARK    2  A    between atoms: C_10  and  S_11 
REMARK    3  A    between atoms: S_11  and  O_13 
REMARK    4  A    between atoms: N_17  and  C_19 
REMARK    5  A    between atoms: C_21  and  C_29 
REMARK    6  A    between atoms: C_29  and  O_31 
ROOT
HETATM    1  N   UNL     1     -20.539  -5.796  -6.806  1.00  0.00    -0.299 N 
ATOM      2  HN  UNL     1     -20.219  -5.205  -6.039  1.00  0.00     0.187 HD
HETATM    3  N   UNL     1     -20.862  -7.000  -6.653  1.00  0.00    -0.296 N 
ATOM      4  HN  UNL     1     -21.234  -7.596  -7.393  1.00  0.00     0.187 HD
ENDROOT
BRANCH   1   5
HETATM    5  C   UNL     1     -20.661  -5.333  -8.144  1.00  0.00     0.072 A 
HETATM    6  C   UNL     1     -19.566  -5.280  -9.015  1.00  0.00     0.033 A 
HETATM    7  C   UNL     1     -19.699  -4.850 -10.336  1.00  0.00     0.014 A 
HETATM    8  C   UNL     1     -20.952  -4.492 -10.854  1.00  0.00    -0.024 A 
HETATM    9  C   UNL     1     -22.092  -4.550 -10.031  1.00  0.00     0.000 A 
HETATM   10  C   UNL     1     -21.057  -4.061 -12.188  1.00  0.00     0.012 A 
HETATM   11  C   UNL     1     -23.342  -4.217 -10.624  1.00  0.00     0.014 A 
HETATM   12  C   UNL     1     -21.902  -4.906  -8.657  1.00  0.00     0.127 A 
HETATM   13  C   UNL     1     -23.428  -3.753 -11.943  1.00  0.00     0.001 A 
HETATM   14  C   UNL     1     -22.301  -3.676 -12.711  1.00  0.00     0.001 A 
BRANCH  12  15
HETATM   15  S   UNL     1     -23.137  -4.337  -7.481  1.00  0.00     0.328 S 
HETATM   16  O   UNL     1     -24.143  -3.601  -8.190  1.00  0.00    -0.191 OA
HETATM   17  O   UNL     1     -22.344  -3.648  -6.439  1.00  0.00    -0.191 OA
BRANCH  15  18
HETATM   18  O   UNL     1     -23.520  -5.540  -6.742  1.00  0.00    -0.086 OA
HETATM   19 CA   UNL     2     -24.837  -5.060  -5.234  1.00  0.00     0.000 Ca
ENDBRANCH  15  18
ENDBRANCH  12  15
ENDBRANCH   1   5
BRANCH   3  20
HETATM   20  C   UNL     1     -20.640  -7.428  -5.302  1.00  0.00     0.110 A 
HETATM   21  C   UNL     1     -21.460  -6.865  -4.243  1.00  0.00     0.217 A 
HETATM   22  C   UNL     1     -21.143  -7.400  -2.937  1.00  0.00     0.090 A 
HETATM   23  O   UNL     1     -22.379  -5.970  -4.438  1.00  0.00    -0.285 OA
HETATM   24  C   UNL     1     -20.087  -8.300  -2.707  1.00  0.00     0.034 A 
HETATM   25  C   UNL     1     -19.269  -8.757  -3.736  1.00  0.00    -0.022 A 
HETATM   26  C   UNL     1     -18.190  -9.624  -3.451  1.00  0.00     0.012 A 
HETATM   27  C   UNL     1     -19.538  -8.337  -5.055  1.00  0.00     0.006 A 
HETATM   28  C   UNL     1     -17.358 -10.090  -4.466  1.00  0.00     0.001 A 
HETATM   29  C   UNL     1     -17.597  -9.689  -5.777  1.00  0.00     0.001 A 
HETATM   30  C   UNL     1     -18.667  -8.837  -6.063  1.00  0.00     0.015 A 
BRANCH  22  31
HETATM   31  C   UNL     1     -21.931  -7.035  -1.699  1.00  0.00     0.180 C 
HETATM   32  O   UNL     1     -22.084  -7.783  -0.747  1.00  0.00    -0.646 OA
BRANCH  31  33
HETATM   33  O   UNL     1     -22.497  -5.805  -1.748  1.00  0.00    -0.773 OA
HETATM   34  H   UNL     1     -21.856  -5.235  -2.260  1.00  0.00     0.167 HD
ENDBRANCH  31  33
ENDBRANCH  22  31
ENDBRANCH   3  20
TORSDOF 6
BEGIN_RES ARG D 557
REMARK  4 active torsions:
REMARK  status: ('A' for Active; 'I' for Inactive)
REMARK    1  A    between atoms: CA   and  CB  
REMARK    2  A    between atoms: CB   and  CG  
REMARK    3  A    between atoms: CG   and  CD  
REMARK    4  A    between atoms: CD   and  NE  
REMARK       I    between atoms: NE   and  CZ  
REMARK       I    between atoms: CZ   and  NH1 
REMARK       I    between atoms: CZ   and  NH2 
ROOT
ATOM      1  CA  ARG D 557     -26.217   2.705 -17.014  1.00 35.49     0.159 C 
ENDROOT
BRANCH   1   2
ATOM      2  CB  ARG D 557     -26.789   1.319 -17.183  1.00 35.49     0.034 C 
BRANCH   2   3
ATOM      3  CG  ARG D 557     -28.147   1.098 -16.672  1.00 35.49     0.027 C 
BRANCH   3   4
ATOM      4  CD  ARG D 557     -28.792  -0.089 -17.279  1.00 35.49     0.116 C 
BRANCH   4   5
ATOM      5  NE  ARG D 557     -28.178  -1.318 -16.850  1.00 35.49    -0.212 N 
ATOM      6  CZ  ARG D 557     -28.663  -2.525 -17.036  1.00 35.49     0.666 C 
ATOM      7  NH1 ARG D 557     -29.815  -2.740 -17.646  1.00 35.49    -0.235 N 
ATOM      8  NH2 ARG D 557     -27.960  -3.529 -16.599  1.00 35.49    -0.235 N 
ATOM      9  HH  ARG D 557     -30.293  -2.095 -17.943  1.00 35.49     0.174 HD
ATOM     10  HH  ARG D 557     -30.080  -3.549 -17.741  1.00 35.49     0.174 HD
ATOM     11  HH  ARG D 557     -27.217  -3.360 -16.216  1.00 35.49     0.174 HD
ATOM     12  HH  ARG D 557     -28.239  -4.323 -16.704  1.00 35.49     0.174 HD
ATOM     13  HE  ARG D 557     -27.468  -1.269 -16.385  1.00 35.49     0.178 HD
ENDBRANCH   4   5
ENDBRANCH   3   4
ENDBRANCH   2   3
ENDBRANCH   1   2
END_RES ARG D 557
BEGIN_RES GLU D 570
REMARK  3 active torsions:
REMARK  status: ('A' for Active; 'I' for Inactive)
REMARK    5  A    between atoms: CA   and  CB  
REMARK    6  A    between atoms: CB   and  CG  
REMARK    7  A    between atoms: CG   and  CD  
ROOT
ATOM     14  CA  GLU D 570     -18.033  -6.348 -13.375  1.00 32.92     0.160 C 
ENDROOT
BRANCH  14  15
ATOM     15  CB  GLU D 570     -19.500  -6.345 -13.794  1.00 32.92     0.043 C 
BRANCH  15  16
ATOM     16  CG  GLU D 570     -19.797  -6.446 -15.246  1.00 32.92     0.100 C 
BRANCH  16  17
ATOM     17  CD  GLU D 570     -21.230  -6.101 -15.580  1.00 32.92     0.185 C 
ATOM     18  OE1 GLU D 570     -22.103  -6.984 -15.485  1.00 32.92    -0.647 OA
ATOM     19  OE2 GLU D 570     -21.478  -4.938 -15.957  1.00 32.92    -0.647 OA
ENDBRANCH  16  17
ENDBRANCH  15  16
ENDBRANCH  14  15
END_RES GLU D 570
ENDMDL
MODEL 8
REMARK VINA RESULT:      -8.7     10.689     14.062
REMARK  6 active torsions:
REMARK  status: ('A' for Active; 'I' for Inactive)
REMARK    1  A    between atoms: C_9  and  N_15 
REMARK    2  A    between atoms: C_10  and  S_11 
REMARK    3  A    between atoms: S_11  and  O_13 
REMARK    4  A    between atoms: N_17  and  C_19 
REMARK    5  A    between atoms: C_21  and  C_29 
REMARK    6  A    between atoms: C_29  and  O_31 
ROOT
HETATM    1  N   UNL     1     -18.804 -10.715  -3.873  1.00  0.00    -0.299 N 
ATOM      2  HN  UNL     1     -18.461 -11.586  -3.470  1.00  0.00     0.187 HD
HETATM    3  N   UNL     1     -18.529 -10.345  -5.041  1.00  0.00    -0.296 N 
ATOM      4  HN  UNL     1     -18.902  -9.505  -5.483  1.00  0.00     0.187 HD
ENDROOT
BRANCH   1   5
HETATM    5  C   UNL     1     -19.639  -9.808  -3.164  1.00  0.00     0.072 A 
HETATM    6  C   UNL     1     -19.839  -8.490  -3.593  1.00  0.00     0.033 A 
HETATM    7  C   UNL     1     -20.681  -7.615  -2.907  1.00  0.00     0.014 A 
HETATM    8  C   UNL     1     -21.396  -8.039  -1.778  1.00  0.00    -0.024 A 
HETATM    9  C   UNL     1     -21.253  -9.361  -1.315  1.00  0.00     0.000 A 
HETATM   10  C   UNL     1     -22.236  -7.136  -1.105  1.00  0.00     0.012 A 
HETATM   11  C   UNL     1     -22.035  -9.747  -0.191  1.00  0.00     0.014 A 
HETATM   12  C   UNL     1     -20.309 -10.202  -1.989  1.00  0.00     0.127 A 
HETATM   13  C   UNL     1     -22.840  -8.826   0.493  1.00  0.00     0.001 A 
HETATM   14  C   UNL     1     -22.936  -7.541   0.042  1.00  0.00     0.001 A 
BRANCH  12  15
HETATM   15  S   UNL     1     -19.616 -11.573  -1.056  1.00  0.00     0.328 S 
HETATM   16  O   UNL     1     -20.203 -12.794  -1.528  1.00  0.00    -0.191 OA
HETATM   17  O   UNL     1     -19.816 -11.179   0.355  1.00  0.00    -0.191 OA
BRANCH  15  18
HETATM   18  O   UNL     1     -18.168 -11.391  -1.160  1.00  0.00    -0.086 OA
HETATM   19 CA   UNL     2     -17.362 -12.806  -2.421  1.00  0.00     0.000 Ca
ENDBRANCH  15  18
ENDBRANCH  12  15
ENDBRANCH   1   5
BRANCH   3  20
HETATM   20  C   UNL     1     -17.620 -11.258  -5.672  1.00  0.00     0.110 A 
HETATM   21  C   UNL     1     -16.215 -11.212  -5.311  1.00  0.00     0.217 A 
HETATM   22  C   UNL     1     -15.419 -12.200  -6.006  1.00  0.00     0.090 A 
HETATM   23  O   UNL     1     -15.713 -10.372  -4.458  1.00  0.00    -0.285 OA
HETATM   24  C   UNL     1     -15.938 -13.051  -6.997  1.00  0.00     0.034 A 
HETATM   25  C   UNL     1     -17.278 -13.012  -7.377  1.00  0.00    -0.022 A 
HETATM   26  C   UNL     1     -17.746 -13.853  -8.411  1.00  0.00     0.012 A 
HETATM   27  C   UNL     1     -18.145 -12.122  -6.712  1.00  0.00     0.006 A 
HETATM   28  C   UNL     1     -19.081 -13.827  -8.807  1.00  0.00     0.001 A 
HETATM   29  C   UNL     1     -19.959 -12.955  -8.172  1.00  0.00     0.001 A 
HETATM   30  C   UNL     1     -19.501 -12.127  -7.144  1.00  0.00     0.015 A 
BRANCH  22  31
HETATM   31  C   UNL     1     -13.948 -12.405  -5.719  1.00  0.00     0.180 C 
HETATM   32  O   UNL     1     -13.115 -12.644  -6.577  1.00  0.00    -0.646 OA
BRANCH  31  33
HETATM   33  O   UNL     1     -13.629 -12.339  -4.403  1.00  0.00    -0.773 OA
HETATM   34  H   UNL     1     -12.829 -11.743  -4.351  1.00  0.00     0.167 HD
ENDBRANCH  31  33
ENDBRANCH  22  31
ENDBRANCH   3  20
TORSDOF 6
BEGIN_RES ARG D 557
REMARK  4 active torsions:
REMARK  status: ('A' for Active; 'I' for Inactive)
REMARK    1  A    between atoms: CA   and  CB  
REMARK    2  A    between atoms: CB   and  CG  
REMARK    3  A    between atoms: CG   and  CD  
REMARK    4  A    between atoms: CD   and  NE  
REMARK       I    between atoms: NE   and  CZ  
REMARK       I    between atoms: CZ   and  NH1 
REMARK       I    between atoms: CZ   and  NH2 
ROOT
ATOM      1  CA  ARG D 557     -26.217   2.705 -17.014  1.00 35.49     0.159 C 
ENDROOT
BRANCH   1   2
ATOM      2  CB  ARG D 557     -26.789   1.319 -17.183  1.00 35.49     0.034 C 
BRANCH   2   3
ATOM      3  CG  ARG D 557     -25.833   0.205 -17.177  1.00 35.49     0.027 C 
BRANCH   3   4
ATOM      4  CD  ARG D 557     -24.750   0.395 -16.186  1.00 35.49     0.116 C 
BRANCH   4   5
ATOM      5  NE  ARG D 557     -24.915  -0.451 -15.033  1.00 35.49    -0.212 N 
ATOM      6  CZ  ARG D 557     -24.103  -1.417 -14.667  1.00 35.49     0.666 C 
ATOM      7  NH1 ARG D 557     -23.020  -1.731 -15.353  1.00 35.49    -0.235 N 
ATOM      8  NH2 ARG D 557     -24.398  -2.069 -13.580  1.00 35.49    -0.235 N 
ATOM      9  HH  ARG D 557     -22.806  -1.314 -16.070  1.00 35.49     0.174 HD
ATOM     10  HH  ARG D 557     -22.527  -2.370 -15.064  1.00 35.49     0.174 HD
ATOM     11  HH  ARG D 557     -25.100  -1.839 -13.153  1.00 35.49     0.174 HD
ATOM     12  HH  ARG D 557     -23.896  -2.696 -13.309  1.00 35.49     0.174 HD
ATOM     13  HE  ARG D 557     -25.626  -0.365 -14.574  1.00 35.49     0.178 HD
ENDBRANCH   4   5
ENDBRANCH   3   4
ENDBRANCH   2   3
ENDBRANCH   1   2
END_RES ARG D 557
BEGIN_RES GLU D 570
REMARK  3 active torsions:
REMARK  status: ('A' for Active; 'I' for Inactive)
REMARK    5  A    between atoms: CA   and  CB  
REMARK    6  A    between atoms: CB   and  CG  
REMARK    7  A    between atoms: CG   and  CD  
ROOT
ATOM     14  CA  GLU D 570     -18.033  -6.348 -13.375  1.00 32.92     0.160 C 
ENDROOT
BRANCH  14  15
ATOM     15  CB  GLU D 570     -19.500  -6.345 -13.794  1.00 32.92     0.043 C 
BRANCH  15  16
ATOM     16  CG  GLU D 570     -20.439  -5.517 -12.993  1.00 32.92     0.100 C 
BRANCH  16  17
ATOM     17  CD  GLU D 570     -21.736  -5.233 -13.714  1.00 32.92     0.185 C 
ATOM     18  OE1 GLU D 570     -22.350  -4.178 -13.464  1.00 32.92    -0.647 OA
ATOM     19  OE2 GLU D 570     -22.152  -6.083 -14.526  1.00 32.92    -0.647 OA
ENDBRANCH  16  17
ENDBRANCH  15  16
ENDBRANCH  14  15
END_RES GLU D 570
ENDMDL
MODEL 9
REMARK VINA RESULT:      -8.7     10.162     13.680
REMARK  6 active torsions:
REMARK  status: ('A' for Active; 'I' for Inactive)
REMARK    1  A    between atoms: C_9  and  N_15 
REMARK    2  A    between atoms: C_10  and  S_11 
REMARK    3  A    between atoms: S_11  and  O_13 
REMARK    4  A    between atoms: N_17  and  C_19 
REMARK    5  A    between atoms: C_21  and  C_29 
REMARK    6  A    between atoms: C_29  and  O_31 
ROOT
HETATM    1  N   UNL     1     -18.282  -9.566  -4.820  1.00  0.00    -0.299 N 
ATOM      2  HN  UNL     1     -17.924  -8.616  -4.917  1.00  0.00     0.187 HD
HETATM    3  N   UNL     1     -19.462  -9.821  -4.473  1.00  0.00    -0.296 N 
ATOM      4  HN  UNL     1     -19.857 -10.760  -4.420  1.00  0.00     0.187 HD
ENDROOT
BRANCH   1   5
HETATM    5  C   UNL     1     -17.492 -10.722  -5.064  1.00  0.00     0.072 A 
HETATM    6  C   UNL     1     -17.809 -11.640  -6.072  1.00  0.00     0.033 A 
HETATM    7  C   UNL     1     -17.012 -12.758  -6.324  1.00  0.00     0.014 A 
HETATM    8  C   UNL     1     -15.834 -12.981  -5.597  1.00  0.00    -0.024 A 
HETATM    9  C   UNL     1     -15.452 -12.077  -4.588  1.00  0.00     0.000 A 
HETATM   10  C   UNL     1     -15.052 -14.116  -5.870  1.00  0.00     0.012 A 
HETATM   11  C   UNL     1     -14.225 -12.332  -3.915  1.00  0.00     0.014 A 
HETATM   12  C   UNL     1     -16.342 -10.994  -4.296  1.00  0.00     0.127 A 
HETATM   13  C   UNL     1     -13.474 -13.487  -4.170  1.00  0.00     0.001 A 
HETATM   14  C   UNL     1     -13.883 -14.365  -5.133  1.00  0.00     0.001 A 
BRANCH  12  15
HETATM   15  S   UNL     1     -16.253 -10.277  -2.650  1.00  0.00     0.328 S 
HETATM   16  O   UNL     1     -15.691  -8.961  -2.751  1.00  0.00    -0.191 OA
HETATM   17  O   UNL     1     -15.542 -11.302  -1.854  1.00  0.00    -0.191 OA
BRANCH  15  18
HETATM   18  O   UNL     1     -17.603 -10.437  -2.108  1.00  0.00    -0.086 OA
HETATM   19 CA   UNL     2     -18.352 -12.290  -2.604  1.00  0.00     0.000 Ca
ENDBRANCH  15  18
ENDBRANCH  12  15
ENDBRANCH   1   5
BRANCH   3  20
HETATM   20  C   UNL     1     -20.181  -8.619  -4.163  1.00  0.00     0.110 A 
HETATM   21  C   UNL     1     -20.221  -7.551  -5.146  1.00  0.00     0.217 A 
HETATM   22  C   UNL     1     -20.996  -6.410  -4.711  1.00  0.00     0.090 A 
HETATM   23  O   UNL     1     -19.621  -7.603  -6.296  1.00  0.00    -0.285 OA
HETATM   24  C   UNL     1     -21.571  -6.310  -3.431  1.00  0.00     0.034 A 
HETATM   25  C   UNL     1     -21.443  -7.322  -2.483  1.00  0.00    -0.022 A 
HETATM   26  C   UNL     1     -21.997  -7.158  -1.194  1.00  0.00     0.012 A 
HETATM   27  C   UNL     1     -20.755  -8.500  -2.837  1.00  0.00     0.006 A 
HETATM   28  C   UNL     1     -21.878  -8.156  -0.231  1.00  0.00     0.001 A 
HETATM   29  C   UNL     1     -21.200  -9.329  -0.549  1.00  0.00     0.001 A 
HETATM   30  C   UNL     1     -20.657  -9.497  -1.826  1.00  0.00     0.015 A 
BRANCH  22  31
HETATM   31  C   UNL     1     -21.260  -5.220  -5.606  1.00  0.00     0.180 C 
HETATM   32  O   UNL     1     -20.438  -4.348  -5.835  1.00  0.00    -0.646 OA
BRANCH  31  33
HETATM   33  O   UNL     1     -22.516  -5.179  -6.112  1.00  0.00    -0.773 OA
HETATM   34  H   UNL     1     -22.742  -6.123  -6.348  1.00  0.00     0.167 HD
ENDBRANCH  31  33
ENDBRANCH  22  31
ENDBRANCH   3  20
TORSDOF 6
BEGIN_RES ARG D 557
REMARK  4 active torsions:
REMARK  status: ('A' for Active; 'I' for Inactive)
REMARK    1  A    between atoms: CA   and  CB  
REMARK    2  A    between atoms: CB   and  CG  
REMARK    3  A    between atoms: CG   and  CD  
REMARK    4  A    between atoms: CD   and  NE  
REMARK       I    between atoms: NE   and  CZ  
REMARK       I    between atoms: CZ   and  NH1 
REMARK       I    between atoms: CZ   and  NH2 
ROOT
ATOM      1  CA  ARG D 557     -26.217   2.705 -17.014  1.00 35.49     0.159 C 
ENDROOT
BRANCH   1   2
ATOM      2  CB  ARG D 557     -26.789   1.319 -17.183  1.00 35.49     0.034 C 
BRANCH   2   3
ATOM      3  CG  ARG D 557     -28.234   1.225 -17.423  1.00 35.49     0.027 C 
BRANCH   3   4
ATOM      4  CD  ARG D 557     -28.903   0.294 -16.487  1.00 35.49     0.116 C 
BRANCH   4   5
ATOM      5  NE  ARG D 557     -29.307  -0.927 -17.132  1.00 35.49    -0.212 N 
ATOM      6  CZ  ARG D 557     -28.689  -2.083 -17.044  1.00 35.49     0.666 C 
ATOM      7  NH1 ARG D 557     -27.584  -2.245 -16.340  1.00 35.49    -0.235 N 
ATOM      8  NH2 ARG D 557     -29.210  -3.092 -17.680  1.00 35.49    -0.235 N 
ATOM      9  HH  ARG D 557     -27.225  -1.596 -15.912  1.00 35.49     0.174 HD
ATOM     10  HH  ARG D 557     -27.227  -3.024 -16.317  1.00 35.49     0.174 HD
ATOM     11  HH  ARG D 557     -29.928  -2.960 -18.121  1.00 35.49     0.174 HD
ATOM     12  HH  ARG D 557     -28.842  -3.855 -17.644  1.00 35.49     0.174 HD
ATOM     13  HE  ARG D 557     -29.969  -0.897 -17.665  1.00 35.49     0.178 HD
ENDBRANCH   4   5
ENDBRANCH   3   4
ENDBRANCH   2   3
ENDBRANCH   1   2
END_RES ARG D 557
BEGIN_RES GLU D 570
REMARK  3 active torsions:
REMARK  status: ('A' for Active; 'I' for Inactive)
REMARK    5  A    between atoms: CA   and  CB  
REMARK    6  A    between atoms: CB   and  CG  
REMARK    7  A    between atoms: CG   and  CD  
ROOT
ATOM     14  CA  GLU D 570     -18.033  -6.348 -13.375  1.00 32.92     0.160 C 
ENDROOT
BRANCH  14  15
ATOM     15  CB  GLU D 570     -19.500  -6.345 -13.794  1.00 32.92     0.043 C 
BRANCH  15  16
ATOM     16  CG  GLU D 570     -20.433  -5.491 -13.015  1.00 32.92     0.100 C 
BRANCH  16  17
ATOM     17  CD  GLU D 570     -21.706  -5.173 -13.763  1.00 32.92     0.185 C 
ATOM     18  OE1 GLU D 570     -22.795  -5.238 -13.161  1.00 32.92    -0.647 OA
ATOM     19  OE2 GLU D 570     -21.615  -4.871 -14.970  1.00 32.92    -0.647 OA
ENDBRANCH  16  17
ENDBRANCH  15  16
ENDBRANCH  14  15
END_RES GLU D 570
ENDMDL
