MODEL 1
REMARK VINA RESULT:      -6.8      0.000      0.000
REMARK WARNING: 32 MAX_TORS EXCEEDED!!!
REMARK  70 active torsions:
REMARK  status: ('A' for Active; 'I' for Inactive)
REMARK    1  A    between atoms: C_2  and  C_3 
REMARK    2  A    between atoms: C_3  and  C_4 
REMARK    3  A    between atoms: C_4  and  C_5 
REMARK    4  A    between atoms: C_5  and  C_6 
REMARK    5  A    between atoms: C_6  and  C_7 
REMARK    6  A    between atoms: C_7  and  C_8 
REMARK    7  A    between atoms: C_8  and  C_9 
REMARK    8  A    between atoms: C_10  and  C_11 
REMARK    9  A    between atoms: C_11  and  C_12 
REMARK   10  A    between atoms: C_12  and  C_13 
REMARK   11  A    between atoms: C_13  and  C_14 
REMARK   12  A    between atoms: C_14  and  C_15 
REMARK   13  A    between atoms: C_15  and  C_16 
REMARK   14  A    between atoms: C_16  and  C_17 
REMARK   15  A    between atoms: C_17  and  C_18 
REMARK   16  A    between atoms: C_18  and  O_20 
REMARK   17  A    between atoms: C_23  and  C_24 
REMARK   18  A    between atoms: C_24  and  C_25 
REMARK   19  A    between atoms: C_25  and  C_26 
REMARK   20  A    between atoms: C_26  and  C_27 
REMARK   21  A    between atoms: C_27  and  C_28 
REMARK   22  A    between atoms: C_28  and  C_29 
REMARK   23  A    between atoms: C_29  and  C_30 
REMARK   24  A    between atoms: C_31  and  C_32 
REMARK   25  A    between atoms: C_32  and  C_33 
REMARK   26  A    between atoms: C_33  and  C_34 
REMARK   27  A    between atoms: C_34  and  C_35 
REMARK   28  A    between atoms: C_35  and  C_36 
REMARK   29  A    between atoms: C_36  and  C_37 
REMARK   30  A    between atoms: C_37  and  C_38 
REMARK   31  A    between atoms: C_38  and  C_39 
REMARK   32  A    between atoms: C_39  and  O_41 
REMARK   33  A    between atoms: C_44  and  C_45 
REMARK   34  A    between atoms: C_45  and  C_46 
REMARK   35  A    between atoms: C_46  and  C_47 
REMARK   36  A    between atoms: C_47  and  C_48 
REMARK   37  A    between atoms: C_48  and  C_49 
REMARK   38  A    between atoms: C_49  and  C_50 
REMARK   39  A    between atoms: C_50  and  C_51 
REMARK   40  A    between atoms: C_52  and  C_53 
REMARK   41  A    between atoms: C_53  and  C_54 
REMARK   42  A    between atoms: C_54  and  C_55 
REMARK   43  A    between atoms: C_55  and  C_56 
REMARK   44  A    between atoms: C_56  and  C_57 
REMARK   45  A    between atoms: C_57  and  C_58 
REMARK   46  A    between atoms: C_58  and  C_59 
REMARK   47  A    between atoms: C_59  and  C_60 
REMARK   48  A    between atoms: C_60  and  O_62 
REMARK   49  A    between atoms: C_64  and  C_65 
REMARK   50  A    between atoms: C_64  and  O_75 
REMARK   51  A    between atoms: C_65  and  C_66 
REMARK   52  A    between atoms: C_65  and  O_74 
REMARK   53  A    between atoms: C_66  and  C_67 
REMARK   54  A    between atoms: C_66  and  O_73 
REMARK   55  A    between atoms: C_67  and  C_68 
REMARK   56  A    between atoms: C_67  and  O_72 
REMARK   57  A    between atoms: C_68  and  C_69 
REMARK   58  A    between atoms: C_68  and  O_71 
REMARK   59  A    between atoms: C_69  and  O_70 
REMARK   60  A    between atoms: C_82  and  C_83 
REMARK   61  A    between atoms: C_82  and  O_93 
REMARK   62  A    between atoms: C_83  and  C_84 
REMARK   63  A    between atoms: C_83  and  O_92 
REMARK   64  A    between atoms: C_84  and  C_85 
REMARK   65  A    between atoms: C_84  and  O_91 
REMARK   66  A    between atoms: C_85  and  C_86 
REMARK   67  A    between atoms: C_85  and  O_90 
REMARK   68  A    between atoms: C_86  and  C_87 
REMARK   69  A    between atoms: C_86  and  O_89 
REMARK   70  A    between atoms: C_87  and  O_88 
ROOT
HETATM    1  C   UNL     4     -22.849  -2.866 -12.948  1.00  0.00     0.180 C 
ENDROOT
BRANCH   1   2
HETATM    2  C   UNL     4     -23.199  -2.426 -14.432  1.00  0.00     0.173 C 
BRANCH   2   3
HETATM    3  C   UNL     4     -23.788  -0.881 -15.161  1.00  0.00     0.198 C 
BRANCH   3   4
HETATM    4  O   UNL     4     -25.001  -0.197 -14.854  1.00  0.00    -0.398 OA
HETATM    5  H   UNL     4     -25.774  -0.503 -15.376  1.00  0.00     0.209 HD
ENDBRANCH   3   4
ENDBRANCH   2   3
BRANCH   2   6
HETATM    6  O   UNL     4     -23.878  -3.666 -14.801  1.00  0.00    -0.391 OA
HETATM    7  H   UNL     4     -23.914  -4.247 -14.023  1.00  0.00     0.210 HD
ENDBRANCH   2   6
ENDBRANCH   1   2
BRANCH   1   8
HETATM    8  C   UNL     4     -23.987  -3.698 -12.261  1.00  0.00     0.180 C 
BRANCH   8   9
HETATM    9  C   UNL     4     -23.648  -4.071 -10.805  1.00  0.00     0.173 C 
BRANCH   9  10
HETATM   10  C   UNL     4     -24.423  -3.245  -9.786  1.00  0.00     0.198 C 
BRANCH  10  11
HETATM   11  O   UNL     4     -25.726  -3.816  -9.643  1.00  0.00    -0.398 OA
HETATM   12  H   UNL     4     -25.564  -4.789  -9.596  1.00  0.00     0.209 HD
ENDBRANCH  10  11
ENDBRANCH   9  10
BRANCH   9  13
HETATM   13  O   UNL     4     -23.921  -5.441 -10.451  1.00  0.00    -0.391 OA
HETATM   14  H   UNL     4     -23.063  -5.861 -10.222  1.00  0.00     0.210 HD
ENDBRANCH   9  13
ENDBRANCH   8   9
BRANCH   8  15
HETATM   15  O   UNL     4     -25.187  -2.899 -12.268  1.00  0.00    -0.390 OA
HETATM   16  H   UNL     4     -25.430  -2.691 -11.346  1.00  0.00     0.210 HD
ENDBRANCH   8  15
ENDBRANCH   1   8
BRANCH   1  17
HETATM   17  O   UNL     4     -21.654  -3.614 -12.749  1.00  0.00    -0.390 OA
HETATM   18  H   UNL     4     -21.456  -4.105 -13.572  1.00  0.00     0.210 HD
ENDBRANCH   1  17
TORSDOF 70
BEGIN_RES ARG D 557
REMARK  4 active torsions:
REMARK  status: ('A' for Active; 'I' for Inactive)
REMARK    1  A    between atoms: CA   and  CB  
REMARK    2  A    between atoms: CB   and  CG  
REMARK    3  A    between atoms: CG   and  CD  
REMARK    4  A    between atoms: CD   and  NE  
REMARK       I    between atoms: NE   and  CZ  
REMARK       I    between atoms: CZ   and  NH1 
REMARK       I    between atoms: CZ   and  NH2 
ROOT
ATOM      1  CA  ARG D 557     -26.217   2.705 -17.014  1.00 35.49     0.159 C 
ENDROOT
BRANCH   1   2
ATOM      2  CB  ARG D 557     -26.789   1.319 -17.183  1.00 35.49     0.034 C 
BRANCH   2   3
ATOM      3  CG  ARG D 557     -28.215   1.151 -16.878  1.00 35.49     0.027 C 
BRANCH   3   4
ATOM      4  CD  ARG D 557     -28.616  -0.273 -16.821  1.00 35.49     0.116 C 
BRANCH   4   5
ATOM      5  NE  ARG D 557     -27.658  -1.078 -16.109  1.00 35.49    -0.212 N 
ATOM      6  CZ  ARG D 557     -27.545  -2.385 -16.187  1.00 35.49     0.666 C 
ATOM      7  NH1 ARG D 557     -28.338  -3.122 -16.943  1.00 35.49    -0.235 N 
ATOM      8  NH2 ARG D 557     -26.604  -2.949 -15.486  1.00 35.49    -0.235 N 
ATOM      9  HH  ARG D 557     -28.962  -2.772 -17.414  1.00 35.49     0.174 HD
ATOM     10  HH  ARG D 557     -28.215  -3.970 -16.956  1.00 35.49     0.174 HD
ATOM     11  HH  ARG D 557     -26.103  -2.447 -15.013  1.00 35.49     0.174 HD
ATOM     12  HH  ARG D 557     -26.498  -3.789 -15.513  1.00 35.49     0.174 HD
ATOM     13  HE  ARG D 557     -27.155  -0.692 -15.543  1.00 35.49     0.178 HD
ENDBRANCH   4   5
ENDBRANCH   3   4
ENDBRANCH   2   3
ENDBRANCH   1   2
END_RES ARG D 557
BEGIN_RES GLU D 570
REMARK  3 active torsions:
REMARK  status: ('A' for Active; 'I' for Inactive)
REMARK    5  A    between atoms: CA   and  CB  
REMARK    6  A    between atoms: CB   and  CG  
REMARK    7  A    between atoms: CG   and  CD  
ROOT
ATOM     14  CA  GLU D 570     -18.033  -6.348 -13.375  1.00 32.92     0.160 C 
ENDROOT
BRANCH  14  15
ATOM     15  CB  GLU D 570     -19.500  -6.345 -13.794  1.00 32.92     0.043 C 
BRANCH  15  16
ATOM     16  CG  GLU D 570     -19.805  -6.042 -15.216  1.00 32.92     0.100 C 
BRANCH  16  17
ATOM     17  CD  GLU D 570     -21.239  -5.617 -15.434  1.00 32.92     0.185 C 
ATOM     18  OE1 GLU D 570     -21.515  -4.900 -16.415  1.00 32.92    -0.647 OA
ATOM     19  OE2 GLU D 570     -22.092  -5.992 -14.605  1.00 32.92    -0.647 OA
ENDBRANCH  16  17
ENDBRANCH  15  16
ENDBRANCH  14  15
END_RES GLU D 570
ENDMDL
MODEL 2
REMARK VINA RESULT:      -6.1      1.173      1.691
REMARK WARNING: 32 MAX_TORS EXCEEDED!!!
REMARK  70 active torsions:
REMARK  status: ('A' for Active; 'I' for Inactive)
REMARK    1  A    between atoms: C_2  and  C_3 
REMARK    2  A    between atoms: C_3  and  C_4 
REMARK    3  A    between atoms: C_4  and  C_5 
REMARK    4  A    between atoms: C_5  and  C_6 
REMARK    5  A    between atoms: C_6  and  C_7 
REMARK    6  A    between atoms: C_7  and  C_8 
REMARK    7  A    between atoms: C_8  and  C_9 
REMARK    8  A    between atoms: C_10  and  C_11 
REMARK    9  A    between atoms: C_11  and  C_12 
REMARK   10  A    between atoms: C_12  and  C_13 
REMARK   11  A    between atoms: C_13  and  C_14 
REMARK   12  A    between atoms: C_14  and  C_15 
REMARK   13  A    between atoms: C_15  and  C_16 
REMARK   14  A    between atoms: C_16  and  C_17 
REMARK   15  A    between atoms: C_17  and  C_18 
REMARK   16  A    between atoms: C_18  and  O_20 
REMARK   17  A    between atoms: C_23  and  C_24 
REMARK   18  A    between atoms: C_24  and  C_25 
REMARK   19  A    between atoms: C_25  and  C_26 
REMARK   20  A    between atoms: C_26  and  C_27 
REMARK   21  A    between atoms: C_27  and  C_28 
REMARK   22  A    between atoms: C_28  and  C_29 
REMARK   23  A    between atoms: C_29  and  C_30 
REMARK   24  A    between atoms: C_31  and  C_32 
REMARK   25  A    between atoms: C_32  and  C_33 
REMARK   26  A    between atoms: C_33  and  C_34 
REMARK   27  A    between atoms: C_34  and  C_35 
REMARK   28  A    between atoms: C_35  and  C_36 
REMARK   29  A    between atoms: C_36  and  C_37 
REMARK   30  A    between atoms: C_37  and  C_38 
REMARK   31  A    between atoms: C_38  and  C_39 
REMARK   32  A    between atoms: C_39  and  O_41 
REMARK   33  A    between atoms: C_44  and  C_45 
REMARK   34  A    between atoms: C_45  and  C_46 
REMARK   35  A    between atoms: C_46  and  C_47 
REMARK   36  A    between atoms: C_47  and  C_48 
REMARK   37  A    between atoms: C_48  and  C_49 
REMARK   38  A    between atoms: C_49  and  C_50 
REMARK   39  A    between atoms: C_50  and  C_51 
REMARK   40  A    between atoms: C_52  and  C_53 
REMARK   41  A    between atoms: C_53  and  C_54 
REMARK   42  A    between atoms: C_54  and  C_55 
REMARK   43  A    between atoms: C_55  and  C_56 
REMARK   44  A    between atoms: C_56  and  C_57 
REMARK   45  A    between atoms: C_57  and  C_58 
REMARK   46  A    between atoms: C_58  and  C_59 
REMARK   47  A    between atoms: C_59  and  C_60 
REMARK   48  A    between atoms: C_60  and  O_62 
REMARK   49  A    between atoms: C_64  and  C_65 
REMARK   50  A    between atoms: C_64  and  O_75 
REMARK   51  A    between atoms: C_65  and  C_66 
REMARK   52  A    between atoms: C_65  and  O_74 
REMARK   53  A    between atoms: C_66  and  C_67 
REMARK   54  A    between atoms: C_66  and  O_73 
REMARK   55  A    between atoms: C_67  and  C_68 
REMARK   56  A    between atoms: C_67  and  O_72 
REMARK   57  A    between atoms: C_68  and  C_69 
REMARK   58  A    between atoms: C_68  and  O_71 
REMARK   59  A    between atoms: C_69  and  O_70 
REMARK   60  A    between atoms: C_82  and  C_83 
REMARK   61  A    between atoms: C_82  and  O_93 
REMARK   62  A    between atoms: C_83  and  C_84 
REMARK   63  A    between atoms: C_83  and  O_92 
REMARK   64  A    between atoms: C_84  and  C_85 
REMARK   65  A    between atoms: C_84  and  O_91 
REMARK   66  A    between atoms: C_85  and  C_86 
REMARK   67  A    between atoms: C_85  and  O_90 
REMARK   68  A    between atoms: C_86  and  C_87 
REMARK   69  A    between atoms: C_86  and  O_89 
REMARK   70  A    between atoms: C_87  and  O_88 
ROOT
HETATM    1  C   UNL     4     -24.085  -3.188 -12.726  1.00  0.00     0.180 C 
ENDROOT
BRANCH   1   2
HETATM    2  C   UNL     4     -23.289  -2.324 -13.793  1.00  0.00     0.173 C 
BRANCH   2   3
HETATM    3  C   UNL     4     -23.786  -1.060 -14.985  1.00  0.00     0.198 C 
BRANCH   3   4
HETATM    4  O   UNL     4     -24.913  -0.189 -14.890  1.00  0.00    -0.398 OA
HETATM    5  H   UNL     4     -25.770  -0.625 -15.086  1.00  0.00     0.209 HD
ENDBRANCH   3   4
ENDBRANCH   2   3
BRANCH   2   6
HETATM    6  O   UNL     4     -22.430  -3.410 -14.257  1.00  0.00    -0.391 OA
HETATM    7  H   UNL     4     -22.950  -4.000 -14.827  1.00  0.00     0.210 HD
ENDBRANCH   2   6
ENDBRANCH   1   2
BRANCH   1   8
HETATM    8  C   UNL     4     -23.494  -3.083 -11.277  1.00  0.00     0.180 C 
BRANCH   8   9
HETATM    9  C   UNL     4     -23.934  -4.253 -10.376  1.00  0.00     0.173 C 
BRANCH   9  10
HETATM   10  C   UNL     4     -22.962  -4.517  -9.231  1.00  0.00     0.198 C 
BRANCH  10  11
HETATM   11  O   UNL     4     -22.816  -3.310  -8.480  1.00  0.00    -0.398 OA
HETATM   12  H   UNL     4     -22.147  -3.530  -7.787  1.00  0.00     0.209 HD
ENDBRANCH  10  11
ENDBRANCH   9  10
BRANCH   9  13
HETATM   13  O   UNL     4     -25.214  -4.078  -9.737  1.00  0.00    -0.391 OA
HETATM   14  H   UNL     4     -25.229  -3.174  -9.354  1.00  0.00     0.210 HD
ENDBRANCH   9  13
ENDBRANCH   8   9
BRANCH   8  15
HETATM   15  O   UNL     4     -22.057  -3.093 -11.382  1.00  0.00    -0.390 OA
HETATM   16  H   UNL     4     -21.809  -3.462 -12.251  1.00  0.00     0.210 HD
ENDBRANCH   8  15
ENDBRANCH   1   8
BRANCH   1  17
HETATM   17  O   UNL     4     -25.480  -2.940 -12.590  1.00  0.00    -0.390 OA
HETATM   18  H   UNL     4     -25.599  -2.092 -12.117  1.00  0.00     0.210 HD
ENDBRANCH   1  17
TORSDOF 70
BEGIN_RES ARG D 557
REMARK  4 active torsions:
REMARK  status: ('A' for Active; 'I' for Inactive)
REMARK    1  A    between atoms: CA   and  CB  
REMARK    2  A    between atoms: CB   and  CG  
REMARK    3  A    between atoms: CG   and  CD  
REMARK    4  A    between atoms: CD   and  NE  
REMARK       I    between atoms: NE   and  CZ  
REMARK       I    between atoms: CZ   and  NH1 
REMARK       I    between atoms: CZ   and  NH2 
ROOT
ATOM      1  CA  ARG D 557     -26.217   2.705 -17.014  1.00 35.49     0.159 C 
ENDROOT
BRANCH   1   2
ATOM      2  CB  ARG D 557     -26.789   1.319 -17.183  1.00 35.49     0.034 C 
BRANCH   2   3
ATOM      3  CG  ARG D 557     -28.214   1.150 -16.873  1.00 35.49     0.027 C 
BRANCH   3   4
ATOM      4  CD  ARG D 557     -28.607  -0.275 -16.786  1.00 35.49     0.116 C 
BRANCH   4   5
ATOM      5  NE  ARG D 557     -27.634  -1.064 -16.077  1.00 35.49    -0.212 N 
ATOM      6  CZ  ARG D 557     -27.504  -2.370 -16.149  1.00 35.49     0.666 C 
ATOM      7  NH1 ARG D 557     -28.292  -3.121 -16.896  1.00 35.49    -0.235 N 
ATOM      8  NH2 ARG D 557     -26.551  -2.917 -15.452  1.00 35.49    -0.235 N 
ATOM      9  HH  ARG D 557     -28.925  -2.781 -17.364  1.00 35.49     0.174 HD
ATOM     10  HH  ARG D 557     -28.159  -3.967 -16.906  1.00 35.49     0.174 HD
ATOM     11  HH  ARG D 557     -26.053  -2.407 -14.985  1.00 35.49     0.174 HD
ATOM     12  HH  ARG D 557     -26.434  -3.757 -15.476  1.00 35.49     0.174 HD
ATOM     13  HE  ARG D 557     -27.132  -0.669 -15.516  1.00 35.49     0.178 HD
ENDBRANCH   4   5
ENDBRANCH   3   4
ENDBRANCH   2   3
ENDBRANCH   1   2
END_RES ARG D 557
BEGIN_RES GLU D 570
REMARK  3 active torsions:
REMARK  status: ('A' for Active; 'I' for Inactive)
REMARK    5  A    between atoms: CA   and  CB  
REMARK    6  A    between atoms: CB   and  CG  
REMARK    7  A    between atoms: CG   and  CD  
ROOT
ATOM     14  CA  GLU D 570     -18.033  -6.348 -13.375  1.00 32.92     0.160 C 
ENDROOT
BRANCH  14  15
ATOM     15  CB  GLU D 570     -19.500  -6.345 -13.794  1.00 32.92     0.043 C 
BRANCH  15  16
ATOM     16  CG  GLU D 570     -19.796  -6.368 -15.250  1.00 32.92     0.100 C 
BRANCH  16  17
ATOM     17  CD  GLU D 570     -21.160  -6.936 -15.565  1.00 32.92     0.185 C 
ATOM     18  OE1 GLU D 570     -22.171  -6.243 -15.341  1.00 32.92    -0.647 OA
ATOM     19  OE2 GLU D 570     -21.219  -8.094 -16.025  1.00 32.92    -0.647 OA
ENDBRANCH  16  17
ENDBRANCH  15  16
ENDBRANCH  14  15
END_RES GLU D 570
ENDMDL
MODEL 3
REMARK VINA RESULT:      -6.0      1.212      3.411
REMARK WARNING: 32 MAX_TORS EXCEEDED!!!
REMARK  70 active torsions:
REMARK  status: ('A' for Active; 'I' for Inactive)
REMARK    1  A    between atoms: C_2  and  C_3 
REMARK    2  A    between atoms: C_3  and  C_4 
REMARK    3  A    between atoms: C_4  and  C_5 
REMARK    4  A    between atoms: C_5  and  C_6 
REMARK    5  A    between atoms: C_6  and  C_7 
REMARK    6  A    between atoms: C_7  and  C_8 
REMARK    7  A    between atoms: C_8  and  C_9 
REMARK    8  A    between atoms: C_10  and  C_11 
REMARK    9  A    between atoms: C_11  and  C_12 
REMARK   10  A    between atoms: C_12  and  C_13 
REMARK   11  A    between atoms: C_13  and  C_14 
REMARK   12  A    between atoms: C_14  and  C_15 
REMARK   13  A    between atoms: C_15  and  C_16 
REMARK   14  A    between atoms: C_16  and  C_17 
REMARK   15  A    between atoms: C_17  and  C_18 
REMARK   16  A    between atoms: C_18  and  O_20 
REMARK   17  A    between atoms: C_23  and  C_24 
REMARK   18  A    between atoms: C_24  and  C_25 
REMARK   19  A    between atoms: C_25  and  C_26 
REMARK   20  A    between atoms: C_26  and  C_27 
REMARK   21  A    between atoms: C_27  and  C_28 
REMARK   22  A    between atoms: C_28  and  C_29 
REMARK   23  A    between atoms: C_29  and  C_30 
REMARK   24  A    between atoms: C_31  and  C_32 
REMARK   25  A    between atoms: C_32  and  C_33 
REMARK   26  A    between atoms: C_33  and  C_34 
REMARK   27  A    between atoms: C_34  and  C_35 
REMARK   28  A    between atoms: C_35  and  C_36 
REMARK   29  A    between atoms: C_36  and  C_37 
REMARK   30  A    between atoms: C_37  and  C_38 
REMARK   31  A    between atoms: C_38  and  C_39 
REMARK   32  A    between atoms: C_39  and  O_41 
REMARK   33  A    between atoms: C_44  and  C_45 
REMARK   34  A    between atoms: C_45  and  C_46 
REMARK   35  A    between atoms: C_46  and  C_47 
REMARK   36  A    between atoms: C_47  and  C_48 
REMARK   37  A    between atoms: C_48  and  C_49 
REMARK   38  A    between atoms: C_49  and  C_50 
REMARK   39  A    between atoms: C_50  and  C_51 
REMARK   40  A    between atoms: C_52  and  C_53 
REMARK   41  A    between atoms: C_53  and  C_54 
REMARK   42  A    between atoms: C_54  and  C_55 
REMARK   43  A    between atoms: C_55  and  C_56 
REMARK   44  A    between atoms: C_56  and  C_57 
REMARK   45  A    between atoms: C_57  and  C_58 
REMARK   46  A    between atoms: C_58  and  C_59 
REMARK   47  A    between atoms: C_59  and  C_60 
REMARK   48  A    between atoms: C_60  and  O_62 
REMARK   49  A    between atoms: C_64  and  C_65 
REMARK   50  A    between atoms: C_64  and  O_75 
REMARK   51  A    between atoms: C_65  and  C_66 
REMARK   52  A    between atoms: C_65  and  O_74 
REMARK   53  A    between atoms: C_66  and  C_67 
REMARK   54  A    between atoms: C_66  and  O_73 
REMARK   55  A    between atoms: C_67  and  C_68 
REMARK   56  A    between atoms: C_67  and  O_72 
REMARK   57  A    between atoms: C_68  and  C_69 
REMARK   58  A    between atoms: C_68  and  O_71 
REMARK   59  A    between atoms: C_69  and  O_70 
REMARK   60  A    between atoms: C_82  and  C_83 
REMARK   61  A    between atoms: C_82  and  O_93 
REMARK   62  A    between atoms: C_83  and  C_84 
REMARK   63  A    between atoms: C_83  and  O_92 
REMARK   64  A    between atoms: C_84  and  C_85 
REMARK   65  A    between atoms: C_84  and  O_91 
REMARK   66  A    between atoms: C_85  and  C_86 
REMARK   67  A    between atoms: C_85  and  O_90 
REMARK   68  A    between atoms: C_86  and  C_87 
REMARK   69  A    between atoms: C_86  and  O_89 
REMARK   70  A    between atoms: C_87  and  O_88 
ROOT
HETATM    1  C   UNL     4     -22.838  -3.995 -12.196  1.00  0.00     0.180 C 
ENDROOT
BRANCH   1   2
HETATM    2  C   UNL     4     -22.330  -4.092 -10.696  1.00  0.00     0.173 C 
BRANCH   2   3
HETATM    3  C   UNL     4     -23.178  -4.171  -9.102  1.00  0.00     0.198 C 
BRANCH   3   4
HETATM    4  O   UNL     4     -24.402  -3.528  -8.751  1.00  0.00    -0.398 OA
HETATM    5  H   UNL     4     -24.290  -2.766  -8.142  1.00  0.00     0.209 HD
ENDBRANCH   3   4
ENDBRANCH   2   3
BRANCH   2   6
HETATM    6  O   UNL     4     -21.231  -3.141 -10.846  1.00  0.00    -0.391 OA
HETATM    7  H   UNL     4     -21.530  -2.267 -10.548  1.00  0.00     0.210 HD
ENDBRANCH   2   6
ENDBRANCH   1   2
BRANCH   1   8
HETATM    8  C   UNL     4     -23.915  -2.876 -12.416  1.00  0.00     0.180 C 
BRANCH   8   9
HETATM    9  C   UNL     4     -24.474  -2.871 -13.852  1.00  0.00     0.173 C 
BRANCH   9  10
HETATM   10  C   UNL     4     -23.971  -1.693 -14.679  1.00  0.00     0.198 C 
BRANCH  10  11
HETATM   11  O   UNL     4     -22.862  -2.138 -15.464  1.00  0.00    -0.398 OA
HETATM   12  H   UNL     4     -23.015  -3.107 -15.581  1.00  0.00     0.209 HD
ENDBRANCH  10  11
ENDBRANCH   9  10
BRANCH   9  13
HETATM   13  O   UNL     4     -24.145  -4.035 -14.635  1.00  0.00    -0.391 OA
HETATM   14  H   UNL     4     -24.620  -4.799 -14.238  1.00  0.00     0.210 HD
ENDBRANCH   9  13
ENDBRANCH   8   9
BRANCH   8  15
HETATM   15  O   UNL     4     -24.999  -3.116 -11.497  1.00  0.00    -0.390 OA
HETATM   16  H   UNL     4     -25.742  -3.516 -11.986  1.00  0.00     0.210 HD
ENDBRANCH   8  15
ENDBRANCH   1   8
BRANCH   1  17
HETATM   17  O   UNL     4     -21.859  -3.790 -13.209  1.00  0.00    -0.390 OA
HETATM   18  H   UNL     4     -21.964  -4.489 -13.886  1.00  0.00     0.210 HD
ENDBRANCH   1  17
TORSDOF 70
BEGIN_RES ARG D 557
REMARK  4 active torsions:
REMARK  status: ('A' for Active; 'I' for Inactive)
REMARK    1  A    between atoms: CA   and  CB  
REMARK    2  A    between atoms: CB   and  CG  
REMARK    3  A    between atoms: CG   and  CD  
REMARK    4  A    between atoms: CD   and  NE  
REMARK       I    between atoms: NE   and  CZ  
REMARK       I    between atoms: CZ   and  NH1 
REMARK       I    between atoms: CZ   and  NH2 
ROOT
ATOM      1  CA  ARG D 557     -26.217   2.705 -17.014  1.00 35.49     0.159 C 
ENDROOT
BRANCH   1   2
ATOM      2  CB  ARG D 557     -26.789   1.319 -17.183  1.00 35.49     0.034 C 
BRANCH   2   3
ATOM      3  CG  ARG D 557     -28.228   1.227 -17.458  1.00 35.49     0.027 C 
BRANCH   3   4
ATOM      4  CD  ARG D 557     -28.908   0.245 -16.583  1.00 35.49     0.116 C 
BRANCH   4   5
ATOM      5  NE  ARG D 557     -28.041  -0.841 -16.211  1.00 35.49    -0.212 N 
ATOM      6  CZ  ARG D 557     -28.159  -2.089 -16.607  1.00 35.49     0.666 C 
ATOM      7  NH1 ARG D 557     -29.129  -2.490 -17.407  1.00 35.49    -0.235 N 
ATOM      8  NH2 ARG D 557     -27.268  -2.939 -16.187  1.00 35.49    -0.235 N 
ATOM      9  HH  ARG D 557     -29.725  -1.948 -17.698  1.00 35.49     0.174 HD
ATOM     10  HH  ARG D 557     -29.154  -3.316 -17.635  1.00 35.49     0.174 HD
ATOM     11  HH  ARG D 557     -26.648  -2.650 -15.677  1.00 35.49     0.174 HD
ATOM     12  HH  ARG D 557     -27.308  -3.752 -16.424  1.00 35.49     0.174 HD
ATOM     13  HE  ARG D 557     -27.430  -0.687 -15.640  1.00 35.49     0.178 HD
ENDBRANCH   4   5
ENDBRANCH   3   4
ENDBRANCH   2   3
ENDBRANCH   1   2
END_RES ARG D 557
BEGIN_RES GLU D 570
REMARK  3 active torsions:
REMARK  status: ('A' for Active; 'I' for Inactive)
REMARK    5  A    between atoms: CA   and  CB  
REMARK    6  A    between atoms: CB   and  CG  
REMARK    7  A    between atoms: CG   and  CD  
ROOT
ATOM     14  CA  GLU D 570     -18.033  -6.348 -13.375  1.00 32.92     0.160 C 
ENDROOT
BRANCH  14  15
ATOM     15  CB  GLU D 570     -19.500  -6.345 -13.794  1.00 32.92     0.043 C 
BRANCH  15  16
ATOM     16  CG  GLU D 570     -19.808  -6.002 -15.206  1.00 32.92     0.100 C 
BRANCH  16  17
ATOM     17  CD  GLU D 570     -21.266  -5.673 -15.429  1.00 32.92     0.185 C 
ATOM     18  OE1 GLU D 570     -22.135  -6.384 -14.890  1.00 32.92    -0.647 OA
ATOM     19  OE2 GLU D 570     -21.541  -4.703 -16.163  1.00 32.92    -0.647 OA
ENDBRANCH  16  17
ENDBRANCH  15  16
ENDBRANCH  14  15
END_RES GLU D 570
ENDMDL
MODEL 4
REMARK VINA RESULT:      -5.9      3.658      5.413
REMARK WARNING: 32 MAX_TORS EXCEEDED!!!
REMARK  70 active torsions:
REMARK  status: ('A' for Active; 'I' for Inactive)
REMARK    1  A    between atoms: C_2  and  C_3 
REMARK    2  A    between atoms: C_3  and  C_4 
REMARK    3  A    between atoms: C_4  and  C_5 
REMARK    4  A    between atoms: C_5  and  C_6 
REMARK    5  A    between atoms: C_6  and  C_7 
REMARK    6  A    between atoms: C_7  and  C_8 
REMARK    7  A    between atoms: C_8  and  C_9 
REMARK    8  A    between atoms: C_10  and  C_11 
REMARK    9  A    between atoms: C_11  and  C_12 
REMARK   10  A    between atoms: C_12  and  C_13 
REMARK   11  A    between atoms: C_13  and  C_14 
REMARK   12  A    between atoms: C_14  and  C_15 
REMARK   13  A    between atoms: C_15  and  C_16 
REMARK   14  A    between atoms: C_16  and  C_17 
REMARK   15  A    between atoms: C_17  and  C_18 
REMARK   16  A    between atoms: C_18  and  O_20 
REMARK   17  A    between atoms: C_23  and  C_24 
REMARK   18  A    between atoms: C_24  and  C_25 
REMARK   19  A    between atoms: C_25  and  C_26 
REMARK   20  A    between atoms: C_26  and  C_27 
REMARK   21  A    between atoms: C_27  and  C_28 
REMARK   22  A    between atoms: C_28  and  C_29 
REMARK   23  A    between atoms: C_29  and  C_30 
REMARK   24  A    between atoms: C_31  and  C_32 
REMARK   25  A    between atoms: C_32  and  C_33 
REMARK   26  A    between atoms: C_33  and  C_34 
REMARK   27  A    between atoms: C_34  and  C_35 
REMARK   28  A    between atoms: C_35  and  C_36 
REMARK   29  A    between atoms: C_36  and  C_37 
REMARK   30  A    between atoms: C_37  and  C_38 
REMARK   31  A    between atoms: C_38  and  C_39 
REMARK   32  A    between atoms: C_39  and  O_41 
REMARK   33  A    between atoms: C_44  and  C_45 
REMARK   34  A    between atoms: C_45  and  C_46 
REMARK   35  A    between atoms: C_46  and  C_47 
REMARK   36  A    between atoms: C_47  and  C_48 
REMARK   37  A    between atoms: C_48  and  C_49 
REMARK   38  A    between atoms: C_49  and  C_50 
REMARK   39  A    between atoms: C_50  and  C_51 
REMARK   40  A    between atoms: C_52  and  C_53 
REMARK   41  A    between atoms: C_53  and  C_54 
REMARK   42  A    between atoms: C_54  and  C_55 
REMARK   43  A    between atoms: C_55  and  C_56 
REMARK   44  A    between atoms: C_56  and  C_57 
REMARK   45  A    between atoms: C_57  and  C_58 
REMARK   46  A    between atoms: C_58  and  C_59 
REMARK   47  A    between atoms: C_59  and  C_60 
REMARK   48  A    between atoms: C_60  and  O_62 
REMARK   49  A    between atoms: C_64  and  C_65 
REMARK   50  A    between atoms: C_64  and  O_75 
REMARK   51  A    between atoms: C_65  and  C_66 
REMARK   52  A    between atoms: C_65  and  O_74 
REMARK   53  A    between atoms: C_66  and  C_67 
REMARK   54  A    between atoms: C_66  and  O_73 
REMARK   55  A    between atoms: C_67  and  C_68 
REMARK   56  A    between atoms: C_67  and  O_72 
REMARK   57  A    between atoms: C_68  and  C_69 
REMARK   58  A    between atoms: C_68  and  O_71 
REMARK   59  A    between atoms: C_69  and  O_70 
REMARK   60  A    between atoms: C_82  and  C_83 
REMARK   61  A    between atoms: C_82  and  O_93 
REMARK   62  A    between atoms: C_83  and  C_84 
REMARK   63  A    between atoms: C_83  and  O_92 
REMARK   64  A    between atoms: C_84  and  C_85 
REMARK   65  A    between atoms: C_84  and  O_91 
REMARK   66  A    between atoms: C_85  and  C_86 
REMARK   67  A    between atoms: C_85  and  O_90 
REMARK   68  A    between atoms: C_86  and  C_87 
REMARK   69  A    between atoms: C_86  and  O_89 
REMARK   70  A    between atoms: C_87  and  O_88 
ROOT
HETATM    1  C   UNL     4     -28.298  -5.125 -15.973  1.00  0.00     0.180 C 
ENDROOT
BRANCH   1   2
HETATM    2  C   UNL     4     -29.841  -5.157 -16.345  1.00  0.00     0.173 C 
BRANCH   2   3
HETATM    3  C   UNL     4     -30.899  -4.083 -17.340  1.00  0.00     0.198 C 
BRANCH   3   4
HETATM    4  O   UNL     4     -30.718  -2.688 -17.582  1.00  0.00    -0.398 OA
HETATM    5  H   UNL     4     -30.815  -2.130 -16.781  1.00  0.00     0.209 HD
ENDBRANCH   3   4
ENDBRANCH   2   3
BRANCH   2   6
HETATM    6  O   UNL     4     -30.308  -5.548 -15.018  1.00  0.00    -0.391 OA
HETATM    7  H   UNL     4     -31.254  -5.337 -14.943  1.00  0.00     0.210 HD
ENDBRANCH   2   6
ENDBRANCH   1   2
BRANCH   1   8
HETATM    8  C   UNL     4     -27.553  -6.468 -16.297  1.00  0.00     0.180 C 
BRANCH   8   9
HETATM    9  C   UNL     4     -26.076  -6.245 -16.672  1.00  0.00     0.173 C 
BRANCH   9  10
HETATM   10  C   UNL     4     -25.119  -7.081 -15.830  1.00  0.00     0.198 C 
BRANCH  10  11
HETATM   11  O   UNL     4     -24.729  -6.306 -14.693  1.00  0.00    -0.398 OA
HETATM   12  H   UNL     4     -25.556  -5.844 -14.414  1.00  0.00     0.209 HD
ENDBRANCH  10  11
ENDBRANCH   9  10
BRANCH   9  13
HETATM   13  O   UNL     4     -25.741  -6.568 -18.036  1.00  0.00    -0.391 OA
HETATM   14  H   UNL     4     -24.908  -7.088 -18.018  1.00  0.00     0.210 HD
ENDBRANCH   9  13
ENDBRANCH   8   9
BRANCH   8  15
HETATM   15  O   UNL     4     -27.614  -7.304 -15.125  1.00  0.00    -0.390 OA
HETATM   16  H   UNL     4     -28.158  -6.856 -14.449  1.00  0.00     0.210 HD
ENDBRANCH   8  15
ENDBRANCH   1   8
BRANCH   1  17
HETATM   17  O   UNL     4     -27.504  -4.096 -16.553  1.00  0.00    -0.390 OA
HETATM   18  H   UNL     4     -26.632  -4.092 -16.110  1.00  0.00     0.210 HD
ENDBRANCH   1  17
TORSDOF 70
BEGIN_RES ARG D 557
REMARK  4 active torsions:
REMARK  status: ('A' for Active; 'I' for Inactive)
REMARK    1  A    between atoms: CA   and  CB  
REMARK    2  A    between atoms: CB   and  CG  
REMARK    3  A    between atoms: CG   and  CD  
REMARK    4  A    between atoms: CD   and  NE  
REMARK       I    between atoms: NE   and  CZ  
REMARK       I    between atoms: CZ   and  NH1 
REMARK       I    between atoms: CZ   and  NH2 
ROOT
ATOM      1  CA  ARG D 557     -26.217   2.705 -17.014  1.00 35.49     0.159 C 
ENDROOT
BRANCH   1   2
ATOM      2  CB  ARG D 557     -26.789   1.319 -17.183  1.00 35.49     0.034 C 
BRANCH   2   3
ATOM      3  CG  ARG D 557     -25.859   0.196 -17.017  1.00 35.49     0.027 C 
BRANCH   3   4
ATOM      4  CD  ARG D 557     -26.268  -0.720 -15.928  1.00 35.49     0.116 C 
BRANCH   4   5
ATOM      5  NE  ARG D 557     -25.229  -0.896 -14.948  1.00 35.49    -0.212 N 
ATOM      6  CZ  ARG D 557     -24.900  -2.030 -14.372  1.00 35.49     0.666 C 
ATOM      7  NH1 ARG D 557     -25.523  -3.165 -14.633  1.00 35.49    -0.235 N 
ATOM      8  NH2 ARG D 557     -23.916  -2.008 -13.521  1.00 35.49    -0.235 N 
ATOM      9  HH  ARG D 557     -26.172  -3.203 -15.191  1.00 35.49     0.174 HD
ATOM     10  HH  ARG D 557     -25.263  -3.874 -14.229  1.00 35.49     0.174 HD
ATOM     11  HH  ARG D 557     -23.527  -1.263 -13.377  1.00 35.49     0.174 HD
ATOM     12  HH  ARG D 557     -23.673  -2.722 -13.132  1.00 35.49     0.174 HD
ATOM     13  HE  ARG D 557     -24.824  -0.203 -14.667  1.00 35.49     0.178 HD
ENDBRANCH   4   5
ENDBRANCH   3   4
ENDBRANCH   2   3
ENDBRANCH   1   2
END_RES ARG D 557
BEGIN_RES GLU D 570
REMARK  3 active torsions:
REMARK  status: ('A' for Active; 'I' for Inactive)
REMARK    5  A    between atoms: CA   and  CB  
REMARK    6  A    between atoms: CB   and  CG  
REMARK    7  A    between atoms: CG   and  CD  
ROOT
ATOM     14  CA  GLU D 570     -18.033  -6.348 -13.375  1.00 32.92     0.160 C 
ENDROOT
BRANCH  14  15
ATOM     15  CB  GLU D 570     -19.500  -6.345 -13.794  1.00 32.92     0.043 C 
BRANCH  15  16
ATOM     16  CG  GLU D 570     -20.441  -5.526 -12.987  1.00 32.92     0.100 C 
BRANCH  16  17
ATOM     17  CD  GLU D 570     -21.731  -5.223 -13.713  1.00 32.92     0.185 C 
ATOM     18  OE1 GLU D 570     -22.693  -4.761 -13.070  1.00 32.92    -0.647 OA
ATOM     19  OE2 GLU D 570     -21.785  -5.466 -14.934  1.00 32.92    -0.647 OA
ENDBRANCH  16  17
ENDBRANCH  15  16
ENDBRANCH  14  15
END_RES GLU D 570
ENDMDL
MODEL 5
REMARK VINA RESULT:      -5.9      1.333      3.779
REMARK WARNING: 32 MAX_TORS EXCEEDED!!!
REMARK  70 active torsions:
REMARK  status: ('A' for Active; 'I' for Inactive)
REMARK    1  A    between atoms: C_2  and  C_3 
REMARK    2  A    between atoms: C_3  and  C_4 
REMARK    3  A    between atoms: C_4  and  C_5 
REMARK    4  A    between atoms: C_5  and  C_6 
REMARK    5  A    between atoms: C_6  and  C_7 
REMARK    6  A    between atoms: C_7  and  C_8 
REMARK    7  A    between atoms: C_8  and  C_9 
REMARK    8  A    between atoms: C_10  and  C_11 
REMARK    9  A    between atoms: C_11  and  C_12 
REMARK   10  A    between atoms: C_12  and  C_13 
REMARK   11  A    between atoms: C_13  and  C_14 
REMARK   12  A    between atoms: C_14  and  C_15 
REMARK   13  A    between atoms: C_15  and  C_16 
REMARK   14  A    between atoms: C_16  and  C_17 
REMARK   15  A    between atoms: C_17  and  C_18 
REMARK   16  A    between atoms: C_18  and  O_20 
REMARK   17  A    between atoms: C_23  and  C_24 
REMARK   18  A    between atoms: C_24  and  C_25 
REMARK   19  A    between atoms: C_25  and  C_26 
REMARK   20  A    between atoms: C_26  and  C_27 
REMARK   21  A    between atoms: C_27  and  C_28 
REMARK   22  A    between atoms: C_28  and  C_29 
REMARK   23  A    between atoms: C_29  and  C_30 
REMARK   24  A    between atoms: C_31  and  C_32 
REMARK   25  A    between atoms: C_32  and  C_33 
REMARK   26  A    between atoms: C_33  and  C_34 
REMARK   27  A    between atoms: C_34  and  C_35 
REMARK   28  A    between atoms: C_35  and  C_36 
REMARK   29  A    between atoms: C_36  and  C_37 
REMARK   30  A    between atoms: C_37  and  C_38 
REMARK   31  A    between atoms: C_38  and  C_39 
REMARK   32  A    between atoms: C_39  and  O_41 
REMARK   33  A    between atoms: C_44  and  C_45 
REMARK   34  A    between atoms: C_45  and  C_46 
REMARK   35  A    between atoms: C_46  and  C_47 
REMARK   36  A    between atoms: C_47  and  C_48 
REMARK   37  A    between atoms: C_48  and  C_49 
REMARK   38  A    between atoms: C_49  and  C_50 
REMARK   39  A    between atoms: C_50  and  C_51 
REMARK   40  A    between atoms: C_52  and  C_53 
REMARK   41  A    between atoms: C_53  and  C_54 
REMARK   42  A    between atoms: C_54  and  C_55 
REMARK   43  A    between atoms: C_55  and  C_56 
REMARK   44  A    between atoms: C_56  and  C_57 
REMARK   45  A    between atoms: C_57  and  C_58 
REMARK   46  A    between atoms: C_58  and  C_59 
REMARK   47  A    between atoms: C_59  and  C_60 
REMARK   48  A    between atoms: C_60  and  O_62 
REMARK   49  A    between atoms: C_64  and  C_65 
REMARK   50  A    between atoms: C_64  and  O_75 
REMARK   51  A    between atoms: C_65  and  C_66 
REMARK   52  A    between atoms: C_65  and  O_74 
REMARK   53  A    between atoms: C_66  and  C_67 
REMARK   54  A    between atoms: C_66  and  O_73 
REMARK   55  A    between atoms: C_67  and  C_68 
REMARK   56  A    between atoms: C_67  and  O_72 
REMARK   57  A    between atoms: C_68  and  C_69 
REMARK   58  A    between atoms: C_68  and  O_71 
REMARK   59  A    between atoms: C_69  and  O_70 
REMARK   60  A    between atoms: C_82  and  C_83 
REMARK   61  A    between atoms: C_82  and  O_93 
REMARK   62  A    between atoms: C_83  and  C_84 
REMARK   63  A    between atoms: C_83  and  O_92 
REMARK   64  A    between atoms: C_84  and  C_85 
REMARK   65  A    between atoms: C_84  and  O_91 
REMARK   66  A    between atoms: C_85  and  C_86 
REMARK   67  A    between atoms: C_85  and  O_90 
REMARK   68  A    between atoms: C_86  and  C_87 
REMARK   69  A    between atoms: C_86  and  O_89 
REMARK   70  A    between atoms: C_87  and  O_88 
ROOT
HETATM    1  C   UNL     4     -24.163  -4.076 -11.276  1.00  0.00     0.180 C 
ENDROOT
BRANCH   1   2
HETATM    2  C   UNL     4     -24.152  -3.576  -9.770  1.00  0.00     0.173 C 
BRANCH   2   3
HETATM    3  C   UNL     4     -23.302  -4.146  -8.281  1.00  0.00     0.198 C 
BRANCH   3   4
HETATM    4  O   UNL     4     -22.269  -3.465  -7.570  1.00  0.00    -0.398 OA
HETATM    5  H   UNL     4     -22.217  -3.703  -6.620  1.00  0.00     0.209 HD
ENDBRANCH   3   4
ENDBRANCH   2   3
BRANCH   2   6
HETATM    6  O   UNL     4     -25.585  -3.310  -9.688  1.00  0.00    -0.391 OA
HETATM    7  H   UNL     4     -25.806  -3.060  -8.775  1.00  0.00     0.210 HD
ENDBRANCH   2   6
ENDBRANCH   1   2
BRANCH   1   8
HETATM    8  C   UNL     4     -24.257  -2.906 -12.318  1.00  0.00     0.180 C 
BRANCH   8   9
HETATM    9  C   UNL     4     -23.358  -3.140 -13.548  1.00  0.00     0.173 C 
BRANCH   9  10
HETATM   10  C   UNL     4     -23.614  -2.138 -14.667  1.00  0.00     0.198 C 
BRANCH  10  11
HETATM   11  O   UNL     4     -22.552  -2.248 -15.619  1.00  0.00    -0.398 OA
HETATM   12  H   UNL     4     -22.324  -3.209 -15.623  1.00  0.00     0.209 HD
ENDBRANCH  10  11
ENDBRANCH   9  10
BRANCH   9  13
HETATM   13  O   UNL     4     -21.943  -3.050 -13.291  1.00  0.00    -0.391 OA
HETATM   14  H   UNL     4     -21.827  -2.969 -12.319  1.00  0.00     0.210 HD
ENDBRANCH   9  13
ENDBRANCH   8   9
BRANCH   8  15
HETATM   15  O   UNL     4     -25.627  -2.810 -12.755  1.00  0.00    -0.390 OA
HETATM   16  H   UNL     4     -25.649  -2.345 -13.614  1.00  0.00     0.210 HD
ENDBRANCH   8  15
ENDBRANCH   1   8
BRANCH   1  17
HETATM   17  O   UNL     4     -23.077  -4.887 -11.707  1.00  0.00    -0.390 OA
HETATM   18  H   UNL     4     -22.331  -4.302 -11.951  1.00  0.00     0.210 HD
ENDBRANCH   1  17
TORSDOF 70
BEGIN_RES ARG D 557
REMARK  4 active torsions:
REMARK  status: ('A' for Active; 'I' for Inactive)
REMARK    1  A    between atoms: CA   and  CB  
REMARK    2  A    between atoms: CB   and  CG  
REMARK    3  A    between atoms: CG   and  CD  
REMARK    4  A    between atoms: CD   and  NE  
REMARK       I    between atoms: NE   and  CZ  
REMARK       I    between atoms: CZ   and  NH1 
REMARK       I    between atoms: CZ   and  NH2 
ROOT
ATOM      1  CA  ARG D 557     -26.217   2.705 -17.014  1.00 35.49     0.159 C 
ENDROOT
BRANCH   1   2
ATOM      2  CB  ARG D 557     -26.789   1.319 -17.183  1.00 35.49     0.034 C 
BRANCH   2   3
ATOM      3  CG  ARG D 557     -28.230   1.227 -17.449  1.00 35.49     0.027 C 
BRANCH   3   4
ATOM      4  CD  ARG D 557     -28.920   0.316 -16.507  1.00 35.49     0.116 C 
BRANCH   4   5
ATOM      5  NE  ARG D 557     -29.292  -0.927 -17.129  1.00 35.49    -0.212 N 
ATOM      6  CZ  ARG D 557     -28.643  -2.065 -17.020  1.00 35.49     0.666 C 
ATOM      7  NH1 ARG D 557     -27.535  -2.184 -16.313  1.00 35.49    -0.235 N 
ATOM      8  NH2 ARG D 557     -29.137  -3.099 -17.637  1.00 35.49    -0.235 N 
ATOM      9  HH  ARG D 557     -27.193  -1.518 -15.897  1.00 35.49     0.174 HD
ATOM     10  HH  ARG D 557     -27.156  -2.952 -16.276  1.00 35.49     0.174 HD
ATOM     11  HH  ARG D 557     -29.858  -2.994 -18.080  1.00 35.49     0.174 HD
ATOM     12  HH  ARG D 557     -28.749  -3.851 -17.586  1.00 35.49     0.174 HD
ATOM     13  HE  ARG D 557     -29.954  -0.925 -17.662  1.00 35.49     0.178 HD
ENDBRANCH   4   5
ENDBRANCH   3   4
ENDBRANCH   2   3
ENDBRANCH   1   2
END_RES ARG D 557
BEGIN_RES GLU D 570
REMARK  3 active torsions:
REMARK  status: ('A' for Active; 'I' for Inactive)
REMARK    5  A    between atoms: CA   and  CB  
REMARK    6  A    between atoms: CB   and  CG  
REMARK    7  A    between atoms: CG   and  CD  
ROOT
ATOM     14  CA  GLU D 570     -18.033  -6.348 -13.375  1.00 32.92     0.160 C 
ENDROOT
BRANCH  14  15
ATOM     15  CB  GLU D 570     -19.500  -6.345 -13.794  1.00 32.92     0.043 C 
BRANCH  15  16
ATOM     16  CG  GLU D 570     -19.811  -5.962 -15.196  1.00 32.92     0.100 C 
BRANCH  16  17
ATOM     17  CD  GLU D 570     -21.264  -5.603 -15.400  1.00 32.92     0.185 C 
ATOM     18  OE1 GLU D 570     -21.590  -4.951 -16.411  1.00 32.92    -0.647 OA
ATOM     19  OE2 GLU D 570     -22.083  -5.962 -14.531  1.00 32.92    -0.647 OA
ENDBRANCH  16  17
ENDBRANCH  15  16
ENDBRANCH  14  15
END_RES GLU D 570
ENDMDL
MODEL 6
REMARK VINA RESULT:      -5.8      2.025      3.643
REMARK WARNING: 32 MAX_TORS EXCEEDED!!!
REMARK  70 active torsions:
REMARK  status: ('A' for Active; 'I' for Inactive)
REMARK    1  A    between atoms: C_2  and  C_3 
REMARK    2  A    between atoms: C_3  and  C_4 
REMARK    3  A    between atoms: C_4  and  C_5 
REMARK    4  A    between atoms: C_5  and  C_6 
REMARK    5  A    between atoms: C_6  and  C_7 
REMARK    6  A    between atoms: C_7  and  C_8 
REMARK    7  A    between atoms: C_8  and  C_9 
REMARK    8  A    between atoms: C_10  and  C_11 
REMARK    9  A    between atoms: C_11  and  C_12 
REMARK   10  A    between atoms: C_12  and  C_13 
REMARK   11  A    between atoms: C_13  and  C_14 
REMARK   12  A    between atoms: C_14  and  C_15 
REMARK   13  A    between atoms: C_15  and  C_16 
REMARK   14  A    between atoms: C_16  and  C_17 
REMARK   15  A    between atoms: C_17  and  C_18 
REMARK   16  A    between atoms: C_18  and  O_20 
REMARK   17  A    between atoms: C_23  and  C_24 
REMARK   18  A    between atoms: C_24  and  C_25 
REMARK   19  A    between atoms: C_25  and  C_26 
REMARK   20  A    between atoms: C_26  and  C_27 
REMARK   21  A    between atoms: C_27  and  C_28 
REMARK   22  A    between atoms: C_28  and  C_29 
REMARK   23  A    between atoms: C_29  and  C_30 
REMARK   24  A    between atoms: C_31  and  C_32 
REMARK   25  A    between atoms: C_32  and  C_33 
REMARK   26  A    between atoms: C_33  and  C_34 
REMARK   27  A    between atoms: C_34  and  C_35 
REMARK   28  A    between atoms: C_35  and  C_36 
REMARK   29  A    between atoms: C_36  and  C_37 
REMARK   30  A    between atoms: C_37  and  C_38 
REMARK   31  A    between atoms: C_38  and  C_39 
REMARK   32  A    between atoms: C_39  and  O_41 
REMARK   33  A    between atoms: C_44  and  C_45 
REMARK   34  A    between atoms: C_45  and  C_46 
REMARK   35  A    between atoms: C_46  and  C_47 
REMARK   36  A    between atoms: C_47  and  C_48 
REMARK   37  A    between atoms: C_48  and  C_49 
REMARK   38  A    between atoms: C_49  and  C_50 
REMARK   39  A    between atoms: C_50  and  C_51 
REMARK   40  A    between atoms: C_52  and  C_53 
REMARK   41  A    between atoms: C_53  and  C_54 
REMARK   42  A    between atoms: C_54  and  C_55 
REMARK   43  A    between atoms: C_55  and  C_56 
REMARK   44  A    between atoms: C_56  and  C_57 
REMARK   45  A    between atoms: C_57  and  C_58 
REMARK   46  A    between atoms: C_58  and  C_59 
REMARK   47  A    between atoms: C_59  and  C_60 
REMARK   48  A    between atoms: C_60  and  O_62 
REMARK   49  A    between atoms: C_64  and  C_65 
REMARK   50  A    between atoms: C_64  and  O_75 
REMARK   51  A    between atoms: C_65  and  C_66 
REMARK   52  A    between atoms: C_65  and  O_74 
REMARK   53  A    between atoms: C_66  and  C_67 
REMARK   54  A    between atoms: C_66  and  O_73 
REMARK   55  A    between atoms: C_67  and  C_68 
REMARK   56  A    between atoms: C_67  and  O_72 
REMARK   57  A    between atoms: C_68  and  C_69 
REMARK   58  A    between atoms: C_68  and  O_71 
REMARK   59  A    between atoms: C_69  and  O_70 
REMARK   60  A    between atoms: C_82  and  C_83 
REMARK   61  A    between atoms: C_82  and  O_93 
REMARK   62  A    between atoms: C_83  and  C_84 
REMARK   63  A    between atoms: C_83  and  O_92 
REMARK   64  A    between atoms: C_84  and  C_85 
REMARK   65  A    between atoms: C_84  and  O_91 
REMARK   66  A    between atoms: C_85  and  C_86 
REMARK   67  A    between atoms: C_85  and  O_90 
REMARK   68  A    between atoms: C_86  and  C_87 
REMARK   69  A    between atoms: C_86  and  O_89 
REMARK   70  A    between atoms: C_87  and  O_88 
ROOT
HETATM    1  C   UNL     4     -23.501  -5.385 -14.326  1.00  0.00     0.180 C 
ENDROOT
BRANCH   1   2
HETATM    2  C   UNL     4     -24.488  -6.331 -15.131  1.00  0.00     0.173 C 
BRANCH   2   3
HETATM    3  C   UNL     4     -24.234  -7.615 -16.378  1.00  0.00     0.198 C 
BRANCH   3   4
HETATM    4  O   UNL     4     -23.416  -7.527 -17.544  1.00  0.00    -0.398 OA
HETATM    5  H   UNL     4     -23.066  -8.390 -17.850  1.00  0.00     0.209 HD
ENDBRANCH   3   4
ENDBRANCH   2   3
BRANCH   2   6
HETATM    6  O   UNL     4     -25.500  -5.311 -15.388  1.00  0.00    -0.391 OA
HETATM    7  H   UNL     4     -26.354  -5.623 -15.045  1.00  0.00     0.210 HD
ENDBRANCH   2   6
ENDBRANCH   1   2
BRANCH   1   8
HETATM    8  C   UNL     4     -23.360  -3.955 -14.955  1.00  0.00     0.180 C 
BRANCH   8   9
HETATM    9  C   UNL     4     -23.886  -2.847 -14.022  1.00  0.00     0.173 C 
BRANCH   9  10
HETATM   10  C   UNL     4     -23.836  -1.463 -14.659  1.00  0.00     0.198 C 
BRANCH  10  11
HETATM   11  O   UNL     4     -25.158  -0.919 -14.653  1.00  0.00    -0.398 OA
HETATM   12  H   UNL     4     -25.607  -1.369 -13.896  1.00  0.00     0.209 HD
ENDBRANCH  10  11
ENDBRANCH   9  10
BRANCH   9  13
HETATM   13  O   UNL     4     -25.254  -3.008 -13.601  1.00  0.00    -0.391 OA
HETATM   14  H   UNL     4     -25.761  -3.344 -14.372  1.00  0.00     0.210 HD
ENDBRANCH   9  13
ENDBRANCH   8   9
BRANCH   8  15
HETATM   15  O   UNL     4     -21.962  -3.719 -15.214  1.00  0.00    -0.390 OA
HETATM   16  H   UNL     4     -21.568  -4.537 -15.573  1.00  0.00     0.210 HD
ENDBRANCH   8  15
ENDBRANCH   1   8
BRANCH   1  17
HETATM   17  O   UNL     4     -23.776  -5.172 -12.946  1.00  0.00    -0.390 OA
HETATM   18  H   UNL     4     -24.592  -4.638 -12.872  1.00  0.00     0.210 HD
ENDBRANCH   1  17
TORSDOF 70
BEGIN_RES ARG D 557
REMARK  4 active torsions:
REMARK  status: ('A' for Active; 'I' for Inactive)
REMARK    1  A    between atoms: CA   and  CB  
REMARK    2  A    between atoms: CB   and  CG  
REMARK    3  A    between atoms: CG   and  CD  
REMARK    4  A    between atoms: CD   and  NE  
REMARK       I    between atoms: NE   and  CZ  
REMARK       I    between atoms: CZ   and  NH1 
REMARK       I    between atoms: CZ   and  NH2 
ROOT
ATOM      1  CA  ARG D 557     -26.217   2.705 -17.014  1.00 35.49     0.159 C 
ENDROOT
BRANCH   1   2
ATOM      2  CB  ARG D 557     -26.789   1.319 -17.183  1.00 35.49     0.034 C 
BRANCH   2   3
ATOM      3  CG  ARG D 557     -28.234   1.225 -17.422  1.00 35.49     0.027 C 
BRANCH   3   4
ATOM      4  CD  ARG D 557     -28.882   0.203 -16.568  1.00 35.49     0.116 C 
BRANCH   4   5
ATOM      5  NE  ARG D 557     -27.956  -0.813 -16.142  1.00 35.49    -0.212 N 
ATOM      6  CZ  ARG D 557     -27.978  -2.075 -16.509  1.00 35.49     0.666 C 
ATOM      7  NH1 ARG D 557     -28.895  -2.560 -17.326  1.00 35.49    -0.235 N 
ATOM      8  NH2 ARG D 557     -27.046  -2.853 -16.040  1.00 35.49    -0.235 N 
ATOM      9  HH  ARG D 557     -29.517  -2.066 -17.648  1.00 35.49     0.174 HD
ATOM     10  HH  ARG D 557     -28.858  -3.391 -17.532  1.00 35.49     0.174 HD
ATOM     11  HH  ARG D 557     -26.463  -2.510 -15.520  1.00 35.49     0.174 HD
ATOM     12  HH  ARG D 557     -27.026  -3.672 -16.257  1.00 35.49     0.174 HD
ATOM     13  HE  ARG D 557     -27.375  -0.604 -15.557  1.00 35.49     0.178 HD
ENDBRANCH   4   5
ENDBRANCH   3   4
ENDBRANCH   2   3
ENDBRANCH   1   2
END_RES ARG D 557
BEGIN_RES GLU D 570
REMARK  3 active torsions:
REMARK  status: ('A' for Active; 'I' for Inactive)
REMARK    5  A    between atoms: CA   and  CB  
REMARK    6  A    between atoms: CB   and  CG  
REMARK    7  A    between atoms: CG   and  CD  
ROOT
ATOM     14  CA  GLU D 570     -18.033  -6.348 -13.375  1.00 32.92     0.160 C 
ENDROOT
BRANCH  14  15
ATOM     15  CB  GLU D 570     -19.500  -6.345 -13.794  1.00 32.92     0.043 C 
BRANCH  15  16
ATOM     16  CG  GLU D 570     -20.084  -7.633 -14.250  1.00 32.92     0.100 C 
BRANCH  16  17
ATOM     17  CD  GLU D 570     -20.611  -7.572 -15.665  1.00 32.92     0.185 C 
ATOM     18  OE1 GLU D 570     -20.826  -6.460 -16.184  1.00 32.92    -0.647 OA
ATOM     19  OE2 GLU D 570     -20.825  -8.649 -16.256  1.00 32.92    -0.647 OA
ENDBRANCH  16  17
ENDBRANCH  15  16
ENDBRANCH  14  15
END_RES GLU D 570
ENDMDL
MODEL 7
REMARK VINA RESULT:      -5.5      2.468      4.781
REMARK WARNING: 32 MAX_TORS EXCEEDED!!!
REMARK  70 active torsions:
REMARK  status: ('A' for Active; 'I' for Inactive)
REMARK    1  A    between atoms: C_2  and  C_3 
REMARK    2  A    between atoms: C_3  and  C_4 
REMARK    3  A    between atoms: C_4  and  C_5 
REMARK    4  A    between atoms: C_5  and  C_6 
REMARK    5  A    between atoms: C_6  and  C_7 
REMARK    6  A    between atoms: C_7  and  C_8 
REMARK    7  A    between atoms: C_8  and  C_9 
REMARK    8  A    between atoms: C_10  and  C_11 
REMARK    9  A    between atoms: C_11  and  C_12 
REMARK   10  A    between atoms: C_12  and  C_13 
REMARK   11  A    between atoms: C_13  and  C_14 
REMARK   12  A    between atoms: C_14  and  C_15 
REMARK   13  A    between atoms: C_15  and  C_16 
REMARK   14  A    between atoms: C_16  and  C_17 
REMARK   15  A    between atoms: C_17  and  C_18 
REMARK   16  A    between atoms: C_18  and  O_20 
REMARK   17  A    between atoms: C_23  and  C_24 
REMARK   18  A    between atoms: C_24  and  C_25 
REMARK   19  A    between atoms: C_25  and  C_26 
REMARK   20  A    between atoms: C_26  and  C_27 
REMARK   21  A    between atoms: C_27  and  C_28 
REMARK   22  A    between atoms: C_28  and  C_29 
REMARK   23  A    between atoms: C_29  and  C_30 
REMARK   24  A    between atoms: C_31  and  C_32 
REMARK   25  A    between atoms: C_32  and  C_33 
REMARK   26  A    between atoms: C_33  and  C_34 
REMARK   27  A    between atoms: C_34  and  C_35 
REMARK   28  A    between atoms: C_35  and  C_36 
REMARK   29  A    between atoms: C_36  and  C_37 
REMARK   30  A    between atoms: C_37  and  C_38 
REMARK   31  A    between atoms: C_38  and  C_39 
REMARK   32  A    between atoms: C_39  and  O_41 
REMARK   33  A    between atoms: C_44  and  C_45 
REMARK   34  A    between atoms: C_45  and  C_46 
REMARK   35  A    between atoms: C_46  and  C_47 
REMARK   36  A    between atoms: C_47  and  C_48 
REMARK   37  A    between atoms: C_48  and  C_49 
REMARK   38  A    between atoms: C_49  and  C_50 
REMARK   39  A    between atoms: C_50  and  C_51 
REMARK   40  A    between atoms: C_52  and  C_53 
REMARK   41  A    between atoms: C_53  and  C_54 
REMARK   42  A    between atoms: C_54  and  C_55 
REMARK   43  A    between atoms: C_55  and  C_56 
REMARK   44  A    between atoms: C_56  and  C_57 
REMARK   45  A    between atoms: C_57  and  C_58 
REMARK   46  A    between atoms: C_58  and  C_59 
REMARK   47  A    between atoms: C_59  and  C_60 
REMARK   48  A    between atoms: C_60  and  O_62 
REMARK   49  A    between atoms: C_64  and  C_65 
REMARK   50  A    between atoms: C_64  and  O_75 
REMARK   51  A    between atoms: C_65  and  C_66 
REMARK   52  A    between atoms: C_65  and  O_74 
REMARK   53  A    between atoms: C_66  and  C_67 
REMARK   54  A    between atoms: C_66  and  O_73 
REMARK   55  A    between atoms: C_67  and  C_68 
REMARK   56  A    between atoms: C_67  and  O_72 
REMARK   57  A    between atoms: C_68  and  C_69 
REMARK   58  A    between atoms: C_68  and  O_71 
REMARK   59  A    between atoms: C_69  and  O_70 
REMARK   60  A    between atoms: C_82  and  C_83 
REMARK   61  A    between atoms: C_82  and  O_93 
REMARK   62  A    between atoms: C_83  and  C_84 
REMARK   63  A    between atoms: C_83  and  O_92 
REMARK   64  A    between atoms: C_84  and  C_85 
REMARK   65  A    between atoms: C_84  and  O_91 
REMARK   66  A    between atoms: C_85  and  C_86 
REMARK   67  A    between atoms: C_85  and  O_90 
REMARK   68  A    between atoms: C_86  and  C_87 
REMARK   69  A    between atoms: C_86  and  O_89 
REMARK   70  A    between atoms: C_87  and  O_88 
ROOT
HETATM    1  C   UNL     4     -22.932  -4.131  -8.118  1.00  0.00     0.180 C 
ENDROOT
BRANCH   1   2
HETATM    2  C   UNL     4     -21.585  -4.931  -7.866  1.00  0.00     0.173 C 
BRANCH   2   3
HETATM    3  C   UNL     4     -21.005  -5.991  -6.522  1.00  0.00     0.198 C 
BRANCH   3   4
HETATM    4  O   UNL     4     -21.221  -7.394  -6.384  1.00  0.00    -0.398 OA
HETATM    5  H   UNL     4     -20.578  -7.946  -6.878  1.00  0.00     0.209 HD
ENDBRANCH   3   4
ENDBRANCH   2   3
BRANCH   2   6
HETATM    6  O   UNL     4     -20.692  -3.882  -8.352  1.00  0.00    -0.391 OA
HETATM    7  H   UNL     4     -20.872  -3.730  -9.294  1.00  0.00     0.210 HD
ENDBRANCH   2   6
ENDBRANCH   1   2
BRANCH   1   8
HETATM    8  C   UNL     4     -23.586  -4.438  -9.512  1.00  0.00     0.180 C 
BRANCH   8   9
HETATM    9  C   UNL     4     -24.417  -3.256 -10.045  1.00  0.00     0.173 C 
BRANCH   9  10
HETATM   10  C   UNL     4     -24.486  -3.220 -11.568  1.00  0.00     0.198 C 
BRANCH  10  11
HETATM   11  O   UNL     4     -23.397  -2.427 -12.047  1.00  0.00    -0.398 OA
HETATM   12  H   UNL     4     -22.638  -2.672 -11.464  1.00  0.00     0.209 HD
ENDBRANCH  10  11
ENDBRANCH   9  10
BRANCH   9  13
HETATM   13  O   UNL     4     -25.792  -3.239  -9.616  1.00  0.00    -0.391 OA
HETATM   14  H   UNL     4     -25.903  -2.465  -9.021  1.00  0.00     0.210 HD
ENDBRANCH   9  13
ENDBRANCH   8   9
BRANCH   8  15
HETATM   15  O   UNL     4     -22.526  -4.721 -10.446  1.00  0.00    -0.390 OA
HETATM   16  H   UNL     4     -22.765  -5.515 -10.961  1.00  0.00     0.210 HD
ENDBRANCH   8  15
ENDBRANCH   1   8
BRANCH   1  17
HETATM   17  O   UNL     4     -23.976  -4.284  -7.163  1.00  0.00    -0.390 OA
HETATM   18  H   UNL     4     -24.416  -3.419  -7.044  1.00  0.00     0.210 HD
ENDBRANCH   1  17
TORSDOF 70
BEGIN_RES ARG D 557
REMARK  4 active torsions:
REMARK  status: ('A' for Active; 'I' for Inactive)
REMARK    1  A    between atoms: CA   and  CB  
REMARK    2  A    between atoms: CB   and  CG  
REMARK    3  A    between atoms: CG   and  CD  
REMARK    4  A    between atoms: CD   and  NE  
REMARK       I    between atoms: NE   and  CZ  
REMARK       I    between atoms: CZ   and  NH1 
REMARK       I    between atoms: CZ   and  NH2 
ROOT
ATOM      1  CA  ARG D 557     -26.217   2.705 -17.014  1.00 35.49     0.159 C 
ENDROOT
BRANCH   1   2
ATOM      2  CB  ARG D 557     -26.789   1.319 -17.183  1.00 35.49     0.034 C 
BRANCH   2   3
ATOM      3  CG  ARG D 557     -28.232   1.226 -17.435  1.00 35.49     0.027 C 
BRANCH   3   4
ATOM      4  CD  ARG D 557     -28.911   0.304 -16.496  1.00 35.49     0.116 C 
BRANCH   4   5
ATOM      5  NE  ARG D 557     -29.284  -0.935 -17.126  1.00 35.49    -0.212 N 
ATOM      6  CZ  ARG D 557     -28.637  -2.074 -17.022  1.00 35.49     0.666 C 
ATOM      7  NH1 ARG D 557     -27.530  -2.199 -16.313  1.00 35.49    -0.235 N 
ATOM      8  NH2 ARG D 557     -29.131  -3.104 -17.645  1.00 35.49    -0.235 N 
ATOM      9  HH  ARG D 557     -27.188  -1.535 -15.893  1.00 35.49     0.174 HD
ATOM     10  HH  ARG D 557     -27.153  -2.968 -16.279  1.00 35.49     0.174 HD
ATOM     11  HH  ARG D 557     -29.851  -2.995 -18.089  1.00 35.49     0.174 HD
ATOM     12  HH  ARG D 557     -28.744  -3.857 -17.598  1.00 35.49     0.174 HD
ATOM     13  HE  ARG D 557     -29.945  -0.928 -17.660  1.00 35.49     0.178 HD
ENDBRANCH   4   5
ENDBRANCH   3   4
ENDBRANCH   2   3
ENDBRANCH   1   2
END_RES ARG D 557
BEGIN_RES GLU D 570
REMARK  3 active torsions:
REMARK  status: ('A' for Active; 'I' for Inactive)
REMARK    5  A    between atoms: CA   and  CB  
REMARK    6  A    between atoms: CB   and  CG  
REMARK    7  A    between atoms: CG   and  CD  
ROOT
ATOM     14  CA  GLU D 570     -18.033  -6.348 -13.375  1.00 32.92     0.160 C 
ENDROOT
BRANCH  14  15
ATOM     15  CB  GLU D 570     -19.500  -6.345 -13.794  1.00 32.92     0.043 C 
BRANCH  15  16
ATOM     16  CG  GLU D 570     -20.420  -5.439 -13.059  1.00 32.92     0.100 C 
BRANCH  16  17
ATOM     17  CD  GLU D 570     -21.694  -5.150 -13.818  1.00 32.92     0.185 C 
ATOM     18  OE1 GLU D 570     -22.787  -5.268 -13.233  1.00 32.92    -0.647 OA
ATOM     19  OE2 GLU D 570     -21.598  -4.819 -15.016  1.00 32.92    -0.647 OA
ENDBRANCH  16  17
ENDBRANCH  15  16
ENDBRANCH  14  15
END_RES GLU D 570
ENDMDL
MODEL 8
REMARK VINA RESULT:      -5.4      3.273      4.624
REMARK WARNING: 32 MAX_TORS EXCEEDED!!!
REMARK  70 active torsions:
REMARK  status: ('A' for Active; 'I' for Inactive)
REMARK    1  A    between atoms: C_2  and  C_3 
REMARK    2  A    between atoms: C_3  and  C_4 
REMARK    3  A    between atoms: C_4  and  C_5 
REMARK    4  A    between atoms: C_5  and  C_6 
REMARK    5  A    between atoms: C_6  and  C_7 
REMARK    6  A    between atoms: C_7  and  C_8 
REMARK    7  A    between atoms: C_8  and  C_9 
REMARK    8  A    between atoms: C_10  and  C_11 
REMARK    9  A    between atoms: C_11  and  C_12 
REMARK   10  A    between atoms: C_12  and  C_13 
REMARK   11  A    between atoms: C_13  and  C_14 
REMARK   12  A    between atoms: C_14  and  C_15 
REMARK   13  A    between atoms: C_15  and  C_16 
REMARK   14  A    between atoms: C_16  and  C_17 
REMARK   15  A    between atoms: C_17  and  C_18 
REMARK   16  A    between atoms: C_18  and  O_20 
REMARK   17  A    between atoms: C_23  and  C_24 
REMARK   18  A    between atoms: C_24  and  C_25 
REMARK   19  A    between atoms: C_25  and  C_26 
REMARK   20  A    between atoms: C_26  and  C_27 
REMARK   21  A    between atoms: C_27  and  C_28 
REMARK   22  A    between atoms: C_28  and  C_29 
REMARK   23  A    between atoms: C_29  and  C_30 
REMARK   24  A    between atoms: C_31  and  C_32 
REMARK   25  A    between atoms: C_32  and  C_33 
REMARK   26  A    between atoms: C_33  and  C_34 
REMARK   27  A    between atoms: C_34  and  C_35 
REMARK   28  A    between atoms: C_35  and  C_36 
REMARK   29  A    between atoms: C_36  and  C_37 
REMARK   30  A    between atoms: C_37  and  C_38 
REMARK   31  A    between atoms: C_38  and  C_39 
REMARK   32  A    between atoms: C_39  and  O_41 
REMARK   33  A    between atoms: C_44  and  C_45 
REMARK   34  A    between atoms: C_45  and  C_46 
REMARK   35  A    between atoms: C_46  and  C_47 
REMARK   36  A    between atoms: C_47  and  C_48 
REMARK   37  A    between atoms: C_48  and  C_49 
REMARK   38  A    between atoms: C_49  and  C_50 
REMARK   39  A    between atoms: C_50  and  C_51 
REMARK   40  A    between atoms: C_52  and  C_53 
REMARK   41  A    between atoms: C_53  and  C_54 
REMARK   42  A    between atoms: C_54  and  C_55 
REMARK   43  A    between atoms: C_55  and  C_56 
REMARK   44  A    between atoms: C_56  and  C_57 
REMARK   45  A    between atoms: C_57  and  C_58 
REMARK   46  A    between atoms: C_58  and  C_59 
REMARK   47  A    between atoms: C_59  and  C_60 
REMARK   48  A    between atoms: C_60  and  O_62 
REMARK   49  A    between atoms: C_64  and  C_65 
REMARK   50  A    between atoms: C_64  and  O_75 
REMARK   51  A    between atoms: C_65  and  C_66 
REMARK   52  A    between atoms: C_65  and  O_74 
REMARK   53  A    between atoms: C_66  and  C_67 
REMARK   54  A    between atoms: C_66  and  O_73 
REMARK   55  A    between atoms: C_67  and  C_68 
REMARK   56  A    between atoms: C_67  and  O_72 
REMARK   57  A    between atoms: C_68  and  C_69 
REMARK   58  A    between atoms: C_68  and  O_71 
REMARK   59  A    between atoms: C_69  and  O_70 
REMARK   60  A    between atoms: C_82  and  C_83 
REMARK   61  A    between atoms: C_82  and  O_93 
REMARK   62  A    between atoms: C_83  and  C_84 
REMARK   63  A    between atoms: C_83  and  O_92 
REMARK   64  A    between atoms: C_84  and  C_85 
REMARK   65  A    between atoms: C_84  and  O_91 
REMARK   66  A    between atoms: C_85  and  C_86 
REMARK   67  A    between atoms: C_85  and  O_90 
REMARK   68  A    between atoms: C_86  and  C_87 
REMARK   69  A    between atoms: C_86  and  O_89 
REMARK   70  A    between atoms: C_87  and  O_88 
ROOT
HETATM    1  C   UNL     4     -22.847  -4.571  -7.770  1.00  0.00     0.180 C 
ENDROOT
BRANCH   1   2
HETATM    2  C   UNL     4     -23.028  -3.901  -9.198  1.00  0.00     0.173 C 
BRANCH   2   3
HETATM    3  C   UNL     4     -24.463  -3.274 -10.100  1.00  0.00     0.198 C 
BRANCH   3   4
HETATM    4  O   UNL     4     -25.818  -3.263  -9.653  1.00  0.00    -0.398 OA
HETATM    5  H   UNL     4     -26.476  -3.330 -10.378  1.00  0.00     0.209 HD
ENDBRANCH   3   4
ENDBRANCH   2   3
BRANCH   2   6
HETATM    6  O   UNL     4     -22.106  -4.789  -9.900  1.00  0.00    -0.391 OA
HETATM    7  H   UNL     4     -22.496  -5.678  -9.941  1.00  0.00     0.210 HD
ENDBRANCH   2   6
ENDBRANCH   1   2
BRANCH   1   8
HETATM    8  C   UNL     4     -21.519  -4.149  -7.050  1.00  0.00     0.180 C 
BRANCH   8   9
HETATM    9  C   UNL     4     -20.746  -5.356  -6.485  1.00  0.00     0.173 C 
BRANCH   9  10
HETATM   10  C   UNL     4     -20.982  -5.565  -4.994  1.00  0.00     0.198 C 
BRANCH  10  11
HETATM   11  O   UNL     4     -22.311  -6.063  -4.816  1.00  0.00    -0.398 OA
HETATM   12  H   UNL     4     -22.768  -5.363  -4.289  1.00  0.00     0.209 HD
ENDBRANCH  10  11
ENDBRANCH   9  10
BRANCH   9  13
HETATM   13  O   UNL     4     -21.073  -6.622  -7.089  1.00  0.00    -0.391 OA
HETATM   14  H   UNL     4     -20.227  -7.083  -7.280  1.00  0.00     0.210 HD
ENDBRANCH   9  13
ENDBRANCH   8   9
BRANCH   8  15
HETATM   15  O   UNL     4     -20.686  -3.474  -8.013  1.00  0.00    -0.390 OA
HETATM   16  H   UNL     4     -19.877  -4.000  -8.151  1.00  0.00     0.210 HD
ENDBRANCH   8  15
ENDBRANCH   1   8
BRANCH   1  17
HETATM   17  O   UNL     4     -23.882  -4.370  -6.814  1.00  0.00    -0.390 OA
HETATM   18  H   UNL     4     -23.601  -3.664  -6.198  1.00  0.00     0.210 HD
ENDBRANCH   1  17
TORSDOF 70
BEGIN_RES ARG D 557
REMARK  4 active torsions:
REMARK  status: ('A' for Active; 'I' for Inactive)
REMARK    1  A    between atoms: CA   and  CB  
REMARK    2  A    between atoms: CB   and  CG  
REMARK    3  A    between atoms: CG   and  CD  
REMARK    4  A    between atoms: CD   and  NE  
REMARK       I    between atoms: NE   and  CZ  
REMARK       I    between atoms: CZ   and  NH1 
REMARK       I    between atoms: CZ   and  NH2 
ROOT
ATOM      1  CA  ARG D 557     -26.217   2.705 -17.014  1.00 35.49     0.159 C 
ENDROOT
BRANCH   1   2
ATOM      2  CB  ARG D 557     -26.789   1.319 -17.183  1.00 35.49     0.034 C 
BRANCH   2   3
ATOM      3  CG  ARG D 557     -25.865   0.195 -16.992  1.00 35.49     0.027 C 
BRANCH   3   4
ATOM      4  CD  ARG D 557     -26.283  -0.698 -15.887  1.00 35.49     0.116 C 
BRANCH   4   5
ATOM      5  NE  ARG D 557     -25.227  -0.914 -14.934  1.00 35.49    -0.212 N 
ATOM      6  CZ  ARG D 557     -24.934  -2.059 -14.359  1.00 35.49     0.666 C 
ATOM      7  NH1 ARG D 557     -25.614  -3.166 -14.594  1.00 35.49    -0.235 N 
ATOM      8  NH2 ARG D 557     -23.927  -2.076 -13.534  1.00 35.49    -0.235 N 
ATOM      9  HH  ARG D 557     -26.279  -3.178 -15.135  1.00 35.49     0.174 HD
ATOM     10  HH  ARG D 557     -25.375  -3.884 -14.192  1.00 35.49     0.174 HD
ATOM     11  HH  ARG D 557     -23.501  -1.348 -13.407  1.00 35.49     0.174 HD
ATOM     12  HH  ARG D 557     -23.705  -2.797 -13.147  1.00 35.49     0.174 HD
ATOM     13  HE  ARG D 557     -24.783  -0.239 -14.669  1.00 35.49     0.178 HD
ENDBRANCH   4   5
ENDBRANCH   3   4
ENDBRANCH   2   3
ENDBRANCH   1   2
END_RES ARG D 557
BEGIN_RES GLU D 570
REMARK  3 active torsions:
REMARK  status: ('A' for Active; 'I' for Inactive)
REMARK    5  A    between atoms: CA   and  CB  
REMARK    6  A    between atoms: CB   and  CG  
REMARK    7  A    between atoms: CG   and  CD  
ROOT
ATOM     14  CA  GLU D 570     -18.033  -6.348 -13.375  1.00 32.92     0.160 C 
ENDROOT
BRANCH  14  15
ATOM     15  CB  GLU D 570     -19.500  -6.345 -13.794  1.00 32.92     0.043 C 
BRANCH  15  16
ATOM     16  CG  GLU D 570     -20.456  -5.603 -12.933  1.00 32.92     0.100 C 
BRANCH  16  17
ATOM     17  CD  GLU D 570     -21.699  -5.165 -13.673  1.00 32.92     0.185 C 
ATOM     18  OE1 GLU D 570     -21.678  -5.123 -14.918  1.00 32.92    -0.647 OA
ATOM     19  OE2 GLU D 570     -22.698  -4.844 -12.999  1.00 32.92    -0.647 OA
ENDBRANCH  16  17
ENDBRANCH  15  16
ENDBRANCH  14  15
END_RES GLU D 570
ENDMDL
MODEL 9
REMARK VINA RESULT:      -5.4      1.556      2.090
REMARK WARNING: 32 MAX_TORS EXCEEDED!!!
REMARK  70 active torsions:
REMARK  status: ('A' for Active; 'I' for Inactive)
REMARK    1  A    between atoms: C_2  and  C_3 
REMARK    2  A    between atoms: C_3  and  C_4 
REMARK    3  A    between atoms: C_4  and  C_5 
REMARK    4  A    between atoms: C_5  and  C_6 
REMARK    5  A    between atoms: C_6  and  C_7 
REMARK    6  A    between atoms: C_7  and  C_8 
REMARK    7  A    between atoms: C_8  and  C_9 
REMARK    8  A    between atoms: C_10  and  C_11 
REMARK    9  A    between atoms: C_11  and  C_12 
REMARK   10  A    between atoms: C_12  and  C_13 
REMARK   11  A    between atoms: C_13  and  C_14 
REMARK   12  A    between atoms: C_14  and  C_15 
REMARK   13  A    between atoms: C_15  and  C_16 
REMARK   14  A    between atoms: C_16  and  C_17 
REMARK   15  A    between atoms: C_17  and  C_18 
REMARK   16  A    between atoms: C_18  and  O_20 
REMARK   17  A    between atoms: C_23  and  C_24 
REMARK   18  A    between atoms: C_24  and  C_25 
REMARK   19  A    between atoms: C_25  and  C_26 
REMARK   20  A    between atoms: C_26  and  C_27 
REMARK   21  A    between atoms: C_27  and  C_28 
REMARK   22  A    between atoms: C_28  and  C_29 
REMARK   23  A    between atoms: C_29  and  C_30 
REMARK   24  A    between atoms: C_31  and  C_32 
REMARK   25  A    between atoms: C_32  and  C_33 
REMARK   26  A    between atoms: C_33  and  C_34 
REMARK   27  A    between atoms: C_34  and  C_35 
REMARK   28  A    between atoms: C_35  and  C_36 
REMARK   29  A    between atoms: C_36  and  C_37 
REMARK   30  A    between atoms: C_37  and  C_38 
REMARK   31  A    between atoms: C_38  and  C_39 
REMARK   32  A    between atoms: C_39  and  O_41 
REMARK   33  A    between atoms: C_44  and  C_45 
REMARK   34  A    between atoms: C_45  and  C_46 
REMARK   35  A    between atoms: C_46  and  C_47 
REMARK   36  A    between atoms: C_47  and  C_48 
REMARK   37  A    between atoms: C_48  and  C_49 
REMARK   38  A    between atoms: C_49  and  C_50 
REMARK   39  A    between atoms: C_50  and  C_51 
REMARK   40  A    between atoms: C_52  and  C_53 
REMARK   41  A    between atoms: C_53  and  C_54 
REMARK   42  A    between atoms: C_54  and  C_55 
REMARK   43  A    between atoms: C_55  and  C_56 
REMARK   44  A    between atoms: C_56  and  C_57 
REMARK   45  A    between atoms: C_57  and  C_58 
REMARK   46  A    between atoms: C_58  and  C_59 
REMARK   47  A    between atoms: C_59  and  C_60 
REMARK   48  A    between atoms: C_60  and  O_62 
REMARK   49  A    between atoms: C_64  and  C_65 
REMARK   50  A    between atoms: C_64  and  O_75 
REMARK   51  A    between atoms: C_65  and  C_66 
REMARK   52  A    between atoms: C_65  and  O_74 
REMARK   53  A    between atoms: C_66  and  C_67 
REMARK   54  A    between atoms: C_66  and  O_73 
REMARK   55  A    between atoms: C_67  and  C_68 
REMARK   56  A    between atoms: C_67  and  O_72 
REMARK   57  A    between atoms: C_68  and  C_69 
REMARK   58  A    between atoms: C_68  and  O_71 
REMARK   59  A    between atoms: C_69  and  O_70 
REMARK   60  A    between atoms: C_82  and  C_83 
REMARK   61  A    between atoms: C_82  and  O_93 
REMARK   62  A    between atoms: C_83  and  C_84 
REMARK   63  A    between atoms: C_83  and  O_92 
REMARK   64  A    between atoms: C_84  and  C_85 
REMARK   65  A    between atoms: C_84  and  O_91 
REMARK   66  A    between atoms: C_85  and  C_86 
REMARK   67  A    between atoms: C_85  and  O_90 
REMARK   68  A    between atoms: C_86  and  C_87 
REMARK   69  A    between atoms: C_86  and  O_89 
REMARK   70  A    between atoms: C_87  and  O_88 
ROOT
HETATM    1  C   UNL     4     -21.901  -2.943 -11.687  1.00  0.00     0.180 C 
ENDROOT
BRANCH   1   2
HETATM    2  C   UNL     4     -22.694  -2.840 -13.058  1.00  0.00     0.173 C 
BRANCH   2   3
HETATM    3  C   UNL     4     -24.436  -2.592 -13.467  1.00  0.00     0.198 C 
BRANCH   3   4
HETATM    4  O   UNL     4     -25.561  -2.905 -12.647  1.00  0.00    -0.398 OA
HETATM    5  H   UNL     4     -26.426  -2.772 -13.090  1.00  0.00     0.209 HD
ENDBRANCH   3   4
ENDBRANCH   2   3
BRANCH   2   6
HETATM    6  O   UNL     4     -21.974  -3.917 -13.731  1.00  0.00    -0.391 OA
HETATM    7  H   UNL     4     -22.081  -4.735 -13.218  1.00  0.00     0.210 HD
ENDBRANCH   2   6
ENDBRANCH   1   2
BRANCH   1   8
HETATM    8  C   UNL     4     -22.487  -4.021 -10.710  1.00  0.00     0.180 C 
BRANCH   8   9
HETATM    9  C   UNL     4     -23.263  -3.392  -9.537  1.00  0.00     0.173 C 
BRANCH   9  10
HETATM   10  C   UNL     4     -24.597  -4.081  -9.272  1.00  0.00     0.198 C 
BRANCH  10  11
HETATM   11  O   UNL     4     -25.639  -3.265  -9.813  1.00  0.00    -0.398 OA
HETATM   12  H   UNL     4     -25.546  -2.402  -9.340  1.00  0.00     0.209 HD
ENDBRANCH  10  11
ENDBRANCH   9  10
BRANCH   9  13
HETATM   13  O   UNL     4     -22.577  -3.422  -8.270  1.00  0.00    -0.391 OA
HETATM   14  H   UNL     4     -21.866  -4.096  -8.339  1.00  0.00     0.210 HD
ENDBRANCH   9  13
ENDBRANCH   8   9
BRANCH   8  15
HETATM   15  O   UNL     4     -23.384  -4.862 -11.462  1.00  0.00    -0.390 OA
HETATM   16  H   UNL     4     -23.846  -4.313 -12.124  1.00  0.00     0.210 HD
ENDBRANCH   8  15
ENDBRANCH   1   8
BRANCH   1  17
HETATM   17  O   UNL     4     -20.504  -3.207 -11.755  1.00  0.00    -0.390 OA
HETATM   18  H   UNL     4     -20.258  -3.769 -10.993  1.00  0.00     0.210 HD
ENDBRANCH   1  17
TORSDOF 70
BEGIN_RES ARG D 557
REMARK  4 active torsions:
REMARK  status: ('A' for Active; 'I' for Inactive)
REMARK    1  A    between atoms: CA   and  CB  
REMARK    2  A    between atoms: CB   and  CG  
REMARK    3  A    between atoms: CG   and  CD  
REMARK    4  A    between atoms: CD   and  NE  
REMARK       I    between atoms: NE   and  CZ  
REMARK       I    between atoms: CZ   and  NH1 
REMARK       I    between atoms: CZ   and  NH2 
ROOT
ATOM      1  CA  ARG D 557     -26.217   2.705 -17.014  1.00 35.49     0.159 C 
ENDROOT
BRANCH   1   2
ATOM      2  CB  ARG D 557     -26.789   1.319 -17.183  1.00 35.49     0.034 C 
BRANCH   2   3
ATOM      3  CG  ARG D 557     -28.229   1.227 -17.453  1.00 35.49     0.027 C 
BRANCH   3   4
ATOM      4  CD  ARG D 557     -28.922   0.315 -16.514  1.00 35.49     0.116 C 
BRANCH   4   5
ATOM      5  NE  ARG D 557     -29.286  -0.930 -17.137  1.00 35.49    -0.212 N 
ATOM      6  CZ  ARG D 557     -28.636  -2.066 -17.021  1.00 35.49     0.666 C 
ATOM      7  NH1 ARG D 557     -27.532  -2.181 -16.306  1.00 35.49    -0.235 N 
ATOM      8  NH2 ARG D 557     -29.123  -3.102 -17.639  1.00 35.49    -0.235 N 
ATOM      9  HH  ARG D 557     -27.195  -1.513 -15.889  1.00 35.49     0.174 HD
ATOM     10  HH  ARG D 557     -27.152  -2.948 -16.264  1.00 35.49     0.174 HD
ATOM     11  HH  ARG D 557     -29.841  -3.000 -18.088  1.00 35.49     0.174 HD
ATOM     12  HH  ARG D 557     -28.733  -3.853 -17.585  1.00 35.49     0.174 HD
ATOM     13  HE  ARG D 557     -29.945  -0.930 -17.675  1.00 35.49     0.178 HD
ENDBRANCH   4   5
ENDBRANCH   3   4
ENDBRANCH   2   3
ENDBRANCH   1   2
END_RES ARG D 557
BEGIN_RES GLU D 570
REMARK  3 active torsions:
REMARK  status: ('A' for Active; 'I' for Inactive)
REMARK    5  A    between atoms: CA   and  CB  
REMARK    6  A    between atoms: CB   and  CG  
REMARK    7  A    between atoms: CG   and  CD  
ROOT
ATOM     14  CA  GLU D 570     -18.033  -6.348 -13.375  1.00 32.92     0.160 C 
ENDROOT
BRANCH  14  15
ATOM     15  CB  GLU D 570     -19.500  -6.345 -13.794  1.00 32.92     0.043 C 
BRANCH  15  16
ATOM     16  CG  GLU D 570     -20.078  -7.627 -14.272  1.00 32.92     0.100 C 
BRANCH  16  17
ATOM     17  CD  GLU D 570     -21.113  -7.439 -15.357  1.00 32.92     0.185 C 
ATOM     18  OE1 GLU D 570     -21.171  -8.266 -16.288  1.00 32.92    -0.647 OA
ATOM     19  OE2 GLU D 570     -21.863  -6.446 -15.283  1.00 32.92    -0.647 OA
ENDBRANCH  16  17
ENDBRANCH  15  16
ENDBRANCH  14  15
END_RES GLU D 570
ENDMDL
