MODEL 1
REMARK VINA RESULT:      -6.5      0.000      0.000
REMARK  11 active torsions:
REMARK  status: ('A' for Active; 'I' for Inactive)
REMARK    1  A    between atoms: C_2  and  C_3 
REMARK    2  A    between atoms: C_3  and  C_4 
REMARK    3  A    between atoms: C_4  and  C_5 
REMARK    4  A    between atoms: C_5  and  C_6 
REMARK    5  A    between atoms: C_6  and  C_7 
REMARK    6  A    between atoms: C_7  and  C_8 
REMARK    7  A    between atoms: C_8  and  C_9 
REMARK    8  A    between atoms: C_9  and  C_10 
REMARK    9  A    between atoms: C_10  and  C_11 
REMARK   10  A    between atoms: C_11  and  C_12 
REMARK   11  A    between atoms: C_12  and  C_13 
ROOT
HETATM    1  C   UNL     1     -35.907  -1.393 -10.788  1.00  0.00     0.000 C 
ENDROOT
BRANCH   1   2
HETATM    2  C   UNL     1     -36.554  -0.052 -11.118  1.00  0.00     0.000 C 
BRANCH   2   3
HETATM    3  C   UNL     1     -37.184   0.564  -9.873  1.00  0.00     0.000 C 
BRANCH   3   4
HETATM    4  C   UNL     1     -36.760  -0.192  -8.617  1.00  0.00     0.000 C 
BRANCH   4   5
HETATM    5  C   UNL     1     -37.710   0.102  -7.461  1.00  0.00    -0.000 C 
BRANCH   5   6
HETATM    6  C   UNL     1     -37.087   1.082  -6.471  1.00  0.00    -0.005 C 
HETATM    7  C   UNL     1     -37.250   0.592  -5.041  1.00  0.00     0.005 C 
ENDBRANCH   5   6
ENDBRANCH   4   5
ENDBRANCH   3   4
ENDBRANCH   2   3
ENDBRANCH   1   2
BRANCH   1   8
HETATM    8  C   UNL     1     -34.662  -1.619 -11.640  1.00  0.00     0.000 C 
BRANCH   8   9
HETATM    9  C   UNL     1     -33.543  -2.239 -10.810  1.00  0.00     0.000 C 
BRANCH   9  10
HETATM   10  C   UNL     1     -33.292  -3.681 -11.237  1.00  0.00     0.000 C 
BRANCH  10  11
HETATM   11  C   UNL     1     -34.162  -4.644 -10.437  1.00  0.00     0.000 C 
BRANCH  11  12
HETATM   12  C   UNL     1     -33.884  -6.092 -10.843  1.00  0.00    -0.000 C 
BRANCH  12  13
HETATM   13  C   UNL     1     -34.737  -7.064 -10.034  1.00  0.00    -0.005 C 
HETATM   14  C   UNL     1     -34.088  -8.435  -9.969  1.00  0.00     0.005 C 
ENDBRANCH  12  13
ENDBRANCH  11  12
ENDBRANCH  10  11
ENDBRANCH   9  10
ENDBRANCH   8   9
ENDBRANCH   1   8
TORSDOF 11
BEGIN_RES ARG D 557
REMARK  4 active torsions:
REMARK  status: ('A' for Active; 'I' for Inactive)
REMARK    1  A    between atoms: CA   and  CB  
REMARK    2  A    between atoms: CB   and  CG  
REMARK    3  A    between atoms: CG   and  CD  
REMARK    4  A    between atoms: CD   and  NE  
REMARK       I    between atoms: NE   and  CZ  
REMARK       I    between atoms: CZ   and  NH1 
REMARK       I    between atoms: CZ   and  NH2 
ROOT
ATOM      1  CA  ARG D 557     -26.217   2.705 -17.014  1.00 35.49     0.159 C 
ENDROOT
BRANCH   1   2
ATOM      2  CB  ARG D 557     -26.789   1.319 -17.183  1.00 35.49     0.034 C 
BRANCH   2   3
ATOM      3  CG  ARG D 557     -25.863   0.195 -16.998  1.00 35.49     0.027 C 
BRANCH   3   4
ATOM      4  CD  ARG D 557     -26.283  -0.707 -15.901  1.00 35.49     0.116 C 
BRANCH   4   5
ATOM      5  NE  ARG D 557     -25.224  -0.939 -14.954  1.00 35.49    -0.212 N 
ATOM      6  CZ  ARG D 557     -24.973  -2.077 -14.347  1.00 35.49     0.666 C 
ATOM      7  NH1 ARG D 557     -25.702  -3.160 -14.539  1.00 35.49    -0.235 N 
ATOM      8  NH2 ARG D 557     -23.957  -2.111 -13.534  1.00 35.49    -0.235 N 
ATOM      9  HH  ARG D 557     -26.374  -3.161 -15.071  1.00 35.49     0.174 HD
ATOM     10  HH  ARG D 557     -25.489  -3.875 -14.117  1.00 35.49     0.174 HD
ATOM     11  HH  ARG D 557     -23.499  -1.398 -13.434  1.00 35.49     0.174 HD
ATOM     12  HH  ARG D 557     -23.761  -2.828 -13.126  1.00 35.49     0.174 HD
ATOM     13  HE  ARG D 557     -24.749  -0.275 -14.716  1.00 35.49     0.178 HD
ENDBRANCH   4   5
ENDBRANCH   3   4
ENDBRANCH   2   3
ENDBRANCH   1   2
END_RES ARG D 557
BEGIN_RES GLU D 570
REMARK  3 active torsions:
REMARK  status: ('A' for Active; 'I' for Inactive)
REMARK    5  A    between atoms: CA   and  CB  
REMARK    6  A    between atoms: CB   and  CG  
REMARK    7  A    between atoms: CG   and  CD  
ROOT
ATOM     14  CA  GLU D 570     -18.033  -6.348 -13.375  1.00 32.92     0.160 C 
ENDROOT
BRANCH  14  15
ATOM     15  CB  GLU D 570     -19.500  -6.345 -13.794  1.00 32.92     0.043 C 
BRANCH  15  16
ATOM     16  CG  GLU D 570     -20.445  -5.546 -12.972  1.00 32.92     0.100 C 
BRANCH  16  17
ATOM     17  CD  GLU D 570     -21.680  -5.126 -13.735  1.00 32.92     0.185 C 
ATOM     18  OE1 GLU D 570     -22.748  -4.961 -13.114  1.00 32.92    -0.647 OA
ATOM     19  OE2 GLU D 570     -21.582  -4.976 -14.969  1.00 32.92    -0.647 OA
ENDBRANCH  16  17
ENDBRANCH  15  16
ENDBRANCH  14  15
END_RES GLU D 570
ENDMDL
MODEL 2
REMARK VINA RESULT:      -6.2      0.845      5.383
REMARK  11 active torsions:
REMARK  status: ('A' for Active; 'I' for Inactive)
REMARK    1  A    between atoms: C_2  and  C_3 
REMARK    2  A    between atoms: C_3  and  C_4 
REMARK    3  A    between atoms: C_4  and  C_5 
REMARK    4  A    between atoms: C_5  and  C_6 
REMARK    5  A    between atoms: C_6  and  C_7 
REMARK    6  A    between atoms: C_7  and  C_8 
REMARK    7  A    between atoms: C_8  and  C_9 
REMARK    8  A    between atoms: C_9  and  C_10 
REMARK    9  A    between atoms: C_10  and  C_11 
REMARK   10  A    between atoms: C_11  and  C_12 
REMARK   11  A    between atoms: C_12  and  C_13 
ROOT
HETATM    1  C   UNL     1     -33.843  -2.417 -10.459  1.00  0.00     0.000 C 
ENDROOT
BRANCH   1   2
HETATM    2  C   UNL     1     -32.993  -3.232 -11.428  1.00  0.00     0.000 C 
BRANCH   2   3
HETATM    3  C   UNL     1     -33.875  -4.089 -12.330  1.00  0.00     0.000 C 
BRANCH   3   4
HETATM    4  C   UNL     1     -34.755  -5.022 -11.504  1.00  0.00     0.000 C 
BRANCH   4   5
HETATM    5  C   UNL     1     -33.916  -6.101 -10.827  1.00  0.00    -0.000 C 
BRANCH   5   6
HETATM    6  C   UNL     1     -34.783  -7.013  -9.964  1.00  0.00    -0.005 C 
HETATM    7  C   UNL     1     -34.200  -8.415  -9.892  1.00  0.00     0.005 C 
ENDBRANCH   5   6
ENDBRANCH   4   5
ENDBRANCH   3   4
ENDBRANCH   2   3
ENDBRANCH   1   2
BRANCH   1   8
HETATM    8  C   UNL     1     -34.856  -1.563 -11.213  1.00  0.00     0.000 C 
BRANCH   8   9
HETATM    9  C   UNL     1     -36.097  -1.317 -10.361  1.00  0.00     0.000 C 
BRANCH   9  10
HETATM   10  C   UNL     1     -36.831  -0.064 -10.826  1.00  0.00     0.000 C 
BRANCH  10  11
HETATM   11  C   UNL     1     -37.245   0.797  -9.637  1.00  0.00     0.000 C 
BRANCH  11  12
HETATM   12  C   UNL     1     -36.771   0.171  -8.325  1.00  0.00    -0.000 C 
BRANCH  12  13
HETATM   13  C   UNL     1     -37.769   0.431  -7.200  1.00  0.00    -0.005 C 
HETATM   14  C   UNL     1     -37.053   0.688  -5.885  1.00  0.00     0.005 C 
ENDBRANCH  12  13
ENDBRANCH  11  12
ENDBRANCH  10  11
ENDBRANCH   9  10
ENDBRANCH   8   9
ENDBRANCH   1   8
TORSDOF 11
BEGIN_RES ARG D 557
REMARK  4 active torsions:
REMARK  status: ('A' for Active; 'I' for Inactive)
REMARK    1  A    between atoms: CA   and  CB  
REMARK    2  A    between atoms: CB   and  CG  
REMARK    3  A    between atoms: CG   and  CD  
REMARK    4  A    between atoms: CD   and  NE  
REMARK       I    between atoms: NE   and  CZ  
REMARK       I    between atoms: CZ   and  NH1 
REMARK       I    between atoms: CZ   and  NH2 
ROOT
ATOM      1  CA  ARG D 557     -26.217   2.705 -17.014  1.00 35.49     0.159 C 
ENDROOT
BRANCH   1   2
ATOM      2  CB  ARG D 557     -26.789   1.319 -17.183  1.00 35.49     0.034 C 
BRANCH   2   3
ATOM      3  CG  ARG D 557     -25.835   0.203 -17.158  1.00 35.49     0.027 C 
BRANCH   3   4
ATOM      4  CD  ARG D 557     -24.746   0.413 -16.177  1.00 35.49     0.116 C 
BRANCH   4   5
ATOM      5  NE  ARG D 557     -24.889  -0.430 -15.020  1.00 35.49    -0.212 N 
ATOM      6  CZ  ARG D 557     -24.074  -1.402 -14.673  1.00 35.49     0.666 C 
ATOM      7  NH1 ARG D 557     -23.010  -1.724 -15.385  1.00 35.49    -0.235 N 
ATOM      8  NH2 ARG D 557     -24.346  -2.051 -13.578  1.00 35.49    -0.235 N 
ATOM      9  HH  ARG D 557     -22.811  -1.309 -16.108  1.00 35.49     0.174 HD
ATOM     10  HH  ARG D 557     -22.514  -2.365 -15.108  1.00 35.49     0.174 HD
ATOM     11  HH  ARG D 557     -25.036  -1.816 -13.135  1.00 35.49     0.174 HD
ATOM     12  HH  ARG D 557     -23.842  -2.681 -13.320  1.00 35.49     0.174 HD
ATOM     13  HE  ARG D 557     -25.587  -0.340 -14.543  1.00 35.49     0.178 HD
ENDBRANCH   4   5
ENDBRANCH   3   4
ENDBRANCH   2   3
ENDBRANCH   1   2
END_RES ARG D 557
BEGIN_RES GLU D 570
REMARK  3 active torsions:
REMARK  status: ('A' for Active; 'I' for Inactive)
REMARK    5  A    between atoms: CA   and  CB  
REMARK    6  A    between atoms: CB   and  CG  
REMARK    7  A    between atoms: CG   and  CD  
ROOT
ATOM     14  CA  GLU D 570     -18.033  -6.348 -13.375  1.00 32.92     0.160 C 
ENDROOT
BRANCH  14  15
ATOM     15  CB  GLU D 570     -19.500  -6.345 -13.794  1.00 32.92     0.043 C 
BRANCH  15  16
ATOM     16  CG  GLU D 570     -20.448  -5.559 -12.962  1.00 32.92     0.100 C 
BRANCH  16  17
ATOM     17  CD  GLU D 570     -21.745  -5.256 -13.675  1.00 32.92     0.185 C 
ATOM     18  OE1 GLU D 570     -22.250  -6.126 -14.410  1.00 32.92    -0.647 OA
ATOM     19  OE2 GLU D 570     -22.254  -4.130 -13.509  1.00 32.92    -0.647 OA
ENDBRANCH  16  17
ENDBRANCH  15  16
ENDBRANCH  14  15
END_RES GLU D 570
ENDMDL
MODEL 3
REMARK VINA RESULT:      -6.2      9.678     12.292
REMARK  11 active torsions:
REMARK  status: ('A' for Active; 'I' for Inactive)
REMARK    1  A    between atoms: C_2  and  C_3 
REMARK    2  A    between atoms: C_3  and  C_4 
REMARK    3  A    between atoms: C_4  and  C_5 
REMARK    4  A    between atoms: C_5  and  C_6 
REMARK    5  A    between atoms: C_6  and  C_7 
REMARK    6  A    between atoms: C_7  and  C_8 
REMARK    7  A    between atoms: C_8  and  C_9 
REMARK    8  A    between atoms: C_9  and  C_10 
REMARK    9  A    between atoms: C_10  and  C_11 
REMARK   10  A    between atoms: C_11  and  C_12 
REMARK   11  A    between atoms: C_12  and  C_13 
ROOT
HETATM    1  C   UNL     1     -21.810  -6.482  -5.308  1.00  0.00     0.000 C 
ENDROOT
BRANCH   1   2
HETATM    2  C   UNL     1     -21.666  -7.160  -3.950  1.00  0.00     0.000 C 
BRANCH   2   3
HETATM    3  C   UNL     1     -21.558  -6.123  -2.837  1.00  0.00     0.000 C 
BRANCH   3   4
HETATM    4  C   UNL     1     -22.148  -6.656  -1.536  1.00  0.00     0.000 C 
BRANCH   4   5
HETATM    5  C   UNL     1     -21.344  -7.847  -1.024  1.00  0.00    -0.000 C 
BRANCH   5   6
HETATM    6  C   UNL     1     -21.734  -8.201   0.409  1.00  0.00    -0.005 C 
HETATM    7  C   UNL     1     -23.241  -8.131   0.597  1.00  0.00     0.005 C 
ENDBRANCH   5   6
ENDBRANCH   4   5
ENDBRANCH   3   4
ENDBRANCH   2   3
ENDBRANCH   1   2
BRANCH   1   8
HETATM    8  C   UNL     1     -20.446  -6.270  -5.956  1.00  0.00     0.000 C 
BRANCH   8   9
HETATM    9  C   UNL     1     -20.046  -4.799  -5.908  1.00  0.00     0.000 C 
BRANCH   9  10
HETATM   10  C   UNL     1     -20.668  -4.033  -7.071  1.00  0.00     0.000 C 
BRANCH  10  11
HETATM   11  C   UNL     1     -19.843  -4.213  -8.342  1.00  0.00     0.000 C 
BRANCH  11  12
HETATM   12  C   UNL     1     -20.725  -4.076  -9.584  1.00  0.00    -0.000 C 
BRANCH  12  13
HETATM   13  C   UNL     1     -22.192  -3.908  -9.200  1.00  0.00    -0.005 C 
HETATM   14  C   UNL     1     -23.082  -4.803 -10.044  1.00  0.00     0.005 C 
ENDBRANCH  12  13
ENDBRANCH  11  12
ENDBRANCH  10  11
ENDBRANCH   9  10
ENDBRANCH   8   9
ENDBRANCH   1   8
TORSDOF 11
BEGIN_RES ARG D 557
REMARK  4 active torsions:
REMARK  status: ('A' for Active; 'I' for Inactive)
REMARK    1  A    between atoms: CA   and  CB  
REMARK    2  A    between atoms: CB   and  CG  
REMARK    3  A    between atoms: CG   and  CD  
REMARK    4  A    between atoms: CD   and  NE  
REMARK       I    between atoms: NE   and  CZ  
REMARK       I    between atoms: CZ   and  NH1 
REMARK       I    between atoms: CZ   and  NH2 
ROOT
ATOM      1  CA  ARG D 557     -26.217   2.705 -17.014  1.00 35.49     0.159 C 
ENDROOT
BRANCH   1   2
ATOM      2  CB  ARG D 557     -26.789   1.319 -17.183  1.00 35.49     0.034 C 
BRANCH   2   3
ATOM      3  CG  ARG D 557     -25.837   0.202 -17.143  1.00 35.49     0.027 C 
BRANCH   3   4
ATOM      4  CD  ARG D 557     -24.755   0.418 -16.156  1.00 35.49     0.116 C 
BRANCH   4   5
ATOM      5  NE  ARG D 557     -24.891  -0.438 -15.007  1.00 35.49    -0.212 N 
ATOM      6  CZ  ARG D 557     -24.068  -1.405 -14.668  1.00 35.49     0.666 C 
ATOM      7  NH1 ARG D 557     -23.000  -1.710 -15.382  1.00 35.49    -0.235 N 
ATOM      8  NH2 ARG D 557     -24.335  -2.066 -13.579  1.00 35.49    -0.235 N 
ATOM      9  HH  ARG D 557     -22.804  -1.287 -16.100  1.00 35.49     0.174 HD
ATOM     10  HH  ARG D 557     -22.498  -2.350 -15.110  1.00 35.49     0.174 HD
ATOM     11  HH  ARG D 557     -25.027  -1.842 -13.134  1.00 35.49     0.174 HD
ATOM     12  HH  ARG D 557     -23.825  -2.695 -13.326  1.00 35.49     0.174 HD
ATOM     13  HE  ARG D 557     -25.590  -0.358 -14.530  1.00 35.49     0.178 HD
ENDBRANCH   4   5
ENDBRANCH   3   4
ENDBRANCH   2   3
ENDBRANCH   1   2
END_RES ARG D 557
BEGIN_RES GLU D 570
REMARK  3 active torsions:
REMARK  status: ('A' for Active; 'I' for Inactive)
REMARK    5  A    between atoms: CA   and  CB  
REMARK    6  A    between atoms: CB   and  CG  
REMARK    7  A    between atoms: CG   and  CD  
ROOT
ATOM     14  CA  GLU D 570     -18.033  -6.348 -13.375  1.00 32.92     0.160 C 
ENDROOT
BRANCH  14  15
ATOM     15  CB  GLU D 570     -19.500  -6.345 -13.794  1.00 32.92     0.043 C 
BRANCH  15  16
ATOM     16  CG  GLU D 570     -20.450  -5.570 -12.955  1.00 32.92     0.100 C 
BRANCH  16  17
ATOM     17  CD  GLU D 570     -21.742  -5.249 -13.670  1.00 32.92     0.185 C 
ATOM     18  OE1 GLU D 570     -22.263  -6.117 -14.396  1.00 32.92    -0.647 OA
ATOM     19  OE2 GLU D 570     -22.229  -4.112 -13.515  1.00 32.92    -0.647 OA
ENDBRANCH  16  17
ENDBRANCH  15  16
ENDBRANCH  14  15
END_RES GLU D 570
ENDMDL
MODEL 4
REMARK VINA RESULT:      -6.1      1.842      5.721
REMARK  11 active torsions:
REMARK  status: ('A' for Active; 'I' for Inactive)
REMARK    1  A    between atoms: C_2  and  C_3 
REMARK    2  A    between atoms: C_3  and  C_4 
REMARK    3  A    between atoms: C_4  and  C_5 
REMARK    4  A    between atoms: C_5  and  C_6 
REMARK    5  A    between atoms: C_6  and  C_7 
REMARK    6  A    between atoms: C_7  and  C_8 
REMARK    7  A    between atoms: C_8  and  C_9 
REMARK    8  A    between atoms: C_9  and  C_10 
REMARK    9  A    between atoms: C_10  and  C_11 
REMARK   10  A    between atoms: C_11  and  C_12 
REMARK   11  A    between atoms: C_12  and  C_13 
ROOT
HETATM    1  C   UNL     1     -34.751  -1.599 -11.258  1.00  0.00     0.000 C 
ENDROOT
BRANCH   1   2
HETATM    2  C   UNL     1     -33.595  -2.502 -10.841  1.00  0.00     0.000 C 
BRANCH   2   3
HETATM    3  C   UNL     1     -33.208  -3.443 -11.978  1.00  0.00     0.000 C 
BRANCH   3   4
HETATM    4  C   UNL     1     -32.965  -4.856 -11.456  1.00  0.00     0.000 C 
BRANCH   4   5
HETATM    5  C   UNL     1     -34.065  -5.272 -10.486  1.00  0.00    -0.000 C 
BRANCH   5   6
HETATM    6  C   UNL     1     -34.692  -6.601 -10.900  1.00  0.00    -0.005 C 
HETATM    7  C   UNL     1     -34.855  -7.524  -9.703  1.00  0.00     0.005 C 
ENDBRANCH   5   6
ENDBRANCH   4   5
ENDBRANCH   3   4
ENDBRANCH   2   3
ENDBRANCH   1   2
BRANCH   1   8
HETATM    8  C   UNL     1     -36.048  -2.031 -10.581  1.00  0.00     0.000 C 
BRANCH   8   9
HETATM    9  C   UNL     1     -36.975  -0.837 -10.375  1.00  0.00     0.000 C 
BRANCH   9  10
HETATM   10  C   UNL     1     -36.995  -0.417  -8.909  1.00  0.00     0.000 C 
BRANCH  10  11
HETATM   11  C   UNL     1     -36.959   1.102  -8.779  1.00  0.00     0.000 C 
BRANCH  11  12
HETATM   12  C   UNL     1     -37.232   1.529  -7.336  1.00  0.00    -0.000 C 
BRANCH  12  13
HETATM   13  C   UNL     1     -37.539   0.322  -6.455  1.00  0.00    -0.005 C 
HETATM   14  C   UNL     1     -37.111   0.572  -5.020  1.00  0.00     0.005 C 
ENDBRANCH  12  13
ENDBRANCH  11  12
ENDBRANCH  10  11
ENDBRANCH   9  10
ENDBRANCH   8   9
ENDBRANCH   1   8
TORSDOF 11
BEGIN_RES ARG D 557
REMARK  4 active torsions:
REMARK  status: ('A' for Active; 'I' for Inactive)
REMARK    1  A    between atoms: CA   and  CB  
REMARK    2  A    between atoms: CB   and  CG  
REMARK    3  A    between atoms: CG   and  CD  
REMARK    4  A    between atoms: CD   and  NE  
REMARK       I    between atoms: NE   and  CZ  
REMARK       I    between atoms: CZ   and  NH1 
REMARK       I    between atoms: CZ   and  NH2 
ROOT
ATOM      1  CA  ARG D 557     -26.217   2.705 -17.014  1.00 35.49     0.159 C 
ENDROOT
BRANCH   1   2
ATOM      2  CB  ARG D 557     -26.789   1.319 -17.183  1.00 35.49     0.034 C 
BRANCH   2   3
ATOM      3  CG  ARG D 557     -28.228   1.163 -16.936  1.00 35.49     0.027 C 
BRANCH   3   4
ATOM      4  CD  ARG D 557     -28.612  -0.249 -16.713  1.00 35.49     0.116 C 
BRANCH   4   5
ATOM      5  NE  ARG D 557     -27.597  -0.982 -16.004  1.00 35.49    -0.212 N 
ATOM      6  CZ  ARG D 557     -27.400  -2.280 -16.069  1.00 35.49     0.666 C 
ATOM      7  NH1 ARG D 557     -28.151  -3.075 -16.808  1.00 35.49    -0.235 N 
ATOM      8  NH2 ARG D 557     -26.416  -2.774 -15.374  1.00 35.49    -0.235 N 
ATOM      9  HH  ARG D 557     -28.802  -2.772 -17.275  1.00 35.49     0.174 HD
ATOM     10  HH  ARG D 557     -27.974  -3.913 -16.814  1.00 35.49     0.174 HD
ATOM     11  HH  ARG D 557     -25.943  -2.235 -14.912  1.00 35.49     0.174 HD
ATOM     12  HH  ARG D 557     -26.256  -3.606 -15.394  1.00 35.49     0.174 HD
ATOM     13  HE  ARG D 557     -27.113  -0.558 -15.448  1.00 35.49     0.178 HD
ENDBRANCH   4   5
ENDBRANCH   3   4
ENDBRANCH   2   3
ENDBRANCH   1   2
END_RES ARG D 557
BEGIN_RES GLU D 570
REMARK  3 active torsions:
REMARK  status: ('A' for Active; 'I' for Inactive)
REMARK    5  A    between atoms: CA   and  CB  
REMARK    6  A    between atoms: CB   and  CG  
REMARK    7  A    between atoms: CG   and  CD  
ROOT
ATOM     14  CA  GLU D 570     -18.033  -6.348 -13.375  1.00 32.92     0.160 C 
ENDROOT
BRANCH  14  15
ATOM     15  CB  GLU D 570     -19.500  -6.345 -13.794  1.00 32.92     0.043 C 
BRANCH  15  16
ATOM     16  CG  GLU D 570     -20.088  -7.636 -14.237  1.00 32.92     0.100 C 
BRANCH  16  17
ATOM     17  CD  GLU D 570     -20.662  -7.574 -15.633  1.00 32.92     0.185 C 
ATOM     18  OE1 GLU D 570     -20.641  -6.491 -16.248  1.00 32.92    -0.647 OA
ATOM     19  OE2 GLU D 570     -21.154  -8.616 -16.109  1.00 32.92    -0.647 OA
ENDBRANCH  16  17
ENDBRANCH  15  16
ENDBRANCH  14  15
END_RES GLU D 570
ENDMDL
MODEL 5
REMARK VINA RESULT:      -6.0      9.560     12.297
REMARK  11 active torsions:
REMARK  status: ('A' for Active; 'I' for Inactive)
REMARK    1  A    between atoms: C_2  and  C_3 
REMARK    2  A    between atoms: C_3  and  C_4 
REMARK    3  A    between atoms: C_4  and  C_5 
REMARK    4  A    between atoms: C_5  and  C_6 
REMARK    5  A    between atoms: C_6  and  C_7 
REMARK    6  A    between atoms: C_7  and  C_8 
REMARK    7  A    between atoms: C_8  and  C_9 
REMARK    8  A    between atoms: C_9  and  C_10 
REMARK    9  A    between atoms: C_10  and  C_11 
REMARK   10  A    between atoms: C_11  and  C_12 
REMARK   11  A    between atoms: C_12  and  C_13 
ROOT
HETATM    1  C   UNL     1     -20.804  -6.218  -6.468  1.00  0.00     0.000 C 
ENDROOT
BRANCH   1   2
HETATM    2  C   UNL     1     -20.626  -4.748  -6.103  1.00  0.00     0.000 C 
BRANCH   2   3
HETATM    3  C   UNL     1     -20.423  -3.902  -7.356  1.00  0.00     0.000 C 
BRANCH   3   4
HETATM    4  C   UNL     1     -20.159  -4.785  -8.572  1.00  0.00     0.000 C 
BRANCH   4   5
HETATM    5  C   UNL     1     -21.015  -4.347  -9.756  1.00  0.00    -0.000 C 
BRANCH   5   6
HETATM    6  C   UNL     1     -22.439  -4.022  -9.316  1.00  0.00    -0.005 C 
HETATM    7  C   UNL     1     -23.457  -4.766 -10.165  1.00  0.00     0.005 C 
ENDBRANCH   5   6
ENDBRANCH   4   5
ENDBRANCH   3   4
ENDBRANCH   2   3
ENDBRANCH   1   2
BRANCH   1   8
HETATM    8  C   UNL     1     -21.599  -6.951  -5.393  1.00  0.00     0.000 C 
BRANCH   8   9
HETATM    9  C   UNL     1     -20.698  -7.895  -4.603  1.00  0.00     0.000 C 
BRANCH   9  10
HETATM   10  C   UNL     1     -20.895  -7.699  -3.103  1.00  0.00     0.000 C 
BRANCH  10  11
HETATM   11  C   UNL     1     -21.602  -6.378  -2.817  1.00  0.00     0.000 C 
BRANCH  11  12
HETATM   12  C   UNL     1     -22.314  -6.427  -1.465  1.00  0.00    -0.000 C 
BRANCH  12  13
HETATM   13  C   UNL     1     -21.881  -7.648  -0.660  1.00  0.00    -0.005 C 
HETATM   14  C   UNL     1     -22.954  -8.052   0.337  1.00  0.00     0.005 C 
ENDBRANCH  12  13
ENDBRANCH  11  12
ENDBRANCH  10  11
ENDBRANCH   9  10
ENDBRANCH   8   9
ENDBRANCH   1   8
TORSDOF 11
BEGIN_RES ARG D 557
REMARK  4 active torsions:
REMARK  status: ('A' for Active; 'I' for Inactive)
REMARK    1  A    between atoms: CA   and  CB  
REMARK    2  A    between atoms: CB   and  CG  
REMARK    3  A    between atoms: CG   and  CD  
REMARK    4  A    between atoms: CD   and  NE  
REMARK       I    between atoms: NE   and  CZ  
REMARK       I    between atoms: CZ   and  NH1 
REMARK       I    between atoms: CZ   and  NH2 
ROOT
ATOM      1  CA  ARG D 557     -26.217   2.705 -17.014  1.00 35.49     0.159 C 
ENDROOT
BRANCH   1   2
ATOM      2  CB  ARG D 557     -26.789   1.319 -17.183  1.00 35.49     0.034 C 
BRANCH   2   3
ATOM      3  CG  ARG D 557     -25.835   0.203 -17.159  1.00 35.49     0.027 C 
BRANCH   3   4
ATOM      4  CD  ARG D 557     -24.763   0.400 -16.157  1.00 35.49     0.116 C 
BRANCH   4   5
ATOM      5  NE  ARG D 557     -24.927  -0.456 -15.012  1.00 35.49    -0.212 N 
ATOM      6  CZ  ARG D 557     -24.120  -1.433 -14.660  1.00 35.49     0.666 C 
ATOM      7  NH1 ARG D 557     -23.044  -1.749 -15.357  1.00 35.49    -0.235 N 
ATOM      8  NH2 ARG D 557     -24.413  -2.093 -13.577  1.00 35.49    -0.235 N 
ATOM      9  HH  ARG D 557     -22.831  -1.326 -16.071  1.00 35.49     0.174 HD
ATOM     10  HH  ARG D 557     -22.554  -2.394 -15.077  1.00 35.49     0.174 HD
ATOM     11  HH  ARG D 557     -25.110  -1.861 -13.144  1.00 35.49     0.174 HD
ATOM     12  HH  ARG D 557     -23.914  -2.727 -13.317  1.00 35.49     0.174 HD
ATOM     13  HE  ARG D 557     -25.634  -0.370 -14.547  1.00 35.49     0.178 HD
ENDBRANCH   4   5
ENDBRANCH   3   4
ENDBRANCH   2   3
ENDBRANCH   1   2
END_RES ARG D 557
BEGIN_RES GLU D 570
REMARK  3 active torsions:
REMARK  status: ('A' for Active; 'I' for Inactive)
REMARK    5  A    between atoms: CA   and  CB  
REMARK    6  A    between atoms: CB   and  CG  
REMARK    7  A    between atoms: CG   and  CD  
ROOT
ATOM     14  CA  GLU D 570     -18.033  -6.348 -13.375  1.00 32.92     0.160 C 
ENDROOT
BRANCH  14  15
ATOM     15  CB  GLU D 570     -19.500  -6.345 -13.794  1.00 32.92     0.043 C 
BRANCH  15  16
ATOM     16  CG  GLU D 570     -20.438  -5.515 -12.995  1.00 32.92     0.100 C 
BRANCH  16  17
ATOM     17  CD  GLU D 570     -21.705  -5.172 -13.744  1.00 32.92     0.185 C 
ATOM     18  OE1 GLU D 570     -22.091  -5.927 -14.657  1.00 32.92    -0.647 OA
ATOM     19  OE2 GLU D 570     -22.309  -4.129 -13.424  1.00 32.92    -0.647 OA
ENDBRANCH  16  17
ENDBRANCH  15  16
ENDBRANCH  14  15
END_RES GLU D 570
ENDMDL
MODEL 6
REMARK VINA RESULT:      -6.0      2.609      4.168
REMARK  11 active torsions:
REMARK  status: ('A' for Active; 'I' for Inactive)
REMARK    1  A    between atoms: C_2  and  C_3 
REMARK    2  A    between atoms: C_3  and  C_4 
REMARK    3  A    between atoms: C_4  and  C_5 
REMARK    4  A    between atoms: C_5  and  C_6 
REMARK    5  A    between atoms: C_6  and  C_7 
REMARK    6  A    between atoms: C_7  and  C_8 
REMARK    7  A    between atoms: C_8  and  C_9 
REMARK    8  A    between atoms: C_9  and  C_10 
REMARK    9  A    between atoms: C_10  and  C_11 
REMARK   10  A    between atoms: C_11  and  C_12 
REMARK   11  A    between atoms: C_12  and  C_13 
ROOT
HETATM    1  C   UNL     1     -35.670  -0.990 -11.650  1.00  0.00     0.000 C 
ENDROOT
BRANCH   1   2
HETATM    2  C   UNL     1     -36.056   0.065 -12.681  1.00  0.00     0.000 C 
BRANCH   2   3
HETATM    3  C   UNL     1     -34.817   0.612 -13.383  1.00  0.00     0.000 C 
BRANCH   3   4
HETATM    4  C   UNL     1     -35.043   0.708 -14.889  1.00  0.00     0.000 C 
BRANCH   4   5
HETATM    5  C   UNL     1     -36.499   0.418 -15.239  1.00  0.00    -0.000 C 
BRANCH   5   6
HETATM    6  C   UNL     1     -36.602  -0.612 -16.360  1.00  0.00    -0.005 C 
HETATM    7  C   UNL     1     -35.316  -1.412 -16.487  1.00  0.00     0.005 C 
ENDBRANCH   5   6
ENDBRANCH   4   5
ENDBRANCH   3   4
ENDBRANCH   2   3
ENDBRANCH   1   2
BRANCH   1   8
HETATM    8  C   UNL     1     -34.619  -1.940 -12.214  1.00  0.00     0.000 C 
BRANCH   8   9
HETATM    9  C   UNL     1     -33.568  -2.272 -11.159  1.00  0.00     0.000 C 
BRANCH   9  10
HETATM   10  C   UNL     1     -33.162  -3.740 -11.246  1.00  0.00     0.000 C 
BRANCH  10  11
HETATM   11  C   UNL     1     -34.231  -4.637 -10.632  1.00  0.00     0.000 C 
BRANCH  11  12
HETATM   12  C   UNL     1     -33.891  -6.112 -10.848  1.00  0.00    -0.000 C 
BRANCH  12  13
HETATM   13  C   UNL     1     -34.754  -7.010  -9.968  1.00  0.00    -0.005 C 
HETATM   14  C   UNL     1     -34.195  -8.421  -9.914  1.00  0.00     0.005 C 
ENDBRANCH  12  13
ENDBRANCH  11  12
ENDBRANCH  10  11
ENDBRANCH   9  10
ENDBRANCH   8   9
ENDBRANCH   1   8
TORSDOF 11
BEGIN_RES ARG D 557
REMARK  4 active torsions:
REMARK  status: ('A' for Active; 'I' for Inactive)
REMARK    1  A    between atoms: CA   and  CB  
REMARK    2  A    between atoms: CB   and  CG  
REMARK    3  A    between atoms: CG   and  CD  
REMARK    4  A    between atoms: CD   and  NE  
REMARK       I    between atoms: NE   and  CZ  
REMARK       I    between atoms: CZ   and  NH1 
REMARK       I    between atoms: CZ   and  NH2 
ROOT
ATOM      1  CA  ARG D 557     -26.217   2.705 -17.014  1.00 35.49     0.159 C 
ENDROOT
BRANCH   1   2
ATOM      2  CB  ARG D 557     -26.789   1.319 -17.183  1.00 35.49     0.034 C 
BRANCH   2   3
ATOM      3  CG  ARG D 557     -28.211   1.148 -16.863  1.00 35.49     0.027 C 
BRANCH   3   4
ATOM      4  CD  ARG D 557     -28.587  -0.276 -16.704  1.00 35.49     0.116 C 
BRANCH   4   5
ATOM      5  NE  ARG D 557     -27.588  -1.023 -15.985  1.00 35.49    -0.212 N 
ATOM      6  CZ  ARG D 557     -27.404  -2.322 -16.054  1.00 35.49     0.666 C 
ATOM      7  NH1 ARG D 557     -28.154  -3.106 -16.806  1.00 35.49    -0.235 N 
ATOM      8  NH2 ARG D 557     -26.435  -2.829 -15.348  1.00 35.49    -0.235 N 
ATOM      9  HH  ARG D 557     -28.795  -2.794 -17.281  1.00 35.49     0.174 HD
ATOM     10  HH  ARG D 557     -27.985  -3.946 -16.813  1.00 35.49     0.174 HD
ATOM     11  HH  ARG D 557     -25.963  -2.298 -14.877  1.00 35.49     0.174 HD
ATOM     12  HH  ARG D 557     -26.283  -3.663 -15.369  1.00 35.49     0.174 HD
ATOM     13  HE  ARG D 557     -27.108  -0.606 -15.421  1.00 35.49     0.178 HD
ENDBRANCH   4   5
ENDBRANCH   3   4
ENDBRANCH   2   3
ENDBRANCH   1   2
END_RES ARG D 557
BEGIN_RES GLU D 570
REMARK  3 active torsions:
REMARK  status: ('A' for Active; 'I' for Inactive)
REMARK    5  A    between atoms: CA   and  CB  
REMARK    6  A    between atoms: CB   and  CG  
REMARK    7  A    between atoms: CG   and  CD  
ROOT
ATOM     14  CA  GLU D 570     -18.033  -6.348 -13.375  1.00 32.92     0.160 C 
ENDROOT
BRANCH  14  15
ATOM     15  CB  GLU D 570     -19.500  -6.345 -13.794  1.00 32.92     0.043 C 
BRANCH  15  16
ATOM     16  CG  GLU D 570     -20.454  -5.588 -12.943  1.00 32.92     0.100 C 
BRANCH  16  17
ATOM     17  CD  GLU D 570     -21.711  -5.188 -13.678  1.00 32.92     0.185 C 
ATOM     18  OE1 GLU D 570     -22.590  -4.546 -13.071  1.00 32.92    -0.647 OA
ATOM     19  OE2 GLU D 570     -21.827  -5.536 -14.870  1.00 32.92    -0.647 OA
ENDBRANCH  16  17
ENDBRANCH  15  16
ENDBRANCH  14  15
END_RES GLU D 570
ENDMDL
MODEL 7
REMARK VINA RESULT:      -5.9      9.057     12.709
REMARK  11 active torsions:
REMARK  status: ('A' for Active; 'I' for Inactive)
REMARK    1  A    between atoms: C_2  and  C_3 
REMARK    2  A    between atoms: C_3  and  C_4 
REMARK    3  A    between atoms: C_4  and  C_5 
REMARK    4  A    between atoms: C_5  and  C_6 
REMARK    5  A    between atoms: C_6  and  C_7 
REMARK    6  A    between atoms: C_7  and  C_8 
REMARK    7  A    between atoms: C_8  and  C_9 
REMARK    8  A    between atoms: C_9  and  C_10 
REMARK    9  A    between atoms: C_10  and  C_11 
REMARK   10  A    between atoms: C_11  and  C_12 
REMARK   11  A    between atoms: C_12  and  C_13 
ROOT
HETATM    1  C   UNL     1     -21.757  -7.722  -4.453  1.00  0.00     0.000 C 
ENDROOT
BRANCH   1   2
HETATM    2  C   UNL     1     -22.025  -6.486  -5.306  1.00  0.00     0.000 C 
BRANCH   2   3
HETATM    3  C   UNL     1     -20.804  -6.140  -6.153  1.00  0.00     0.000 C 
BRANCH   3   4
HETATM    4  C   UNL     1     -20.379  -4.692  -5.929  1.00  0.00     0.000 C 
BRANCH   4   5
HETATM    5  C   UNL     1     -20.849  -3.805  -7.077  1.00  0.00    -0.000 C 
BRANCH   5   6
HETATM    6  C   UNL     1     -19.920  -3.925  -8.282  1.00  0.00    -0.005 C 
HETATM    7  C   UNL     1     -20.693  -4.320  -9.530  1.00  0.00     0.005 C 
ENDBRANCH   5   6
ENDBRANCH   4   5
ENDBRANCH   3   4
ENDBRANCH   2   3
ENDBRANCH   1   2
BRANCH   1   8
HETATM    8  C   UNL     1     -21.094  -7.338  -3.135  1.00  0.00     0.000 C 
BRANCH   8   9
HETATM    9  C   UNL     1     -21.923  -6.291  -2.397  1.00  0.00     0.000 C 
BRANCH   9  10
HETATM   10  C   UNL     1     -22.305  -6.788  -1.006  1.00  0.00     0.000 C 
BRANCH  10  11
HETATM   11  C   UNL     1     -21.359  -7.892  -0.546  1.00  0.00     0.000 C 
BRANCH  11  12
HETATM   12  C   UNL     1     -21.974  -8.687   0.606  1.00  0.00    -0.000 C 
BRANCH  12  13
HETATM   13  C   UNL     1     -23.443  -8.998   0.336  1.00  0.00    -0.005 C 
HETATM   14  C   UNL     1     -23.608 -10.400  -0.225  1.00  0.00     0.005 C 
ENDBRANCH  12  13
ENDBRANCH  11  12
ENDBRANCH  10  11
ENDBRANCH   9  10
ENDBRANCH   8   9
ENDBRANCH   1   8
TORSDOF 11
BEGIN_RES ARG D 557
REMARK  4 active torsions:
REMARK  status: ('A' for Active; 'I' for Inactive)
REMARK    1  A    between atoms: CA   and  CB  
REMARK    2  A    between atoms: CB   and  CG  
REMARK    3  A    between atoms: CG   and  CD  
REMARK    4  A    between atoms: CD   and  NE  
REMARK       I    between atoms: NE   and  CZ  
REMARK       I    between atoms: CZ   and  NH1 
REMARK       I    between atoms: CZ   and  NH2 
ROOT
ATOM      1  CA  ARG D 557     -26.217   2.705 -17.014  1.00 35.49     0.159 C 
ENDROOT
BRANCH   1   2
ATOM      2  CB  ARG D 557     -26.789   1.319 -17.183  1.00 35.49     0.034 C 
BRANCH   2   3
ATOM      3  CG  ARG D 557     -25.863   0.195 -16.999  1.00 35.49     0.027 C 
BRANCH   3   4
ATOM      4  CD  ARG D 557     -26.281  -0.708 -15.903  1.00 35.49     0.116 C 
BRANCH   4   5
ATOM      5  NE  ARG D 557     -25.232  -0.915 -14.940  1.00 35.49    -0.212 N 
ATOM      6  CZ  ARG D 557     -24.940  -2.055 -14.355  1.00 35.49     0.666 C 
ATOM      7  NH1 ARG D 557     -25.615  -3.165 -14.590  1.00 35.49    -0.235 N 
ATOM      8  NH2 ARG D 557     -23.940  -2.064 -13.523  1.00 35.49    -0.235 N 
ATOM      9  HH  ARG D 557     -26.276  -3.183 -15.135  1.00 35.49     0.174 HD
ATOM     10  HH  ARG D 557     -25.378  -3.880 -14.181  1.00 35.49     0.174 HD
ATOM     11  HH  ARG D 557     -23.517  -1.334 -13.397  1.00 35.49     0.174 HD
ATOM     12  HH  ARG D 557     -23.719  -2.782 -13.129  1.00 35.49     0.174 HD
ATOM     13  HE  ARG D 557     -24.793  -0.236 -14.676  1.00 35.49     0.178 HD
ENDBRANCH   4   5
ENDBRANCH   3   4
ENDBRANCH   2   3
ENDBRANCH   1   2
END_RES ARG D 557
BEGIN_RES GLU D 570
REMARK  3 active torsions:
REMARK  status: ('A' for Active; 'I' for Inactive)
REMARK    5  A    between atoms: CA   and  CB  
REMARK    6  A    between atoms: CB   and  CG  
REMARK    7  A    between atoms: CG   and  CD  
ROOT
ATOM     14  CA  GLU D 570     -18.033  -6.348 -13.375  1.00 32.92     0.160 C 
ENDROOT
BRANCH  14  15
ATOM     15  CB  GLU D 570     -19.500  -6.345 -13.794  1.00 32.92     0.043 C 
BRANCH  15  16
ATOM     16  CG  GLU D 570     -20.448  -5.558 -12.963  1.00 32.92     0.100 C 
BRANCH  16  17
ATOM     17  CD  GLU D 570     -21.671  -5.111 -13.728  1.00 32.92     0.185 C 
ATOM     18  OE1 GLU D 570     -22.711  -4.835 -13.100  1.00 32.92    -0.647 OA
ATOM     19  OE2 GLU D 570     -21.594  -5.051 -14.971  1.00 32.92    -0.647 OA
ENDBRANCH  16  17
ENDBRANCH  15  16
ENDBRANCH  14  15
END_RES GLU D 570
ENDMDL
MODEL 8
REMARK VINA RESULT:      -5.8      9.869     12.658
REMARK  11 active torsions:
REMARK  status: ('A' for Active; 'I' for Inactive)
REMARK    1  A    between atoms: C_2  and  C_3 
REMARK    2  A    between atoms: C_3  and  C_4 
REMARK    3  A    between atoms: C_4  and  C_5 
REMARK    4  A    between atoms: C_5  and  C_6 
REMARK    5  A    between atoms: C_6  and  C_7 
REMARK    6  A    between atoms: C_7  and  C_8 
REMARK    7  A    between atoms: C_8  and  C_9 
REMARK    8  A    between atoms: C_9  and  C_10 
REMARK    9  A    between atoms: C_10  and  C_11 
REMARK   10  A    between atoms: C_11  and  C_12 
REMARK   11  A    between atoms: C_12  and  C_13 
ROOT
HETATM    1  C   UNL     1     -21.264  -7.000  -2.853  1.00  0.00     0.000 C 
ENDROOT
BRANCH   1   2
HETATM    2  C   UNL     1     -22.209  -6.264  -1.910  1.00  0.00     0.000 C 
BRANCH   2   3
HETATM    3  C   UNL     1     -22.287  -6.974  -0.562  1.00  0.00     0.000 C 
BRANCH   3   4
HETATM    4  C   UNL     1     -22.254  -8.489  -0.741  1.00  0.00     0.000 C 
BRANCH   4   5
HETATM    5  C   UNL     1     -23.303  -9.162   0.138  1.00  0.00    -0.000 C 
BRANCH   5   6
HETATM    6  C   UNL     1     -23.608 -10.575  -0.351  1.00  0.00    -0.005 C 
HETATM    7  C   UNL     1     -22.992 -10.824  -1.718  1.00  0.00     0.005 C 
ENDBRANCH   5   6
ENDBRANCH   4   5
ENDBRANCH   3   4
ENDBRANCH   2   3
ENDBRANCH   1   2
BRANCH   1   8
HETATM    8  C   UNL     1     -21.507  -6.582  -4.299  1.00  0.00     0.000 C 
BRANCH   8   9
HETATM    9  C   UNL     1     -20.389  -7.088  -5.205  1.00  0.00     0.000 C 
BRANCH   9  10
HETATM   10  C   UNL     1     -20.220  -6.176  -6.415  1.00  0.00     0.000 C 
BRANCH  10  11
HETATM   11  C   UNL     1     -20.506  -4.724  -6.044  1.00  0.00     0.000 C 
BRANCH  11  12
HETATM   12  C   UNL     1     -20.733  -3.879  -7.299  1.00  0.00    -0.000 C 
BRANCH  12  13
HETATM   13  C   UNL     1     -21.711  -4.561  -8.250  1.00  0.00    -0.005 C 
HETATM   14  C   UNL     1     -21.507  -4.081  -9.677  1.00  0.00     0.005 C 
ENDBRANCH  12  13
ENDBRANCH  11  12
ENDBRANCH  10  11
ENDBRANCH   9  10
ENDBRANCH   8   9
ENDBRANCH   1   8
TORSDOF 11
BEGIN_RES ARG D 557
REMARK  4 active torsions:
REMARK  status: ('A' for Active; 'I' for Inactive)
REMARK    1  A    between atoms: CA   and  CB  
REMARK    2  A    between atoms: CB   and  CG  
REMARK    3  A    between atoms: CG   and  CD  
REMARK    4  A    between atoms: CD   and  NE  
REMARK       I    between atoms: NE   and  CZ  
REMARK       I    between atoms: CZ   and  NH1 
REMARK       I    between atoms: CZ   and  NH2 
ROOT
ATOM      1  CA  ARG D 557     -26.217   2.705 -17.014  1.00 35.49     0.159 C 
ENDROOT
BRANCH   1   2
ATOM      2  CB  ARG D 557     -26.789   1.319 -17.183  1.00 35.49     0.034 C 
BRANCH   2   3
ATOM      3  CG  ARG D 557     -25.836   0.203 -17.157  1.00 35.49     0.027 C 
BRANCH   3   4
ATOM      4  CD  ARG D 557     -24.765   0.399 -16.153  1.00 35.49     0.116 C 
BRANCH   4   5
ATOM      5  NE  ARG D 557     -24.934  -0.455 -15.007  1.00 35.49    -0.212 N 
ATOM      6  CZ  ARG D 557     -24.134  -1.438 -14.657  1.00 35.49     0.666 C 
ATOM      7  NH1 ARG D 557     -23.062  -1.762 -15.355  1.00 35.49    -0.235 N 
ATOM      8  NH2 ARG D 557     -24.430  -2.095 -13.573  1.00 35.49    -0.235 N 
ATOM      9  HH  ARG D 557     -22.847  -1.342 -16.070  1.00 35.49     0.174 HD
ATOM     10  HH  ARG D 557     -22.576  -2.411 -15.077  1.00 35.49     0.174 HD
ATOM     11  HH  ARG D 557     -25.124  -1.859 -13.138  1.00 35.49     0.174 HD
ATOM     12  HH  ARG D 557     -23.935  -2.733 -13.313  1.00 35.49     0.174 HD
ATOM     13  HE  ARG D 557     -25.639  -0.363 -14.541  1.00 35.49     0.178 HD
ENDBRANCH   4   5
ENDBRANCH   3   4
ENDBRANCH   2   3
ENDBRANCH   1   2
END_RES ARG D 557
BEGIN_RES GLU D 570
REMARK  3 active torsions:
REMARK  status: ('A' for Active; 'I' for Inactive)
REMARK    5  A    between atoms: CA   and  CB  
REMARK    6  A    between atoms: CB   and  CG  
REMARK    7  A    between atoms: CG   and  CD  
ROOT
ATOM     14  CA  GLU D 570     -18.033  -6.348 -13.375  1.00 32.92     0.160 C 
ENDROOT
BRANCH  14  15
ATOM     15  CB  GLU D 570     -19.500  -6.345 -13.794  1.00 32.92     0.043 C 
BRANCH  15  16
ATOM     16  CG  GLU D 570     -20.443  -5.537 -12.978  1.00 32.92     0.100 C 
BRANCH  16  17
ATOM     17  CD  GLU D 570     -21.724  -5.210 -13.710  1.00 32.92     0.185 C 
ATOM     18  OE1 GLU D 570     -22.314  -4.144 -13.450  1.00 32.92    -0.647 OA
ATOM     19  OE2 GLU D 570     -22.151  -6.037 -14.540  1.00 32.92    -0.647 OA
ENDBRANCH  16  17
ENDBRANCH  15  16
ENDBRANCH  14  15
END_RES GLU D 570
ENDMDL
MODEL 9
REMARK VINA RESULT:      -5.6      8.257     12.650
REMARK  11 active torsions:
REMARK  status: ('A' for Active; 'I' for Inactive)
REMARK    1  A    between atoms: C_2  and  C_3 
REMARK    2  A    between atoms: C_3  and  C_4 
REMARK    3  A    between atoms: C_4  and  C_5 
REMARK    4  A    between atoms: C_5  and  C_6 
REMARK    5  A    between atoms: C_6  and  C_7 
REMARK    6  A    between atoms: C_7  and  C_8 
REMARK    7  A    between atoms: C_8  and  C_9 
REMARK    8  A    between atoms: C_9  and  C_10 
REMARK    9  A    between atoms: C_10  and  C_11 
REMARK   10  A    between atoms: C_11  and  C_12 
REMARK   11  A    between atoms: C_12  and  C_13 
ROOT
HETATM    1  C   UNL     1     -22.046  -6.796  -4.473  1.00  0.00     0.000 C 
ENDROOT
BRANCH   1   2
HETATM    2  C   UNL     1     -21.138  -6.447  -5.648  1.00  0.00     0.000 C 
BRANCH   2   3
HETATM    3  C   UNL     1     -20.488  -5.083  -5.442  1.00  0.00     0.000 C 
BRANCH   3   4
HETATM    4  C   UNL     1     -20.448  -4.296  -6.749  1.00  0.00     0.000 C 
BRANCH   4   5
HETATM    5  C   UNL     1     -21.847  -4.150  -7.337  1.00  0.00    -0.000 C 
BRANCH   5   6
HETATM    6  C   UNL     1     -21.796  -4.029  -8.857  1.00  0.00    -0.005 C 
HETATM    7  C   UNL     1     -20.437  -4.449  -9.394  1.00  0.00     0.005 C 
ENDBRANCH   5   6
ENDBRANCH   4   5
ENDBRANCH   3   4
ENDBRANCH   2   3
ENDBRANCH   1   2
BRANCH   1   8
HETATM    8  C   UNL     1     -21.293  -6.676  -3.153  1.00  0.00     0.000 C 
BRANCH   8   9
HETATM    9  C   UNL     1     -22.190  -6.083  -2.070  1.00  0.00     0.000 C 
BRANCH   9  10
HETATM   10  C   UNL     1     -22.298  -7.032  -0.881  1.00  0.00     0.000 C 
BRANCH  10  11
HETATM   11  C   UNL     1     -21.184  -8.074  -0.914  1.00  0.00     0.000 C 
BRANCH  11  12
HETATM   12  C   UNL     1     -21.664  -9.398  -0.319  1.00  0.00    -0.000 C 
BRANCH  12  13
HETATM   13  C   UNL     1     -23.146  -9.336   0.036  1.00  0.00    -0.005 C 
HETATM   14  C   UNL     1     -23.825 -10.670  -0.219  1.00  0.00     0.005 C 
ENDBRANCH  12  13
ENDBRANCH  11  12
ENDBRANCH  10  11
ENDBRANCH   9  10
ENDBRANCH   8   9
ENDBRANCH   1   8
TORSDOF 11
BEGIN_RES ARG D 557
REMARK  4 active torsions:
REMARK  status: ('A' for Active; 'I' for Inactive)
REMARK    1  A    between atoms: CA   and  CB  
REMARK    2  A    between atoms: CB   and  CG  
REMARK    3  A    between atoms: CG   and  CD  
REMARK    4  A    between atoms: CD   and  NE  
REMARK       I    between atoms: NE   and  CZ  
REMARK       I    between atoms: CZ   and  NH1 
REMARK       I    between atoms: CZ   and  NH2 
ROOT
ATOM      1  CA  ARG D 557     -26.217   2.705 -17.014  1.00 35.49     0.159 C 
ENDROOT
BRANCH   1   2
ATOM      2  CB  ARG D 557     -26.789   1.319 -17.183  1.00 35.49     0.034 C 
BRANCH   2   3
ATOM      3  CG  ARG D 557     -28.220   1.156 -16.899  1.00 35.49     0.027 C 
BRANCH   3   4
ATOM      4  CD  ARG D 557     -28.597  -0.262 -16.697  1.00 35.49     0.116 C 
BRANCH   4   5
ATOM      5  NE  ARG D 557     -27.588  -0.994 -15.978  1.00 35.49    -0.212 N 
ATOM      6  CZ  ARG D 557     -27.381  -2.290 -16.050  1.00 35.49     0.666 C 
ATOM      7  NH1 ARG D 557     -28.115  -3.084 -16.807  1.00 35.49    -0.235 N 
ATOM      8  NH2 ARG D 557     -26.406  -2.783 -15.342  1.00 35.49    -0.235 N 
ATOM      9  HH  ARG D 557     -28.761  -2.781 -17.283  1.00 35.49     0.174 HD
ATOM     10  HH  ARG D 557     -27.932  -3.921 -16.816  1.00 35.49     0.174 HD
ATOM     11  HH  ARG D 557     -25.944  -2.245 -14.868  1.00 35.49     0.174 HD
ATOM     12  HH  ARG D 557     -26.240  -3.614 -15.366  1.00 35.49     0.174 HD
ATOM     13  HE  ARG D 557     -27.116  -0.572 -15.410  1.00 35.49     0.178 HD
ENDBRANCH   4   5
ENDBRANCH   3   4
ENDBRANCH   2   3
ENDBRANCH   1   2
END_RES ARG D 557
BEGIN_RES GLU D 570
REMARK  3 active torsions:
REMARK  status: ('A' for Active; 'I' for Inactive)
REMARK    5  A    between atoms: CA   and  CB  
REMARK    6  A    between atoms: CB   and  CG  
REMARK    7  A    between atoms: CG   and  CD  
ROOT
ATOM     14  CA  GLU D 570     -18.033  -6.348 -13.375  1.00 32.92     0.160 C 
ENDROOT
BRANCH  14  15
ATOM     15  CB  GLU D 570     -19.500  -6.345 -13.794  1.00 32.92     0.043 C 
BRANCH  15  16
ATOM     16  CG  GLU D 570     -19.796  -6.283 -15.249  1.00 32.92     0.100 C 
BRANCH  16  17
ATOM     17  CD  GLU D 570     -21.239  -5.942 -15.542  1.00 32.92     0.185 C 
ATOM     18  OE1 GLU D 570     -22.140  -6.638 -15.036  1.00 32.92    -0.647 OA
ATOM     19  OE2 GLU D 570     -21.469  -4.979 -16.300  1.00 32.92    -0.647 OA
ENDBRANCH  16  17
ENDBRANCH  15  16
ENDBRANCH  14  15
END_RES GLU D 570
ENDMDL
