MODEL 1
REMARK VINA RESULT:      -7.5      0.000      0.000
REMARK  11 active torsions:
REMARK  status: ('A' for Active; 'I' for Inactive)
REMARK    1  A    between atoms: C_2  and  C_3 
REMARK    2  A    between atoms: C_3  and  C_4 
REMARK    3  A    between atoms: C_4  and  C_5 
REMARK    4  A    between atoms: C_5  and  C_6 
REMARK    5  A    between atoms: C_6  and  C_7 
REMARK    6  A    between atoms: C_7  and  C_8 
REMARK    7  A    between atoms: C_8  and  C_9 
REMARK    8  A    between atoms: C_9  and  C_10 
REMARK    9  A    between atoms: C_10  and  C_11 
REMARK   10  A    between atoms: C_11  and  C_12 
REMARK   11  A    between atoms: C_12  and  N_13 
ROOT
HETATM    1  C   UNL     1     -20.306  -5.070  -5.655  1.00  0.00     0.002 C 
ENDROOT
BRANCH   1   2
HETATM    2  C   UNL     1     -20.860  -6.490  -5.692  1.00  0.00     0.000 C 
BRANCH   2   3
HETATM    3  C   UNL     1     -21.796  -6.733  -4.518  1.00  0.00     0.000 C 
BRANCH   3   4
HETATM    4  C   UNL     1     -21.266  -6.051  -3.263  1.00  0.00     0.000 C 
BRANCH   4   5
HETATM    5  C   UNL     1     -22.217  -6.273  -2.095  1.00  0.00     0.000 C 
BRANCH   5   6
HETATM    6  C   UNL     1     -21.896  -7.580  -1.383  1.00  0.00     0.000 C 
BRANCH   6   7
HETATM    7  C   UNL     1     -22.280  -7.497   0.089  1.00  0.00     0.000 C 
BRANCH   7   8
HETATM    8  C   UNL     1     -23.229  -8.630   0.461  1.00  0.00    -0.000 C 
BRANCH   8   9
HETATM    9  C   UNL     1     -22.911  -9.894  -0.334  1.00  0.00    -0.005 C 
HETATM   10  C   UNL     1     -24.033 -10.909  -0.212  1.00  0.00     0.005 C 
ENDBRANCH   8   9
ENDBRANCH   7   8
ENDBRANCH   6   7
ENDBRANCH   5   6
ENDBRANCH   4   5
ENDBRANCH   3   4
ENDBRANCH   2   3
ENDBRANCH   1   2
BRANCH   1  11
HETATM   11  C   UNL     1     -19.753  -4.678  -7.023  1.00  0.00     0.020 C 
BRANCH  11  12
HETATM   12  C   UNL     1     -20.532  -5.368  -8.138  1.00  0.00     0.125 C 
BRANCH  12  13
HETATM   13  N   UNL     1     -21.165  -4.417  -9.042  1.00  0.00    -0.352 N 
HETATM   14  C   UNL     1     -22.280  -3.625  -8.528  1.00  0.00     0.125 C 
HETATM   15  C   UNL     1     -23.615  -4.077  -9.109  1.00  0.00     0.020 C 
HETATM   16  C   UNL     1     -23.868  -3.537 -10.515  1.00  0.00     0.002 C 
HETATM   17  C   UNL     1     -22.843  -3.981 -11.555  1.00  0.00     0.009 C 
HETATM   18  C   UNL     1     -21.442  -3.436 -11.297  1.00  0.00     0.103 C 
HETATM   19  C   UNL     1     -20.665  -4.303 -10.330  1.00  0.00     0.219 C 
HETATM   20  O   UNL     1     -19.651  -4.889 -10.703  1.00  0.00    -0.273 OA
ENDBRANCH  12  13
ENDBRANCH  11  12
ENDBRANCH   1  11
TORSDOF 11
BEGIN_RES ARG D 557
REMARK  4 active torsions:
REMARK  status: ('A' for Active; 'I' for Inactive)
REMARK    1  A    between atoms: CA   and  CB  
REMARK    2  A    between atoms: CB   and  CG  
REMARK    3  A    between atoms: CG   and  CD  
REMARK    4  A    between atoms: CD   and  NE  
REMARK       I    between atoms: NE   and  CZ  
REMARK       I    between atoms: CZ   and  NH1 
REMARK       I    between atoms: CZ   and  NH2 
ROOT
ATOM      1  CA  ARG D 557     -26.217   2.705 -17.014  1.00 35.49     0.159 C 
ENDROOT
BRANCH   1   2
ATOM      2  CB  ARG D 557     -26.789   1.319 -17.183  1.00 35.49     0.034 C 
BRANCH   2   3
ATOM      3  CG  ARG D 557     -28.225   1.161 -16.923  1.00 35.49     0.027 C 
BRANCH   3   4
ATOM      4  CD  ARG D 557     -28.598  -0.246 -16.651  1.00 35.49     0.116 C 
BRANCH   4   5
ATOM      5  NE  ARG D 557     -27.564  -0.954 -15.943  1.00 35.49    -0.212 N 
ATOM      6  CZ  ARG D 557     -27.327  -2.245 -16.017  1.00 35.49     0.666 C 
ATOM      7  NH1 ARG D 557     -28.051  -3.056 -16.766  1.00 35.49    -0.235 N 
ATOM      8  NH2 ARG D 557     -26.333  -2.714 -15.321  1.00 35.49    -0.235 N 
ATOM      9  HH  ARG D 557     -28.708  -2.769 -17.234  1.00 35.49     0.174 HD
ATOM     10  HH  ARG D 557     -27.848  -3.889 -16.776  1.00 35.49     0.174 HD
ATOM     11  HH  ARG D 557     -25.878  -2.165 -14.852  1.00 35.49     0.174 HD
ATOM     12  HH  ARG D 557     -26.147  -3.540 -15.346  1.00 35.49     0.174 HD
ATOM     13  HE  ARG D 557     -27.096  -0.520 -15.381  1.00 35.49     0.178 HD
ENDBRANCH   4   5
ENDBRANCH   3   4
ENDBRANCH   2   3
ENDBRANCH   1   2
END_RES ARG D 557
BEGIN_RES GLU D 570
REMARK  3 active torsions:
REMARK  status: ('A' for Active; 'I' for Inactive)
REMARK    5  A    between atoms: CA   and  CB  
REMARK    6  A    between atoms: CB   and  CG  
REMARK    7  A    between atoms: CG   and  CD  
ROOT
ATOM     14  CA  GLU D 570     -18.033  -6.348 -13.375  1.00 32.92     0.160 C 
ENDROOT
BRANCH  14  15
ATOM     15  CB  GLU D 570     -19.500  -6.345 -13.794  1.00 32.92     0.043 C 
BRANCH  15  16
ATOM     16  CG  GLU D 570     -19.813  -5.933 -15.187  1.00 32.92     0.100 C 
BRANCH  16  17
ATOM     17  CD  GLU D 570     -21.274  -5.604 -15.389  1.00 32.92     0.185 C 
ATOM     18  OE1 GLU D 570     -21.592  -4.780 -16.268  1.00 32.92    -0.647 OA
ATOM     19  OE2 GLU D 570     -22.107  -6.163 -14.650  1.00 32.92    -0.647 OA
ENDBRANCH  16  17
ENDBRANCH  15  16
ENDBRANCH  14  15
END_RES GLU D 570
ENDMDL
MODEL 2
REMARK VINA RESULT:      -7.5      1.543      2.051
REMARK  11 active torsions:
REMARK  status: ('A' for Active; 'I' for Inactive)
REMARK    1  A    between atoms: C_2  and  C_3 
REMARK    2  A    between atoms: C_3  and  C_4 
REMARK    3  A    between atoms: C_4  and  C_5 
REMARK    4  A    between atoms: C_5  and  C_6 
REMARK    5  A    between atoms: C_6  and  C_7 
REMARK    6  A    between atoms: C_7  and  C_8 
REMARK    7  A    between atoms: C_8  and  C_9 
REMARK    8  A    between atoms: C_9  and  C_10 
REMARK    9  A    between atoms: C_10  and  C_11 
REMARK   10  A    between atoms: C_11  and  C_12 
REMARK   11  A    between atoms: C_12  and  N_13 
ROOT
HETATM    1  C   UNL     1     -20.233  -4.861  -5.415  1.00  0.00     0.002 C 
ENDROOT
BRANCH   1   2
HETATM    2  C   UNL     1     -21.357  -5.874  -5.237  1.00  0.00     0.000 C 
BRANCH   2   3
HETATM    3  C   UNL     1     -20.804  -7.216  -4.780  1.00  0.00     0.000 C 
BRANCH   3   4
HETATM    4  C   UNL     1     -21.506  -7.677  -3.509  1.00  0.00     0.000 C 
BRANCH   4   5
HETATM    5  C   UNL     1     -21.215  -6.717  -2.363  1.00  0.00     0.000 C 
BRANCH   5   6
HETATM    6  C   UNL     1     -22.365  -6.707  -1.366  1.00  0.00     0.000 C 
BRANCH   6   7
HETATM    7  C   UNL     1     -22.009  -7.520  -0.127  1.00  0.00     0.000 C 
BRANCH   7   8
HETATM    8  C   UNL     1     -23.111  -8.524   0.191  1.00  0.00    -0.000 C 
BRANCH   8   9
HETATM    9  C   UNL     1     -22.837  -9.868  -0.478  1.00  0.00    -0.005 C 
HETATM   10  C   UNL     1     -23.963 -10.849  -0.206  1.00  0.00     0.005 C 
ENDBRANCH   8   9
ENDBRANCH   7   8
ENDBRANCH   6   7
ENDBRANCH   5   6
ENDBRANCH   4   5
ENDBRANCH   3   4
ENDBRANCH   2   3
ENDBRANCH   1   2
BRANCH   1  11
HETATM   11  C   UNL     1     -19.942  -4.643  -6.898  1.00  0.00     0.020 C 
BRANCH  11  12
HETATM   12  C   UNL     1     -20.986  -3.726  -7.524  1.00  0.00     0.125 C 
BRANCH  12  13
HETATM   13  N   UNL     1     -21.486  -4.241  -8.792  1.00  0.00    -0.352 N 
HETATM   14  C   UNL     1     -20.509  -4.584  -9.823  1.00  0.00     0.125 C 
HETATM   15  C   UNL     1     -20.516  -3.579 -10.970  1.00  0.00     0.020 C 
HETATM   16  C   UNL     1     -21.655  -3.811 -11.960  1.00  0.00     0.002 C 
HETATM   17  C   UNL     1     -23.051  -3.689 -11.355  1.00  0.00     0.009 C 
HETATM   18  C   UNL     1     -23.360  -4.766 -10.322  1.00  0.00     0.103 C 
HETATM   19  C   UNL     1     -22.856  -4.392  -8.944  1.00  0.00     0.219 C 
HETATM   20  O   UNL     1     -23.650  -4.214  -8.023  1.00  0.00    -0.273 OA
ENDBRANCH  12  13
ENDBRANCH  11  12
ENDBRANCH   1  11
TORSDOF 11
BEGIN_RES ARG D 557
REMARK  4 active torsions:
REMARK  status: ('A' for Active; 'I' for Inactive)
REMARK    1  A    between atoms: CA   and  CB  
REMARK    2  A    between atoms: CB   and  CG  
REMARK    3  A    between atoms: CG   and  CD  
REMARK    4  A    between atoms: CD   and  NE  
REMARK       I    between atoms: NE   and  CZ  
REMARK       I    between atoms: CZ   and  NH1 
REMARK       I    between atoms: CZ   and  NH2 
ROOT
ATOM      1  CA  ARG D 557     -26.217   2.705 -17.014  1.00 35.49     0.159 C 
ENDROOT
BRANCH   1   2
ATOM      2  CB  ARG D 557     -26.789   1.319 -17.183  1.00 35.49     0.034 C 
BRANCH   2   3
ATOM      3  CG  ARG D 557     -28.232   1.226 -17.436  1.00 35.49     0.027 C 
BRANCH   3   4
ATOM      4  CD  ARG D 557     -28.912   0.307 -16.494  1.00 35.49     0.116 C 
BRANCH   4   5
ATOM      5  NE  ARG D 557     -29.326  -0.914 -17.132  1.00 35.49    -0.212 N 
ATOM      6  CZ  ARG D 557     -28.718  -2.076 -17.035  1.00 35.49     0.666 C 
ATOM      7  NH1 ARG D 557     -27.616  -2.242 -16.327  1.00 35.49    -0.235 N 
ATOM      8  NH2 ARG D 557     -29.247  -3.084 -17.665  1.00 35.49    -0.235 N 
ATOM      9  HH  ARG D 557     -27.252  -1.593 -15.903  1.00 35.49     0.174 HD
ATOM     10  HH  ARG D 557     -27.265  -3.024 -16.298  1.00 35.49     0.174 HD
ATOM     11  HH  ARG D 557     -29.963  -2.948 -18.108  1.00 35.49     0.174 HD
ATOM     12  HH  ARG D 557     -28.885  -3.850 -17.623  1.00 35.49     0.174 HD
ATOM     13  HE  ARG D 557     -29.986  -0.882 -17.666  1.00 35.49     0.178 HD
ENDBRANCH   4   5
ENDBRANCH   3   4
ENDBRANCH   2   3
ENDBRANCH   1   2
END_RES ARG D 557
BEGIN_RES GLU D 570
REMARK  3 active torsions:
REMARK  status: ('A' for Active; 'I' for Inactive)
REMARK    5  A    between atoms: CA   and  CB  
REMARK    6  A    between atoms: CB   and  CG  
REMARK    7  A    between atoms: CG   and  CD  
ROOT
ATOM     14  CA  GLU D 570     -18.033  -6.348 -13.375  1.00 32.92     0.160 C 
ENDROOT
BRANCH  14  15
ATOM     15  CB  GLU D 570     -19.500  -6.345 -13.794  1.00 32.92     0.043 C 
BRANCH  15  16
ATOM     16  CG  GLU D 570     -20.102  -7.645 -14.187  1.00 32.92     0.100 C 
BRANCH  16  17
ATOM     17  CD  GLU D 570     -20.628  -7.647 -15.603  1.00 32.92     0.185 C 
ATOM     18  OE1 GLU D 570     -20.759  -8.733 -16.199  1.00 32.92    -0.647 OA
ATOM     19  OE2 GLU D 570     -20.897  -6.548 -16.129  1.00 32.92    -0.647 OA
ENDBRANCH  16  17
ENDBRANCH  15  16
ENDBRANCH  14  15
END_RES GLU D 570
ENDMDL
MODEL 3
REMARK VINA RESULT:      -7.3      2.843      7.517
REMARK  11 active torsions:
REMARK  status: ('A' for Active; 'I' for Inactive)
REMARK    1  A    between atoms: C_2  and  C_3 
REMARK    2  A    between atoms: C_3  and  C_4 
REMARK    3  A    between atoms: C_4  and  C_5 
REMARK    4  A    between atoms: C_5  and  C_6 
REMARK    5  A    between atoms: C_6  and  C_7 
REMARK    6  A    between atoms: C_7  and  C_8 
REMARK    7  A    between atoms: C_8  and  C_9 
REMARK    8  A    between atoms: C_9  and  C_10 
REMARK    9  A    between atoms: C_10  and  C_11 
REMARK   10  A    between atoms: C_11  and  C_12 
REMARK   11  A    between atoms: C_12  and  N_13 
ROOT
HETATM    1  C   UNL     1     -20.976  -7.601  -5.303  1.00  0.00     0.002 C 
ENDROOT
BRANCH   1   2
HETATM    2  C   UNL     1     -21.588  -6.263  -5.698  1.00  0.00     0.000 C 
BRANCH   2   3
HETATM    3  C   UNL     1     -20.581  -5.136  -5.516  1.00  0.00     0.000 C 
BRANCH   3   4
HETATM    4  C   UNL     1     -19.622  -5.083  -6.698  1.00  0.00     0.000 C 
BRANCH   4   5
HETATM    5  C   UNL     1     -20.065  -4.020  -7.695  1.00  0.00     0.000 C 
BRANCH   5   6
HETATM    6  C   UNL     1     -20.109  -4.593  -9.105  1.00  0.00     0.000 C 
BRANCH   6   7
HETATM    7  C   UNL     1     -21.481  -4.373  -9.731  1.00  0.00     0.000 C 
BRANCH   7   8
HETATM    8  C   UNL     1     -22.435  -3.741  -8.724  1.00  0.00    -0.000 C 
BRANCH   8   9
HETATM    9  C   UNL     1     -23.888  -3.940  -9.148  1.00  0.00    -0.005 C 
HETATM   10  C   UNL     1     -23.974  -4.769 -10.417  1.00  0.00     0.005 C 
ENDBRANCH   8   9
ENDBRANCH   7   8
ENDBRANCH   6   7
ENDBRANCH   5   6
ENDBRANCH   4   5
ENDBRANCH   3   4
ENDBRANCH   2   3
ENDBRANCH   1   2
BRANCH   1  11
HETATM   11  C   UNL     1     -21.585  -8.102  -3.996  1.00  0.00     0.020 C 
BRANCH  11  12
HETATM   12  C   UNL     1     -20.798  -7.580  -2.799  1.00  0.00     0.125 C 
BRANCH  12  13
HETATM   13  N   UNL     1     -21.238  -8.177  -1.545  1.00  0.00    -0.352 N 
HETATM   14  C   UNL     1     -20.638  -9.447  -1.145  1.00  0.00     0.125 C 
HETATM   15  C   UNL     1     -21.616 -10.609  -1.291  1.00  0.00     0.020 C 
HETATM   16  C   UNL     1     -22.607 -10.704  -0.134  1.00  0.00     0.002 C 
HETATM   17  C   UNL     1     -23.508  -9.481   0.026  1.00  0.00     0.009 C 
HETATM   18  C   UNL     1     -22.750  -8.216   0.414  1.00  0.00     0.103 C 
HETATM   19  C   UNL     1     -22.186  -7.499  -0.794  1.00  0.00     0.219 C 
HETATM   20  O   UNL     1     -22.587  -6.375  -1.087  1.00  0.00    -0.273 OA
ENDBRANCH  12  13
ENDBRANCH  11  12
ENDBRANCH   1  11
TORSDOF 11
BEGIN_RES ARG D 557
REMARK  4 active torsions:
REMARK  status: ('A' for Active; 'I' for Inactive)
REMARK    1  A    between atoms: CA   and  CB  
REMARK    2  A    between atoms: CB   and  CG  
REMARK    3  A    between atoms: CG   and  CD  
REMARK    4  A    between atoms: CD   and  NE  
REMARK       I    between atoms: NE   and  CZ  
REMARK       I    between atoms: CZ   and  NH1 
REMARK       I    between atoms: CZ   and  NH2 
ROOT
ATOM      1  CA  ARG D 557     -26.217   2.705 -17.014  1.00 35.49     0.159 C 
ENDROOT
BRANCH   1   2
ATOM      2  CB  ARG D 557     -26.789   1.319 -17.183  1.00 35.49     0.034 C 
BRANCH   2   3
ATOM      3  CG  ARG D 557     -25.863   0.195 -16.998  1.00 35.49     0.027 C 
BRANCH   3   4
ATOM      4  CD  ARG D 557     -26.335  -0.763 -15.972  1.00 35.49     0.116 C 
BRANCH   4   5
ATOM      5  NE  ARG D 557     -25.365  -0.961 -14.928  1.00 35.49    -0.212 N 
ATOM      6  CZ  ARG D 557     -25.131  -2.093 -14.302  1.00 35.49     0.666 C 
ATOM      7  NH1 ARG D 557     -25.797  -3.201 -14.567  1.00 35.49    -0.235 N 
ATOM      8  NH2 ARG D 557     -24.197  -2.095 -13.395  1.00 35.49    -0.235 N 
ATOM      9  HH  ARG D 557     -26.414  -3.223 -15.162  1.00 35.49     0.174 HD
ATOM     10  HH  ARG D 557     -25.599  -3.910 -14.129  1.00 35.49     0.174 HD
ATOM     11  HH  ARG D 557     -23.778  -1.366 -13.250  1.00 35.49     0.174 HD
ATOM     12  HH  ARG D 557     -24.015  -2.807 -12.973  1.00 35.49     0.174 HD
ATOM     13  HE  ARG D 557     -24.940  -0.282 -14.643  1.00 35.49     0.178 HD
ENDBRANCH   4   5
ENDBRANCH   3   4
ENDBRANCH   2   3
ENDBRANCH   1   2
END_RES ARG D 557
BEGIN_RES GLU D 570
REMARK  3 active torsions:
REMARK  status: ('A' for Active; 'I' for Inactive)
REMARK    5  A    between atoms: CA   and  CB  
REMARK    6  A    between atoms: CB   and  CG  
REMARK    7  A    between atoms: CG   and  CD  
ROOT
ATOM     14  CA  GLU D 570     -18.033  -6.348 -13.375  1.00 32.92     0.160 C 
ENDROOT
BRANCH  14  15
ATOM     15  CB  GLU D 570     -19.500  -6.345 -13.794  1.00 32.92     0.043 C 
BRANCH  15  16
ATOM     16  CG  GLU D 570     -20.446  -5.548 -12.970  1.00 32.92     0.100 C 
BRANCH  16  17
ATOM     17  CD  GLU D 570     -21.742  -5.248 -13.686  1.00 32.92     0.185 C 
ATOM     18  OE1 GLU D 570     -22.289  -4.143 -13.509  1.00 32.92    -0.647 OA
ATOM     19  OE2 GLU D 570     -22.224  -6.134 -14.418  1.00 32.92    -0.647 OA
ENDBRANCH  16  17
ENDBRANCH  15  16
ENDBRANCH  14  15
END_RES GLU D 570
ENDMDL
MODEL 4
REMARK VINA RESULT:      -7.3      2.096      3.051
REMARK  11 active torsions:
REMARK  status: ('A' for Active; 'I' for Inactive)
REMARK    1  A    between atoms: C_2  and  C_3 
REMARK    2  A    between atoms: C_3  and  C_4 
REMARK    3  A    between atoms: C_4  and  C_5 
REMARK    4  A    between atoms: C_5  and  C_6 
REMARK    5  A    between atoms: C_6  and  C_7 
REMARK    6  A    between atoms: C_7  and  C_8 
REMARK    7  A    between atoms: C_8  and  C_9 
REMARK    8  A    between atoms: C_9  and  C_10 
REMARK    9  A    between atoms: C_10  and  C_11 
REMARK   10  A    between atoms: C_11  and  C_12 
REMARK   11  A    between atoms: C_12  and  N_13 
ROOT
HETATM    1  C   UNL     1     -21.171  -7.558  -3.697  1.00  0.00     0.002 C 
ENDROOT
BRANCH   1   2
HETATM    2  C   UNL     1     -20.951  -7.262  -2.218  1.00  0.00     0.000 C 
BRANCH   2   3
HETATM    3  C   UNL     1     -22.197  -6.640  -1.604  1.00  0.00     0.000 C 
BRANCH   3   4
HETATM    4  C   UNL     1     -22.626  -7.418  -0.367  1.00  0.00     0.000 C 
BRANCH   4   5
HETATM    5  C   UNL     1     -21.472  -8.261   0.158  1.00  0.00     0.000 C 
BRANCH   5   6
HETATM    6  C   UNL     1     -21.884  -9.722   0.275  1.00  0.00     0.000 C 
BRANCH   6   7
HETATM    7  C   UNL     1     -23.338  -9.904  -0.142  1.00  0.00     0.000 C 
BRANCH   7   8
HETATM    8  C   UNL     1     -23.459 -10.989  -1.206  1.00  0.00    -0.000 C 
BRANCH   8   9
HETATM    9  C   UNL     1     -22.504 -10.726  -2.367  1.00  0.00    -0.005 C 
HETATM   10  C   UNL     1     -22.586 -11.836  -3.399  1.00  0.00     0.005 C 
ENDBRANCH   8   9
ENDBRANCH   7   8
ENDBRANCH   6   7
ENDBRANCH   5   6
ENDBRANCH   4   5
ENDBRANCH   3   4
ENDBRANCH   2   3
ENDBRANCH   1   2
BRANCH   1  11
HETATM   11  C   UNL     1     -21.721  -6.327  -4.412  1.00  0.00     0.020 C 
BRANCH  11  12
HETATM   12  C   UNL     1     -21.925  -6.610  -5.896  1.00  0.00     0.125 C 
BRANCH  12  13
HETATM   13  N   UNL     1     -21.447  -5.521  -6.738  1.00  0.00    -0.352 N 
HETATM   14  C   UNL     1     -22.323  -4.367  -6.924  1.00  0.00     0.125 C 
HETATM   15  C   UNL     1     -22.920  -4.326  -8.327  1.00  0.00     0.020 C 
HETATM   16  C   UNL     1     -21.954  -3.771  -9.371  1.00  0.00     0.002 C 
HETATM   17  C   UNL     1     -20.673  -4.584  -9.538  1.00  0.00     0.009 C 
HETATM   18  C   UNL     1     -19.780  -4.572  -8.302  1.00  0.00     0.103 C 
HETATM   19  C   UNL     1     -20.185  -5.632  -7.300  1.00  0.00     0.219 C 
HETATM   20  O   UNL     1     -19.417  -6.554  -7.032  1.00  0.00    -0.273 OA
ENDBRANCH  12  13
ENDBRANCH  11  12
ENDBRANCH   1  11
TORSDOF 11
BEGIN_RES ARG D 557
REMARK  4 active torsions:
REMARK  status: ('A' for Active; 'I' for Inactive)
REMARK    1  A    between atoms: CA   and  CB  
REMARK    2  A    between atoms: CB   and  CG  
REMARK    3  A    between atoms: CG   and  CD  
REMARK    4  A    between atoms: CD   and  NE  
REMARK       I    between atoms: NE   and  CZ  
REMARK       I    between atoms: CZ   and  NH1 
REMARK       I    between atoms: CZ   and  NH2 
ROOT
ATOM      1  CA  ARG D 557     -26.217   2.705 -17.014  1.00 35.49     0.159 C 
ENDROOT
BRANCH   1   2
ATOM      2  CB  ARG D 557     -26.789   1.319 -17.183  1.00 35.49     0.034 C 
BRANCH   2   3
ATOM      3  CG  ARG D 557     -25.833   0.205 -17.180  1.00 35.49     0.027 C 
BRANCH   3   4
ATOM      4  CD  ARG D 557     -24.753   0.390 -16.184  1.00 35.49     0.116 C 
BRANCH   4   5
ATOM      5  NE  ARG D 557     -24.924  -0.459 -15.035  1.00 35.49    -0.212 N 
ATOM      6  CZ  ARG D 557     -24.112  -1.424 -14.666  1.00 35.49     0.666 C 
ATOM      7  NH1 ARG D 557     -23.024  -1.735 -15.346  1.00 35.49    -0.235 N 
ATOM      8  NH2 ARG D 557     -24.413  -2.079 -13.582  1.00 35.49    -0.235 N 
ATOM      9  HH  ARG D 557     -22.806  -1.315 -16.060  1.00 35.49     0.174 HD
ATOM     10  HH  ARG D 557     -22.531  -2.372 -15.055  1.00 35.49     0.174 HD
ATOM     11  HH  ARG D 557     -25.118  -1.852 -13.159  1.00 35.49     0.174 HD
ATOM     12  HH  ARG D 557     -23.911  -2.706 -13.310  1.00 35.49     0.174 HD
ATOM     13  HE  ARG D 557     -25.638  -0.376 -14.580  1.00 35.49     0.178 HD
ENDBRANCH   4   5
ENDBRANCH   3   4
ENDBRANCH   2   3
ENDBRANCH   1   2
END_RES ARG D 557
BEGIN_RES GLU D 570
REMARK  3 active torsions:
REMARK  status: ('A' for Active; 'I' for Inactive)
REMARK    5  A    between atoms: CA   and  CB  
REMARK    6  A    between atoms: CB   and  CG  
REMARK    7  A    between atoms: CG   and  CD  
ROOT
ATOM     14  CA  GLU D 570     -18.033  -6.348 -13.375  1.00 32.92     0.160 C 
ENDROOT
BRANCH  14  15
ATOM     15  CB  GLU D 570     -19.500  -6.345 -13.794  1.00 32.92     0.043 C 
BRANCH  15  16
ATOM     16  CG  GLU D 570     -20.441  -5.528 -12.985  1.00 32.92     0.100 C 
BRANCH  16  17
ATOM     17  CD  GLU D 570     -21.700  -5.163 -13.736  1.00 32.92     0.185 C 
ATOM     18  OE1 GLU D 570     -22.062  -5.874 -14.693  1.00 32.92    -0.647 OA
ATOM     19  OE2 GLU D 570     -22.322  -4.144 -13.375  1.00 32.92    -0.647 OA
ENDBRANCH  16  17
ENDBRANCH  15  16
ENDBRANCH  14  15
END_RES GLU D 570
ENDMDL
MODEL 5
REMARK VINA RESULT:      -7.1      2.381      7.332
REMARK  11 active torsions:
REMARK  status: ('A' for Active; 'I' for Inactive)
REMARK    1  A    between atoms: C_2  and  C_3 
REMARK    2  A    between atoms: C_3  and  C_4 
REMARK    3  A    between atoms: C_4  and  C_5 
REMARK    4  A    between atoms: C_5  and  C_6 
REMARK    5  A    between atoms: C_6  and  C_7 
REMARK    6  A    between atoms: C_7  and  C_8 
REMARK    7  A    between atoms: C_8  and  C_9 
REMARK    8  A    between atoms: C_9  and  C_10 
REMARK    9  A    between atoms: C_10  and  C_11 
REMARK   10  A    between atoms: C_11  and  C_12 
REMARK   11  A    between atoms: C_12  and  N_13 
ROOT
HETATM    1  C   UNL     1     -20.560  -5.261  -5.218  1.00  0.00     0.002 C 
ENDROOT
BRANCH   1   2
HETATM    2  C   UNL     1     -19.726  -4.766  -6.394  1.00  0.00     0.000 C 
BRANCH   2   3
HETATM    3  C   UNL     1     -20.544  -4.781  -7.678  1.00  0.00     0.000 C 
BRANCH   3   4
HETATM    4  C   UNL     1     -21.669  -3.756  -7.606  1.00  0.00     0.000 C 
BRANCH   4   5
HETATM    5  C   UNL     1     -22.988  -4.383  -8.036  1.00  0.00     0.000 C 
BRANCH   5   6
HETATM    6  C   UNL     1     -23.596  -3.609  -9.197  1.00  0.00     0.000 C 
BRANCH   6   7
HETATM    7  C   UNL     1     -23.916  -4.544 -10.357  1.00  0.00     0.000 C 
BRANCH   7   8
HETATM    8  C   UNL     1     -22.754  -4.593 -11.343  1.00  0.00    -0.000 C 
BRANCH   8   9
HETATM    9  C   UNL     1     -22.006  -3.263 -11.373  1.00  0.00    -0.005 C 
HETATM   10  C   UNL     1     -20.512  -3.476 -11.208  1.00  0.00     0.005 C 
ENDBRANCH   8   9
ENDBRANCH   7   8
ENDBRANCH   6   7
ENDBRANCH   5   6
ENDBRANCH   4   5
ENDBRANCH   3   4
ENDBRANCH   2   3
ENDBRANCH   1   2
BRANCH   1  11
HETATM   11  C   UNL     1     -20.666  -6.783  -5.243  1.00  0.00     0.020 C 
BRANCH  11  12
HETATM   12  C   UNL     1     -21.896  -7.252  -4.474  1.00  0.00     0.125 C 
BRANCH  12  13
HETATM   13  N   UNL     1     -21.563  -7.734  -3.139  1.00  0.00    -0.352 N 
HETATM   14  C   UNL     1     -20.880  -9.020  -3.028  1.00  0.00     0.125 C 
HETATM   15  C   UNL     1     -21.800 -10.109  -2.487  1.00  0.00     0.020 C 
HETATM   16  C   UNL     1     -21.962 -10.054  -0.970  1.00  0.00     0.002 C 
HETATM   17  C   UNL     1     -22.577  -8.758  -0.448  1.00  0.00     0.009 C 
HETATM   18  C   UNL     1     -21.697  -7.534  -0.676  1.00  0.00     0.103 C 
HETATM   19  C   UNL     1     -21.898  -6.939  -2.053  1.00  0.00     0.219 C 
HETATM   20  O   UNL     1     -22.361  -5.808  -2.176  1.00  0.00    -0.273 OA
ENDBRANCH  12  13
ENDBRANCH  11  12
ENDBRANCH   1  11
TORSDOF 11
BEGIN_RES ARG D 557
REMARK  4 active torsions:
REMARK  status: ('A' for Active; 'I' for Inactive)
REMARK    1  A    between atoms: CA   and  CB  
REMARK    2  A    between atoms: CB   and  CG  
REMARK    3  A    between atoms: CG   and  CD  
REMARK    4  A    between atoms: CD   and  NE  
REMARK       I    between atoms: NE   and  CZ  
REMARK       I    between atoms: CZ   and  NH1 
REMARK       I    between atoms: CZ   and  NH2 
ROOT
ATOM      1  CA  ARG D 557     -26.217   2.705 -17.014  1.00 35.49     0.159 C 
ENDROOT
BRANCH   1   2
ATOM      2  CB  ARG D 557     -26.789   1.319 -17.183  1.00 35.49     0.034 C 
BRANCH   2   3
ATOM      3  CG  ARG D 557     -25.928   0.197 -16.791  1.00 35.49     0.027 C 
BRANCH   3   4
ATOM      4  CD  ARG D 557     -26.673  -0.861 -16.071  1.00 35.49     0.116 C 
BRANCH   4   5
ATOM      5  NE  ARG D 557     -25.927  -1.391 -14.960  1.00 35.49    -0.212 N 
ATOM      6  CZ  ARG D 557     -25.884  -2.652 -14.595  1.00 35.49     0.666 C 
ATOM      7  NH1 ARG D 557     -26.558  -3.596 -15.225  1.00 35.49    -0.235 N 
ATOM      8  NH2 ARG D 557     -25.136  -2.957 -13.574  1.00 35.49    -0.235 N 
ATOM      9  HH  ARG D 557     -27.054  -3.419 -15.901  1.00 35.49     0.174 HD
ATOM     10  HH  ARG D 557     -26.489  -4.403 -14.944  1.00 35.49     0.174 HD
ATOM     11  HH  ARG D 557     -24.706  -2.327 -13.191  1.00 35.49     0.174 HD
ATOM     12  HH  ARG D 557     -25.080  -3.761 -13.312  1.00 35.49     0.174 HD
ATOM     13  HE  ARG D 557     -25.520  -0.841 -14.454  1.00 35.49     0.178 HD
ENDBRANCH   4   5
ENDBRANCH   3   4
ENDBRANCH   2   3
ENDBRANCH   1   2
END_RES ARG D 557
BEGIN_RES GLU D 570
REMARK  3 active torsions:
REMARK  status: ('A' for Active; 'I' for Inactive)
REMARK    5  A    between atoms: CA   and  CB  
REMARK    6  A    between atoms: CB   and  CG  
REMARK    7  A    between atoms: CG   and  CD  
ROOT
ATOM     14  CA  GLU D 570     -18.033  -6.348 -13.375  1.00 32.92     0.160 C 
ENDROOT
BRANCH  14  15
ATOM     15  CB  GLU D 570     -19.500  -6.345 -13.794  1.00 32.92     0.043 C 
BRANCH  15  16
ATOM     16  CG  GLU D 570     -19.800  -6.143 -15.235  1.00 32.92     0.100 C 
BRANCH  16  17
ATOM     17  CD  GLU D 570     -21.223  -5.702 -15.485  1.00 32.92     0.185 C 
ATOM     18  OE1 GLU D 570     -21.463  -4.942 -16.442  1.00 32.92    -0.647 OA
ATOM     19  OE2 GLU D 570     -22.106  -6.108 -14.703  1.00 32.92    -0.647 OA
ENDBRANCH  16  17
ENDBRANCH  15  16
ENDBRANCH  14  15
END_RES GLU D 570
ENDMDL
MODEL 6
REMARK VINA RESULT:      -7.1      4.771      9.124
REMARK  11 active torsions:
REMARK  status: ('A' for Active; 'I' for Inactive)
REMARK    1  A    between atoms: C_2  and  C_3 
REMARK    2  A    between atoms: C_3  and  C_4 
REMARK    3  A    between atoms: C_4  and  C_5 
REMARK    4  A    between atoms: C_5  and  C_6 
REMARK    5  A    between atoms: C_6  and  C_7 
REMARK    6  A    between atoms: C_7  and  C_8 
REMARK    7  A    between atoms: C_8  and  C_9 
REMARK    8  A    between atoms: C_9  and  C_10 
REMARK    9  A    between atoms: C_10  and  C_11 
REMARK   10  A    between atoms: C_11  and  C_12 
REMARK   11  A    between atoms: C_12  and  N_13 
ROOT
HETATM    1  C   UNL     1     -24.143  -3.577 -14.341  1.00  0.00     0.002 C 
ENDROOT
BRANCH   1   2
HETATM    2  C   UNL     1     -23.255  -4.815 -14.321  1.00  0.00     0.000 C 
BRANCH   2   3
HETATM    3  C   UNL     1     -24.092  -6.080 -14.449  1.00  0.00     0.000 C 
BRANCH   3   4
HETATM    4  C   UNL     1     -23.764  -6.807 -15.747  1.00  0.00     0.000 C 
BRANCH   4   5
HETATM    5  C   UNL     1     -25.021  -6.987 -16.588  1.00  0.00     0.000 C 
BRANCH   5   6
HETATM    6  C   UNL     1     -26.268  -6.762 -15.744  1.00  0.00     0.000 C 
BRANCH   6   7
HETATM    7  C   UNL     1     -27.250  -5.850 -16.469  1.00  0.00     0.000 C 
BRANCH   7   8
HETATM    8  C   UNL     1     -28.622  -6.507 -16.566  1.00  0.00    -0.000 C 
BRANCH   8   9
HETATM    9  C   UNL     1     -29.055  -6.657 -18.022  1.00  0.00    -0.005 C 
HETATM   10  C   UNL     1     -27.958  -6.195 -18.965  1.00  0.00     0.005 C 
ENDBRANCH   8   9
ENDBRANCH   7   8
ENDBRANCH   6   7
ENDBRANCH   5   6
ENDBRANCH   4   5
ENDBRANCH   3   4
ENDBRANCH   2   3
ENDBRANCH   1   2
BRANCH   1  11
HETATM   11  C   UNL     1     -23.826  -2.674 -13.152  1.00  0.00     0.020 C 
BRANCH  11  12
HETATM   12  C   UNL     1     -24.208  -3.354 -11.841  1.00  0.00     0.125 C 
BRANCH  12  13
HETATM   13  N   UNL     1     -23.140  -3.291 -10.853  1.00  0.00    -0.352 N 
HETATM   14  C   UNL     1     -21.796  -2.960 -11.320  1.00  0.00     0.125 C 
HETATM   15  C   UNL     1     -20.869  -4.171 -11.292  1.00  0.00     0.020 C 
HETATM   16  C   UNL     1     -20.320  -4.470  -9.899  1.00  0.00     0.002 C 
HETATM   17  C   UNL     1     -21.387  -4.798  -8.858  1.00  0.00     0.009 C 
HETATM   18  C   UNL     1     -22.310  -3.625  -8.545  1.00  0.00     0.103 C 
HETATM   19  C   UNL     1     -23.460  -3.530  -9.525  1.00  0.00     0.219 C 
HETATM   20  O   UNL     1     -24.616  -3.686  -9.138  1.00  0.00    -0.273 OA
ENDBRANCH  12  13
ENDBRANCH  11  12
ENDBRANCH   1  11
TORSDOF 11
BEGIN_RES ARG D 557
REMARK  4 active torsions:
REMARK  status: ('A' for Active; 'I' for Inactive)
REMARK    1  A    between atoms: CA   and  CB  
REMARK    2  A    between atoms: CB   and  CG  
REMARK    3  A    between atoms: CG   and  CD  
REMARK    4  A    between atoms: CD   and  NE  
REMARK       I    between atoms: NE   and  CZ  
REMARK       I    between atoms: CZ   and  NH1 
REMARK       I    between atoms: CZ   and  NH2 
ROOT
ATOM      1  CA  ARG D 557     -26.217   2.705 -17.014  1.00 35.49     0.159 C 
ENDROOT
BRANCH   1   2
ATOM      2  CB  ARG D 557     -26.789   1.319 -17.183  1.00 35.49     0.034 C 
BRANCH   2   3
ATOM      3  CG  ARG D 557     -28.236   1.225 -17.411  1.00 35.49     0.027 C 
BRANCH   3   4
ATOM      4  CD  ARG D 557     -28.898   0.299 -16.464  1.00 35.49     0.116 C 
BRANCH   4   5
ATOM      5  NE  ARG D 557     -29.325  -0.918 -17.103  1.00 35.49    -0.212 N 
ATOM      6  CZ  ARG D 557     -28.714  -2.079 -17.030  1.00 35.49     0.666 C 
ATOM      7  NH1 ARG D 557     -27.597  -2.251 -16.348  1.00 35.49    -0.235 N 
ATOM      8  NH2 ARG D 557     -29.256  -3.083 -17.658  1.00 35.49    -0.235 N 
ATOM      9  HH  ARG D 557     -27.224  -1.605 -15.926  1.00 35.49     0.174 HD
ATOM     10  HH  ARG D 557     -27.245  -3.032 -16.334  1.00 35.49     0.174 HD
ATOM     11  HH  ARG D 557     -29.982  -2.944 -18.084  1.00 35.49     0.174 HD
ATOM     12  HH  ARG D 557     -28.893  -3.848 -17.630  1.00 35.49     0.174 HD
ATOM     13  HE  ARG D 557     -29.997  -0.881 -17.623  1.00 35.49     0.178 HD
ENDBRANCH   4   5
ENDBRANCH   3   4
ENDBRANCH   2   3
ENDBRANCH   1   2
END_RES ARG D 557
BEGIN_RES GLU D 570
REMARK  3 active torsions:
REMARK  status: ('A' for Active; 'I' for Inactive)
REMARK    5  A    between atoms: CA   and  CB  
REMARK    6  A    between atoms: CB   and  CG  
REMARK    7  A    between atoms: CG   and  CD  
ROOT
ATOM     14  CA  GLU D 570     -18.033  -6.348 -13.375  1.00 32.92     0.160 C 
ENDROOT
BRANCH  14  15
ATOM     15  CB  GLU D 570     -19.500  -6.345 -13.794  1.00 32.92     0.043 C 
BRANCH  15  16
ATOM     16  CG  GLU D 570     -20.079  -7.629 -14.268  1.00 32.92     0.100 C 
BRANCH  16  17
ATOM     17  CD  GLU D 570     -20.475  -7.594 -15.725  1.00 32.92     0.185 C 
ATOM     18  OE1 GLU D 570     -20.413  -6.514 -16.344  1.00 32.92    -0.647 OA
ATOM     19  OE2 GLU D 570     -20.867  -8.655 -16.250  1.00 32.92    -0.647 OA
ENDBRANCH  16  17
ENDBRANCH  15  16
ENDBRANCH  14  15
END_RES GLU D 570
ENDMDL
MODEL 7
REMARK VINA RESULT:      -7.0      1.609      2.672
REMARK  11 active torsions:
REMARK  status: ('A' for Active; 'I' for Inactive)
REMARK    1  A    between atoms: C_2  and  C_3 
REMARK    2  A    between atoms: C_3  and  C_4 
REMARK    3  A    between atoms: C_4  and  C_5 
REMARK    4  A    between atoms: C_5  and  C_6 
REMARK    5  A    between atoms: C_6  and  C_7 
REMARK    6  A    between atoms: C_7  and  C_8 
REMARK    7  A    between atoms: C_8  and  C_9 
REMARK    8  A    between atoms: C_9  and  C_10 
REMARK    9  A    between atoms: C_10  and  C_11 
REMARK   10  A    between atoms: C_11  and  C_12 
REMARK   11  A    between atoms: C_12  and  N_13 
ROOT
HETATM    1  C   UNL     1     -21.475  -7.557  -3.686  1.00  0.00     0.002 C 
ENDROOT
BRANCH   1   2
HETATM    2  C   UNL     1     -21.053  -7.229  -2.258  1.00  0.00     0.000 C 
BRANCH   2   3
HETATM    3  C   UNL     1     -22.194  -6.567  -1.499  1.00  0.00     0.000 C 
BRANCH   3   4
HETATM    4  C   UNL     1     -22.598  -7.414  -0.299  1.00  0.00     0.000 C 
BRANCH   4   5
HETATM    5  C   UNL     1     -21.451  -8.325   0.119  1.00  0.00     0.000 C 
BRANCH   5   6
HETATM    6  C   UNL     1     -21.925  -9.767   0.230  1.00  0.00     0.000 C 
BRANCH   6   7
HETATM    7  C   UNL     1     -23.409  -9.872  -0.099  1.00  0.00     0.000 C 
BRANCH   7   8
HETATM    8  C   UNL     1     -23.668 -11.040  -1.045  1.00  0.00    -0.000 C 
BRANCH   8   9
HETATM    9  C   UNL     1     -22.458 -11.298  -1.939  1.00  0.00    -0.005 C 
HETATM   10  C   UNL     1     -22.792 -11.027  -3.395  1.00  0.00     0.005 C 
ENDBRANCH   8   9
ENDBRANCH   7   8
ENDBRANCH   6   7
ENDBRANCH   5   6
ENDBRANCH   4   5
ENDBRANCH   3   4
ENDBRANCH   2   3
ENDBRANCH   1   2
BRANCH   1  11
HETATM   11  C   UNL     1     -21.729  -6.274  -4.474  1.00  0.00     0.020 C 
BRANCH  11  12
HETATM   12  C   UNL     1     -21.897  -6.577  -5.959  1.00  0.00     0.125 C 
BRANCH  12  13
HETATM   13  N   UNL     1     -21.422  -5.489  -6.803  1.00  0.00    -0.352 N 
HETATM   14  C   UNL     1     -22.308  -4.346  -7.007  1.00  0.00     0.125 C 
HETATM   15  C   UNL     1     -22.890  -4.321  -8.417  1.00  0.00     0.020 C 
HETATM   16  C   UNL     1     -21.919  -3.763  -9.454  1.00  0.00     0.002 C 
HETATM   17  C   UNL     1     -20.627  -4.563  -9.602  1.00  0.00     0.009 C 
HETATM   18  C   UNL     1     -19.748  -4.532  -8.356  1.00  0.00     0.103 C 
HETATM   19  C   UNL     1     -20.152  -5.590  -7.351  1.00  0.00     0.219 C 
HETATM   20  O   UNL     1     -19.377  -6.501  -7.068  1.00  0.00    -0.273 OA
ENDBRANCH  12  13
ENDBRANCH  11  12
ENDBRANCH   1  11
TORSDOF 11
BEGIN_RES ARG D 557
REMARK  4 active torsions:
REMARK  status: ('A' for Active; 'I' for Inactive)
REMARK    1  A    between atoms: CA   and  CB  
REMARK    2  A    between atoms: CB   and  CG  
REMARK    3  A    between atoms: CG   and  CD  
REMARK    4  A    between atoms: CD   and  NE  
REMARK       I    between atoms: NE   and  CZ  
REMARK       I    between atoms: CZ   and  NH1 
REMARK       I    between atoms: CZ   and  NH2 
ROOT
ATOM      1  CA  ARG D 557     -26.217   2.705 -17.014  1.00 35.49     0.159 C 
ENDROOT
BRANCH   1   2
ATOM      2  CB  ARG D 557     -26.789   1.319 -17.183  1.00 35.49     0.034 C 
BRANCH   2   3
ATOM      3  CG  ARG D 557     -28.155   1.103 -16.690  1.00 35.49     0.027 C 
BRANCH   3   4
ATOM      4  CD  ARG D 557     -28.793  -0.086 -17.299  1.00 35.49     0.116 C 
BRANCH   4   5
ATOM      5  NE  ARG D 557     -28.181  -1.313 -16.863  1.00 35.49    -0.212 N 
ATOM      6  CZ  ARG D 557     -28.669  -2.521 -17.039  1.00 35.49     0.666 C 
ATOM      7  NH1 ARG D 557     -29.822  -2.738 -17.645  1.00 35.49    -0.235 N 
ATOM      8  NH2 ARG D 557     -27.967  -3.523 -16.597  1.00 35.49    -0.235 N 
ATOM      9  HH  ARG D 557     -30.300  -2.093 -17.946  1.00 35.49     0.174 HD
ATOM     10  HH  ARG D 557     -30.089  -3.547 -17.733  1.00 35.49     0.174 HD
ATOM     11  HH  ARG D 557     -27.223  -3.353 -16.216  1.00 35.49     0.174 HD
ATOM     12  HH  ARG D 557     -28.248  -4.317 -16.696  1.00 35.49     0.174 HD
ATOM     13  HE  ARG D 557     -27.469  -1.262 -16.399  1.00 35.49     0.178 HD
ENDBRANCH   4   5
ENDBRANCH   3   4
ENDBRANCH   2   3
ENDBRANCH   1   2
END_RES ARG D 557
BEGIN_RES GLU D 570
REMARK  3 active torsions:
REMARK  status: ('A' for Active; 'I' for Inactive)
REMARK    5  A    between atoms: CA   and  CB  
REMARK    6  A    between atoms: CB   and  CG  
REMARK    7  A    between atoms: CG   and  CD  
ROOT
ATOM     14  CA  GLU D 570     -18.033  -6.348 -13.375  1.00 32.92     0.160 C 
ENDROOT
BRANCH  14  15
ATOM     15  CB  GLU D 570     -19.500  -6.345 -13.794  1.00 32.92     0.043 C 
BRANCH  15  16
ATOM     16  CG  GLU D 570     -20.448  -5.560 -12.962  1.00 32.92     0.100 C 
BRANCH  16  17
ATOM     17  CD  GLU D 570     -21.699  -5.163 -13.710  1.00 32.92     0.185 C 
ATOM     18  OE1 GLU D 570     -22.723  -4.869 -13.064  1.00 32.92    -0.647 OA
ATOM     19  OE2 GLU D 570     -21.660  -5.162 -14.956  1.00 32.92    -0.647 OA
ENDBRANCH  16  17
ENDBRANCH  15  16
ENDBRANCH  14  15
END_RES GLU D 570
ENDMDL
MODEL 8
REMARK VINA RESULT:      -6.8      2.487      7.454
REMARK  11 active torsions:
REMARK  status: ('A' for Active; 'I' for Inactive)
REMARK    1  A    between atoms: C_2  and  C_3 
REMARK    2  A    between atoms: C_3  and  C_4 
REMARK    3  A    between atoms: C_4  and  C_5 
REMARK    4  A    between atoms: C_5  and  C_6 
REMARK    5  A    between atoms: C_6  and  C_7 
REMARK    6  A    between atoms: C_7  and  C_8 
REMARK    7  A    between atoms: C_8  and  C_9 
REMARK    8  A    between atoms: C_9  and  C_10 
REMARK    9  A    between atoms: C_10  and  C_11 
REMARK   10  A    between atoms: C_11  and  C_12 
REMARK   11  A    between atoms: C_12  and  N_13 
ROOT
HETATM    1  C   UNL     1     -20.065  -7.117  -5.544  1.00  0.00     0.002 C 
ENDROOT
BRANCH   1   2
HETATM    2  C   UNL     1     -20.581  -5.727  -5.188  1.00  0.00     0.000 C 
BRANCH   2   3
HETATM    3  C   UNL     1     -20.309  -4.746  -6.320  1.00  0.00     0.000 C 
BRANCH   3   4
HETATM    4  C   UNL     1     -19.967  -5.494  -7.602  1.00  0.00     0.000 C 
BRANCH   4   5
HETATM    5  C   UNL     1     -20.455  -4.715  -8.817  1.00  0.00     0.000 C 
BRANCH   5   6
HETATM    6  C   UNL     1     -21.581  -3.767  -8.430  1.00  0.00     0.000 C 
BRANCH   6   7
HETATM    7  C   UNL     1     -22.916  -4.273  -8.960  1.00  0.00     0.000 C 
BRANCH   7   8
HETATM    8  C   UNL     1     -23.008  -4.068 -10.468  1.00  0.00    -0.000 C 
BRANCH   8   9
HETATM    9  C   UNL     1     -24.351  -3.454 -10.855  1.00  0.00    -0.005 C 
HETATM   10  C   UNL     1     -24.330  -2.966 -12.292  1.00  0.00     0.005 C 
ENDBRANCH   8   9
ENDBRANCH   7   8
ENDBRANCH   6   7
ENDBRANCH   5   6
ENDBRANCH   4   5
ENDBRANCH   3   4
ENDBRANCH   2   3
ENDBRANCH   1   2
BRANCH   1  11
HETATM   11  C   UNL     1     -20.985  -8.190  -4.968  1.00  0.00     0.020 C 
BRANCH  11  12
HETATM   12  C   UNL     1     -22.012  -7.572  -4.025  1.00  0.00     0.125 C 
BRANCH  12  13
HETATM   13  N   UNL     1     -21.781  -7.942  -2.635  1.00  0.00    -0.352 N 
HETATM   14  C   UNL     1     -21.247  -9.275  -2.363  1.00  0.00     0.125 C 
HETATM   15  C   UNL     1     -22.300 -10.197  -1.757  1.00  0.00     0.020 C 
HETATM   16  C   UNL     1     -22.506  -9.965  -0.262  1.00  0.00     0.002 C 
HETATM   17  C   UNL     1     -22.992  -8.564   0.097  1.00  0.00     0.009 C 
HETATM   18  C   UNL     1     -21.975  -7.471  -0.213  1.00  0.00     0.103 C 
HETATM   19  C   UNL     1     -22.063  -7.007  -1.652  1.00  0.00     0.219 C 
HETATM   20  O   UNL     1     -22.394  -5.852  -1.909  1.00  0.00    -0.273 OA
ENDBRANCH  12  13
ENDBRANCH  11  12
ENDBRANCH   1  11
TORSDOF 11
BEGIN_RES ARG D 557
REMARK  4 active torsions:
REMARK  status: ('A' for Active; 'I' for Inactive)
REMARK    1  A    between atoms: CA   and  CB  
REMARK    2  A    between atoms: CB   and  CG  
REMARK    3  A    between atoms: CG   and  CD  
REMARK    4  A    between atoms: CD   and  NE  
REMARK       I    between atoms: NE   and  CZ  
REMARK       I    between atoms: CZ   and  NH1 
REMARK       I    between atoms: CZ   and  NH2 
ROOT
ATOM      1  CA  ARG D 557     -26.217   2.705 -17.014  1.00 35.49     0.159 C 
ENDROOT
BRANCH   1   2
ATOM      2  CB  ARG D 557     -26.789   1.319 -17.183  1.00 35.49     0.034 C 
BRANCH   2   3
ATOM      3  CG  ARG D 557     -28.233   1.226 -17.433  1.00 35.49     0.027 C 
BRANCH   3   4
ATOM      4  CD  ARG D 557     -28.910   0.305 -16.491  1.00 35.49     0.116 C 
BRANCH   4   5
ATOM      5  NE  ARG D 557     -29.301  -0.927 -17.124  1.00 35.49    -0.212 N 
ATOM      6  CZ  ARG D 557     -28.666  -2.073 -17.032  1.00 35.49     0.666 C 
ATOM      7  NH1 ARG D 557     -27.554  -2.214 -16.334  1.00 35.49    -0.235 N 
ATOM      8  NH2 ARG D 557     -29.177  -3.095 -17.657  1.00 35.49    -0.235 N 
ATOM      9  HH  ARG D 557     -27.202  -1.556 -15.913  1.00 35.49     0.174 HD
ATOM     10  HH  ARG D 557     -27.185  -2.987 -16.308  1.00 35.49     0.174 HD
ATOM     11  HH  ARG D 557     -29.900  -2.976 -18.094  1.00 35.49     0.174 HD
ATOM     12  HH  ARG D 557     -28.798  -3.852 -17.617  1.00 35.49     0.174 HD
ATOM     13  HE  ARG D 557     -29.967  -0.910 -17.653  1.00 35.49     0.178 HD
ENDBRANCH   4   5
ENDBRANCH   3   4
ENDBRANCH   2   3
ENDBRANCH   1   2
END_RES ARG D 557
BEGIN_RES GLU D 570
REMARK  3 active torsions:
REMARK  status: ('A' for Active; 'I' for Inactive)
REMARK    5  A    between atoms: CA   and  CB  
REMARK    6  A    between atoms: CB   and  CG  
REMARK    7  A    between atoms: CG   and  CD  
ROOT
ATOM     14  CA  GLU D 570     -18.033  -6.348 -13.375  1.00 32.92     0.160 C 
ENDROOT
BRANCH  14  15
ATOM     15  CB  GLU D 570     -19.500  -6.345 -13.794  1.00 32.92     0.043 C 
BRANCH  15  16
ATOM     16  CG  GLU D 570     -20.430  -5.478 -13.025  1.00 32.92     0.100 C 
BRANCH  16  17
ATOM     17  CD  GLU D 570     -21.722  -5.203 -13.758  1.00 32.92     0.185 C 
ATOM     18  OE1 GLU D 570     -22.739  -5.857 -13.459  1.00 32.92    -0.647 OA
ATOM     19  OE2 GLU D 570     -21.712  -4.336 -14.654  1.00 32.92    -0.647 OA
ENDBRANCH  16  17
ENDBRANCH  15  16
ENDBRANCH  14  15
END_RES GLU D 570
ENDMDL
MODEL 9
REMARK VINA RESULT:      -6.7      3.454      8.164
REMARK  11 active torsions:
REMARK  status: ('A' for Active; 'I' for Inactive)
REMARK    1  A    between atoms: C_2  and  C_3 
REMARK    2  A    between atoms: C_3  and  C_4 
REMARK    3  A    between atoms: C_4  and  C_5 
REMARK    4  A    between atoms: C_5  and  C_6 
REMARK    5  A    between atoms: C_6  and  C_7 
REMARK    6  A    between atoms: C_7  and  C_8 
REMARK    7  A    between atoms: C_8  and  C_9 
REMARK    8  A    between atoms: C_9  and  C_10 
REMARK    9  A    between atoms: C_10  and  C_11 
REMARK   10  A    between atoms: C_11  and  C_12 
REMARK   11  A    between atoms: C_12  and  N_13 
ROOT
HETATM    1  C   UNL     1     -22.130  -6.606  -1.760  1.00  0.00     0.002 C 
ENDROOT
BRANCH   1   2
HETATM    2  C   UNL     1     -21.549  -6.035  -3.048  1.00  0.00     0.000 C 
BRANCH   2   3
HETATM    3  C   UNL     1     -21.937  -6.897  -4.241  1.00  0.00     0.000 C 
BRANCH   3   4
HETATM    4  C   UNL     1     -21.556  -6.206  -5.544  1.00  0.00     0.000 C 
BRANCH   4   5
HETATM    5  C   UNL     1     -20.492  -5.146  -5.292  1.00  0.00     0.000 C 
BRANCH   5   6
HETATM    6  C   UNL     1     -19.738  -4.828  -6.576  1.00  0.00     0.000 C 
BRANCH   6   7
HETATM    7  C   UNL     1     -20.510  -5.328  -7.790  1.00  0.00     0.000 C 
BRANCH   7   8
HETATM    8  C   UNL     1     -20.289  -4.405  -8.984  1.00  0.00    -0.000 C 
BRANCH   8   9
HETATM    9  C   UNL     1     -21.606  -4.109  -9.697  1.00  0.00    -0.005 C 
HETATM   10  C   UNL     1     -22.766  -4.113  -8.717  1.00  0.00     0.005 C 
ENDBRANCH   8   9
ENDBRANCH   7   8
ENDBRANCH   6   7
ENDBRANCH   5   6
ENDBRANCH   4   5
ENDBRANCH   3   4
ENDBRANCH   2   3
ENDBRANCH   1   2
BRANCH   1  11
HETATM   11  C   UNL     1     -21.267  -7.756  -1.249  1.00  0.00     0.020 C 
BRANCH  11  12
HETATM   12  C   UNL     1     -21.953  -8.474  -0.092  1.00  0.00     0.125 C 
BRANCH  12  13
HETATM   13  N   UNL     1     -21.956  -9.921  -0.263  1.00  0.00    -0.352 N 
HETATM   14  C   UNL     1     -22.734 -10.477  -1.367  1.00  0.00     0.125 C 
HETATM   15  C   UNL     1     -23.995 -11.182  -0.878  1.00  0.00     0.020 C 
HETATM   16  C   UNL     1     -23.725 -12.588  -0.349  1.00  0.00     0.002 C 
HETATM   17  C   UNL     1     -22.783 -12.641   0.851  1.00  0.00     0.009 C 
HETATM   18  C   UNL     1     -21.363 -12.190   0.528  1.00  0.00     0.103 C 
HETATM   19  C   UNL     1     -21.209 -10.687   0.620  1.00  0.00     0.219 C 
HETATM   20  O   UNL     1     -20.467 -10.192   1.464  1.00  0.00    -0.273 OA
ENDBRANCH  12  13
ENDBRANCH  11  12
ENDBRANCH   1  11
TORSDOF 11
BEGIN_RES ARG D 557
REMARK  4 active torsions:
REMARK  status: ('A' for Active; 'I' for Inactive)
REMARK    1  A    between atoms: CA   and  CB  
REMARK    2  A    between atoms: CB   and  CG  
REMARK    3  A    between atoms: CG   and  CD  
REMARK    4  A    between atoms: CD   and  NE  
REMARK       I    between atoms: NE   and  CZ  
REMARK       I    between atoms: CZ   and  NH1 
REMARK       I    between atoms: CZ   and  NH2 
ROOT
ATOM      1  CA  ARG D 557     -26.217   2.705 -17.014  1.00 35.49     0.159 C 
ENDROOT
BRANCH   1   2
ATOM      2  CB  ARG D 557     -26.789   1.319 -17.183  1.00 35.49     0.034 C 
BRANCH   2   3
ATOM      3  CG  ARG D 557     -26.045   0.217 -16.561  1.00 35.49     0.027 C 
BRANCH   3   4
ATOM      4  CD  ARG D 557     -26.929  -0.894 -16.139  1.00 35.49     0.116 C 
BRANCH   4   5
ATOM      5  NE  ARG D 557     -26.221  -1.896 -15.388  1.00 35.49    -0.212 N 
ATOM      6  CZ  ARG D 557     -25.118  -1.703 -14.700  1.00 35.49     0.666 C 
ATOM      7  NH1 ARG D 557     -24.517  -0.529 -14.637  1.00 35.49    -0.235 N 
ATOM      8  NH2 ARG D 557     -24.623  -2.722 -14.060  1.00 35.49    -0.235 N 
ATOM      9  HH  ARG D 557     -24.826   0.157 -15.049  1.00 35.49     0.174 HD
ATOM     10  HH  ARG D 557     -23.801  -0.462 -14.171  1.00 35.49     0.174 HD
ATOM     11  HH  ARG D 557     -25.037  -3.466 -14.112  1.00 35.49     0.174 HD
ATOM     12  HH  ARG D 557     -23.915  -2.636 -13.602  1.00 35.49     0.174 HD
ATOM     13  HE  ARG D 557     -26.498  -2.698 -15.432  1.00 35.49     0.178 HD
ENDBRANCH   4   5
ENDBRANCH   3   4
ENDBRANCH   2   3
ENDBRANCH   1   2
END_RES ARG D 557
BEGIN_RES GLU D 570
REMARK  3 active torsions:
REMARK  status: ('A' for Active; 'I' for Inactive)
REMARK    5  A    between atoms: CA   and  CB  
REMARK    6  A    between atoms: CB   and  CG  
REMARK    7  A    between atoms: CG   and  CD  
ROOT
ATOM     14  CA  GLU D 570     -18.033  -6.348 -13.375  1.00 32.92     0.160 C 
ENDROOT
BRANCH  14  15
ATOM     15  CB  GLU D 570     -19.500  -6.345 -13.794  1.00 32.92     0.043 C 
BRANCH  15  16
ATOM     16  CG  GLU D 570     -20.448  -5.560 -12.962  1.00 32.92     0.100 C 
BRANCH  16  17
ATOM     17  CD  GLU D 570     -21.710  -5.183 -13.702  1.00 32.92     0.185 C 
ATOM     18  OE1 GLU D 570     -22.720  -4.856 -13.050  1.00 32.92    -0.647 OA
ATOM     19  OE2 GLU D 570     -21.692  -5.230 -14.948  1.00 32.92    -0.647 OA
ENDBRANCH  16  17
ENDBRANCH  15  16
ENDBRANCH  14  15
END_RES GLU D 570
ENDMDL
