MODEL 1
REMARK VINA RESULT:      -5.9      0.000      0.000
REMARK WARNING: 32 MAX_TORS EXCEEDED!!!
REMARK  92 active torsions:
REMARK  status: ('A' for Active; 'I' for Inactive)
REMARK    1  A    between atoms: C_2  and  C_3 
REMARK    2  A    between atoms: C_3  and  C_4 
REMARK    3  A    between atoms: C_4  and  C_5 
REMARK    4  A    between atoms: C_5  and  C_6 
REMARK    5  A    between atoms: C_6  and  C_7 
REMARK    6  A    between atoms: C_7  and  C_8 
REMARK    7  A    between atoms: C_8  and  C_9 
REMARK    8  A    between atoms: C_9  and  C_10 
REMARK    9  A    between atoms: C_10  and  C_11 
REMARK   10  A    between atoms: C_11  and  C_12 
REMARK   11  A    between atoms: C_12  and  C_13 
REMARK   12  A    between atoms: C_13  and  C_14 
REMARK   13  A    between atoms: C_14  and  C_15 
REMARK   14  A    between atoms: C_15  and  C_16 
REMARK   15  A    between atoms: C_16  and  C_17 
REMARK   16  A    between atoms: C_17  and  C_18 
REMARK   17  A    between atoms: C_18  and  C_19 
REMARK   18  A    between atoms: C_19  and  C_20 
REMARK   19  A    between atoms: C_20  and  C_21 
REMARK   20  A    between atoms: C_21  and  C_22 
REMARK   21  A    between atoms: C_22  and  O_24 
REMARK   22  A    between atoms: O_24  and  C_25 
REMARK   23  A    between atoms: C_25  and  C_26 
REMARK   24  A    between atoms: C_26  and  C_27 
REMARK   25  A    between atoms: C_26  and  C_52 
REMARK   26  A    between atoms: C_26  and  C_77 
REMARK   27  A    between atoms: C_27  and  O_28 
REMARK   28  A    between atoms: O_28  and  C_29 
REMARK   29  A    between atoms: C_29  and  C_31 
REMARK   30  A    between atoms: C_31  and  C_32 
REMARK   31  A    between atoms: C_32  and  C_33 
REMARK   32  A    between atoms: C_33  and  C_34 
REMARK   33  A    between atoms: C_34  and  C_35 
REMARK   34  A    between atoms: C_35  and  C_36 
REMARK   35  A    between atoms: C_36  and  C_37 
REMARK   36  A    between atoms: C_37  and  C_38 
REMARK   37  A    between atoms: C_38  and  C_39 
REMARK   38  A    between atoms: C_39  and  C_40 
REMARK   39  A    between atoms: C_40  and  C_41 
REMARK   40  A    between atoms: C_41  and  C_42 
REMARK   41  A    between atoms: C_42  and  C_43 
REMARK   42  A    between atoms: C_43  and  C_44 
REMARK   43  A    between atoms: C_44  and  C_45 
REMARK   44  A    between atoms: C_45  and  C_46 
REMARK   45  A    between atoms: C_46  and  C_47 
REMARK   46  A    between atoms: C_47  and  C_48 
REMARK   47  A    between atoms: C_48  and  C_49 
REMARK   48  A    between atoms: C_49  and  C_50 
REMARK   49  A    between atoms: C_52  and  O_53 
REMARK   50  A    between atoms: O_53  and  C_54 
REMARK   51  A    between atoms: C_54  and  C_56 
REMARK   52  A    between atoms: C_56  and  C_57 
REMARK   53  A    between atoms: C_57  and  C_58 
REMARK   54  A    between atoms: C_58  and  C_59 
REMARK   55  A    between atoms: C_59  and  C_60 
REMARK   56  A    between atoms: C_60  and  C_61 
REMARK   57  A    between atoms: C_61  and  C_62 
REMARK   58  A    between atoms: C_62  and  C_63 
REMARK   59  A    between atoms: C_63  and  C_64 
REMARK   60  A    between atoms: C_64  and  C_65 
REMARK   61  A    between atoms: C_65  and  C_66 
REMARK   62  A    between atoms: C_66  and  C_67 
REMARK   63  A    between atoms: C_67  and  C_68 
REMARK   64  A    between atoms: C_68  and  C_69 
REMARK   65  A    between atoms: C_69  and  C_70 
REMARK   66  A    between atoms: C_70  and  C_71 
REMARK   67  A    between atoms: C_71  and  C_72 
REMARK   68  A    between atoms: C_72  and  C_73 
REMARK   69  A    between atoms: C_73  and  C_74 
REMARK   70  A    between atoms: C_74  and  C_75 
REMARK   71  A    between atoms: C_77  and  O_78 
REMARK   72  A    between atoms: O_78  and  C_79 
REMARK   73  A    between atoms: C_79  and  C_81 
REMARK   74  A    between atoms: C_81  and  C_82 
REMARK   75  A    between atoms: C_82  and  C_83 
REMARK   76  A    between atoms: C_83  and  C_84 
REMARK   77  A    between atoms: C_84  and  C_85 
REMARK   78  A    between atoms: C_85  and  C_86 
REMARK   79  A    between atoms: C_86  and  C_87 
REMARK   80  A    between atoms: C_87  and  C_88 
REMARK   81  A    between atoms: C_88  and  C_89 
REMARK   82  A    between atoms: C_89  and  C_90 
REMARK   83  A    between atoms: C_90  and  C_91 
REMARK   84  A    between atoms: C_91  and  C_92 
REMARK   85  A    between atoms: C_92  and  C_93 
REMARK   86  A    between atoms: C_93  and  C_94 
REMARK   87  A    between atoms: C_94  and  C_95 
REMARK   88  A    between atoms: C_95  and  C_96 
REMARK   89  A    between atoms: C_96  and  C_97 
REMARK   90  A    between atoms: C_97  and  C_98 
REMARK   91  A    between atoms: C_98  and  C_99 
REMARK   92  A    between atoms: C_99  and  C_100 
ROOT
HETATM    1  C   UNL     1     -21.035  -8.250  -4.176  1.00  0.00     0.048 C 
ENDROOT
BRANCH   1   2
HETATM    2  C   UNL     1     -21.570  -9.701  -4.217  1.00  0.00     0.195 C 
BRANCH   2   3
HETATM    3  O   UNL     1     -20.943 -10.529  -3.208  1.00  0.00    -0.320 OA
BRANCH   3   4
HETATM    4  C   UNL     1     -21.593 -11.704  -2.921  1.00  0.00     0.258 C 
HETATM    5  O   UNL     1     -21.050 -12.768  -2.694  1.00  0.00    -0.265 OA
BRANCH   4   6
HETATM    6  C   UNL     1     -23.102 -11.503  -2.882  1.00  0.00     0.111 C 
BRANCH   6   7
HETATM    7  C   UNL     1     -23.531 -11.196  -1.454  1.00  0.00     0.010 C 
BRANCH   7   8
HETATM    8  C   UNL     1     -23.756 -12.461  -0.636  1.00  0.00     0.000 C 
BRANCH   8   9
HETATM    9  C   UNL     1     -23.602 -12.149   0.847  1.00  0.00     0.000 C 
BRANCH   9  10
HETATM   10  C   UNL     1     -23.486 -13.436   1.644  1.00  0.00     0.000 C 
BRANCH  10  11
HETATM   11  C   UNL     1     -22.062 -13.960   1.589  1.00  0.00     0.000 C 
BRANCH  11  12
HETATM   12  C   UNL     1     -22.040 -15.427   1.978  1.00  0.00     0.000 C 
BRANCH  12  13
HETATM   13  C   UNL     1     -21.402 -16.243   0.870  1.00  0.00     0.000 C 
BRANCH  13  14
HETATM   14  C   UNL     1     -22.021 -15.877  -0.465  1.00  0.00     0.000 C 
BRANCH  14  15
HETATM   15  C   UNL     1     -23.407 -16.483  -0.575  1.00  0.00     0.000 C 
BRANCH  15  16
HETATM   16  C   UNL     1     -23.817 -16.571  -2.033  1.00  0.00     0.000 C 
BRANCH  16  17
HETATM   17  C   UNL     1     -22.911 -15.693  -2.875  1.00  0.00     0.000 C 
BRANCH  17  18
HETATM   18  C   UNL     1     -23.713 -15.044  -3.986  1.00  0.00     0.000 C 
BRANCH  18  19
HETATM   19  C   UNL     1     -23.164 -15.471  -5.334  1.00  0.00     0.000 C 
BRANCH  19  20
HETATM   20  C   UNL     1     -23.276 -14.326  -6.322  1.00  0.00     0.000 C 
BRANCH  20  21
HETATM   21  C   UNL     1     -22.086 -13.398  -6.173  1.00  0.00     0.000 C 
BRANCH  21  22
HETATM   22  C   UNL     1     -20.797 -14.196  -6.239  1.00  0.00     0.000 C 
BRANCH  22  23
HETATM   23  C   UNL     1     -19.676 -13.422  -5.569  1.00  0.00     0.000 C 
BRANCH  23  24
HETATM   24  C   UNL     1     -18.424 -13.471  -6.428  1.00  0.00    -0.000 C 
BRANCH  24  25
HETATM   25  C   UNL     1     -18.796 -13.475  -7.903  1.00  0.00    -0.005 C 
HETATM   26  C   UNL     1     -17.610 -13.043  -8.741  1.00  0.00     0.005 C 
ENDBRANCH  24  25
ENDBRANCH  23  24
ENDBRANCH  22  23
ENDBRANCH  21  22
ENDBRANCH  20  21
ENDBRANCH  19  20
ENDBRANCH  18  19
ENDBRANCH  17  18
ENDBRANCH  16  17
ENDBRANCH  15  16
ENDBRANCH  14  15
ENDBRANCH  13  14
ENDBRANCH  12  13
ENDBRANCH  11  12
ENDBRANCH  10  11
ENDBRANCH   9  10
ENDBRANCH   8   9
ENDBRANCH   7   8
ENDBRANCH   6   7
ENDBRANCH   4   6
ENDBRANCH   3   4
ENDBRANCH   2   3
ENDBRANCH   1   2
BRANCH   1  27
HETATM   27  C   UNL     1     -20.764  -7.845  -2.710  1.00  0.00     0.195 C 
BRANCH  27  28
HETATM   28  O   UNL     1     -21.923  -7.279  -2.055  1.00  0.00    -0.320 OA
BRANCH  28  29
HETATM   29  C   UNL     1     -22.100  -7.645  -0.750  1.00  0.00     0.258 C 
HETATM   30  O   UNL     1     -23.092  -7.402  -0.072  1.00  0.00    -0.265 OA
BRANCH  29  31
HETATM   31  C   UNL     1     -20.953  -8.506  -0.266  1.00  0.00     0.111 C 
BRANCH  31  32
HETATM   32  C   UNL     1     -21.267  -9.087   1.113  1.00  0.00     0.010 C 
BRANCH  32  33
HETATM   33  C   UNL     1     -20.373 -10.276   1.446  1.00  0.00     0.000 C 
BRANCH  33  34
HETATM   34  C   UNL     1     -20.147 -11.126   0.205  1.00  0.00     0.000 C 
BRANCH  34  35
HETATM   35  C   UNL     1     -18.848 -11.902   0.335  1.00  0.00     0.000 C 
BRANCH  35  36
HETATM   36  C   UNL     1     -18.126 -11.938  -1.000  1.00  0.00     0.000 C 
BRANCH  36  37
HETATM   37  C   UNL     1     -16.674 -11.541  -0.812  1.00  0.00     0.000 C 
BRANCH  37  38
HETATM   38  C   UNL     1     -15.890 -12.708  -0.244  1.00  0.00     0.000 C 
BRANCH  38  39
HETATM   39  C   UNL     1     -15.241 -12.306   1.067  1.00  0.00     0.000 C 
BRANCH  39  40
HETATM   40  C   UNL     1     -15.791 -13.156   2.197  1.00  0.00     0.000 C 
BRANCH  40  41
HETATM   41  C   UNL     1     -15.555 -14.624   1.899  1.00  0.00     0.000 C 
BRANCH  41  42
HETATM   42  C   UNL     1     -16.695 -15.453   2.457  1.00  0.00     0.000 C 
BRANCH  42  43
HETATM   43  C   UNL     1     -17.921 -15.302   1.579  1.00  0.00     0.000 C 
BRANCH  43  44
HETATM   44  C   UNL     1     -17.765 -16.144   0.328  1.00  0.00     0.000 C 
BRANCH  44  45
HETATM   45  C   UNL     1     -18.359 -15.415  -0.862  1.00  0.00     0.000 C 
BRANCH  45  46
HETATM   46  C   UNL     1     -17.801 -15.990  -2.150  1.00  0.00     0.000 C 
BRANCH  46  47
HETATM   47  C   UNL     1     -16.844 -14.999  -2.786  1.00  0.00     0.000 C 
BRANCH  47  48
HETATM   48  C   UNL     1     -15.460 -15.615  -2.895  1.00  0.00     0.000 C 
BRANCH  48  49
HETATM   49  C   UNL     1     -14.401 -14.528  -2.835  1.00  0.00    -0.000 C 
BRANCH  49  50
HETATM   50  C   UNL     1     -13.020 -15.145  -2.678  1.00  0.00    -0.005 C 
HETATM   51  C   UNL     1     -13.061 -16.616  -3.035  1.00  0.00     0.005 C 
ENDBRANCH  49  50
ENDBRANCH  48  49
ENDBRANCH  47  48
ENDBRANCH  46  47
ENDBRANCH  45  46
ENDBRANCH  44  45
ENDBRANCH  43  44
ENDBRANCH  42  43
ENDBRANCH  41  42
ENDBRANCH  40  41
ENDBRANCH  39  40
ENDBRANCH  38  39
ENDBRANCH  37  38
ENDBRANCH  36  37
ENDBRANCH  35  36
ENDBRANCH  34  35
ENDBRANCH  33  34
ENDBRANCH  32  33
ENDBRANCH  31  32
ENDBRANCH  29  31
ENDBRANCH  28  29
ENDBRANCH  27  28
ENDBRANCH   1  27
BRANCH   1  52
HETATM   52  C   UNL     1     -19.710  -8.157  -4.979  1.00  0.00     0.195 C 
BRANCH  52  53
HETATM   53  O   UNL     1     -18.658  -8.980  -4.424  1.00  0.00    -0.320 OA
BRANCH  53  54
HETATM   54  C   UNL     1     -18.044  -9.813  -5.321  1.00  0.00     0.258 C 
HETATM   55  O   UNL     1     -18.289  -9.887  -6.502  1.00  0.00    -0.265 OA
BRANCH  54  56
HETATM   56  C   UNL     1     -16.911 -10.574  -4.644  1.00  0.00     0.111 C 
BRANCH  56  57
HETATM   57  C   UNL     1     -15.589 -10.302  -5.356  1.00  0.00     0.010 C 
BRANCH  57  58
HETATM   58  C   UNL     1     -15.252 -11.396  -6.362  1.00  0.00     0.000 C 
BRANCH  58  59
HETATM   59  C   UNL     1     -14.850 -12.671  -5.637  1.00  0.00     0.000 C 
BRANCH  59  60
HETATM   60  C   UNL     1     -13.614 -13.270  -6.283  1.00  0.00     0.000 C 
BRANCH  60  61
HETATM   61  C   UNL     1     -13.764 -14.776  -6.400  1.00  0.00     0.000 C 
BRANCH  61  62
HETATM   62  C   UNL     1     -15.233 -15.152  -6.372  1.00  0.00     0.000 C 
BRANCH  62  63
HETATM   63  C   UNL     1     -15.427 -16.524  -6.991  1.00  0.00     0.000 C 
BRANCH  63  64
HETATM   64  C   UNL     1     -16.808 -16.619  -7.612  1.00  0.00     0.000 C 
BRANCH  64  65
HETATM   65  C   UNL     1     -16.691 -17.040  -9.065  1.00  0.00     0.000 C 
BRANCH  65  66
HETATM   66  C   UNL     1     -18.071 -17.121  -9.689  1.00  0.00     0.000 C 
BRANCH  66  67
HETATM   67  C   UNL     1     -18.264 -15.974 -10.663  1.00  0.00     0.000 C 
BRANCH  67  68
HETATM   68  C   UNL     1     -17.261 -16.088 -11.795  1.00  0.00     0.000 C 
BRANCH  68  69
HETATM   69  C   UNL     1     -17.900 -16.784 -12.981  1.00  0.00     0.000 C 
BRANCH  69  70
HETATM   70  C   UNL     1     -17.203 -16.367 -14.261  1.00  0.00     0.000 C 
BRANCH  70  71
HETATM   71  C   UNL     1     -18.231 -15.960 -15.299  1.00  0.00     0.000 C 
BRANCH  71  72
HETATM   72  C   UNL     1     -17.807 -14.665 -15.966  1.00  0.00     0.000 C 
BRANCH  72  73
HETATM   73  C   UNL     1     -16.882 -14.963 -17.133  1.00  0.00     0.000 C 
BRANCH  73  74
HETATM   74  C   UNL     1     -15.848 -13.859 -17.271  1.00  0.00    -0.000 C 
BRANCH  74  75
HETATM   75  C   UNL     1     -15.767 -13.390 -18.715  1.00  0.00    -0.005 C 
HETATM   76  C   UNL     1     -16.922 -12.461 -19.028  1.00  0.00     0.005 C 
ENDBRANCH  74  75
ENDBRANCH  73  74
ENDBRANCH  72  73
ENDBRANCH  71  72
ENDBRANCH  70  71
ENDBRANCH  69  70
ENDBRANCH  68  69
ENDBRANCH  67  68
ENDBRANCH  66  67
ENDBRANCH  65  66
ENDBRANCH  64  65
ENDBRANCH  63  64
ENDBRANCH  62  63
ENDBRANCH  61  62
ENDBRANCH  60  61
ENDBRANCH  59  60
ENDBRANCH  58  59
ENDBRANCH  57  58
ENDBRANCH  56  57
ENDBRANCH  54  56
ENDBRANCH  53  54
ENDBRANCH  52  53
ENDBRANCH   1  52
BRANCH   1  77
HETATM   77  C   UNL     1     -22.070  -7.268  -4.783  1.00  0.00     0.195 C 
BRANCH  77  78
HETATM   78  O   UNL     1     -21.671  -6.738  -6.067  1.00  0.00    -0.320 OA
BRANCH  78  79
HETATM   79  C   UNL     1     -21.855  -5.397  -6.252  1.00  0.00     0.258 C 
HETATM   80  O   UNL     1     -22.941  -4.856  -6.406  1.00  0.00    -0.265 OA
BRANCH  79  81
HETATM   81  C   UNL     1     -20.530  -4.662  -6.209  1.00  0.00     0.111 C 
BRANCH  81  82
HETATM   82  C   UNL     1     -20.451  -3.693  -7.390  1.00  0.00     0.010 C 
BRANCH  82  83
HETATM   83  C   UNL     1     -19.814  -4.325  -8.619  1.00  0.00     0.000 C 
BRANCH  83  84
HETATM   84  C   UNL     1     -20.842  -4.456  -9.736  1.00  0.00     0.000 C 
BRANCH  84  85
HETATM   85  C   UNL     1     -20.473  -3.550 -10.898  1.00  0.00     0.000 C 
BRANCH  85  86
HETATM   86  C   UNL     1     -21.724  -3.104 -11.632  1.00  0.00     0.000 C 
BRANCH  86  87
HETATM   87  C   UNL     1     -22.034  -4.069 -12.761  1.00  0.00     0.000 C 
BRANCH  87  88
HETATM   88  C   UNL     1     -23.327  -4.807 -12.471  1.00  0.00     0.000 C 
BRANCH  88  89
HETATM   89  C   UNL     1     -23.479  -5.976 -13.425  1.00  0.00     0.000 C 
BRANCH  89  90
HETATM   90  C   UNL     1     -24.043  -5.492 -14.747  1.00  0.00     0.000 C 
BRANCH  90  91
HETATM   91  C   UNL     1     -24.714  -6.643 -15.474  1.00  0.00     0.000 C 
BRANCH  91  92
HETATM   92  C   UNL     1     -26.030  -6.178 -16.068  1.00  0.00     0.000 C 
BRANCH  92  93
HETATM   93  C   UNL     1     -27.112  -7.201 -15.780  1.00  0.00     0.000 C 
BRANCH  93  94
HETATM   94  C   UNL     1     -28.478  -6.552 -15.901  1.00  0.00     0.000 C 
BRANCH  94  95
HETATM   95  C   UNL     1     -29.303  -7.278 -16.947  1.00  0.00     0.000 C 
BRANCH  95  96
HETATM   96  C   UNL     1     -30.004  -6.273 -17.840  1.00  0.00     0.000 C 
BRANCH  96  97
HETATM   97  C   UNL     1     -31.058  -5.523 -17.046  1.00  0.00     0.000 C 
BRANCH  97  98
HETATM   98  C   UNL     1     -30.971  -4.038 -17.345  1.00  0.00     0.000 C 
BRANCH  98  99
HETATM   99  C   UNL     1     -29.600  -3.700 -17.905  1.00  0.00    -0.000 C 
BRANCH  99 100
HETATM  100  C   UNL     1     -28.981  -2.548 -17.129  1.00  0.00    -0.005 C 
HETATM  101  C   UNL     1     -27.730  -3.013 -16.413  1.00  0.00     0.005 C 
ENDBRANCH  99 100
ENDBRANCH  98  99
ENDBRANCH  97  98
ENDBRANCH  96  97
ENDBRANCH  95  96
ENDBRANCH  94  95
ENDBRANCH  93  94
ENDBRANCH  92  93
ENDBRANCH  91  92
ENDBRANCH  90  91
ENDBRANCH  89  90
ENDBRANCH  88  89
ENDBRANCH  87  88
ENDBRANCH  86  87
ENDBRANCH  85  86
ENDBRANCH  84  85
ENDBRANCH  83  84
ENDBRANCH  82  83
ENDBRANCH  81  82
ENDBRANCH  79  81
ENDBRANCH  78  79
ENDBRANCH  77  78
ENDBRANCH   1  77
TORSDOF 92
BEGIN_RES ARG D 557
REMARK  4 active torsions:
REMARK  status: ('A' for Active; 'I' for Inactive)
REMARK    1  A    between atoms: CA   and  CB  
REMARK    2  A    between atoms: CB   and  CG  
REMARK    3  A    between atoms: CG   and  CD  
REMARK    4  A    between atoms: CD   and  NE  
REMARK       I    between atoms: NE   and  CZ  
REMARK       I    between atoms: CZ   and  NH1 
REMARK       I    between atoms: CZ   and  NH2 
ROOT
ATOM      1  CA  ARG D 557     -26.217   2.705 -17.014  1.00 35.49     0.159 C 
ENDROOT
BRANCH   1   2
ATOM      2  CB  ARG D 557     -26.789   1.319 -17.183  1.00 35.49     0.034 C 
BRANCH   2   3
ATOM      3  CG  ARG D 557     -25.903   0.195 -16.858  1.00 35.49     0.027 C 
BRANCH   3   4
ATOM      4  CD  ARG D 557     -24.965   0.515 -15.757  1.00 35.49     0.116 C 
BRANCH   4   5
ATOM      5  NE  ARG D 557     -23.851  -0.395 -15.712  1.00 35.49    -0.212 N 
ATOM      6  CZ  ARG D 557     -23.753  -1.451 -14.937  1.00 35.49     0.666 C 
ATOM      7  NH1 ARG D 557     -24.696  -1.790 -14.077  1.00 35.49    -0.235 N 
ATOM      8  NH2 ARG D 557     -22.678  -2.177 -15.044  1.00 35.49    -0.235 N 
ATOM      9  HH  ARG D 557     -25.413  -1.328 -13.992  1.00 35.49     0.174 HD
ATOM     10  HH  ARG D 557     -24.579  -2.492 -13.600  1.00 35.49     0.174 HD
ATOM     11  HH  ARG D 557     -22.089  -1.938 -15.613  1.00 35.49     0.174 HD
ATOM     12  HH  ARG D 557     -22.581  -2.868 -14.563  1.00 35.49     0.174 HD
ATOM     13  HE  ARG D 557     -23.166  -0.211 -16.181  1.00 35.49     0.178 HD
ENDBRANCH   4   5
ENDBRANCH   3   4
ENDBRANCH   2   3
ENDBRANCH   1   2
END_RES ARG D 557
BEGIN_RES GLU D 570
REMARK  3 active torsions:
REMARK  status: ('A' for Active; 'I' for Inactive)
REMARK    5  A    between atoms: CA   and  CB  
REMARK    6  A    between atoms: CB   and  CG  
REMARK    7  A    between atoms: CG   and  CD  
ROOT
ATOM     14  CA  GLU D 570     -18.033  -6.348 -13.375  1.00 32.92     0.160 C 
ENDROOT
BRANCH  14  15
ATOM     15  CB  GLU D 570     -19.500  -6.345 -13.794  1.00 32.92     0.043 C 
BRANCH  15  16
ATOM     16  CG  GLU D 570     -20.053  -7.603 -14.360  1.00 32.92     0.100 C 
BRANCH  16  17
ATOM     17  CD  GLU D 570     -20.818  -7.385 -15.644  1.00 32.92     0.185 C 
ATOM     18  OE1 GLU D 570     -21.624  -8.256 -16.024  1.00 32.92    -0.647 OA
ATOM     19  OE2 GLU D 570     -20.597  -6.339 -16.286  1.00 32.92    -0.647 OA
ENDBRANCH  16  17
ENDBRANCH  15  16
ENDBRANCH  14  15
END_RES GLU D 570
ENDMDL
MODEL 2
REMARK VINA RESULT:      -5.6      2.409      3.644
REMARK WARNING: 32 MAX_TORS EXCEEDED!!!
REMARK  92 active torsions:
REMARK  status: ('A' for Active; 'I' for Inactive)
REMARK    1  A    between atoms: C_2  and  C_3 
REMARK    2  A    between atoms: C_3  and  C_4 
REMARK    3  A    between atoms: C_4  and  C_5 
REMARK    4  A    between atoms: C_5  and  C_6 
REMARK    5  A    between atoms: C_6  and  C_7 
REMARK    6  A    between atoms: C_7  and  C_8 
REMARK    7  A    between atoms: C_8  and  C_9 
REMARK    8  A    between atoms: C_9  and  C_10 
REMARK    9  A    between atoms: C_10  and  C_11 
REMARK   10  A    between atoms: C_11  and  C_12 
REMARK   11  A    between atoms: C_12  and  C_13 
REMARK   12  A    between atoms: C_13  and  C_14 
REMARK   13  A    between atoms: C_14  and  C_15 
REMARK   14  A    between atoms: C_15  and  C_16 
REMARK   15  A    between atoms: C_16  and  C_17 
REMARK   16  A    between atoms: C_17  and  C_18 
REMARK   17  A    between atoms: C_18  and  C_19 
REMARK   18  A    between atoms: C_19  and  C_20 
REMARK   19  A    between atoms: C_20  and  C_21 
REMARK   20  A    between atoms: C_21  and  C_22 
REMARK   21  A    between atoms: C_22  and  O_24 
REMARK   22  A    between atoms: O_24  and  C_25 
REMARK   23  A    between atoms: C_25  and  C_26 
REMARK   24  A    between atoms: C_26  and  C_27 
REMARK   25  A    between atoms: C_26  and  C_52 
REMARK   26  A    between atoms: C_26  and  C_77 
REMARK   27  A    between atoms: C_27  and  O_28 
REMARK   28  A    between atoms: O_28  and  C_29 
REMARK   29  A    between atoms: C_29  and  C_31 
REMARK   30  A    between atoms: C_31  and  C_32 
REMARK   31  A    between atoms: C_32  and  C_33 
REMARK   32  A    between atoms: C_33  and  C_34 
REMARK   33  A    between atoms: C_34  and  C_35 
REMARK   34  A    between atoms: C_35  and  C_36 
REMARK   35  A    between atoms: C_36  and  C_37 
REMARK   36  A    between atoms: C_37  and  C_38 
REMARK   37  A    between atoms: C_38  and  C_39 
REMARK   38  A    between atoms: C_39  and  C_40 
REMARK   39  A    between atoms: C_40  and  C_41 
REMARK   40  A    between atoms: C_41  and  C_42 
REMARK   41  A    between atoms: C_42  and  C_43 
REMARK   42  A    between atoms: C_43  and  C_44 
REMARK   43  A    between atoms: C_44  and  C_45 
REMARK   44  A    between atoms: C_45  and  C_46 
REMARK   45  A    between atoms: C_46  and  C_47 
REMARK   46  A    between atoms: C_47  and  C_48 
REMARK   47  A    between atoms: C_48  and  C_49 
REMARK   48  A    between atoms: C_49  and  C_50 
REMARK   49  A    between atoms: C_52  and  O_53 
REMARK   50  A    between atoms: O_53  and  C_54 
REMARK   51  A    between atoms: C_54  and  C_56 
REMARK   52  A    between atoms: C_56  and  C_57 
REMARK   53  A    between atoms: C_57  and  C_58 
REMARK   54  A    between atoms: C_58  and  C_59 
REMARK   55  A    between atoms: C_59  and  C_60 
REMARK   56  A    between atoms: C_60  and  C_61 
REMARK   57  A    between atoms: C_61  and  C_62 
REMARK   58  A    between atoms: C_62  and  C_63 
REMARK   59  A    between atoms: C_63  and  C_64 
REMARK   60  A    between atoms: C_64  and  C_65 
REMARK   61  A    between atoms: C_65  and  C_66 
REMARK   62  A    between atoms: C_66  and  C_67 
REMARK   63  A    between atoms: C_67  and  C_68 
REMARK   64  A    between atoms: C_68  and  C_69 
REMARK   65  A    between atoms: C_69  and  C_70 
REMARK   66  A    between atoms: C_70  and  C_71 
REMARK   67  A    between atoms: C_71  and  C_72 
REMARK   68  A    between atoms: C_72  and  C_73 
REMARK   69  A    between atoms: C_73  and  C_74 
REMARK   70  A    between atoms: C_74  and  C_75 
REMARK   71  A    between atoms: C_77  and  O_78 
REMARK   72  A    between atoms: O_78  and  C_79 
REMARK   73  A    between atoms: C_79  and  C_81 
REMARK   74  A    between atoms: C_81  and  C_82 
REMARK   75  A    between atoms: C_82  and  C_83 
REMARK   76  A    between atoms: C_83  and  C_84 
REMARK   77  A    between atoms: C_84  and  C_85 
REMARK   78  A    between atoms: C_85  and  C_86 
REMARK   79  A    between atoms: C_86  and  C_87 
REMARK   80  A    between atoms: C_87  and  C_88 
REMARK   81  A    between atoms: C_88  and  C_89 
REMARK   82  A    between atoms: C_89  and  C_90 
REMARK   83  A    between atoms: C_90  and  C_91 
REMARK   84  A    between atoms: C_91  and  C_92 
REMARK   85  A    between atoms: C_92  and  C_93 
REMARK   86  A    between atoms: C_93  and  C_94 
REMARK   87  A    between atoms: C_94  and  C_95 
REMARK   88  A    between atoms: C_95  and  C_96 
REMARK   89  A    between atoms: C_96  and  C_97 
REMARK   90  A    between atoms: C_97  and  C_98 
REMARK   91  A    between atoms: C_98  and  C_99 
REMARK   92  A    between atoms: C_99  and  C_100 
ROOT
HETATM    1  C   UNL     1     -20.820  -8.262  -4.483  1.00  0.00     0.048 C 
ENDROOT
BRANCH   1   2
HETATM    2  C   UNL     1     -21.511  -9.646  -4.477  1.00  0.00     0.195 C 
BRANCH   2   3
HETATM    3  O   UNL     1     -20.980 -10.504  -3.439  1.00  0.00    -0.320 OA
BRANCH   3   4
HETATM    4  C   UNL     1     -21.748 -11.597  -3.126  1.00  0.00     0.258 C 
HETATM    5  O   UNL     1     -21.329 -12.729  -2.977  1.00  0.00    -0.265 OA
BRANCH   4   6
HETATM    6  C   UNL     1     -23.210 -11.210  -2.945  1.00  0.00     0.111 C 
BRANCH   6   7
HETATM    7  C   UNL     1     -23.493 -10.999  -1.464  1.00  0.00     0.010 C 
BRANCH   7   8
HETATM    8  C   UNL     1     -23.835 -12.301  -0.753  1.00  0.00     0.000 C 
BRANCH   8   9
HETATM    9  C   UNL     1     -23.621 -12.141   0.746  1.00  0.00     0.000 C 
BRANCH   9  10
HETATM   10  C   UNL     1     -23.234 -13.471   1.367  1.00  0.00     0.000 C 
BRANCH  10  11
HETATM   11  C   UNL     1     -22.188 -14.165   0.513  1.00  0.00     0.000 C 
BRANCH  11  12
HETATM   12  C   UNL     1     -21.341 -15.079   1.379  1.00  0.00     0.000 C 
BRANCH  12  13
HETATM   13  C   UNL     1     -20.245 -15.711   0.542  1.00  0.00     0.000 C 
BRANCH  13  14
HETATM   14  C   UNL     1     -20.474 -15.404  -0.925  1.00  0.00     0.000 C 
BRANCH  14  15
HETATM   15  C   UNL     1     -19.669 -16.360  -1.784  1.00  0.00     0.000 C 
BRANCH  15  16
HETATM   16  C   UNL     1     -18.271 -15.809  -1.996  1.00  0.00     0.000 C 
BRANCH  16  17
HETATM   17  C   UNL     1     -18.338 -14.544  -2.829  1.00  0.00     0.000 C 
BRANCH  17  18
HETATM   18  C   UNL     1     -17.186 -14.515  -3.814  1.00  0.00     0.000 C 
BRANCH  18  19
HETATM   19  C   UNL     1     -17.712 -14.276  -5.215  1.00  0.00     0.000 C 
BRANCH  19  20
HETATM   20  C   UNL     1     -19.225 -14.175  -5.188  1.00  0.00     0.000 C 
BRANCH  20  21
HETATM   21  C   UNL     1     -19.753 -13.947  -6.591  1.00  0.00     0.000 C 
BRANCH  21  22
HETATM   22  C   UNL     1     -21.164 -14.493  -6.707  1.00  0.00     0.000 C 
BRANCH  22  23
HETATM   23  C   UNL     1     -22.167 -13.406  -6.363  1.00  0.00     0.000 C 
BRANCH  23  24
HETATM   24  C   UNL     1     -23.372 -14.013  -5.666  1.00  0.00    -0.000 C 
BRANCH  24  25
HETATM   25  C   UNL     1     -23.890 -15.209  -6.451  1.00  0.00    -0.005 C 
HETATM   26  C   UNL     1     -25.255 -15.618  -5.938  1.00  0.00     0.005 C 
ENDBRANCH  24  25
ENDBRANCH  23  24
ENDBRANCH  22  23
ENDBRANCH  21  22
ENDBRANCH  20  21
ENDBRANCH  19  20
ENDBRANCH  18  19
ENDBRANCH  17  18
ENDBRANCH  16  17
ENDBRANCH  15  16
ENDBRANCH  14  15
ENDBRANCH  13  14
ENDBRANCH  12  13
ENDBRANCH  11  12
ENDBRANCH  10  11
ENDBRANCH   9  10
ENDBRANCH   8   9
ENDBRANCH   7   8
ENDBRANCH   6   7
ENDBRANCH   4   6
ENDBRANCH   3   4
ENDBRANCH   2   3
ENDBRANCH   1   2
BRANCH   1  27
HETATM   27  C   UNL     1     -20.615  -7.786  -3.028  1.00  0.00     0.195 C 
BRANCH  27  28
HETATM   28  O   UNL     1     -21.819  -7.248  -2.432  1.00  0.00    -0.320 OA
BRANCH  28  29
HETATM   29  C   UNL     1     -21.988  -7.513  -1.102  1.00  0.00     0.258 C 
HETATM   30  O   UNL     1     -22.924  -7.123  -0.413  1.00  0.00    -0.265 OA
BRANCH  29  31
HETATM   31  C   UNL     1     -20.925  -8.465  -0.597  1.00  0.00     0.111 C 
BRANCH  31  32
HETATM   32  C   UNL     1     -21.282  -8.972   0.800  1.00  0.00     0.010 C 
BRANCH  32  33
HETATM   33  C   UNL     1     -20.613 -10.306   1.109  1.00  0.00     0.000 C 
BRANCH  33  34
HETATM   34  C   UNL     1     -19.948 -10.861  -0.140  1.00  0.00     0.000 C 
BRANCH  34  35
HETATM   35  C   UNL     1     -19.223 -12.155   0.186  1.00  0.00     0.000 C 
BRANCH  35  36
HETATM   36  C   UNL     1     -17.779 -12.074  -0.277  1.00  0.00     0.000 C 
BRANCH  36  37
HETATM   37  C   UNL     1     -16.857 -12.564   0.824  1.00  0.00     0.000 C 
BRANCH  37  38
HETATM   38  C   UNL     1     -17.103 -14.037   1.086  1.00  0.00     0.000 C 
BRANCH  38  39
HETATM   39  C   UNL     1     -15.842 -14.683   1.629  1.00  0.00     0.000 C 
BRANCH  39  40
HETATM   40  C   UNL     1     -15.528 -14.126   3.005  1.00  0.00     0.000 C 
BRANCH  40  41
HETATM   41  C   UNL     1     -14.826 -15.179   3.839  1.00  0.00     0.000 C 
BRANCH  41  42
HETATM   42  C   UNL     1     -15.109 -14.945   5.310  1.00  0.00     0.000 C 
BRANCH  42  43
HETATM   43  C   UNL     1     -14.160 -15.771   6.156  1.00  0.00     0.000 C 
BRANCH  43  44
HETATM   44  C   UNL     1     -12.741 -15.608   5.644  1.00  0.00     0.000 C 
BRANCH  44  45
HETATM   45  C   UNL     1     -11.765 -15.674   6.804  1.00  0.00     0.000 C 
BRANCH  45  46
HETATM   46  C   UNL     1     -10.670 -14.643   6.614  1.00  0.00     0.000 C 
BRANCH  46  47
HETATM   47  C   UNL     1      -9.556 -15.224   5.762  1.00  0.00     0.000 C 
BRANCH  47  48
HETATM   48  C   UNL     1      -8.633 -14.115   5.290  1.00  0.00     0.000 C 
BRANCH  48  49
HETATM   49  C   UNL     1      -8.208 -14.367   3.855  1.00  0.00    -0.000 C 
BRANCH  49  50
HETATM   50  C   UNL     1      -9.341 -14.025   2.900  1.00  0.00    -0.005 C 
HETATM   51  C   UNL     1      -8.824 -13.960   1.477  1.00  0.00     0.005 C 
ENDBRANCH  49  50
ENDBRANCH  48  49
ENDBRANCH  47  48
ENDBRANCH  46  47
ENDBRANCH  45  46
ENDBRANCH  44  45
ENDBRANCH  43  44
ENDBRANCH  42  43
ENDBRANCH  41  42
ENDBRANCH  40  41
ENDBRANCH  39  40
ENDBRANCH  38  39
ENDBRANCH  37  38
ENDBRANCH  36  37
ENDBRANCH  35  36
ENDBRANCH  34  35
ENDBRANCH  33  34
ENDBRANCH  32  33
ENDBRANCH  31  32
ENDBRANCH  29  31
ENDBRANCH  28  29
ENDBRANCH  27  28
ENDBRANCH   1  27
BRANCH   1  52
HETATM   52  C   UNL     1     -19.437  -8.369  -5.179  1.00  0.00     0.195 C 
BRANCH  52  53
HETATM   53  O   UNL     1     -18.568  -9.342  -4.555  1.00  0.00    -0.320 OA
BRANCH  53  54
HETATM   54  C   UNL     1     -18.060 -10.291  -5.402  1.00  0.00     0.258 C 
HETATM   55  O   UNL     1     -18.558 -10.649  -6.443  1.00  0.00    -0.265 OA
BRANCH  54  56
HETATM   56  C   UNL     1     -16.700 -10.768  -4.907  1.00  0.00     0.111 C 
BRANCH  56  57
HETATM   57  C   UNL     1     -15.638 -10.543  -5.978  1.00  0.00     0.010 C 
BRANCH  57  58
HETATM   58  C   UNL     1     -15.266 -11.839  -6.689  1.00  0.00     0.000 C 
BRANCH  58  59
HETATM   59  C   UNL     1     -14.474 -12.741  -5.757  1.00  0.00     0.000 C 
BRANCH  59  60
HETATM   60  C   UNL     1     -13.175 -13.162  -6.419  1.00  0.00     0.000 C 
BRANCH  60  61
HETATM   61  C   UNL     1     -13.003 -14.667  -6.321  1.00  0.00     0.000 C 
BRANCH  61  62
HETATM   62  C   UNL     1     -14.348 -15.326  -6.088  1.00  0.00     0.000 C 
BRANCH  62  63
HETATM   63  C   UNL     1     -14.493 -16.538  -6.990  1.00  0.00     0.000 C 
BRANCH  63  64
HETATM   64  C   UNL     1     -15.933 -17.017  -6.983  1.00  0.00     0.000 C 
BRANCH  64  65
HETATM   65  C   UNL     1     -16.480 -17.023  -8.398  1.00  0.00     0.000 C 
BRANCH  65  66
HETATM   66  C   UNL     1     -17.827 -16.328  -8.432  1.00  0.00     0.000 C 
BRANCH  66  67
HETATM   67  C   UNL     1     -18.149 -15.899  -9.851  1.00  0.00     0.000 C 
BRANCH  67  68
HETATM   68  C   UNL     1     -17.386 -16.763 -10.836  1.00  0.00     0.000 C 
BRANCH  68  69
HETATM   69  C   UNL     1     -18.117 -16.798 -12.164  1.00  0.00     0.000 C 
BRANCH  69  70
HETATM   70  C   UNL     1     -17.138 -16.560 -13.297  1.00  0.00     0.000 C 
BRANCH  70  71
HETATM   71  C   UNL     1     -17.724 -15.567 -14.284  1.00  0.00     0.000 C 
BRANCH  71  72
HETATM   72  C   UNL     1     -18.007 -16.259 -15.605  1.00  0.00     0.000 C 
BRANCH  72  73
HETATM   73  C   UNL     1     -16.831 -16.073 -16.547  1.00  0.00     0.000 C 
BRANCH  73  74
HETATM   74  C   UNL     1     -16.108 -14.777 -16.225  1.00  0.00    -0.000 C 
BRANCH  74  75
HETATM   75  C   UNL     1     -15.656 -14.093 -17.506  1.00  0.00    -0.005 C 
HETATM   76  C   UNL     1     -16.780 -13.250 -18.073  1.00  0.00     0.005 C 
ENDBRANCH  74  75
ENDBRANCH  73  74
ENDBRANCH  72  73
ENDBRANCH  71  72
ENDBRANCH  70  71
ENDBRANCH  69  70
ENDBRANCH  68  69
ENDBRANCH  67  68
ENDBRANCH  66  67
ENDBRANCH  65  66
ENDBRANCH  64  65
ENDBRANCH  63  64
ENDBRANCH  62  63
ENDBRANCH  61  62
ENDBRANCH  60  61
ENDBRANCH  59  60
ENDBRANCH  58  59
ENDBRANCH  57  58
ENDBRANCH  56  57
ENDBRANCH  54  56
ENDBRANCH  53  54
ENDBRANCH  52  53
ENDBRANCH   1  52
BRANCH   1  77
HETATM   77  C   UNL     1     -21.690  -7.219  -5.232  1.00  0.00     0.195 C 
BRANCH  77  78
HETATM   78  O   UNL     1     -21.276  -7.007  -6.600  1.00  0.00    -0.320 OA
BRANCH  78  79
HETATM   79  C   UNL     1     -21.291  -5.716  -7.045  1.00  0.00     0.258 C 
HETATM   80  O   UNL     1     -22.166  -4.900  -6.789  1.00  0.00    -0.265 OA
BRANCH  79  81
HETATM   81  C   UNL     1     -20.057  -5.417  -7.874  1.00  0.00     0.111 C 
BRANCH  81  82
HETATM   82  C   UNL     1     -20.267  -4.110  -8.639  1.00  0.00     0.010 C 
BRANCH  82  83
HETATM   83  C   UNL     1     -20.563  -4.342 -10.114  1.00  0.00     0.000 C 
BRANCH  83  84
HETATM   84  C   UNL     1     -21.957  -3.830 -10.458  1.00  0.00     0.000 C 
BRANCH  84  85
HETATM   85  C   UNL     1     -21.987  -3.305 -11.883  1.00  0.00     0.000 C 
BRANCH  85  86
HETATM   86  C   UNL     1     -23.421  -3.125 -12.345  1.00  0.00     0.000 C 
BRANCH  86  87
HETATM   87  C   UNL     1     -23.669  -3.944 -13.598  1.00  0.00     0.000 C 
BRANCH  87  88
HETATM   88  C   UNL     1     -23.430  -5.414 -13.310  1.00  0.00     0.000 C 
BRANCH  88  89
HETATM   89  C   UNL     1     -23.867  -6.250 -14.497  1.00  0.00     0.000 C 
BRANCH  89  90
HETATM   90  C   UNL     1     -25.023  -5.573 -15.207  1.00  0.00     0.000 C 
BRANCH  90  91
HETATM   91  C   UNL     1     -25.922  -6.618 -15.842  1.00  0.00     0.000 C 
BRANCH  91  92
HETATM   92  C   UNL     1     -27.356  -6.401 -15.400  1.00  0.00     0.000 C 
BRANCH  92  93
HETATM   93  C   UNL     1     -28.284  -7.275 -16.222  1.00  0.00     0.000 C 
BRANCH  93  94
HETATM   94  C   UNL     1     -29.321  -6.412 -16.916  1.00  0.00     0.000 C 
BRANCH  94  95
HETATM   95  C   UNL     1     -29.192  -6.561 -18.420  1.00  0.00     0.000 C 
BRANCH  95  96
HETATM   96  C   UNL     1     -27.903  -5.918 -18.893  1.00  0.00     0.000 C 
BRANCH  96  97
HETATM   97  C   UNL     1     -27.205  -6.830 -19.886  1.00  0.00     0.000 C 
BRANCH  97  98
HETATM   98  C   UNL     1     -26.058  -6.089 -20.550  1.00  0.00     0.000 C 
BRANCH  98  99
HETATM   99  C   UNL     1     -25.152  -7.072 -21.268  1.00  0.00    -0.000 C 
BRANCH  99 100
HETATM  100  C   UNL     1     -24.322  -7.858 -20.263  1.00  0.00    -0.005 C 
HETATM  101  C   UNL     1     -24.129  -7.047 -18.999  1.00  0.00     0.005 C 
ENDBRANCH  99 100
ENDBRANCH  98  99
ENDBRANCH  97  98
ENDBRANCH  96  97
ENDBRANCH  95  96
ENDBRANCH  94  95
ENDBRANCH  93  94
ENDBRANCH  92  93
ENDBRANCH  91  92
ENDBRANCH  90  91
ENDBRANCH  89  90
ENDBRANCH  88  89
ENDBRANCH  87  88
ENDBRANCH  86  87
ENDBRANCH  85  86
ENDBRANCH  84  85
ENDBRANCH  83  84
ENDBRANCH  82  83
ENDBRANCH  81  82
ENDBRANCH  79  81
ENDBRANCH  78  79
ENDBRANCH  77  78
ENDBRANCH   1  77
TORSDOF 92
BEGIN_RES ARG D 557
REMARK  4 active torsions:
REMARK  status: ('A' for Active; 'I' for Inactive)
REMARK    1  A    between atoms: CA   and  CB  
REMARK    2  A    between atoms: CB   and  CG  
REMARK    3  A    between atoms: CG   and  CD  
REMARK    4  A    between atoms: CD   and  NE  
REMARK       I    between atoms: NE   and  CZ  
REMARK       I    between atoms: CZ   and  NH1 
REMARK       I    between atoms: CZ   and  NH2 
ROOT
ATOM      1  CA  ARG D 557     -26.217   2.705 -17.014  1.00 35.49     0.159 C 
ENDROOT
BRANCH   1   2
ATOM      2  CB  ARG D 557     -26.789   1.319 -17.183  1.00 35.49     0.034 C 
BRANCH   2   3
ATOM      3  CG  ARG D 557     -28.226   1.228 -17.470  1.00 35.49     0.027 C 
BRANCH   3   4
ATOM      4  CD  ARG D 557     -28.916   0.255 -16.592  1.00 35.49     0.116 C 
BRANCH   4   5
ATOM      5  NE  ARG D 557     -28.052  -0.826 -16.196  1.00 35.49    -0.212 N 
ATOM      6  CZ  ARG D 557     -28.149  -2.074 -16.598  1.00 35.49     0.666 C 
ATOM      7  NH1 ARG D 557     -29.094  -2.481 -17.426  1.00 35.49    -0.235 N 
ATOM      8  NH2 ARG D 557     -27.265  -2.918 -16.153  1.00 35.49    -0.235 N 
ATOM      9  HH  ARG D 557     -29.685  -1.941 -17.733  1.00 35.49     0.174 HD
ATOM     10  HH  ARG D 557     -29.106  -3.306 -17.655  1.00 35.49     0.174 HD
ATOM     11  HH  ARG D 557     -26.662  -2.626 -15.625  1.00 35.49     0.174 HD
ATOM     12  HH  ARG D 557     -27.293  -3.731 -16.393  1.00 35.49     0.174 HD
ATOM     13  HE  ARG D 557     -27.459  -0.668 -15.607  1.00 35.49     0.178 HD
ENDBRANCH   4   5
ENDBRANCH   3   4
ENDBRANCH   2   3
ENDBRANCH   1   2
END_RES ARG D 557
BEGIN_RES GLU D 570
REMARK  3 active torsions:
REMARK  status: ('A' for Active; 'I' for Inactive)
REMARK    5  A    between atoms: CA   and  CB  
REMARK    6  A    between atoms: CB   and  CG  
REMARK    7  A    between atoms: CG   and  CD  
ROOT
ATOM     14  CA  GLU D 570     -18.033  -6.348 -13.375  1.00 32.92     0.160 C 
ENDROOT
BRANCH  14  15
ATOM     15  CB  GLU D 570     -19.500  -6.345 -13.794  1.00 32.92     0.043 C 
BRANCH  15  16
ATOM     16  CG  GLU D 570     -19.797  -6.249 -15.247  1.00 32.92     0.100 C 
BRANCH  16  17
ATOM     17  CD  GLU D 570     -20.652  -7.389 -15.750  1.00 32.92     0.185 C 
ATOM     18  OE1 GLU D 570     -20.470  -8.532 -15.287  1.00 32.92    -0.647 OA
ATOM     19  OE2 GLU D 570     -21.500  -7.140 -16.628  1.00 32.92    -0.647 OA
ENDBRANCH  16  17
ENDBRANCH  15  16
ENDBRANCH  14  15
END_RES GLU D 570
ENDMDL
MODEL 3
REMARK VINA RESULT:      -5.5      1.762      3.292
REMARK WARNING: 32 MAX_TORS EXCEEDED!!!
REMARK  92 active torsions:
REMARK  status: ('A' for Active; 'I' for Inactive)
REMARK    1  A    between atoms: C_2  and  C_3 
REMARK    2  A    between atoms: C_3  and  C_4 
REMARK    3  A    between atoms: C_4  and  C_5 
REMARK    4  A    between atoms: C_5  and  C_6 
REMARK    5  A    between atoms: C_6  and  C_7 
REMARK    6  A    between atoms: C_7  and  C_8 
REMARK    7  A    between atoms: C_8  and  C_9 
REMARK    8  A    between atoms: C_9  and  C_10 
REMARK    9  A    between atoms: C_10  and  C_11 
REMARK   10  A    between atoms: C_11  and  C_12 
REMARK   11  A    between atoms: C_12  and  C_13 
REMARK   12  A    between atoms: C_13  and  C_14 
REMARK   13  A    between atoms: C_14  and  C_15 
REMARK   14  A    between atoms: C_15  and  C_16 
REMARK   15  A    between atoms: C_16  and  C_17 
REMARK   16  A    between atoms: C_17  and  C_18 
REMARK   17  A    between atoms: C_18  and  C_19 
REMARK   18  A    between atoms: C_19  and  C_20 
REMARK   19  A    between atoms: C_20  and  C_21 
REMARK   20  A    between atoms: C_21  and  C_22 
REMARK   21  A    between atoms: C_22  and  O_24 
REMARK   22  A    between atoms: O_24  and  C_25 
REMARK   23  A    between atoms: C_25  and  C_26 
REMARK   24  A    between atoms: C_26  and  C_27 
REMARK   25  A    between atoms: C_26  and  C_52 
REMARK   26  A    between atoms: C_26  and  C_77 
REMARK   27  A    between atoms: C_27  and  O_28 
REMARK   28  A    between atoms: O_28  and  C_29 
REMARK   29  A    between atoms: C_29  and  C_31 
REMARK   30  A    between atoms: C_31  and  C_32 
REMARK   31  A    between atoms: C_32  and  C_33 
REMARK   32  A    between atoms: C_33  and  C_34 
REMARK   33  A    between atoms: C_34  and  C_35 
REMARK   34  A    between atoms: C_35  and  C_36 
REMARK   35  A    between atoms: C_36  and  C_37 
REMARK   36  A    between atoms: C_37  and  C_38 
REMARK   37  A    between atoms: C_38  and  C_39 
REMARK   38  A    between atoms: C_39  and  C_40 
REMARK   39  A    between atoms: C_40  and  C_41 
REMARK   40  A    between atoms: C_41  and  C_42 
REMARK   41  A    between atoms: C_42  and  C_43 
REMARK   42  A    between atoms: C_43  and  C_44 
REMARK   43  A    between atoms: C_44  and  C_45 
REMARK   44  A    between atoms: C_45  and  C_46 
REMARK   45  A    between atoms: C_46  and  C_47 
REMARK   46  A    between atoms: C_47  and  C_48 
REMARK   47  A    between atoms: C_48  and  C_49 
REMARK   48  A    between atoms: C_49  and  C_50 
REMARK   49  A    between atoms: C_52  and  O_53 
REMARK   50  A    between atoms: O_53  and  C_54 
REMARK   51  A    between atoms: C_54  and  C_56 
REMARK   52  A    between atoms: C_56  and  C_57 
REMARK   53  A    between atoms: C_57  and  C_58 
REMARK   54  A    between atoms: C_58  and  C_59 
REMARK   55  A    between atoms: C_59  and  C_60 
REMARK   56  A    between atoms: C_60  and  C_61 
REMARK   57  A    between atoms: C_61  and  C_62 
REMARK   58  A    between atoms: C_62  and  C_63 
REMARK   59  A    between atoms: C_63  and  C_64 
REMARK   60  A    between atoms: C_64  and  C_65 
REMARK   61  A    between atoms: C_65  and  C_66 
REMARK   62  A    between atoms: C_66  and  C_67 
REMARK   63  A    between atoms: C_67  and  C_68 
REMARK   64  A    between atoms: C_68  and  C_69 
REMARK   65  A    between atoms: C_69  and  C_70 
REMARK   66  A    between atoms: C_70  and  C_71 
REMARK   67  A    between atoms: C_71  and  C_72 
REMARK   68  A    between atoms: C_72  and  C_73 
REMARK   69  A    between atoms: C_73  and  C_74 
REMARK   70  A    between atoms: C_74  and  C_75 
REMARK   71  A    between atoms: C_77  and  O_78 
REMARK   72  A    between atoms: O_78  and  C_79 
REMARK   73  A    between atoms: C_79  and  C_81 
REMARK   74  A    between atoms: C_81  and  C_82 
REMARK   75  A    between atoms: C_82  and  C_83 
REMARK   76  A    between atoms: C_83  and  C_84 
REMARK   77  A    between atoms: C_84  and  C_85 
REMARK   78  A    between atoms: C_85  and  C_86 
REMARK   79  A    between atoms: C_86  and  C_87 
REMARK   80  A    between atoms: C_87  and  C_88 
REMARK   81  A    between atoms: C_88  and  C_89 
REMARK   82  A    between atoms: C_89  and  C_90 
REMARK   83  A    between atoms: C_90  and  C_91 
REMARK   84  A    between atoms: C_91  and  C_92 
REMARK   85  A    between atoms: C_92  and  C_93 
REMARK   86  A    between atoms: C_93  and  C_94 
REMARK   87  A    between atoms: C_94  and  C_95 
REMARK   88  A    between atoms: C_95  and  C_96 
REMARK   89  A    between atoms: C_96  and  C_97 
REMARK   90  A    between atoms: C_97  and  C_98 
REMARK   91  A    between atoms: C_98  and  C_99 
REMARK   92  A    between atoms: C_99  and  C_100 
ROOT
HETATM    1  C   UNL     1     -20.705  -8.401  -4.779  1.00  0.00     0.048 C 
ENDROOT
BRANCH   1   2
HETATM    2  C   UNL     1     -21.304  -9.822  -4.896  1.00  0.00     0.195 C 
BRANCH   2   3
HETATM    3  O   UNL     1     -21.404 -10.468  -3.605  1.00  0.00    -0.320 OA
BRANCH   3   4
HETATM    4  C   UNL     1     -21.814 -11.778  -3.630  1.00  0.00     0.258 C 
HETATM    5  O   UNL     1     -21.124 -12.721  -3.968  1.00  0.00    -0.265 OA
BRANCH   4   6
HETATM    6  C   UNL     1     -23.248 -11.916  -3.137  1.00  0.00     0.111 C 
BRANCH   6   7
HETATM    7  C   UNL     1     -23.316 -11.507  -1.672  1.00  0.00     0.010 C 
BRANCH   7   8
HETATM    8  C   UNL     1     -23.839 -12.629  -0.785  1.00  0.00     0.000 C 
BRANCH   8   9
HETATM    9  C   UNL     1     -23.634 -12.265   0.680  1.00  0.00     0.000 C 
BRANCH   9  10
HETATM   10  C   UNL     1     -22.968 -13.412   1.418  1.00  0.00     0.000 C 
BRANCH  10  11
HETATM   11  C   UNL     1     -22.535 -14.487   0.437  1.00  0.00     0.000 C 
BRANCH  11  12
HETATM   12  C   UNL     1     -21.319 -15.216   0.976  1.00  0.00     0.000 C 
BRANCH  12  13
HETATM   13  C   UNL     1     -20.327 -15.462  -0.145  1.00  0.00     0.000 C 
BRANCH  13  14
HETATM   14  C   UNL     1     -20.995 -15.228  -1.486  1.00  0.00     0.000 C 
BRANCH  14  15
HETATM   15  C   UNL     1     -20.171 -15.861  -2.591  1.00  0.00     0.000 C 
BRANCH  15  16
HETATM   16  C   UNL     1     -18.700 -15.558  -2.375  1.00  0.00     0.000 C 
BRANCH  16  17
HETATM   17  C   UNL     1     -18.321 -14.293  -3.121  1.00  0.00     0.000 C 
BRANCH  17  18
HETATM   18  C   UNL     1     -17.320 -14.621  -4.212  1.00  0.00     0.000 C 
BRANCH  18  19
HETATM   19  C   UNL     1     -18.042 -15.187  -5.419  1.00  0.00     0.000 C 
BRANCH  19  20
HETATM   20  C   UNL     1     -18.572 -14.056  -6.280  1.00  0.00     0.000 C 
BRANCH  20  21
HETATM   21  C   UNL     1     -19.801 -14.519  -7.039  1.00  0.00     0.000 C 
BRANCH  21  22
HETATM   22  C   UNL     1     -20.405 -15.731  -6.354  1.00  0.00     0.000 C 
BRANCH  22  23
HETATM   23  C   UNL     1     -21.858 -15.885  -6.764  1.00  0.00     0.000 C 
BRANCH  23  24
HETATM   24  C   UNL     1     -22.631 -14.623  -6.421  1.00  0.00    -0.000 C 
BRANCH  24  25
HETATM   25  C   UNL     1     -23.894 -14.971  -5.647  1.00  0.00    -0.005 C 
HETATM   26  C   UNL     1     -23.539 -15.426  -4.247  1.00  0.00     0.005 C 
ENDBRANCH  24  25
ENDBRANCH  23  24
ENDBRANCH  22  23
ENDBRANCH  21  22
ENDBRANCH  20  21
ENDBRANCH  19  20
ENDBRANCH  18  19
ENDBRANCH  17  18
ENDBRANCH  16  17
ENDBRANCH  15  16
ENDBRANCH  14  15
ENDBRANCH  13  14
ENDBRANCH  12  13
ENDBRANCH  11  12
ENDBRANCH  10  11
ENDBRANCH   9  10
ENDBRANCH   8   9
ENDBRANCH   7   8
ENDBRANCH   6   7
ENDBRANCH   4   6
ENDBRANCH   3   4
ENDBRANCH   2   3
ENDBRANCH   1   2
BRANCH   1  27
HETATM   27  C   UNL     1     -20.675  -7.979  -3.293  1.00  0.00     0.195 C 
BRANCH  27  28
HETATM   28  O   UNL     1     -21.257  -6.676  -3.061  1.00  0.00    -0.320 OA
BRANCH  28  29
HETATM   29  C   UNL     1     -21.941  -6.536  -1.886  1.00  0.00     0.258 C 
HETATM   30  O   UNL     1     -22.357  -5.477  -1.427  1.00  0.00    -0.265 OA
BRANCH  29  31
HETATM   31  C   UNL     1     -22.237  -7.884  -1.265  1.00  0.00     0.111 C 
BRANCH  31  32
HETATM   32  C   UNL     1     -22.300  -7.768   0.258  1.00  0.00     0.010 C 
BRANCH  32  33
HETATM   33  C   UNL     1     -21.428  -8.813   0.944  1.00  0.00     0.000 C 
BRANCH  33  34
HETATM   34  C   UNL     1     -20.853  -9.773  -0.084  1.00  0.00     0.000 C 
BRANCH  34  35
HETATM   35  C   UNL     1     -20.262 -10.988   0.610  1.00  0.00     0.000 C 
BRANCH  35  36
HETATM   36  C   UNL     1     -19.703 -11.955  -0.418  1.00  0.00     0.000 C 
BRANCH  36  37
HETATM   37  C   UNL     1     -18.188 -11.974  -0.337  1.00  0.00     0.000 C 
BRANCH  37  38
HETATM   38  C   UNL     1     -17.599 -11.232  -1.521  1.00  0.00     0.000 C 
BRANCH  38  39
HETATM   39  C   UNL     1     -16.084 -11.280  -1.459  1.00  0.00     0.000 C 
BRANCH  39  40
HETATM   40  C   UNL     1     -15.621 -12.708  -1.244  1.00  0.00     0.000 C 
BRANCH  40  41
HETATM   41  C   UNL     1     -14.493 -13.034  -2.204  1.00  0.00     0.000 C 
BRANCH  41  42
HETATM   42  C   UNL     1     -14.149 -14.508  -2.114  1.00  0.00     0.000 C 
BRANCH  42  43
HETATM   43  C   UNL     1     -12.657 -14.677  -1.900  1.00  0.00     0.000 C 
BRANCH  43  44
HETATM   44  C   UNL     1     -12.317 -14.446  -0.440  1.00  0.00     0.000 C 
BRANCH  44  45
HETATM   45  C   UNL     1     -12.033 -15.772   0.239  1.00  0.00     0.000 C 
BRANCH  45  46
HETATM   46  C   UNL     1     -13.319 -16.349   0.800  1.00  0.00     0.000 C 
BRANCH  46  47
HETATM   47  C   UNL     1     -13.418 -16.043   2.283  1.00  0.00     0.000 C 
BRANCH  47  48
HETATM   48  C   UNL     1     -14.864 -15.780   2.661  1.00  0.00     0.000 C 
BRANCH  48  49
HETATM   49  C   UNL     1     -15.125 -14.285   2.713  1.00  0.00    -0.000 C 
BRANCH  49  50
HETATM   50  C   UNL     1     -16.432 -13.951   2.010  1.00  0.00    -0.005 C 
HETATM   51  C   UNL     1     -17.311 -15.183   1.931  1.00  0.00     0.005 C 
ENDBRANCH  49  50
ENDBRANCH  48  49
ENDBRANCH  47  48
ENDBRANCH  46  47
ENDBRANCH  45  46
ENDBRANCH  44  45
ENDBRANCH  43  44
ENDBRANCH  42  43
ENDBRANCH  41  42
ENDBRANCH  40  41
ENDBRANCH  39  40
ENDBRANCH  38  39
ENDBRANCH  37  38
ENDBRANCH  36  37
ENDBRANCH  35  36
ENDBRANCH  34  35
ENDBRANCH  33  34
ENDBRANCH  32  33
ENDBRANCH  31  32
ENDBRANCH  29  31
ENDBRANCH  28  29
ENDBRANCH  27  28
ENDBRANCH   1  27
BRANCH   1  52
HETATM   52  C   UNL     1     -19.256  -8.394  -5.335  1.00  0.00     0.195 C 
BRANCH  52  53
HETATM   53  O   UNL     1     -18.429  -9.430  -4.758  1.00  0.00    -0.320 OA
BRANCH  53  54
HETATM   54  C   UNL     1     -17.964 -10.362  -5.649  1.00  0.00     0.258 C 
HETATM   55  O   UNL     1     -18.372 -10.529  -6.774  1.00  0.00    -0.265 OA
BRANCH  54  56
HETATM   56  C   UNL     1     -16.768 -11.102  -5.064  1.00  0.00     0.111 C 
BRANCH  56  57
HETATM   57  C   UNL     1     -15.507 -10.787  -5.862  1.00  0.00     0.010 C 
BRANCH  57  58
HETATM   58  C   UNL     1     -15.007 -12.001  -6.635  1.00  0.00     0.000 C 
BRANCH  58  59
HETATM   59  C   UNL     1     -14.272 -12.951  -5.702  1.00  0.00     0.000 C 
BRANCH  59  60
HETATM   60  C   UNL     1     -13.123 -13.618  -6.437  1.00  0.00     0.000 C 
BRANCH  60  61
HETATM   61  C   UNL     1     -13.140 -15.114  -6.184  1.00  0.00     0.000 C 
BRANCH  61  62
HETATM   62  C   UNL     1     -14.564 -15.631  -6.237  1.00  0.00     0.000 C 
BRANCH  62  63
HETATM   63  C   UNL     1     -14.643 -16.835  -7.158  1.00  0.00     0.000 C 
BRANCH  63  64
HETATM   64  C   UNL     1     -16.094 -17.181  -7.432  1.00  0.00     0.000 C 
BRANCH  64  65
HETATM   65  C   UNL     1     -16.425 -16.903  -8.886  1.00  0.00     0.000 C 
BRANCH  65  66
HETATM   66  C   UNL     1     -17.929 -16.845  -9.070  1.00  0.00     0.000 C 
BRANCH  66  67
HETATM   67  C   UNL     1     -18.274 -15.873 -10.182  1.00  0.00     0.000 C 
BRANCH  67  68
HETATM   68  C   UNL     1     -17.254 -15.985 -11.298  1.00  0.00     0.000 C 
BRANCH  68  69
HETATM   69  C   UNL     1     -17.890 -16.635 -12.512  1.00  0.00     0.000 C 
BRANCH  69  70
HETATM   70  C   UNL     1     -17.121 -16.254 -13.763  1.00  0.00     0.000 C 
BRANCH  70  71
HETATM   71  C   UNL     1     -18.088 -15.971 -14.896  1.00  0.00     0.000 C 
BRANCH  71  72
HETATM   72  C   UNL     1     -17.579 -14.809 -15.730  1.00  0.00     0.000 C 
BRANCH  72  73
HETATM   73  C   UNL     1     -17.346 -15.263 -17.160  1.00  0.00     0.000 C 
BRANCH  73  74
HETATM   74  C   UNL     1     -16.147 -14.536 -17.746  1.00  0.00    -0.000 C 
BRANCH  74  75
HETATM   75  C   UNL     1     -16.608 -13.414 -18.663  1.00  0.00    -0.005 C 
HETATM   76  C   UNL     1     -16.953 -12.183 -17.850  1.00  0.00     0.005 C 
ENDBRANCH  74  75
ENDBRANCH  73  74
ENDBRANCH  72  73
ENDBRANCH  71  72
ENDBRANCH  70  71
ENDBRANCH  69  70
ENDBRANCH  68  69
ENDBRANCH  67  68
ENDBRANCH  66  67
ENDBRANCH  65  66
ENDBRANCH  64  65
ENDBRANCH  63  64
ENDBRANCH  62  63
ENDBRANCH  61  62
ENDBRANCH  60  61
ENDBRANCH  59  60
ENDBRANCH  58  59
ENDBRANCH  57  58
ENDBRANCH  56  57
ENDBRANCH  54  56
ENDBRANCH  53  54
ENDBRANCH  52  53
ENDBRANCH   1  52
BRANCH   1  77
HETATM   77  C   UNL     1     -21.561  -7.378  -5.571  1.00  0.00     0.195 C 
BRANCH  77  78
HETATM   78  O   UNL     1     -20.798  -6.618  -6.534  1.00  0.00    -0.320 OA
BRANCH  78  79
HETATM   79  C   UNL     1     -21.419  -5.530  -7.076  1.00  0.00     0.258 C 
HETATM   80  O   UNL     1     -22.350  -4.927  -6.559  1.00  0.00    -0.265 OA
BRANCH  79  81
HETATM   81  C   UNL     1     -20.779  -5.146  -8.396  1.00  0.00     0.111 C 
BRANCH  81  82
HETATM   82  C   UNL     1     -21.614  -4.054  -9.065  1.00  0.00     0.010 C 
BRANCH  82  83
HETATM   83  C   UNL     1     -22.299  -4.541 -10.333  1.00  0.00     0.000 C 
BRANCH  83  84
HETATM   84  C   UNL     1     -23.115  -3.415 -10.956  1.00  0.00     0.000 C 
BRANCH  84  85
HETATM   85  C   UNL     1     -22.968  -3.432 -12.467  1.00  0.00     0.000 C 
BRANCH  85  86
HETATM   86  C   UNL     1     -24.272  -3.020 -13.126  1.00  0.00     0.000 C 
BRANCH  86  87
HETATM   87  C   UNL     1     -24.570  -3.935 -14.299  1.00  0.00     0.000 C 
BRANCH  87  88
HETATM   88  C   UNL     1     -23.689  -5.168 -14.231  1.00  0.00     0.000 C 
BRANCH  88  89
HETATM   89  C   UNL     1     -24.319  -6.297 -15.024  1.00  0.00     0.000 C 
BRANCH  89  90
HETATM   90  C   UNL     1     -25.723  -5.909 -15.446  1.00  0.00     0.000 C 
BRANCH  90  91
HETATM   91  C   UNL     1     -26.551  -7.156 -15.692  1.00  0.00     0.000 C 
BRANCH  91  92
HETATM   92  C   UNL     1     -28.020  -6.850 -15.477  1.00  0.00     0.000 C 
BRANCH  92  93
HETATM   93  C   UNL     1     -28.858  -7.623 -16.477  1.00  0.00     0.000 C 
BRANCH  93  94
HETATM   94  C   UNL     1     -29.707  -6.662 -17.288  1.00  0.00     0.000 C 
BRANCH  94  95
HETATM   95  C   UNL     1     -29.224  -6.636 -18.726  1.00  0.00     0.000 C 
BRANCH  95  96
HETATM   96  C   UNL     1     -27.918  -5.870 -18.817  1.00  0.00     0.000 C 
BRANCH  96  97
HETATM   97  C   UNL     1     -26.923  -6.644 -19.661  1.00  0.00     0.000 C 
BRANCH  97  98
HETATM   98  C   UNL     1     -25.575  -6.684 -18.965  1.00  0.00     0.000 C 
BRANCH  98  99
HETATM   99  C   UNL     1     -24.458  -6.599 -19.990  1.00  0.00    -0.000 C 
BRANCH  99 100
HETATM  100  C   UNL     1     -25.023  -6.711 -21.398  1.00  0.00    -0.005 C 
HETATM  101  C   UNL     1     -24.538  -7.986 -22.055  1.00  0.00     0.005 C 
ENDBRANCH  99 100
ENDBRANCH  98  99
ENDBRANCH  97  98
ENDBRANCH  96  97
ENDBRANCH  95  96
ENDBRANCH  94  95
ENDBRANCH  93  94
ENDBRANCH  92  93
ENDBRANCH  91  92
ENDBRANCH  90  91
ENDBRANCH  89  90
ENDBRANCH  88  89
ENDBRANCH  87  88
ENDBRANCH  86  87
ENDBRANCH  85  86
ENDBRANCH  84  85
ENDBRANCH  83  84
ENDBRANCH  82  83
ENDBRANCH  81  82
ENDBRANCH  79  81
ENDBRANCH  78  79
ENDBRANCH  77  78
ENDBRANCH   1  77
TORSDOF 92
BEGIN_RES ARG D 557
REMARK  4 active torsions:
REMARK  status: ('A' for Active; 'I' for Inactive)
REMARK    1  A    between atoms: CA   and  CB  
REMARK    2  A    between atoms: CB   and  CG  
REMARK    3  A    between atoms: CG   and  CD  
REMARK    4  A    between atoms: CD   and  NE  
REMARK       I    between atoms: NE   and  CZ  
REMARK       I    between atoms: CZ   and  NH1 
REMARK       I    between atoms: CZ   and  NH2 
ROOT
ATOM      1  CA  ARG D 557     -26.217   2.705 -17.014  1.00 35.49     0.159 C 
ENDROOT
BRANCH   1   2
ATOM      2  CB  ARG D 557     -26.789   1.319 -17.183  1.00 35.49     0.034 C 
BRANCH   2   3
ATOM      3  CG  ARG D 557     -28.218   1.229 -17.506  1.00 35.49     0.027 C 
BRANCH   3   4
ATOM      4  CD  ARG D 557     -28.941   0.297 -16.611  1.00 35.49     0.116 C 
BRANCH   4   5
ATOM      5  NE  ARG D 557     -28.225  -0.936 -16.418  1.00 35.49    -0.212 N 
ATOM      6  CZ  ARG D 557     -28.613  -2.122 -16.828  1.00 35.49     0.666 C 
ATOM      7  NH1 ARG D 557     -29.750  -2.313 -17.471  1.00 35.49    -0.235 N 
ATOM      8  NH2 ARG D 557     -27.825  -3.129 -16.584  1.00 35.49    -0.235 N 
ATOM      9  HH  ARG D 557     -30.283  -1.665 -17.644  1.00 35.49     0.174 HD
ATOM     10  HH  ARG D 557     -29.950  -3.109 -17.717  1.00 35.49     0.174 HD
ATOM     11  HH  ARG D 557     -27.094  -2.975 -16.174  1.00 35.49     0.174 HD
ATOM     12  HH  ARG D 557     -28.040  -3.910 -16.837  1.00 35.49     0.174 HD
ATOM     13  HE  ARG D 557     -27.515  -0.916 -15.949  1.00 35.49     0.178 HD
ENDBRANCH   4   5
ENDBRANCH   3   4
ENDBRANCH   2   3
ENDBRANCH   1   2
END_RES ARG D 557
BEGIN_RES GLU D 570
REMARK  3 active torsions:
REMARK  status: ('A' for Active; 'I' for Inactive)
REMARK    5  A    between atoms: CA   and  CB  
REMARK    6  A    between atoms: CB   and  CG  
REMARK    7  A    between atoms: CG   and  CD  
ROOT
ATOM     14  CA  GLU D 570     -18.033  -6.348 -13.375  1.00 32.92     0.160 C 
ENDROOT
BRANCH  14  15
ATOM     15  CB  GLU D 570     -19.500  -6.345 -13.794  1.00 32.92     0.043 C 
BRANCH  15  16
ATOM     16  CG  GLU D 570     -19.807  -6.017 -15.210  1.00 32.92     0.100 C 
BRANCH  16  17
ATOM     17  CD  GLU D 570     -20.701  -7.040 -15.872  1.00 32.92     0.185 C 
ATOM     18  OE1 GLU D 570     -20.797  -8.176 -15.367  1.00 32.92    -0.647 OA
ATOM     19  OE2 GLU D 570     -21.298  -6.708 -16.915  1.00 32.92    -0.647 OA
ENDBRANCH  16  17
ENDBRANCH  15  16
ENDBRANCH  14  15
END_RES GLU D 570
ENDMDL
MODEL 4
REMARK VINA RESULT:      -5.2      1.904      3.218
REMARK WARNING: 32 MAX_TORS EXCEEDED!!!
REMARK  92 active torsions:
REMARK  status: ('A' for Active; 'I' for Inactive)
REMARK    1  A    between atoms: C_2  and  C_3 
REMARK    2  A    between atoms: C_3  and  C_4 
REMARK    3  A    between atoms: C_4  and  C_5 
REMARK    4  A    between atoms: C_5  and  C_6 
REMARK    5  A    between atoms: C_6  and  C_7 
REMARK    6  A    between atoms: C_7  and  C_8 
REMARK    7  A    between atoms: C_8  and  C_9 
REMARK    8  A    between atoms: C_9  and  C_10 
REMARK    9  A    between atoms: C_10  and  C_11 
REMARK   10  A    between atoms: C_11  and  C_12 
REMARK   11  A    between atoms: C_12  and  C_13 
REMARK   12  A    between atoms: C_13  and  C_14 
REMARK   13  A    between atoms: C_14  and  C_15 
REMARK   14  A    between atoms: C_15  and  C_16 
REMARK   15  A    between atoms: C_16  and  C_17 
REMARK   16  A    between atoms: C_17  and  C_18 
REMARK   17  A    between atoms: C_18  and  C_19 
REMARK   18  A    between atoms: C_19  and  C_20 
REMARK   19  A    between atoms: C_20  and  C_21 
REMARK   20  A    between atoms: C_21  and  C_22 
REMARK   21  A    between atoms: C_22  and  O_24 
REMARK   22  A    between atoms: O_24  and  C_25 
REMARK   23  A    between atoms: C_25  and  C_26 
REMARK   24  A    between atoms: C_26  and  C_27 
REMARK   25  A    between atoms: C_26  and  C_52 
REMARK   26  A    between atoms: C_26  and  C_77 
REMARK   27  A    between atoms: C_27  and  O_28 
REMARK   28  A    between atoms: O_28  and  C_29 
REMARK   29  A    between atoms: C_29  and  C_31 
REMARK   30  A    between atoms: C_31  and  C_32 
REMARK   31  A    between atoms: C_32  and  C_33 
REMARK   32  A    between atoms: C_33  and  C_34 
REMARK   33  A    between atoms: C_34  and  C_35 
REMARK   34  A    between atoms: C_35  and  C_36 
REMARK   35  A    between atoms: C_36  and  C_37 
REMARK   36  A    between atoms: C_37  and  C_38 
REMARK   37  A    between atoms: C_38  and  C_39 
REMARK   38  A    between atoms: C_39  and  C_40 
REMARK   39  A    between atoms: C_40  and  C_41 
REMARK   40  A    between atoms: C_41  and  C_42 
REMARK   41  A    between atoms: C_42  and  C_43 
REMARK   42  A    between atoms: C_43  and  C_44 
REMARK   43  A    between atoms: C_44  and  C_45 
REMARK   44  A    between atoms: C_45  and  C_46 
REMARK   45  A    between atoms: C_46  and  C_47 
REMARK   46  A    between atoms: C_47  and  C_48 
REMARK   47  A    between atoms: C_48  and  C_49 
REMARK   48  A    between atoms: C_49  and  C_50 
REMARK   49  A    between atoms: C_52  and  O_53 
REMARK   50  A    between atoms: O_53  and  C_54 
REMARK   51  A    between atoms: C_54  and  C_56 
REMARK   52  A    between atoms: C_56  and  C_57 
REMARK   53  A    between atoms: C_57  and  C_58 
REMARK   54  A    between atoms: C_58  and  C_59 
REMARK   55  A    between atoms: C_59  and  C_60 
REMARK   56  A    between atoms: C_60  and  C_61 
REMARK   57  A    between atoms: C_61  and  C_62 
REMARK   58  A    between atoms: C_62  and  C_63 
REMARK   59  A    between atoms: C_63  and  C_64 
REMARK   60  A    between atoms: C_64  and  C_65 
REMARK   61  A    between atoms: C_65  and  C_66 
REMARK   62  A    between atoms: C_66  and  C_67 
REMARK   63  A    between atoms: C_67  and  C_68 
REMARK   64  A    between atoms: C_68  and  C_69 
REMARK   65  A    between atoms: C_69  and  C_70 
REMARK   66  A    between atoms: C_70  and  C_71 
REMARK   67  A    between atoms: C_71  and  C_72 
REMARK   68  A    between atoms: C_72  and  C_73 
REMARK   69  A    between atoms: C_73  and  C_74 
REMARK   70  A    between atoms: C_74  and  C_75 
REMARK   71  A    between atoms: C_77  and  O_78 
REMARK   72  A    between atoms: O_78  and  C_79 
REMARK   73  A    between atoms: C_79  and  C_81 
REMARK   74  A    between atoms: C_81  and  C_82 
REMARK   75  A    between atoms: C_82  and  C_83 
REMARK   76  A    between atoms: C_83  and  C_84 
REMARK   77  A    between atoms: C_84  and  C_85 
REMARK   78  A    between atoms: C_85  and  C_86 
REMARK   79  A    between atoms: C_86  and  C_87 
REMARK   80  A    between atoms: C_87  and  C_88 
REMARK   81  A    between atoms: C_88  and  C_89 
REMARK   82  A    between atoms: C_89  and  C_90 
REMARK   83  A    between atoms: C_90  and  C_91 
REMARK   84  A    between atoms: C_91  and  C_92 
REMARK   85  A    between atoms: C_92  and  C_93 
REMARK   86  A    between atoms: C_93  and  C_94 
REMARK   87  A    between atoms: C_94  and  C_95 
REMARK   88  A    between atoms: C_95  and  C_96 
REMARK   89  A    between atoms: C_96  and  C_97 
REMARK   90  A    between atoms: C_97  and  C_98 
REMARK   91  A    between atoms: C_98  and  C_99 
REMARK   92  A    between atoms: C_99  and  C_100 
ROOT
HETATM    1  C   UNL     1     -21.012  -8.018  -4.489  1.00  0.00     0.048 C 
ENDROOT
BRANCH   1   2
HETATM    2  C   UNL     1     -21.635  -9.427  -4.634  1.00  0.00     0.195 C 
BRANCH   2   3
HETATM    3  O   UNL     1     -22.496  -9.748  -3.516  1.00  0.00    -0.320 OA
BRANCH   3   4
HETATM    4  C   UNL     1     -22.219 -10.931  -2.877  1.00  0.00     0.258 C 
HETATM    5  O   UNL     1     -21.114 -11.430  -2.775  1.00  0.00    -0.265 OA
BRANCH   4   6
HETATM    6  C   UNL     1     -23.476 -11.536  -2.268  1.00  0.00     0.111 C 
BRANCH   6   7
HETATM    7  C   UNL     1     -23.312 -11.617  -0.756  1.00  0.00     0.010 C 
BRANCH   7   8
HETATM    8  C   UNL     1     -23.631 -13.004  -0.216  1.00  0.00     0.000 C 
BRANCH   8   9
HETATM    9  C   UNL     1     -23.288 -13.071   1.266  1.00  0.00     0.000 C 
BRANCH   9  10
HETATM   10  C   UNL     1     -22.530 -14.349   1.573  1.00  0.00     0.000 C 
BRANCH  10  11
HETATM   11  C   UNL     1     -22.497 -15.247   0.349  1.00  0.00     0.000 C 
BRANCH  11  12
HETATM   12  C   UNL     1     -21.273 -16.143   0.401  1.00  0.00     0.000 C 
BRANCH  12  13
HETATM   13  C   UNL     1     -20.287 -15.729  -0.675  1.00  0.00     0.000 C 
BRANCH  13  14
HETATM   14  C   UNL     1     -21.017 -15.021  -1.800  1.00  0.00     0.000 C 
BRANCH  14  15
HETATM   15  C   UNL     1     -20.248 -15.184  -3.097  1.00  0.00     0.000 C 
BRANCH  15  16
HETATM   16  C   UNL     1     -18.948 -14.405  -3.027  1.00  0.00     0.000 C 
BRANCH  16  17
HETATM   17  C   UNL     1     -18.788 -13.558  -4.275  1.00  0.00     0.000 C 
BRANCH  17  18
HETATM   18  C   UNL     1     -17.798 -14.214  -5.217  1.00  0.00     0.000 C 
BRANCH  18  19
HETATM   19  C   UNL     1     -18.461 -14.486  -6.553  1.00  0.00     0.000 C 
BRANCH  19  20
HETATM   20  C   UNL     1     -18.015 -13.455  -7.571  1.00  0.00     0.000 C 
BRANCH  20  21
HETATM   21  C   UNL     1     -19.084 -12.391  -7.730  1.00  0.00     0.000 C 
BRANCH  21  22
HETATM   22  C   UNL     1     -20.445 -13.045  -7.876  1.00  0.00     0.000 C 
BRANCH  22  23
HETATM   23  C   UNL     1     -21.442 -12.374  -6.947  1.00  0.00     0.000 C 
BRANCH  23  24
HETATM   24  C   UNL     1     -21.955 -13.375  -5.926  1.00  0.00    -0.000 C 
BRANCH  24  25
HETATM   25  C   UNL     1     -22.585 -14.568  -6.626  1.00  0.00    -0.005 C 
HETATM   26  C   UNL     1     -21.907 -15.849  -6.186  1.00  0.00     0.005 C 
ENDBRANCH  24  25
ENDBRANCH  23  24
ENDBRANCH  22  23
ENDBRANCH  21  22
ENDBRANCH  20  21
ENDBRANCH  19  20
ENDBRANCH  18  19
ENDBRANCH  17  18
ENDBRANCH  16  17
ENDBRANCH  15  16
ENDBRANCH  14  15
ENDBRANCH  13  14
ENDBRANCH  12  13
ENDBRANCH  11  12
ENDBRANCH  10  11
ENDBRANCH   9  10
ENDBRANCH   8   9
ENDBRANCH   7   8
ENDBRANCH   6   7
ENDBRANCH   4   6
ENDBRANCH   3   4
ENDBRANCH   2   3
ENDBRANCH   1   2
BRANCH   1  27
HETATM   27  C   UNL     1     -20.748  -7.727  -2.996  1.00  0.00     0.195 C 
BRANCH  27  28
HETATM   28  O   UNL     1     -21.851  -7.054  -2.345  1.00  0.00    -0.320 OA
BRANCH  28  29
HETATM   29  C   UNL     1     -22.055  -7.387  -1.035  1.00  0.00     0.258 C 
HETATM   30  O   UNL     1     -23.030  -7.068  -0.364  1.00  0.00    -0.265 OA
BRANCH  29  31
HETATM   31  C   UNL     1     -20.969  -8.316  -0.535  1.00  0.00     0.111 C 
BRANCH  31  32
HETATM   32  C   UNL     1     -21.246  -8.730   0.911  1.00  0.00     0.010 C 
BRANCH  32  33
HETATM   33  C   UNL     1     -20.977 -10.212   1.140  1.00  0.00     0.000 C 
BRANCH  33  34
HETATM   34  C   UNL     1     -19.688 -10.624   0.446  1.00  0.00     0.000 C 
BRANCH  34  35
HETATM   35  C   UNL     1     -19.649 -12.133   0.272  1.00  0.00     0.000 C 
BRANCH  35  36
HETATM   36  C   UNL     1     -18.347 -12.547  -0.391  1.00  0.00     0.000 C 
BRANCH  36  37
HETATM   37  C   UNL     1     -17.584 -13.492   0.518  1.00  0.00     0.000 C 
BRANCH  37  38
HETATM   38  C   UNL     1     -16.110 -13.472   0.162  1.00  0.00     0.000 C 
BRANCH  38  39
HETATM   39  C   UNL     1     -15.295 -13.018   1.358  1.00  0.00     0.000 C 
BRANCH  39  40
HETATM   40  C   UNL     1     -15.392 -14.046   2.469  1.00  0.00     0.000 C 
BRANCH  40  41
HETATM   41  C   UNL     1     -14.786 -15.358   2.010  1.00  0.00     0.000 C 
BRANCH  41  42
HETATM   42  C   UNL     1     -13.625 -15.733   2.910  1.00  0.00     0.000 C 
BRANCH  42  43
HETATM   43  C   UNL     1     -12.406 -16.061   2.070  1.00  0.00     0.000 C 
BRANCH  43  44
HETATM   44  C   UNL     1     -11.422 -14.908   2.117  1.00  0.00     0.000 C 
BRANCH  44  45
HETATM   45  C   UNL     1     -11.578 -14.046   0.879  1.00  0.00     0.000 C 
BRANCH  45  46
HETATM   46  C   UNL     1     -11.820 -14.925  -0.333  1.00  0.00     0.000 C 
BRANCH  46  47
HETATM   47  C   UNL     1     -12.801 -14.249  -1.273  1.00  0.00     0.000 C 
BRANCH  47  48
HETATM   48  C   UNL     1     -12.601 -14.763  -2.687  1.00  0.00     0.000 C 
BRANCH  48  49
HETATM   49  C   UNL     1     -13.287 -16.108  -2.853  1.00  0.00    -0.000 C 
BRANCH  49  50
HETATM   50  C   UNL     1     -14.574 -16.149  -2.043  1.00  0.00    -0.005 C 
HETATM   51  C   UNL     1     -15.762 -16.347  -2.961  1.00  0.00     0.005 C 
ENDBRANCH  49  50
ENDBRANCH  48  49
ENDBRANCH  47  48
ENDBRANCH  46  47
ENDBRANCH  45  46
ENDBRANCH  44  45
ENDBRANCH  43  44
ENDBRANCH  42  43
ENDBRANCH  41  42
ENDBRANCH  40  41
ENDBRANCH  39  40
ENDBRANCH  38  39
ENDBRANCH  37  38
ENDBRANCH  36  37
ENDBRANCH  35  36
ENDBRANCH  34  35
ENDBRANCH  33  34
ENDBRANCH  32  33
ENDBRANCH  31  32
ENDBRANCH  29  31
ENDBRANCH  28  29
ENDBRANCH  27  28
ENDBRANCH   1  27
BRANCH   1  52
HETATM   52  C   UNL     1     -19.668  -7.956  -5.262  1.00  0.00     0.195 C 
BRANCH  52  53
HETATM   53  O   UNL     1     -18.651  -8.809  -4.688  1.00  0.00    -0.320 OA
BRANCH  53  54
HETATM   54  C   UNL     1     -17.903  -9.508  -5.598  1.00  0.00     0.258 C 
HETATM   55  O   UNL     1     -17.851  -9.294  -6.786  1.00  0.00    -0.265 OA
BRANCH  54  56
HETATM   56  C   UNL     1     -17.042 -10.545  -4.888  1.00  0.00     0.111 C 
BRANCH  56  57
HETATM   57  C   UNL     1     -15.588 -10.423  -5.334  1.00  0.00     0.010 C 
BRANCH  57  58
HETATM   58  C   UNL     1     -15.164 -11.595  -6.211  1.00  0.00     0.000 C 
BRANCH  58  59
HETATM   59  C   UNL     1     -14.126 -12.440  -5.490  1.00  0.00     0.000 C 
BRANCH  59  60
HETATM   60  C   UNL     1     -13.229 -13.136  -6.499  1.00  0.00     0.000 C 
BRANCH  60  61
HETATM   61  C   UNL     1     -13.210 -14.631  -6.237  1.00  0.00     0.000 C 
BRANCH  61  62
HETATM   62  C   UNL     1     -14.620 -15.185  -6.312  1.00  0.00     0.000 C 
BRANCH  62  63
HETATM   63  C   UNL     1     -14.575 -16.669  -6.624  1.00  0.00     0.000 C 
BRANCH  63  64
HETATM   64  C   UNL     1     -15.976 -17.180  -6.904  1.00  0.00     0.000 C 
BRANCH  64  65
HETATM   65  C   UNL     1     -16.292 -17.038  -8.381  1.00  0.00     0.000 C 
BRANCH  65  66
HETATM   66  C   UNL     1     -17.788 -17.151  -8.600  1.00  0.00     0.000 C 
BRANCH  66  67
HETATM   67  C   UNL     1     -18.174 -16.445  -9.886  1.00  0.00     0.000 C 
BRANCH  67  68
HETATM   68  C   UNL     1     -17.270 -16.901 -11.015  1.00  0.00     0.000 C 
BRANCH  68  69
HETATM   69  C   UNL     1     -18.030 -16.873 -12.327  1.00  0.00     0.000 C 
BRANCH  69  70
HETATM   70  C   UNL     1     -17.686 -15.611 -13.094  1.00  0.00     0.000 C 
BRANCH  70  71
HETATM   71  C   UNL     1     -17.835 -15.857 -14.583  1.00  0.00     0.000 C 
BRANCH  71  72
HETATM   72  C   UNL     1     -16.517 -15.584 -15.286  1.00  0.00     0.000 C 
BRANCH  72  73
HETATM   73  C   UNL     1     -16.778 -14.990 -16.659  1.00  0.00     0.000 C 
BRANCH  73  74
HETATM   74  C   UNL     1     -15.626 -14.085 -17.060  1.00  0.00    -0.000 C 
BRANCH  74  75
HETATM   75  C   UNL     1     -16.018 -13.232 -18.256  1.00  0.00    -0.005 C 
HETATM   76  C   UNL     1     -17.099 -12.246 -17.863  1.00  0.00     0.005 C 
ENDBRANCH  74  75
ENDBRANCH  73  74
ENDBRANCH  72  73
ENDBRANCH  71  72
ENDBRANCH  70  71
ENDBRANCH  69  70
ENDBRANCH  68  69
ENDBRANCH  67  68
ENDBRANCH  66  67
ENDBRANCH  65  66
ENDBRANCH  64  65
ENDBRANCH  63  64
ENDBRANCH  62  63
ENDBRANCH  61  62
ENDBRANCH  60  61
ENDBRANCH  59  60
ENDBRANCH  58  59
ENDBRANCH  57  58
ENDBRANCH  56  57
ENDBRANCH  54  56
ENDBRANCH  53  54
ENDBRANCH  52  53
ENDBRANCH   1  52
BRANCH   1  77
HETATM   77  C   UNL     1     -21.973  -6.936  -5.047  1.00  0.00     0.195 C 
BRANCH  77  78
HETATM   78  O   UNL     1     -21.339  -6.038  -5.985  1.00  0.00    -0.320 OA
BRANCH  78  79
HETATM   79  C   UNL     1     -22.171  -5.233  -6.710  1.00  0.00     0.258 C 
HETATM   80  O   UNL     1     -23.276  -4.859  -6.341  1.00  0.00    -0.265 OA
BRANCH  79  81
HETATM   81  C   UNL     1     -21.526  -4.836  -8.023  1.00  0.00     0.111 C 
BRANCH  81  82
HETATM   82  C   UNL     1     -22.431  -3.841  -8.750  1.00  0.00     0.010 C 
BRANCH  82  83
HETATM   83  C   UNL     1     -23.092  -4.447  -9.980  1.00  0.00     0.000 C 
BRANCH  83  84
HETATM   84  C   UNL     1     -23.893  -3.385 -10.724  1.00  0.00     0.000 C 
BRANCH  84  85
HETATM   85  C   UNL     1     -23.512  -3.374 -12.194  1.00  0.00     0.000 C 
BRANCH  85  86
HETATM   86  C   UNL     1     -24.700  -2.954 -13.040  1.00  0.00     0.000 C 
BRANCH  86  87
HETATM   87  C   UNL     1     -24.740  -3.771 -14.318  1.00  0.00     0.000 C 
BRANCH  87  88
HETATM   88  C   UNL     1     -23.892  -5.018 -14.162  1.00  0.00     0.000 C 
BRANCH  88  89
HETATM   89  C   UNL     1     -24.527  -6.172 -14.914  1.00  0.00     0.000 C 
BRANCH  89  90
HETATM   90  C   UNL     1     -25.812  -5.711 -15.574  1.00  0.00     0.000 C 
BRANCH  90  91
HETATM   91  C   UNL     1     -26.714  -6.903 -15.835  1.00  0.00     0.000 C 
BRANCH  91  92
HETATM   92  C   UNL     1     -28.137  -6.432 -16.064  1.00  0.00     0.000 C 
BRANCH  92  93
HETATM   93  C   UNL     1     -28.657  -6.990 -17.375  1.00  0.00     0.000 C 
BRANCH  93  94
HETATM   94  C   UNL     1     -28.372  -6.012 -18.499  1.00  0.00     0.000 C 
BRANCH  94  95
HETATM   95  C   UNL     1     -27.590  -6.705 -19.600  1.00  0.00     0.000 C 
BRANCH  95  96
HETATM   96  C   UNL     1     -26.119  -6.358 -19.484  1.00  0.00     0.000 C 
BRANCH  96  97
HETATM   97  C   UNL     1     -25.299  -7.281 -20.367  1.00  0.00     0.000 C 
BRANCH  97  98
HETATM   98  C   UNL     1     -23.927  -7.498 -19.755  1.00  0.00     0.000 C 
BRANCH  98  99
HETATM   99  C   UNL     1     -23.957  -7.152 -18.277  1.00  0.00    -0.000 C 
BRANCH  99 100
HETATM  100  C   UNL     1     -22.541  -7.039 -17.733  1.00  0.00    -0.005 C 
HETATM  101  C   UNL     1     -21.558  -6.847 -18.869  1.00  0.00     0.005 C 
ENDBRANCH  99 100
ENDBRANCH  98  99
ENDBRANCH  97  98
ENDBRANCH  96  97
ENDBRANCH  95  96
ENDBRANCH  94  95
ENDBRANCH  93  94
ENDBRANCH  92  93
ENDBRANCH  91  92
ENDBRANCH  90  91
ENDBRANCH  89  90
ENDBRANCH  88  89
ENDBRANCH  87  88
ENDBRANCH  86  87
ENDBRANCH  85  86
ENDBRANCH  84  85
ENDBRANCH  83  84
ENDBRANCH  82  83
ENDBRANCH  81  82
ENDBRANCH  79  81
ENDBRANCH  78  79
ENDBRANCH  77  78
ENDBRANCH   1  77
TORSDOF 92
BEGIN_RES ARG D 557
REMARK  4 active torsions:
REMARK  status: ('A' for Active; 'I' for Inactive)
REMARK    1  A    between atoms: CA   and  CB  
REMARK    2  A    between atoms: CB   and  CG  
REMARK    3  A    between atoms: CG   and  CD  
REMARK    4  A    between atoms: CD   and  NE  
REMARK       I    between atoms: NE   and  CZ  
REMARK       I    between atoms: CZ   and  NH1 
REMARK       I    between atoms: CZ   and  NH2 
ROOT
ATOM      1  CA  ARG D 557     -26.217   2.705 -17.014  1.00 35.49     0.159 C 
ENDROOT
BRANCH   1   2
ATOM      2  CB  ARG D 557     -26.789   1.319 -17.183  1.00 35.49     0.034 C 
BRANCH   2   3
ATOM      3  CG  ARG D 557     -28.184   1.230 -17.630  1.00 35.49     0.027 C 
BRANCH   3   4
ATOM      4  CD  ARG D 557     -29.018   0.412 -16.719  1.00 35.49     0.116 C 
BRANCH   4   5
ATOM      5  NE  ARG D 557     -29.053  -0.972 -17.113  1.00 35.49    -0.212 N 
ATOM      6  CZ  ARG D 557     -28.254  -1.917 -16.670  1.00 35.49     0.666 C 
ATOM      7  NH1 ARG D 557     -27.292  -1.681 -15.797  1.00 35.49    -0.235 N 
ATOM      8  NH2 ARG D 557     -28.444  -3.123 -17.120  1.00 35.49    -0.235 N 
ATOM      9  HH  ARG D 557     -27.151  -0.895 -15.485  1.00 35.49     0.174 HD
ATOM     10  HH  ARG D 557     -26.804  -2.337 -15.542  1.00 35.49     0.174 HD
ATOM     11  HH  ARG D 557     -29.078  -3.247 -17.678  1.00 35.49     0.174 HD
ATOM     12  HH  ARG D 557     -27.951  -3.760 -16.855  1.00 35.49     0.174 HD
ATOM     13  HE  ARG D 557     -29.596  -1.198 -17.727  1.00 35.49     0.178 HD
ENDBRANCH   4   5
ENDBRANCH   3   4
ENDBRANCH   2   3
ENDBRANCH   1   2
END_RES ARG D 557
BEGIN_RES GLU D 570
REMARK  3 active torsions:
REMARK  status: ('A' for Active; 'I' for Inactive)
REMARK    5  A    between atoms: CA   and  CB  
REMARK    6  A    between atoms: CB   and  CG  
REMARK    7  A    between atoms: CG   and  CD  
ROOT
ATOM     14  CA  GLU D 570     -18.033  -6.348 -13.375  1.00 32.92     0.160 C 
ENDROOT
BRANCH  14  15
ATOM     15  CB  GLU D 570     -19.500  -6.345 -13.794  1.00 32.92     0.043 C 
BRANCH  15  16
ATOM     16  CG  GLU D 570     -20.498  -5.892 -12.790  1.00 32.92     0.100 C 
BRANCH  16  17
ATOM     17  CD  GLU D 570     -19.902  -4.996 -11.730  1.00 32.92     0.185 C 
ATOM     18  OE1 GLU D 570     -19.337  -5.513 -10.747  1.00 32.92    -0.647 OA
ATOM     19  OE2 GLU D 570     -20.016  -3.763 -11.875  1.00 32.92    -0.647 OA
ENDBRANCH  16  17
ENDBRANCH  15  16
ENDBRANCH  14  15
END_RES GLU D 570
ENDMDL
MODEL 5
REMARK VINA RESULT:      -4.8      2.091      3.347
REMARK WARNING: 32 MAX_TORS EXCEEDED!!!
REMARK  92 active torsions:
REMARK  status: ('A' for Active; 'I' for Inactive)
REMARK    1  A    between atoms: C_2  and  C_3 
REMARK    2  A    between atoms: C_3  and  C_4 
REMARK    3  A    between atoms: C_4  and  C_5 
REMARK    4  A    between atoms: C_5  and  C_6 
REMARK    5  A    between atoms: C_6  and  C_7 
REMARK    6  A    between atoms: C_7  and  C_8 
REMARK    7  A    between atoms: C_8  and  C_9 
REMARK    8  A    between atoms: C_9  and  C_10 
REMARK    9  A    between atoms: C_10  and  C_11 
REMARK   10  A    between atoms: C_11  and  C_12 
REMARK   11  A    between atoms: C_12  and  C_13 
REMARK   12  A    between atoms: C_13  and  C_14 
REMARK   13  A    between atoms: C_14  and  C_15 
REMARK   14  A    between atoms: C_15  and  C_16 
REMARK   15  A    between atoms: C_16  and  C_17 
REMARK   16  A    between atoms: C_17  and  C_18 
REMARK   17  A    between atoms: C_18  and  C_19 
REMARK   18  A    between atoms: C_19  and  C_20 
REMARK   19  A    between atoms: C_20  and  C_21 
REMARK   20  A    between atoms: C_21  and  C_22 
REMARK   21  A    between atoms: C_22  and  O_24 
REMARK   22  A    between atoms: O_24  and  C_25 
REMARK   23  A    between atoms: C_25  and  C_26 
REMARK   24  A    between atoms: C_26  and  C_27 
REMARK   25  A    between atoms: C_26  and  C_52 
REMARK   26  A    between atoms: C_26  and  C_77 
REMARK   27  A    between atoms: C_27  and  O_28 
REMARK   28  A    between atoms: O_28  and  C_29 
REMARK   29  A    between atoms: C_29  and  C_31 
REMARK   30  A    between atoms: C_31  and  C_32 
REMARK   31  A    between atoms: C_32  and  C_33 
REMARK   32  A    between atoms: C_33  and  C_34 
REMARK   33  A    between atoms: C_34  and  C_35 
REMARK   34  A    between atoms: C_35  and  C_36 
REMARK   35  A    between atoms: C_36  and  C_37 
REMARK   36  A    between atoms: C_37  and  C_38 
REMARK   37  A    between atoms: C_38  and  C_39 
REMARK   38  A    between atoms: C_39  and  C_40 
REMARK   39  A    between atoms: C_40  and  C_41 
REMARK   40  A    between atoms: C_41  and  C_42 
REMARK   41  A    between atoms: C_42  and  C_43 
REMARK   42  A    between atoms: C_43  and  C_44 
REMARK   43  A    between atoms: C_44  and  C_45 
REMARK   44  A    between atoms: C_45  and  C_46 
REMARK   45  A    between atoms: C_46  and  C_47 
REMARK   46  A    between atoms: C_47  and  C_48 
REMARK   47  A    between atoms: C_48  and  C_49 
REMARK   48  A    between atoms: C_49  and  C_50 
REMARK   49  A    between atoms: C_52  and  O_53 
REMARK   50  A    between atoms: O_53  and  C_54 
REMARK   51  A    between atoms: C_54  and  C_56 
REMARK   52  A    between atoms: C_56  and  C_57 
REMARK   53  A    between atoms: C_57  and  C_58 
REMARK   54  A    between atoms: C_58  and  C_59 
REMARK   55  A    between atoms: C_59  and  C_60 
REMARK   56  A    between atoms: C_60  and  C_61 
REMARK   57  A    between atoms: C_61  and  C_62 
REMARK   58  A    between atoms: C_62  and  C_63 
REMARK   59  A    between atoms: C_63  and  C_64 
REMARK   60  A    between atoms: C_64  and  C_65 
REMARK   61  A    between atoms: C_65  and  C_66 
REMARK   62  A    between atoms: C_66  and  C_67 
REMARK   63  A    between atoms: C_67  and  C_68 
REMARK   64  A    between atoms: C_68  and  C_69 
REMARK   65  A    between atoms: C_69  and  C_70 
REMARK   66  A    between atoms: C_70  and  C_71 
REMARK   67  A    between atoms: C_71  and  C_72 
REMARK   68  A    between atoms: C_72  and  C_73 
REMARK   69  A    between atoms: C_73  and  C_74 
REMARK   70  A    between atoms: C_74  and  C_75 
REMARK   71  A    between atoms: C_77  and  O_78 
REMARK   72  A    between atoms: O_78  and  C_79 
REMARK   73  A    between atoms: C_79  and  C_81 
REMARK   74  A    between atoms: C_81  and  C_82 
REMARK   75  A    between atoms: C_82  and  C_83 
REMARK   76  A    between atoms: C_83  and  C_84 
REMARK   77  A    between atoms: C_84  and  C_85 
REMARK   78  A    between atoms: C_85  and  C_86 
REMARK   79  A    between atoms: C_86  and  C_87 
REMARK   80  A    between atoms: C_87  and  C_88 
REMARK   81  A    between atoms: C_88  and  C_89 
REMARK   82  A    between atoms: C_89  and  C_90 
REMARK   83  A    between atoms: C_90  and  C_91 
REMARK   84  A    between atoms: C_91  and  C_92 
REMARK   85  A    between atoms: C_92  and  C_93 
REMARK   86  A    between atoms: C_93  and  C_94 
REMARK   87  A    between atoms: C_94  and  C_95 
REMARK   88  A    between atoms: C_95  and  C_96 
REMARK   89  A    between atoms: C_96  and  C_97 
REMARK   90  A    between atoms: C_97  and  C_98 
REMARK   91  A    between atoms: C_98  and  C_99 
REMARK   92  A    between atoms: C_99  and  C_100 
ROOT
HETATM    1  C   UNL     1     -20.920  -8.217  -4.412  1.00  0.00     0.048 C 
ENDROOT
BRANCH   1   2
HETATM    2  C   UNL     1     -21.353  -9.702  -4.453  1.00  0.00     0.195 C 
BRANCH   2   3
HETATM    3  O   UNL     1     -22.540  -9.933  -3.658  1.00  0.00    -0.320 OA
BRANCH   3   4
HETATM    4  C   UNL     1     -22.466 -10.984  -2.779  1.00  0.00     0.258 C 
HETATM    5  O   UNL     1     -21.436 -11.501  -2.390  1.00  0.00    -0.265 OA
BRANCH   4   6
HETATM    6  C   UNL     1     -23.851 -11.408  -2.308  1.00  0.00     0.111 C 
BRANCH   6   7
HETATM    7  C   UNL     1     -23.811 -11.679  -0.811  1.00  0.00     0.010 C 
BRANCH   7   8
HETATM    8  C   UNL     1     -23.900 -13.165  -0.492  1.00  0.00     0.000 C 
BRANCH   8   9
HETATM    9  C   UNL     1     -22.883 -13.522   0.584  1.00  0.00     0.000 C 
BRANCH   9  10
HETATM   10  C   UNL     1     -22.512 -14.991   0.489  1.00  0.00     0.000 C 
BRANCH  10  11
HETATM   11  C   UNL     1     -23.593 -15.760  -0.249  1.00  0.00     0.000 C 
BRANCH  11  12
HETATM   12  C   UNL     1     -22.967 -16.883  -1.053  1.00  0.00     0.000 C 
BRANCH  12  13
HETATM   13  C   UNL     1     -23.707 -17.052  -2.366  1.00  0.00     0.000 C 
BRANCH  13  14
HETATM   14  C   UNL     1     -23.886 -15.702  -3.035  1.00  0.00     0.000 C 
BRANCH  14  15
HETATM   15  C   UNL     1     -24.541 -15.881  -4.392  1.00  0.00     0.000 C 
BRANCH  15  16
HETATM   16  C   UNL     1     -23.558 -16.516  -5.358  1.00  0.00     0.000 C 
BRANCH  16  17
HETATM   17  C   UNL     1     -23.135 -15.500  -6.402  1.00  0.00     0.000 C 
BRANCH  17  18
HETATM   18  C   UNL     1     -23.876 -14.196  -6.180  1.00  0.00     0.000 C 
BRANCH  18  19
HETATM   19  C   UNL     1     -22.918 -13.139  -5.667  1.00  0.00     0.000 C 
BRANCH  19  20
HETATM   20  C   UNL     1     -21.689 -13.083  -6.555  1.00  0.00     0.000 C 
BRANCH  20  21
HETATM   21  C   UNL     1     -20.437 -13.025  -5.701  1.00  0.00     0.000 C 
BRANCH  21  22
HETATM   22  C   UNL     1     -20.266 -14.330  -4.946  1.00  0.00     0.000 C 
BRANCH  22  23
HETATM   23  C   UNL     1     -19.553 -14.075  -3.630  1.00  0.00     0.000 C 
BRANCH  23  24
HETATM   24  C   UNL     1     -20.323 -14.718  -2.489  1.00  0.00    -0.000 C 
BRANCH  24  25
HETATM   25  C   UNL     1     -19.453 -15.739  -1.774  1.00  0.00    -0.005 C 
HETATM   26  C   UNL     1     -18.054 -15.731  -2.354  1.00  0.00     0.005 C 
ENDBRANCH  24  25
ENDBRANCH  23  24
ENDBRANCH  22  23
ENDBRANCH  21  22
ENDBRANCH  20  21
ENDBRANCH  19  20
ENDBRANCH  18  19
ENDBRANCH  17  18
ENDBRANCH  16  17
ENDBRANCH  15  16
ENDBRANCH  14  15
ENDBRANCH  13  14
ENDBRANCH  12  13
ENDBRANCH  11  12
ENDBRANCH  10  11
ENDBRANCH   9  10
ENDBRANCH   8   9
ENDBRANCH   7   8
ENDBRANCH   6   7
ENDBRANCH   4   6
ENDBRANCH   3   4
ENDBRANCH   2   3
ENDBRANCH   1   2
BRANCH   1  27
HETATM   27  C   UNL     1     -20.721  -7.782  -2.943  1.00  0.00     0.195 C 
BRANCH  27  28
HETATM   28  O   UNL     1     -21.907  -7.194  -2.360  1.00  0.00    -0.320 OA
BRANCH  28  29
HETATM   29  C   UNL     1     -22.083  -7.421  -1.024  1.00  0.00     0.258 C 
HETATM   30  O   UNL     1     -23.085  -7.132  -0.379  1.00  0.00    -0.265 OA
BRANCH  29  31
HETATM   31  C   UNL     1     -20.917  -8.195  -0.446  1.00  0.00     0.111 C 
BRANCH  31  32
HETATM   32  C   UNL     1     -21.314  -8.846   0.879  1.00  0.00     0.010 C 
BRANCH  32  33
HETATM   33  C   UNL     1     -21.315 -10.368   0.787  1.00  0.00     0.000 C 
BRANCH  33  34
HETATM   34  C   UNL     1     -19.926 -10.911   1.084  1.00  0.00     0.000 C 
BRANCH  34  35
HETATM   35  C   UNL     1     -19.622 -12.089   0.174  1.00  0.00     0.000 C 
BRANCH  35  36
HETATM   36  C   UNL     1     -18.156 -12.469   0.287  1.00  0.00     0.000 C 
BRANCH  36  37
HETATM   37  C   UNL     1     -18.027 -13.842   0.919  1.00  0.00     0.000 C 
BRANCH  37  38
HETATM   38  C   UNL     1     -16.562 -14.206   1.067  1.00  0.00     0.000 C 
BRANCH  38  39
HETATM   39  C   UNL     1     -16.149 -14.105   2.523  1.00  0.00     0.000 C 
BRANCH  39  40
HETATM   40  C   UNL     1     -15.261 -15.279   2.891  1.00  0.00     0.000 C 
BRANCH  40  41
HETATM   41  C   UNL     1     -14.715 -15.925   1.633  1.00  0.00     0.000 C 
BRANCH  41  42
HETATM   42  C   UNL     1     -13.467 -16.721   1.963  1.00  0.00     0.000 C 
BRANCH  42  43
HETATM   43  C   UNL     1     -12.351 -16.350   1.005  1.00  0.00     0.000 C 
BRANCH  43  44
HETATM   44  C   UNL     1     -11.984 -14.890   1.183  1.00  0.00     0.000 C 
BRANCH  44  45
HETATM   45  C   UNL     1     -11.809 -14.234  -0.173  1.00  0.00     0.000 C 
BRANCH  45  46
HETATM   46  C   UNL     1     -12.460 -15.086  -1.245  1.00  0.00     0.000 C 
BRANCH  46  47
HETATM   47  C   UNL     1     -13.236 -14.203  -2.206  1.00  0.00     0.000 C 
BRANCH  47  48
HETATM   48  C   UNL     1     -14.715 -14.244  -1.867  1.00  0.00     0.000 C 
BRANCH  48  49
HETATM   49  C   UNL     1     -15.407 -13.007  -2.409  1.00  0.00    -0.000 C 
BRANCH  49  50
HETATM   50  C   UNL     1     -15.488 -11.933  -1.335  1.00  0.00    -0.005 C 
HETATM   51  C   UNL     1     -15.746 -10.580  -1.967  1.00  0.00     0.005 C 
ENDBRANCH  49  50
ENDBRANCH  48  49
ENDBRANCH  47  48
ENDBRANCH  46  47
ENDBRANCH  45  46
ENDBRANCH  44  45
ENDBRANCH  43  44
ENDBRANCH  42  43
ENDBRANCH  41  42
ENDBRANCH  40  41
ENDBRANCH  39  40
ENDBRANCH  38  39
ENDBRANCH  37  38
ENDBRANCH  36  37
ENDBRANCH  35  36
ENDBRANCH  34  35
ENDBRANCH  33  34
ENDBRANCH  32  33
ENDBRANCH  31  32
ENDBRANCH  29  31
ENDBRANCH  28  29
ENDBRANCH  27  28
ENDBRANCH   1  27
BRANCH   1  52
HETATM   52  C   UNL     1     -19.581  -8.039  -5.177  1.00  0.00     0.195 C 
BRANCH  52  53
HETATM   53  O   UNL     1     -18.668  -9.142  -4.974  1.00  0.00    -0.320 OA
BRANCH  53  54
HETATM   54  C   UNL     1     -18.037  -9.585  -6.106  1.00  0.00     0.258 C 
HETATM   55  O   UNL     1     -17.791  -8.920  -7.084  1.00  0.00    -0.265 OA
BRANCH  54  56
HETATM   56  C   UNL     1     -17.577 -11.026  -5.925  1.00  0.00     0.111 C 
BRANCH  56  57
HETATM   57  C   UNL     1     -16.262 -11.070  -5.154  1.00  0.00     0.010 C 
BRANCH  57  58
HETATM   58  C   UNL     1     -15.058 -11.095  -6.087  1.00  0.00     0.000 C 
BRANCH  58  59
HETATM   59  C   UNL     1     -13.954 -11.960  -5.498  1.00  0.00     0.000 C 
BRANCH  59  60
HETATM   60  C   UNL     1     -13.456 -12.948  -6.538  1.00  0.00     0.000 C 
BRANCH  60  61
HETATM   61  C   UNL     1     -13.352 -14.336  -5.932  1.00  0.00     0.000 C 
BRANCH  61  62
HETATM   62  C   UNL     1     -14.735 -14.850  -5.582  1.00  0.00     0.000 C 
BRANCH  62  63
HETATM   63  C   UNL     1     -14.704 -16.361  -5.446  1.00  0.00     0.000 C 
BRANCH  63  64
HETATM   64  C   UNL     1     -16.119 -16.909  -5.455  1.00  0.00     0.000 C 
BRANCH  64  65
HETATM   65  C   UNL     1     -16.909 -16.277  -6.585  1.00  0.00     0.000 C 
BRANCH  65  66
HETATM   66  C   UNL     1     -18.374 -16.647  -6.459  1.00  0.00     0.000 C 
BRANCH  66  67
HETATM   67  C   UNL     1     -19.059 -16.505  -7.805  1.00  0.00     0.000 C 
BRANCH  67  68
HETATM   68  C   UNL     1     -18.060 -16.033  -8.843  1.00  0.00     0.000 C 
BRANCH  68  69
HETATM   69  C   UNL     1     -18.127 -16.927 -10.066  1.00  0.00     0.000 C 
BRANCH  69  70
HETATM   70  C   UNL     1     -18.233 -16.078 -11.319  1.00  0.00     0.000 C 
BRANCH  70  71
HETATM   71  C   UNL     1     -17.208 -16.536 -12.339  1.00  0.00     0.000 C 
BRANCH  71  72
HETATM   72  C   UNL     1     -17.465 -15.854 -13.670  1.00  0.00     0.000 C 
BRANCH  72  73
HETATM   73  C   UNL     1     -16.583 -16.468 -14.743  1.00  0.00     0.000 C 
BRANCH  73  74
HETATM   74  C   UNL     1     -16.225 -15.420 -15.783  1.00  0.00    -0.000 C 
BRANCH  74  75
HETATM   75  C   UNL     1     -17.363 -15.255 -16.778  1.00  0.00    -0.005 C 
HETATM   76  C   UNL     1     -17.616 -16.560 -17.504  1.00  0.00     0.005 C 
ENDBRANCH  74  75
ENDBRANCH  73  74
ENDBRANCH  72  73
ENDBRANCH  71  72
ENDBRANCH  70  71
ENDBRANCH  69  70
ENDBRANCH  68  69
ENDBRANCH  67  68
ENDBRANCH  66  67
ENDBRANCH  65  66
ENDBRANCH  64  65
ENDBRANCH  63  64
ENDBRANCH  62  63
ENDBRANCH  61  62
ENDBRANCH  60  61
ENDBRANCH  59  60
ENDBRANCH  58  59
ENDBRANCH  57  58
ENDBRANCH  56  57
ENDBRANCH  54  56
ENDBRANCH  53  54
ENDBRANCH  52  53
ENDBRANCH   1  52
BRANCH   1  77
HETATM   77  C   UNL     1     -22.002  -7.313  -5.059  1.00  0.00     0.195 C 
BRANCH  77  78
HETATM   78  O   UNL     1     -21.489  -6.479  -6.121  1.00  0.00    -0.320 OA
BRANCH  78  79
HETATM   79  C   UNL     1     -22.310  -5.477  -6.555  1.00  0.00     0.258 C 
HETATM   80  O   UNL     1     -23.337  -5.124  -5.992  1.00  0.00    -0.265 OA
BRANCH  79  81
HETATM   81  C   UNL     1     -21.759  -4.836  -7.813  1.00  0.00     0.111 C 
BRANCH  81  82
HETATM   82  C   UNL     1     -22.870  -4.049  -8.508  1.00  0.00     0.010 C 
BRANCH  82  83
HETATM   83  C   UNL     1     -22.899  -4.287 -10.011  1.00  0.00     0.000 C 
BRANCH  83  84
HETATM   84  C   UNL     1     -23.305  -3.011 -10.738  1.00  0.00     0.000 C 
BRANCH  84  85
HETATM   85  C   UNL     1     -23.165  -3.194 -12.239  1.00  0.00     0.000 C 
BRANCH  85  86
HETATM   86  C   UNL     1     -24.532  -3.187 -12.898  1.00  0.00     0.000 C 
BRANCH  86  87
HETATM   87  C   UNL     1     -24.489  -3.981 -14.190  1.00  0.00     0.000 C 
BRANCH  87  88
HETATM   88  C   UNL     1     -23.699  -5.260 -13.985  1.00  0.00     0.000 C 
BRANCH  88  89
HETATM   89  C   UNL     1     -24.255  -6.358 -14.872  1.00  0.00     0.000 C 
BRANCH  89  90
HETATM   90  C   UNL     1     -25.520  -5.875 -15.556  1.00  0.00     0.000 C 
BRANCH  90  91
HETATM   91  C   UNL     1     -26.413  -7.059 -15.881  1.00  0.00     0.000 C 
BRANCH  91  92
HETATM   92  C   UNL     1     -27.830  -6.775 -15.422  1.00  0.00     0.000 C 
BRANCH  92  93
HETATM   93  C   UNL     1     -28.817  -7.417 -16.377  1.00  0.00     0.000 C 
BRANCH  93  94
HETATM   94  C   UNL     1     -29.268  -6.401 -17.410  1.00  0.00     0.000 C 
BRANCH  94  95
HETATM   95  C   UNL     1     -28.748  -6.794 -18.780  1.00  0.00     0.000 C 
BRANCH  95  96
HETATM   96  C   UNL     1     -27.586  -5.901 -19.166  1.00  0.00     0.000 C 
BRANCH  96  97
HETATM   97  C   UNL     1     -26.763  -6.565 -20.255  1.00  0.00     0.000 C 
BRANCH  97  98
HETATM   98  C   UNL     1     -25.337  -6.765 -19.776  1.00  0.00     0.000 C 
BRANCH  98  99
HETATM   99  C   UNL     1     -24.675  -7.879 -20.567  1.00  0.00    -0.000 C 
BRANCH  99 100
HETATM  100  C   UNL     1     -24.380  -7.417 -21.986  1.00  0.00    -0.005 C 
HETATM  101  C   UNL     1     -23.321  -8.300 -22.613  1.00  0.00     0.005 C 
ENDBRANCH  99 100
ENDBRANCH  98  99
ENDBRANCH  97  98
ENDBRANCH  96  97
ENDBRANCH  95  96
ENDBRANCH  94  95
ENDBRANCH  93  94
ENDBRANCH  92  93
ENDBRANCH  91  92
ENDBRANCH  90  91
ENDBRANCH  89  90
ENDBRANCH  88  89
ENDBRANCH  87  88
ENDBRANCH  86  87
ENDBRANCH  85  86
ENDBRANCH  84  85
ENDBRANCH  83  84
ENDBRANCH  82  83
ENDBRANCH  81  82
ENDBRANCH  79  81
ENDBRANCH  78  79
ENDBRANCH  77  78
ENDBRANCH   1  77
TORSDOF 92
BEGIN_RES ARG D 557
REMARK  4 active torsions:
REMARK  status: ('A' for Active; 'I' for Inactive)
REMARK    1  A    between atoms: CA   and  CB  
REMARK    2  A    between atoms: CB   and  CG  
REMARK    3  A    between atoms: CG   and  CD  
REMARK    4  A    between atoms: CD   and  NE  
REMARK       I    between atoms: NE   and  CZ  
REMARK       I    between atoms: CZ   and  NH1 
REMARK       I    between atoms: CZ   and  NH2 
ROOT
ATOM      1  CA  ARG D 557     -26.217   2.705 -17.014  1.00 35.49     0.159 C 
ENDROOT
BRANCH   1   2
ATOM      2  CB  ARG D 557     -26.789   1.319 -17.183  1.00 35.49     0.034 C 
BRANCH   2   3
ATOM      3  CG  ARG D 557     -28.181   1.230 -17.641  1.00 35.49     0.027 C 
BRANCH   3   4
ATOM      4  CD  ARG D 557     -28.963   0.230 -16.878  1.00 35.49     0.116 C 
BRANCH   4   5
ATOM      5  NE  ARG D 557     -28.173  -0.918 -16.520  1.00 35.49    -0.212 N 
ATOM      6  CZ  ARG D 557     -28.454  -2.167 -16.816  1.00 35.49     0.666 C 
ATOM      7  NH1 ARG D 557     -29.538  -2.510 -17.487  1.00 35.49    -0.235 N 
ATOM      8  NH2 ARG D 557     -27.612  -3.080 -16.428  1.00 35.49    -0.235 N 
ATOM      9  HH  ARG D 557     -30.105  -1.925 -17.754  1.00 35.49     0.174 HD
ATOM     10  HH  ARG D 557     -29.668  -3.340 -17.654  1.00 35.49     0.174 HD
ATOM     11  HH  ARG D 557     -26.916  -2.828 -16.003  1.00 35.49     0.174 HD
ATOM     12  HH  ARG D 557     -27.757  -3.897 -16.605  1.00 35.49     0.174 HD
ATOM     13  HE  ARG D 557     -27.493  -0.795 -16.023  1.00 35.49     0.178 HD
ENDBRANCH   4   5
ENDBRANCH   3   4
ENDBRANCH   2   3
ENDBRANCH   1   2
END_RES ARG D 557
BEGIN_RES GLU D 570
REMARK  3 active torsions:
REMARK  status: ('A' for Active; 'I' for Inactive)
REMARK    5  A    between atoms: CA   and  CB  
REMARK    6  A    between atoms: CB   and  CG  
REMARK    7  A    between atoms: CG   and  CD  
ROOT
ATOM     14  CA  GLU D 570     -18.033  -6.348 -13.375  1.00 32.92     0.160 C 
ENDROOT
BRANCH  14  15
ATOM     15  CB  GLU D 570     -19.500  -6.345 -13.794  1.00 32.92     0.043 C 
BRANCH  15  16
ATOM     16  CG  GLU D 570     -20.452  -5.580 -12.948  1.00 32.92     0.100 C 
BRANCH  16  17
ATOM     17  CD  GLU D 570     -19.809  -5.010 -11.705  1.00 32.92     0.185 C 
ATOM     18  OE1 GLU D 570     -19.332  -5.790 -10.858  1.00 32.92    -0.647 OA
ATOM     19  OE2 GLU D 570     -19.798  -3.771 -11.568  1.00 32.92    -0.647 OA
ENDBRANCH  16  17
ENDBRANCH  15  16
ENDBRANCH  14  15
END_RES GLU D 570
ENDMDL
MODEL 6
REMARK VINA RESULT:      -4.6      2.638      8.198
REMARK WARNING: 32 MAX_TORS EXCEEDED!!!
REMARK  92 active torsions:
REMARK  status: ('A' for Active; 'I' for Inactive)
REMARK    1  A    between atoms: C_2  and  C_3 
REMARK    2  A    between atoms: C_3  and  C_4 
REMARK    3  A    between atoms: C_4  and  C_5 
REMARK    4  A    between atoms: C_5  and  C_6 
REMARK    5  A    between atoms: C_6  and  C_7 
REMARK    6  A    between atoms: C_7  and  C_8 
REMARK    7  A    between atoms: C_8  and  C_9 
REMARK    8  A    between atoms: C_9  and  C_10 
REMARK    9  A    between atoms: C_10  and  C_11 
REMARK   10  A    between atoms: C_11  and  C_12 
REMARK   11  A    between atoms: C_12  and  C_13 
REMARK   12  A    between atoms: C_13  and  C_14 
REMARK   13  A    between atoms: C_14  and  C_15 
REMARK   14  A    between atoms: C_15  and  C_16 
REMARK   15  A    between atoms: C_16  and  C_17 
REMARK   16  A    between atoms: C_17  and  C_18 
REMARK   17  A    between atoms: C_18  and  C_19 
REMARK   18  A    between atoms: C_19  and  C_20 
REMARK   19  A    between atoms: C_20  and  C_21 
REMARK   20  A    between atoms: C_21  and  C_22 
REMARK   21  A    between atoms: C_22  and  O_24 
REMARK   22  A    between atoms: O_24  and  C_25 
REMARK   23  A    between atoms: C_25  and  C_26 
REMARK   24  A    between atoms: C_26  and  C_27 
REMARK   25  A    between atoms: C_26  and  C_52 
REMARK   26  A    between atoms: C_26  and  C_77 
REMARK   27  A    between atoms: C_27  and  O_28 
REMARK   28  A    between atoms: O_28  and  C_29 
REMARK   29  A    between atoms: C_29  and  C_31 
REMARK   30  A    between atoms: C_31  and  C_32 
REMARK   31  A    between atoms: C_32  and  C_33 
REMARK   32  A    between atoms: C_33  and  C_34 
REMARK   33  A    between atoms: C_34  and  C_35 
REMARK   34  A    between atoms: C_35  and  C_36 
REMARK   35  A    between atoms: C_36  and  C_37 
REMARK   36  A    between atoms: C_37  and  C_38 
REMARK   37  A    between atoms: C_38  and  C_39 
REMARK   38  A    between atoms: C_39  and  C_40 
REMARK   39  A    between atoms: C_40  and  C_41 
REMARK   40  A    between atoms: C_41  and  C_42 
REMARK   41  A    between atoms: C_42  and  C_43 
REMARK   42  A    between atoms: C_43  and  C_44 
REMARK   43  A    between atoms: C_44  and  C_45 
REMARK   44  A    between atoms: C_45  and  C_46 
REMARK   45  A    between atoms: C_46  and  C_47 
REMARK   46  A    between atoms: C_47  and  C_48 
REMARK   47  A    between atoms: C_48  and  C_49 
REMARK   48  A    between atoms: C_49  and  C_50 
REMARK   49  A    between atoms: C_52  and  O_53 
REMARK   50  A    between atoms: O_53  and  C_54 
REMARK   51  A    between atoms: C_54  and  C_56 
REMARK   52  A    between atoms: C_56  and  C_57 
REMARK   53  A    between atoms: C_57  and  C_58 
REMARK   54  A    between atoms: C_58  and  C_59 
REMARK   55  A    between atoms: C_59  and  C_60 
REMARK   56  A    between atoms: C_60  and  C_61 
REMARK   57  A    between atoms: C_61  and  C_62 
REMARK   58  A    between atoms: C_62  and  C_63 
REMARK   59  A    between atoms: C_63  and  C_64 
REMARK   60  A    between atoms: C_64  and  C_65 
REMARK   61  A    between atoms: C_65  and  C_66 
REMARK   62  A    between atoms: C_66  and  C_67 
REMARK   63  A    between atoms: C_67  and  C_68 
REMARK   64  A    between atoms: C_68  and  C_69 
REMARK   65  A    between atoms: C_69  and  C_70 
REMARK   66  A    between atoms: C_70  and  C_71 
REMARK   67  A    between atoms: C_71  and  C_72 
REMARK   68  A    between atoms: C_72  and  C_73 
REMARK   69  A    between atoms: C_73  and  C_74 
REMARK   70  A    between atoms: C_74  and  C_75 
REMARK   71  A    between atoms: C_77  and  O_78 
REMARK   72  A    between atoms: O_78  and  C_79 
REMARK   73  A    between atoms: C_79  and  C_81 
REMARK   74  A    between atoms: C_81  and  C_82 
REMARK   75  A    between atoms: C_82  and  C_83 
REMARK   76  A    between atoms: C_83  and  C_84 
REMARK   77  A    between atoms: C_84  and  C_85 
REMARK   78  A    between atoms: C_85  and  C_86 
REMARK   79  A    between atoms: C_86  and  C_87 
REMARK   80  A    between atoms: C_87  and  C_88 
REMARK   81  A    between atoms: C_88  and  C_89 
REMARK   82  A    between atoms: C_89  and  C_90 
REMARK   83  A    between atoms: C_90  and  C_91 
REMARK   84  A    between atoms: C_91  and  C_92 
REMARK   85  A    between atoms: C_92  and  C_93 
REMARK   86  A    between atoms: C_93  and  C_94 
REMARK   87  A    between atoms: C_94  and  C_95 
REMARK   88  A    between atoms: C_95  and  C_96 
REMARK   89  A    between atoms: C_96  and  C_97 
REMARK   90  A    between atoms: C_97  and  C_98 
REMARK   91  A    between atoms: C_98  and  C_99 
REMARK   92  A    between atoms: C_99  and  C_100 
ROOT
HETATM    1  C   UNL     1     -19.839  -8.989  -4.346  1.00  0.00     0.048 C 
ENDROOT
BRANCH   1   2
HETATM    2  C   UNL     1     -18.491  -9.719  -4.552  1.00  0.00     0.195 C 
BRANCH   2   3
HETATM    3  O   UNL     1     -17.710  -9.753  -3.334  1.00  0.00    -0.320 OA
BRANCH   3   4
HETATM    4  C   UNL     1     -16.351  -9.657  -3.500  1.00  0.00     0.258 C 
HETATM    5  O   UNL     1     -15.606  -8.990  -2.807  1.00  0.00    -0.265 OA
BRANCH   4   6
HETATM    6  C   UNL     1     -15.874 -10.530  -4.652  1.00  0.00     0.111 C 
BRANCH   6   7
HETATM    7  C   UNL     1     -15.050 -11.684  -4.099  1.00  0.00     0.010 C 
BRANCH   7   8
HETATM    8  C   UNL     1     -15.826 -12.509  -3.082  1.00  0.00     0.000 C 
BRANCH   8   9
HETATM    9  C   UNL     1     -15.173 -12.385  -1.712  1.00  0.00     0.000 C 
BRANCH   9  10
HETATM   10  C   UNL     1     -16.215 -12.048  -0.661  1.00  0.00     0.000 C 
BRANCH  10  11
HETATM   11  C   UNL     1     -15.673 -12.334   0.728  1.00  0.00     0.000 C 
BRANCH  11  12
HETATM   12  C   UNL     1     -16.679 -13.153   1.514  1.00  0.00     0.000 C 
BRANCH  12  13
HETATM   13  C   UNL     1     -16.109 -14.527   1.807  1.00  0.00     0.000 C 
BRANCH  13  14
HETATM   14  C   UNL     1     -17.140 -15.371   2.530  1.00  0.00     0.000 C 
BRANCH  14  15
HETATM   15  C   UNL     1     -17.915 -16.209   1.530  1.00  0.00     0.000 C 
BRANCH  15  16
HETATM   16  C   UNL     1     -19.404 -15.983   1.713  1.00  0.00     0.000 C 
BRANCH  16  17
HETATM   17  C   UNL     1     -19.894 -16.742   2.931  1.00  0.00     0.000 C 
BRANCH  17  18
HETATM   18  C   UNL     1     -21.244 -16.205   3.362  1.00  0.00     0.000 C 
BRANCH  18  19
HETATM   19  C   UNL     1     -22.002 -15.687   2.156  1.00  0.00     0.000 C 
BRANCH  19  20
HETATM   20  C   UNL     1     -23.168 -14.829   2.608  1.00  0.00     0.000 C 
BRANCH  20  21
HETATM   21  C   UNL     1     -23.308 -13.627   1.694  1.00  0.00     0.000 C 
BRANCH  21  22
HETATM   22  C   UNL     1     -21.935 -13.098   1.323  1.00  0.00     0.000 C 
BRANCH  22  23
HETATM   23  C   UNL     1     -22.041 -12.197   0.106  1.00  0.00     0.000 C 
BRANCH  23  24
HETATM   24  C   UNL     1     -23.405 -11.530   0.070  1.00  0.00    -0.000 C 
BRANCH  24  25
HETATM   25  C   UNL     1     -24.058 -11.737  -1.288  1.00  0.00    -0.005 C 
HETATM   26  C   UNL     1     -23.110 -11.320  -2.392  1.00  0.00     0.005 C 
ENDBRANCH  24  25
ENDBRANCH  23  24
ENDBRANCH  22  23
ENDBRANCH  21  22
ENDBRANCH  20  21
ENDBRANCH  19  20
ENDBRANCH  18  19
ENDBRANCH  17  18
ENDBRANCH  16  17
ENDBRANCH  15  16
ENDBRANCH  14  15
ENDBRANCH  13  14
ENDBRANCH  12  13
ENDBRANCH  11  12
ENDBRANCH  10  11
ENDBRANCH   9  10
ENDBRANCH   8   9
ENDBRANCH   7   8
ENDBRANCH   6   7
ENDBRANCH   4   6
ENDBRANCH   3   4
ENDBRANCH   2   3
ENDBRANCH   1   2
BRANCH   1  27
HETATM   27  C   UNL     1     -20.912  -9.630  -5.253  1.00  0.00     0.195 C 
BRANCH  27  28
HETATM   28  O   UNL     1     -20.432 -10.793  -5.966  1.00  0.00    -0.320 OA
BRANCH  28  29
HETATM   29  C   UNL     1     -21.120 -11.952  -5.735  1.00  0.00     0.258 C 
HETATM   30  O   UNL     1     -22.090 -12.342  -6.375  1.00  0.00    -0.265 OA
BRANCH  29  31
HETATM   31  C   UNL     1     -20.454 -12.773  -4.651  1.00  0.00     0.111 C 
BRANCH  31  32
HETATM   32  C   UNL     1     -20.944 -14.220  -4.701  1.00  0.00     0.010 C 
BRANCH  32  33
HETATM   33  C   UNL     1     -20.254 -15.090  -3.657  1.00  0.00     0.000 C 
BRANCH  33  34
HETATM   34  C   UNL     1     -20.245 -14.385  -2.310  1.00  0.00     0.000 C 
BRANCH  34  35
HETATM   35  C   UNL     1     -18.853 -14.432  -1.706  1.00  0.00     0.000 C 
BRANCH  35  36
HETATM   36  C   UNL     1     -18.145 -15.708  -2.127  1.00  0.00     0.000 C 
BRANCH  36  37
HETATM   37  C   UNL     1     -16.722 -15.706  -1.600  1.00  0.00     0.000 C 
BRANCH  37  38
HETATM   38  C   UNL     1     -16.122 -17.093  -1.731  1.00  0.00     0.000 C 
BRANCH  38  39
HETATM   39  C   UNL     1     -14.656 -17.060  -1.342  1.00  0.00     0.000 C 
BRANCH  39  40
HETATM   40  C   UNL     1     -14.227 -15.631  -1.067  1.00  0.00     0.000 C 
BRANCH  40  41
HETATM   41  C   UNL     1     -12.892 -15.356  -1.732  1.00  0.00     0.000 C 
BRANCH  41  42
HETATM   42  C   UNL     1     -13.106 -15.016  -3.194  1.00  0.00     0.000 C 
BRANCH  42  43
HETATM   43  C   UNL     1     -12.557 -16.127  -4.068  1.00  0.00     0.000 C 
BRANCH  43  44
HETATM   44  C   UNL     1     -13.560 -16.472  -5.151  1.00  0.00     0.000 C 
BRANCH  44  45
HETATM   45  C   UNL     1     -14.670 -15.439  -5.174  1.00  0.00     0.000 C 
BRANCH  45  46
HETATM   46  C   UNL     1     -16.019 -16.132  -5.162  1.00  0.00     0.000 C 
BRANCH  46  47
HETATM   47  C   UNL     1     -17.092 -15.183  -5.664  1.00  0.00     0.000 C 
BRANCH  47  48
HETATM   48  C   UNL     1     -16.460 -14.080  -6.493  1.00  0.00     0.000 C 
BRANCH  48  49
HETATM   49  C   UNL     1     -17.517 -13.074  -6.912  1.00  0.00    -0.000 C 
BRANCH  49  50
HETATM   50  C   UNL     1     -18.601 -13.756  -7.732  1.00  0.00    -0.005 C 
HETATM   51  C   UNL     1     -18.889 -12.955  -8.986  1.00  0.00     0.005 C 
ENDBRANCH  49  50
ENDBRANCH  48  49
ENDBRANCH  47  48
ENDBRANCH  46  47
ENDBRANCH  45  46
ENDBRANCH  44  45
ENDBRANCH  43  44
ENDBRANCH  42  43
ENDBRANCH  41  42
ENDBRANCH  40  41
ENDBRANCH  39  40
ENDBRANCH  38  39
ENDBRANCH  37  38
ENDBRANCH  36  37
ENDBRANCH  35  36
ENDBRANCH  34  35
ENDBRANCH  33  34
ENDBRANCH  32  33
ENDBRANCH  31  32
ENDBRANCH  29  31
ENDBRANCH  28  29
ENDBRANCH  27  28
ENDBRANCH   1  27
BRANCH   1  52
HETATM   52  C   UNL     1     -20.285  -9.120  -2.865  1.00  0.00     0.195 C 
BRANCH  52  53
HETATM   53  O   UNL     1     -20.464  -7.840  -2.217  1.00  0.00    -0.320 OA
BRANCH  53  54
HETATM   54  C   UNL     1     -21.657  -7.686  -1.562  1.00  0.00     0.258 C 
HETATM   55  O   UNL     1     -22.123  -8.452  -0.752  1.00  0.00    -0.265 OA
BRANCH  54  56
HETATM   56  C   UNL     1     -22.283  -6.342  -1.912  1.00  0.00     0.111 C 
BRANCH  56  57
HETATM   57  C   UNL     1     -22.079  -6.032  -3.392  1.00  0.00     0.010 C 
BRANCH  57  58
HETATM   58  C   UNL     1     -23.007  -6.855  -4.277  1.00  0.00     0.000 C 
BRANCH  58  59
HETATM   59  C   UNL     1     -23.684  -5.960  -5.303  1.00  0.00     0.000 C 
BRANCH  59  60
HETATM   60  C   UNL     1     -22.776  -5.767  -6.505  1.00  0.00     0.000 C 
BRANCH  60  61
HETATM   61  C   UNL     1     -23.046  -4.420  -7.151  1.00  0.00     0.000 C 
BRANCH  61  62
HETATM   62  C   UNL     1     -23.486  -4.617  -8.589  1.00  0.00     0.000 C 
BRANCH  62  63
HETATM   63  C   UNL     1     -24.174  -3.362  -9.095  1.00  0.00     0.000 C 
BRANCH  63  64
HETATM   64  C   UNL     1     -24.866  -3.649 -10.414  1.00  0.00     0.000 C 
BRANCH  64  65
HETATM   65  C   UNL     1     -24.316  -2.736 -11.493  1.00  0.00     0.000 C 
BRANCH  65  66
HETATM   66  C   UNL     1     -25.138  -2.883 -12.759  1.00  0.00     0.000 C 
BRANCH  66  67
HETATM   67  C   UNL     1     -24.503  -2.084 -13.881  1.00  0.00     0.000 C 
BRANCH  67  68
HETATM   68  C   UNL     1     -25.509  -1.872 -14.995  1.00  0.00     0.000 C 
BRANCH  68  69
HETATM   69  C   UNL     1     -26.743  -2.716 -14.741  1.00  0.00     0.000 C 
BRANCH  69  70
HETATM   70  C   UNL     1     -26.779  -3.882 -15.711  1.00  0.00     0.000 C 
BRANCH  70  71
HETATM   71  C   UNL     1     -27.644  -4.993 -15.149  1.00  0.00     0.000 C 
BRANCH  71  72
HETATM   72  C   UNL     1     -28.286  -5.770 -16.283  1.00  0.00     0.000 C 
BRANCH  72  73
HETATM   73  C   UNL     1     -28.366  -7.243 -15.920  1.00  0.00     0.000 C 
BRANCH  73  74
HETATM   74  C   UNL     1     -29.261  -7.973 -16.907  1.00  0.00    -0.000 C 
BRANCH  74  75
HETATM   75  C   UNL     1     -29.865  -6.991 -17.897  1.00  0.00    -0.005 C 
HETATM   76  C   UNL     1     -31.208  -6.501 -17.395  1.00  0.00     0.005 C 
ENDBRANCH  74  75
ENDBRANCH  73  74
ENDBRANCH  72  73
ENDBRANCH  71  72
ENDBRANCH  70  71
ENDBRANCH  69  70
ENDBRANCH  68  69
ENDBRANCH  67  68
ENDBRANCH  66  67
ENDBRANCH  65  66
ENDBRANCH  64  65
ENDBRANCH  63  64
ENDBRANCH  62  63
ENDBRANCH  61  62
ENDBRANCH  60  61
ENDBRANCH  59  60
ENDBRANCH  58  59
ENDBRANCH  57  58
ENDBRANCH  56  57
ENDBRANCH  54  56
ENDBRANCH  53  54
ENDBRANCH  52  53
ENDBRANCH   1  52
BRANCH   1  77
HETATM   77  C   UNL     1     -19.709  -7.487  -4.709  1.00  0.00     0.195 C 
BRANCH  77  78
HETATM   78  O   UNL     1     -19.732  -7.239  -6.133  1.00  0.00    -0.320 OA
BRANCH  78  79
HETATM   79  C   UNL     1     -19.602  -5.937  -6.523  1.00  0.00     0.258 C 
HETATM   80  O   UNL     1     -19.687  -4.972  -5.776  1.00  0.00    -0.265 OA
BRANCH  79  81
HETATM   81  C   UNL     1     -19.302  -5.847  -8.007  1.00  0.00     0.111 C 
BRANCH  81  82
HETATM   82  C   UNL     1     -19.774  -4.493  -8.536  1.00  0.00     0.010 C 
BRANCH  82  83
HETATM   83  C   UNL     1     -20.179  -4.551 -10.002  1.00  0.00     0.000 C 
BRANCH  83  84
HETATM   84  C   UNL     1     -20.654  -3.181 -10.472  1.00  0.00     0.000 C 
BRANCH  84  85
HETATM   85  C   UNL     1     -21.221  -3.275 -11.877  1.00  0.00     0.000 C 
BRANCH  85  86
HETATM   86  C   UNL     1     -21.874  -4.629 -12.089  1.00  0.00     0.000 C 
BRANCH  86  87
HETATM   87  C   UNL     1     -22.260  -4.795 -13.547  1.00  0.00     0.000 C 
BRANCH  87  88
HETATM   88  C   UNL     1     -23.391  -5.798 -13.672  1.00  0.00     0.000 C 
BRANCH  88  89
HETATM   89  C   UNL     1     -24.055  -5.660 -15.028  1.00  0.00     0.000 C 
BRANCH  89  90
HETATM   90  C   UNL     1     -24.741  -6.961 -15.400  1.00  0.00     0.000 C 
BRANCH  90  91
HETATM   91  C   UNL     1     -23.858  -7.757 -16.344  1.00  0.00     0.000 C 
BRANCH  91  92
HETATM   92  C   UNL     1     -23.869  -7.119 -17.719  1.00  0.00     0.000 C 
BRANCH  92  93
HETATM   93  C   UNL     1     -25.299  -6.888 -18.167  1.00  0.00     0.000 C 
BRANCH  93  94
HETATM   94  C   UNL     1     -25.343  -6.696 -19.671  1.00  0.00     0.000 C 
BRANCH  94  95
HETATM   95  C   UNL     1     -24.222  -7.483 -20.324  1.00  0.00     0.000 C 
BRANCH  95  96
HETATM   96  C   UNL     1     -24.647  -7.936 -21.707  1.00  0.00     0.000 C 
BRANCH  96  97
HETATM   97  C   UNL     1     -23.425  -8.133 -22.585  1.00  0.00     0.000 C 
BRANCH  97  98
HETATM   98  C   UNL     1     -22.374  -8.932 -21.838  1.00  0.00     0.000 C 
BRANCH  98  99
HETATM   99  C   UNL     1     -21.441  -9.613 -22.823  1.00  0.00    -0.000 C 
BRANCH  99 100
HETATM  100  C   UNL     1     -19.991  -9.309 -22.474  1.00  0.00    -0.005 C 
HETATM  101  C   UNL     1     -19.157 -10.569 -22.564  1.00  0.00     0.005 C 
ENDBRANCH  99 100
ENDBRANCH  98  99
ENDBRANCH  97  98
ENDBRANCH  96  97
ENDBRANCH  95  96
ENDBRANCH  94  95
ENDBRANCH  93  94
ENDBRANCH  92  93
ENDBRANCH  91  92
ENDBRANCH  90  91
ENDBRANCH  89  90
ENDBRANCH  88  89
ENDBRANCH  87  88
ENDBRANCH  86  87
ENDBRANCH  85  86
ENDBRANCH  84  85
ENDBRANCH  83  84
ENDBRANCH  82  83
ENDBRANCH  81  82
ENDBRANCH  79  81
ENDBRANCH  78  79
ENDBRANCH  77  78
ENDBRANCH   1  77
TORSDOF 92
BEGIN_RES ARG D 557
REMARK  4 active torsions:
REMARK  status: ('A' for Active; 'I' for Inactive)
REMARK    1  A    between atoms: CA   and  CB  
REMARK    2  A    between atoms: CB   and  CG  
REMARK    3  A    between atoms: CG   and  CD  
REMARK    4  A    between atoms: CD   and  NE  
REMARK       I    between atoms: NE   and  CZ  
REMARK       I    between atoms: CZ   and  NH1 
REMARK       I    between atoms: CZ   and  NH2 
ROOT
ATOM      1  CA  ARG D 557     -26.217   2.705 -17.014  1.00 35.49     0.159 C 
ENDROOT
BRANCH   1   2
ATOM      2  CB  ARG D 557     -26.789   1.319 -17.183  1.00 35.49     0.034 C 
BRANCH   2   3
ATOM      3  CG  ARG D 557     -27.864   0.931 -16.261  1.00 35.49     0.027 C 
BRANCH   3   4
ATOM      4  CD  ARG D 557     -28.970   0.227 -16.949  1.00 35.49     0.116 C 
BRANCH   4   5
ATOM      5  NE  ARG D 557     -28.615  -1.121 -17.308  1.00 35.49    -0.212 N 
ATOM      6  CZ  ARG D 557     -29.456  -2.113 -17.497  1.00 35.49     0.666 C 
ATOM      7  NH1 ARG D 557     -30.761  -1.972 -17.357  1.00 35.49    -0.235 N 
ATOM      8  NH2 ARG D 557     -28.958  -3.265 -17.840  1.00 35.49    -0.235 N 
ATOM      9  HH  ARG D 557     -31.111  -1.222 -17.134  1.00 35.49     0.174 HD
ATOM     10  HH  ARG D 557     -31.261  -2.654 -17.496  1.00 35.49     0.174 HD
ATOM     11  HH  ARG D 557     -28.112  -3.325 -17.930  1.00 35.49     0.174 HD
ATOM     12  HH  ARG D 557     -29.470  -3.928 -17.975  1.00 35.49     0.174 HD
ATOM     13  HE  ARG D 557     -27.789  -1.319 -17.348  1.00 35.49     0.178 HD
ENDBRANCH   4   5
ENDBRANCH   3   4
ENDBRANCH   2   3
ENDBRANCH   1   2
END_RES ARG D 557
BEGIN_RES GLU D 570
REMARK  3 active torsions:
REMARK  status: ('A' for Active; 'I' for Inactive)
REMARK    5  A    between atoms: CA   and  CB  
REMARK    6  A    between atoms: CB   and  CG  
REMARK    7  A    between atoms: CG   and  CD  
ROOT
ATOM     14  CA  GLU D 570     -18.033  -6.348 -13.375  1.00 32.92     0.160 C 
ENDROOT
BRANCH  14  15
ATOM     15  CB  GLU D 570     -19.500  -6.345 -13.794  1.00 32.92     0.043 C 
BRANCH  15  16
ATOM     16  CG  GLU D 570     -19.865  -5.562 -15.003  1.00 32.92     0.100 C 
BRANCH  16  17
ATOM     17  CD  GLU D 570     -20.298  -6.431 -16.160  1.00 32.92     0.185 C 
ATOM     18  OE1 GLU D 570     -20.787  -7.553 -15.924  1.00 32.92    -0.647 OA
ATOM     19  OE2 GLU D 570     -20.131  -5.993 -17.315  1.00 32.92    -0.647 OA
ENDBRANCH  16  17
ENDBRANCH  15  16
ENDBRANCH  14  15
END_RES GLU D 570
ENDMDL
MODEL 7
REMARK VINA RESULT:      -4.4      3.426     14.702
REMARK WARNING: 32 MAX_TORS EXCEEDED!!!
REMARK  92 active torsions:
REMARK  status: ('A' for Active; 'I' for Inactive)
REMARK    1  A    between atoms: C_2  and  C_3 
REMARK    2  A    between atoms: C_3  and  C_4 
REMARK    3  A    between atoms: C_4  and  C_5 
REMARK    4  A    between atoms: C_5  and  C_6 
REMARK    5  A    between atoms: C_6  and  C_7 
REMARK    6  A    between atoms: C_7  and  C_8 
REMARK    7  A    between atoms: C_8  and  C_9 
REMARK    8  A    between atoms: C_9  and  C_10 
REMARK    9  A    between atoms: C_10  and  C_11 
REMARK   10  A    between atoms: C_11  and  C_12 
REMARK   11  A    between atoms: C_12  and  C_13 
REMARK   12  A    between atoms: C_13  and  C_14 
REMARK   13  A    between atoms: C_14  and  C_15 
REMARK   14  A    between atoms: C_15  and  C_16 
REMARK   15  A    between atoms: C_16  and  C_17 
REMARK   16  A    between atoms: C_17  and  C_18 
REMARK   17  A    between atoms: C_18  and  C_19 
REMARK   18  A    between atoms: C_19  and  C_20 
REMARK   19  A    between atoms: C_20  and  C_21 
REMARK   20  A    between atoms: C_21  and  C_22 
REMARK   21  A    between atoms: C_22  and  O_24 
REMARK   22  A    between atoms: O_24  and  C_25 
REMARK   23  A    between atoms: C_25  and  C_26 
REMARK   24  A    between atoms: C_26  and  C_27 
REMARK   25  A    between atoms: C_26  and  C_52 
REMARK   26  A    between atoms: C_26  and  C_77 
REMARK   27  A    between atoms: C_27  and  O_28 
REMARK   28  A    between atoms: O_28  and  C_29 
REMARK   29  A    between atoms: C_29  and  C_31 
REMARK   30  A    between atoms: C_31  and  C_32 
REMARK   31  A    between atoms: C_32  and  C_33 
REMARK   32  A    between atoms: C_33  and  C_34 
REMARK   33  A    between atoms: C_34  and  C_35 
REMARK   34  A    between atoms: C_35  and  C_36 
REMARK   35  A    between atoms: C_36  and  C_37 
REMARK   36  A    between atoms: C_37  and  C_38 
REMARK   37  A    between atoms: C_38  and  C_39 
REMARK   38  A    between atoms: C_39  and  C_40 
REMARK   39  A    between atoms: C_40  and  C_41 
REMARK   40  A    between atoms: C_41  and  C_42 
REMARK   41  A    between atoms: C_42  and  C_43 
REMARK   42  A    between atoms: C_43  and  C_44 
REMARK   43  A    between atoms: C_44  and  C_45 
REMARK   44  A    between atoms: C_45  and  C_46 
REMARK   45  A    between atoms: C_46  and  C_47 
REMARK   46  A    between atoms: C_47  and  C_48 
REMARK   47  A    between atoms: C_48  and  C_49 
REMARK   48  A    between atoms: C_49  and  C_50 
REMARK   49  A    between atoms: C_52  and  O_53 
REMARK   50  A    between atoms: O_53  and  C_54 
REMARK   51  A    between atoms: C_54  and  C_56 
REMARK   52  A    between atoms: C_56  and  C_57 
REMARK   53  A    between atoms: C_57  and  C_58 
REMARK   54  A    between atoms: C_58  and  C_59 
REMARK   55  A    between atoms: C_59  and  C_60 
REMARK   56  A    between atoms: C_60  and  C_61 
REMARK   57  A    between atoms: C_61  and  C_62 
REMARK   58  A    between atoms: C_62  and  C_63 
REMARK   59  A    between atoms: C_63  and  C_64 
REMARK   60  A    between atoms: C_64  and  C_65 
REMARK   61  A    between atoms: C_65  and  C_66 
REMARK   62  A    between atoms: C_66  and  C_67 
REMARK   63  A    between atoms: C_67  and  C_68 
REMARK   64  A    between atoms: C_68  and  C_69 
REMARK   65  A    between atoms: C_69  and  C_70 
REMARK   66  A    between atoms: C_70  and  C_71 
REMARK   67  A    between atoms: C_71  and  C_72 
REMARK   68  A    between atoms: C_72  and  C_73 
REMARK   69  A    between atoms: C_73  and  C_74 
REMARK   70  A    between atoms: C_74  and  C_75 
REMARK   71  A    between atoms: C_77  and  O_78 
REMARK   72  A    between atoms: O_78  and  C_79 
REMARK   73  A    between atoms: C_79  and  C_81 
REMARK   74  A    between atoms: C_81  and  C_82 
REMARK   75  A    between atoms: C_82  and  C_83 
REMARK   76  A    between atoms: C_83  and  C_84 
REMARK   77  A    between atoms: C_84  and  C_85 
REMARK   78  A    between atoms: C_85  and  C_86 
REMARK   79  A    between atoms: C_86  and  C_87 
REMARK   80  A    between atoms: C_87  and  C_88 
REMARK   81  A    between atoms: C_88  and  C_89 
REMARK   82  A    between atoms: C_89  and  C_90 
REMARK   83  A    between atoms: C_90  and  C_91 
REMARK   84  A    between atoms: C_91  and  C_92 
REMARK   85  A    between atoms: C_92  and  C_93 
REMARK   86  A    between atoms: C_93  and  C_94 
REMARK   87  A    between atoms: C_94  and  C_95 
REMARK   88  A    between atoms: C_95  and  C_96 
REMARK   89  A    between atoms: C_96  and  C_97 
REMARK   90  A    between atoms: C_97  and  C_98 
REMARK   91  A    between atoms: C_98  and  C_99 
REMARK   92  A    between atoms: C_99  and  C_100 
ROOT
HETATM    1  C   UNL     1     -20.876  -5.910  -5.183  1.00  0.00     0.048 C 
ENDROOT
BRANCH   1   2
HETATM    2  C   UNL     1     -20.044  -7.202  -5.366  1.00  0.00     0.195 C 
BRANCH   2   3
HETATM    3  O   UNL     1     -20.874  -8.319  -5.763  1.00  0.00    -0.320 OA
BRANCH   3   4
HETATM    4  C   UNL     1     -20.939  -9.355  -4.865  1.00  0.00     0.258 C 
HETATM    5  O   UNL     1     -21.962  -9.804  -4.384  1.00  0.00    -0.265 OA
BRANCH   4   6
HETATM    6  C   UNL     1     -19.553  -9.912  -4.566  1.00  0.00     0.111 C 
BRANCH   6   7
HETATM    7  C   UNL     1     -19.140 -10.856  -5.686  1.00  0.00     0.010 C 
BRANCH   7   8
HETATM    8  C   UNL     1     -18.108 -11.877  -5.227  1.00  0.00     0.000 C 
BRANCH   8   9
HETATM    9  C   UNL     1     -16.785 -11.627  -5.938  1.00  0.00     0.000 C 
BRANCH   9  10
HETATM   10  C   UNL     1     -15.701 -11.295  -4.929  1.00  0.00     0.000 C 
BRANCH  10  11
HETATM   11  C   UNL     1     -15.783  -9.831  -4.532  1.00  0.00     0.000 C 
BRANCH  11  12
HETATM   12  C   UNL     1     -16.265  -9.713  -3.099  1.00  0.00     0.000 C 
BRANCH  12  13
HETATM   13  C   UNL     1     -15.486 -10.668  -2.214  1.00  0.00     0.000 C 
BRANCH  13  14
HETATM   14  C   UNL     1     -16.413 -11.294  -1.189  1.00  0.00     0.000 C 
BRANCH  14  15
HETATM   15  C   UNL     1     -15.611 -11.779   0.004  1.00  0.00     0.000 C 
BRANCH  15  16
HETATM   16  C   UNL     1     -16.543 -12.366   1.047  1.00  0.00     0.000 C 
BRANCH  16  17
HETATM   17  C   UNL     1     -15.741 -13.133   2.080  1.00  0.00     0.000 C 
BRANCH  17  18
HETATM   18  C   UNL     1     -16.387 -14.480   2.338  1.00  0.00     0.000 C 
BRANCH  18  19
HETATM   19  C   UNL     1     -17.385 -14.790   1.240  1.00  0.00     0.000 C 
BRANCH  19  20
HETATM   20  C   UNL     1     -17.161 -16.198   0.721  1.00  0.00     0.000 C 
BRANCH  20  21
HETATM   21  C   UNL     1     -16.139 -16.178  -0.399  1.00  0.00     0.000 C 
BRANCH  21  22
HETATM   22  C   UNL     1     -16.545 -15.163  -1.451  1.00  0.00     0.000 C 
BRANCH  22  23
HETATM   23  C   UNL     1     -15.312 -14.637  -2.164  1.00  0.00     0.000 C 
BRANCH  23  24
HETATM   24  C   UNL     1     -14.091 -14.793  -1.274  1.00  0.00    -0.000 C 
BRANCH  24  25
HETATM   25  C   UNL     1     -12.846 -14.303  -1.996  1.00  0.00    -0.005 C 
HETATM   26  C   UNL     1     -13.234 -13.471  -3.201  1.00  0.00     0.005 C 
ENDBRANCH  24  25
ENDBRANCH  23  24
ENDBRANCH  22  23
ENDBRANCH  21  22
ENDBRANCH  20  21
ENDBRANCH  19  20
ENDBRANCH  18  19
ENDBRANCH  17  18
ENDBRANCH  16  17
ENDBRANCH  15  16
ENDBRANCH  14  15
ENDBRANCH  13  14
ENDBRANCH  12  13
ENDBRANCH  11  12
ENDBRANCH  10  11
ENDBRANCH   9  10
ENDBRANCH   8   9
ENDBRANCH   7   8
ENDBRANCH   6   7
ENDBRANCH   4   6
ENDBRANCH   3   4
ENDBRANCH   2   3
ENDBRANCH   1   2
BRANCH   1  27
HETATM   27  C   UNL     1     -20.078  -4.706  -5.731  1.00  0.00     0.195 C 
BRANCH  27  28
HETATM   28  O   UNL     1     -19.075  -5.084  -6.701  1.00  0.00    -0.320 OA
BRANCH  28  29
HETATM   29  C   UNL     1     -19.530  -5.281  -7.975  1.00  0.00     0.258 C 
HETATM   30  O   UNL     1     -20.016  -6.322  -8.404  1.00  0.00    -0.265 OA
BRANCH  29  31
HETATM   31  C   UNL     1     -19.473  -3.998  -8.777  1.00  0.00     0.111 C 
BRANCH  31  32
HETATM   32  C   UNL     1     -20.012  -4.227 -10.189  1.00  0.00     0.010 C 
BRANCH  32  33
HETATM   33  C   UNL     1     -20.398  -2.919 -10.870  1.00  0.00     0.000 C 
BRANCH  33  34
HETATM   34  C   UNL     1     -21.380  -3.186 -11.999  1.00  0.00     0.000 C 
BRANCH  34  35
HETATM   35  C   UNL     1     -22.286  -1.984 -12.198  1.00  0.00     0.000 C 
BRANCH  35  36
HETATM   36  C   UNL     1     -23.613  -2.422 -12.791  1.00  0.00     0.000 C 
BRANCH  36  37
HETATM   37  C   UNL     1     -23.611  -2.183 -14.289  1.00  0.00     0.000 C 
BRANCH  37  38
HETATM   38  C   UNL     1     -24.943  -1.598 -14.720  1.00  0.00     0.000 C 
BRANCH  38  39
HETATM   39  C   UNL     1     -25.935  -2.714 -14.988  1.00  0.00     0.000 C 
BRANCH  39  40
HETATM   40  C   UNL     1     -27.135  -2.169 -15.738  1.00  0.00     0.000 C 
BRANCH  40  41
HETATM   41  C   UNL     1     -27.796  -3.281 -16.530  1.00  0.00     0.000 C 
BRANCH  41  42
HETATM   42  C   UNL     1     -29.079  -2.774 -17.158  1.00  0.00     0.000 C 
BRANCH  42  43
HETATM   43  C   UNL     1     -29.911  -3.944 -17.647  1.00  0.00     0.000 C 
BRANCH  43  44
HETATM   44  C   UNL     1     -29.108  -4.769 -18.634  1.00  0.00     0.000 C 
BRANCH  44  45
HETATM   45  C   UNL     1     -29.431  -6.241 -18.458  1.00  0.00     0.000 C 
BRANCH  45  46
HETATM   46  C   UNL     1     -28.365  -7.085 -19.129  1.00  0.00     0.000 C 
BRANCH  46  47
HETATM   47  C   UNL     1     -27.067  -6.305 -19.217  1.00  0.00     0.000 C 
BRANCH  47  48
HETATM   48  C   UNL     1     -26.504  -6.393 -20.624  1.00  0.00     0.000 C 
BRANCH  48  49
HETATM   49  C   UNL     1     -25.798  -7.723 -20.819  1.00  0.00    -0.000 C 
BRANCH  49  50
HETATM   50  C   UNL     1     -24.299  -7.559 -20.622  1.00  0.00    -0.005 C 
HETATM   51  C   UNL     1     -23.545  -8.434 -21.603  1.00  0.00     0.005 C 
ENDBRANCH  49  50
ENDBRANCH  48  49
ENDBRANCH  47  48
ENDBRANCH  46  47
ENDBRANCH  45  46
ENDBRANCH  44  45
ENDBRANCH  43  44
ENDBRANCH  42  43
ENDBRANCH  41  42
ENDBRANCH  40  41
ENDBRANCH  39  40
ENDBRANCH  38  39
ENDBRANCH  37  38
ENDBRANCH  36  37
ENDBRANCH  35  36
ENDBRANCH  34  35
ENDBRANCH  33  34
ENDBRANCH  32  33
ENDBRANCH  31  32
ENDBRANCH  29  31
ENDBRANCH  28  29
ENDBRANCH  27  28
ENDBRANCH   1  27
BRANCH   1  52
HETATM   52  C   UNL     1     -22.210  -6.030  -5.967  1.00  0.00     0.195 C 
BRANCH  52  53
HETATM   53  O   UNL     1     -22.876  -4.758  -6.139  1.00  0.00    -0.320 OA
BRANCH  53  54
HETATM   54  C   UNL     1     -22.788  -4.226  -7.398  1.00  0.00     0.258 C 
HETATM   55  O   UNL     1     -22.335  -3.142  -7.678  1.00  0.00    -0.265 OA
BRANCH  54  56
HETATM   56  C   UNL     1     -23.243  -5.246  -8.436  1.00  0.00     0.111 C 
BRANCH  56  57
HETATM   57  C   UNL     1     -23.588  -4.548  -9.748  1.00  0.00     0.010 C 
BRANCH  57  58
HETATM   58  C   UNL     1     -24.185  -5.515 -10.764  1.00  0.00     0.000 C 
BRANCH  58  59
HETATM   59  C   UNL     1     -23.325  -5.556 -12.017  1.00  0.00     0.000 C 
BRANCH  59  60
HETATM   60  C   UNL     1     -24.205  -5.510 -13.254  1.00  0.00     0.000 C 
BRANCH  60  61
HETATM   61  C   UNL     1     -23.412  -5.941 -14.474  1.00  0.00     0.000 C 
BRANCH  61  62
HETATM   62  C   UNL     1     -24.307  -6.713 -15.425  1.00  0.00     0.000 C 
BRANCH  62  63
HETATM   63  C   UNL     1     -25.726  -6.183 -15.343  1.00  0.00     0.000 C 
BRANCH  63  64
HETATM   64  C   UNL     1     -26.683  -7.167 -15.989  1.00  0.00     0.000 C 
BRANCH  64  65
HETATM   65  C   UNL     1     -28.001  -7.173 -15.239  1.00  0.00     0.000 C 
BRANCH  65  66
HETATM   66  C   UNL     1     -28.423  -5.749 -14.929  1.00  0.00     0.000 C 
BRANCH  66  67
HETATM   67  C   UNL     1     -29.857  -5.733 -14.434  1.00  0.00     0.000 C 
BRANCH  67  68
HETATM   68  C   UNL     1     -29.905  -5.198 -13.016  1.00  0.00     0.000 C 
BRANCH  68  69
HETATM   69  C   UNL     1     -31.234  -5.552 -12.377  1.00  0.00     0.000 C 
BRANCH  69  70
HETATM   70  C   UNL     1     -32.146  -4.340 -12.381  1.00  0.00     0.000 C 
BRANCH  70  71
HETATM   71  C   UNL     1     -33.268  -4.537 -11.379  1.00  0.00     0.000 C 
BRANCH  71  72
HETATM   72  C   UNL     1     -33.651  -3.202 -10.765  1.00  0.00     0.000 C 
BRANCH  72  73
HETATM   73  C   UNL     1     -35.019  -2.777 -11.268  1.00  0.00     0.000 C 
BRANCH  73  74
HETATM   74  C   UNL     1     -34.873  -1.956 -12.538  1.00  0.00    -0.000 C 
BRANCH  74  75
HETATM   75  C   UNL     1     -35.252  -0.507 -12.275  1.00  0.00    -0.005 C 
HETATM   76  C   UNL     1     -36.392  -0.092 -13.181  1.00  0.00     0.005 C 
ENDBRANCH  74  75
ENDBRANCH  73  74
ENDBRANCH  72  73
ENDBRANCH  71  72
ENDBRANCH  70  71
ENDBRANCH  69  70
ENDBRANCH  68  69
ENDBRANCH  67  68
ENDBRANCH  66  67
ENDBRANCH  65  66
ENDBRANCH  64  65
ENDBRANCH  63  64
ENDBRANCH  62  63
ENDBRANCH  61  62
ENDBRANCH  60  61
ENDBRANCH  59  60
ENDBRANCH  58  59
ENDBRANCH  57  58
ENDBRANCH  56  57
ENDBRANCH  54  56
ENDBRANCH  53  54
ENDBRANCH  52  53
ENDBRANCH   1  52
BRANCH   1  77
HETATM   77  C   UNL     1     -21.184  -5.665  -3.683  1.00  0.00     0.195 C 
BRANCH  77  78
HETATM   78  O   UNL     1     -22.131  -6.607  -3.133  1.00  0.00    -0.320 OA
BRANCH  78  79
HETATM   79  C   UNL     1     -22.126  -6.749  -1.774  1.00  0.00     0.258 C 
HETATM   80  O   UNL     1     -22.300  -5.838  -0.977  1.00  0.00    -0.265 OA
BRANCH  79  81
HETATM   81  C   UNL     1     -21.906  -8.198  -1.385  1.00  0.00     0.111 C 
BRANCH  81  82
HETATM   82  C   UNL     1     -22.267  -8.385   0.088  1.00  0.00     0.010 C 
BRANCH  82  83
HETATM   83  C   UNL     1     -21.179  -9.113   0.865  1.00  0.00     0.000 C 
BRANCH  83  84
HETATM   84  C   UNL     1     -21.211 -10.603   0.545  1.00  0.00     0.000 C 
BRANCH  84  85
HETATM   85  C   UNL     1     -20.011 -10.983  -0.304  1.00  0.00     0.000 C 
BRANCH  85  86
HETATM   86  C   UNL     1     -19.865 -12.493  -0.359  1.00  0.00     0.000 C 
BRANCH  86  87
HETATM   87  C   UNL     1     -20.710 -13.135   0.726  1.00  0.00     0.000 C 
BRANCH  87  88
HETATM   88  C   UNL     1     -20.927 -14.603   0.413  1.00  0.00     0.000 C 
BRANCH  88  89
HETATM   89  C   UNL     1     -21.542 -15.301   1.611  1.00  0.00     0.000 C 
BRANCH  89  90
HETATM   90  C   UNL     1     -22.144 -14.274   2.551  1.00  0.00     0.000 C 
BRANCH  90  91
HETATM   91  C   UNL     1     -23.650 -14.228   2.367  1.00  0.00     0.000 C 
BRANCH  91  92
HETATM   92  C   UNL     1     -24.313 -15.223   3.301  1.00  0.00     0.000 C 
BRANCH  92  93
HETATM   93  C   UNL     1     -24.480 -16.555   2.596  1.00  0.00     0.000 C 
BRANCH  93  94
HETATM   94  C   UNL     1     -25.569 -16.449   1.546  1.00  0.00     0.000 C 
BRANCH  94  95
HETATM   95  C   UNL     1     -24.978 -16.671   0.166  1.00  0.00     0.000 C 
BRANCH  95  96
HETATM   96  C   UNL     1     -25.342 -15.514  -0.743  1.00  0.00     0.000 C 
BRANCH  96  97
HETATM   97  C   UNL     1     -24.081 -14.855  -1.272  1.00  0.00     0.000 C 
BRANCH  97  98
HETATM   98  C   UNL     1     -24.180 -13.349  -1.116  1.00  0.00     0.000 C 
BRANCH  98  99
HETATM   99  C   UNL     1     -23.121 -12.668  -1.964  1.00  0.00    -0.000 C 
BRANCH  99 100
HETATM  100  C   UNL     1     -22.665 -13.593  -3.083  1.00  0.00    -0.005 C 
HETATM  101  C   UNL     1     -21.316 -13.149  -3.609  1.00  0.00     0.005 C 
ENDBRANCH  99 100
ENDBRANCH  98  99
ENDBRANCH  97  98
ENDBRANCH  96  97
ENDBRANCH  95  96
ENDBRANCH  94  95
ENDBRANCH  93  94
ENDBRANCH  92  93
ENDBRANCH  91  92
ENDBRANCH  90  91
ENDBRANCH  89  90
ENDBRANCH  88  89
ENDBRANCH  87  88
ENDBRANCH  86  87
ENDBRANCH  85  86
ENDBRANCH  84  85
ENDBRANCH  83  84
ENDBRANCH  82  83
ENDBRANCH  81  82
ENDBRANCH  79  81
ENDBRANCH  78  79
ENDBRANCH  77  78
ENDBRANCH   1  77
TORSDOF 92
BEGIN_RES ARG D 557
REMARK  4 active torsions:
REMARK  status: ('A' for Active; 'I' for Inactive)
REMARK    1  A    between atoms: CA   and  CB  
REMARK    2  A    between atoms: CB   and  CG  
REMARK    3  A    between atoms: CG   and  CD  
REMARK    4  A    between atoms: CD   and  NE  
REMARK       I    between atoms: NE   and  CZ  
REMARK       I    between atoms: CZ   and  NH1 
REMARK       I    between atoms: CZ   and  NH2 
ROOT
ATOM      1  CA  ARG D 557     -26.217   2.705 -17.014  1.00 35.49     0.159 C 
ENDROOT
BRANCH   1   2
ATOM      2  CB  ARG D 557     -26.789   1.319 -17.183  1.00 35.49     0.034 C 
BRANCH   2   3
ATOM      3  CG  ARG D 557     -27.593   0.796 -16.072  1.00 35.49     0.027 C 
BRANCH   3   4
ATOM      4  CD  ARG D 557     -28.998   0.542 -16.463  1.00 35.49     0.116 C 
BRANCH   4   5
ATOM      5  NE  ARG D 557     -29.652   1.731 -16.940  1.00 35.49    -0.212 N 
ATOM      6  CZ  ARG D 557     -29.825   2.059 -18.201  1.00 35.49     0.666 C 
ATOM      7  NH1 ARG D 557     -29.387   1.309 -19.195  1.00 35.49    -0.235 N 
ATOM      8  NH2 ARG D 557     -30.460   3.167 -18.452  1.00 35.49    -0.235 N 
ATOM      9  HH  ARG D 557     -28.969   0.575 -19.054  1.00 35.49     0.174 HD
ATOM     10  HH  ARG D 557     -29.532   1.572 -19.998  1.00 35.49     0.174 HD
ATOM     11  HH  ARG D 557     -30.738   3.628 -17.790  1.00 35.49     0.174 HD
ATOM     12  HH  ARG D 557     -30.594   3.410 -19.253  1.00 35.49     0.174 HD
ATOM     13  HE  ARG D 557     -29.901   2.308 -16.367  1.00 35.49     0.178 HD
ENDBRANCH   4   5
ENDBRANCH   3   4
ENDBRANCH   2   3
ENDBRANCH   1   2
END_RES ARG D 557
BEGIN_RES GLU D 570
REMARK  3 active torsions:
REMARK  status: ('A' for Active; 'I' for Inactive)
REMARK    5  A    between atoms: CA   and  CB  
REMARK    6  A    between atoms: CB   and  CG  
REMARK    7  A    between atoms: CG   and  CD  
ROOT
ATOM     14  CA  GLU D 570     -18.033  -6.348 -13.375  1.00 32.92     0.160 C 
ENDROOT
BRANCH  14  15
ATOM     15  CB  GLU D 570     -19.500  -6.345 -13.794  1.00 32.92     0.043 C 
BRANCH  15  16
ATOM     16  CG  GLU D 570     -19.857  -5.602 -15.030  1.00 32.92     0.100 C 
BRANCH  16  17
ATOM     17  CD  GLU D 570     -20.494  -6.479 -16.082  1.00 32.92     0.185 C 
ATOM     18  OE1 GLU D 570     -20.577  -7.706 -15.878  1.00 32.92    -0.647 OA
ATOM     19  OE2 GLU D 570     -20.900  -5.936 -17.129  1.00 32.92    -0.647 OA
ENDBRANCH  16  17
ENDBRANCH  15  16
ENDBRANCH  14  15
END_RES GLU D 570
ENDMDL
MODEL 8
REMARK VINA RESULT:      -4.3      2.447     13.964
REMARK WARNING: 32 MAX_TORS EXCEEDED!!!
REMARK  92 active torsions:
REMARK  status: ('A' for Active; 'I' for Inactive)
REMARK    1  A    between atoms: C_2  and  C_3 
REMARK    2  A    between atoms: C_3  and  C_4 
REMARK    3  A    between atoms: C_4  and  C_5 
REMARK    4  A    between atoms: C_5  and  C_6 
REMARK    5  A    between atoms: C_6  and  C_7 
REMARK    6  A    between atoms: C_7  and  C_8 
REMARK    7  A    between atoms: C_8  and  C_9 
REMARK    8  A    between atoms: C_9  and  C_10 
REMARK    9  A    between atoms: C_10  and  C_11 
REMARK   10  A    between atoms: C_11  and  C_12 
REMARK   11  A    between atoms: C_12  and  C_13 
REMARK   12  A    between atoms: C_13  and  C_14 
REMARK   13  A    between atoms: C_14  and  C_15 
REMARK   14  A    between atoms: C_15  and  C_16 
REMARK   15  A    between atoms: C_16  and  C_17 
REMARK   16  A    between atoms: C_17  and  C_18 
REMARK   17  A    between atoms: C_18  and  C_19 
REMARK   18  A    between atoms: C_19  and  C_20 
REMARK   19  A    between atoms: C_20  and  C_21 
REMARK   20  A    between atoms: C_21  and  C_22 
REMARK   21  A    between atoms: C_22  and  O_24 
REMARK   22  A    between atoms: O_24  and  C_25 
REMARK   23  A    between atoms: C_25  and  C_26 
REMARK   24  A    between atoms: C_26  and  C_27 
REMARK   25  A    between atoms: C_26  and  C_52 
REMARK   26  A    between atoms: C_26  and  C_77 
REMARK   27  A    between atoms: C_27  and  O_28 
REMARK   28  A    between atoms: O_28  and  C_29 
REMARK   29  A    between atoms: C_29  and  C_31 
REMARK   30  A    between atoms: C_31  and  C_32 
REMARK   31  A    between atoms: C_32  and  C_33 
REMARK   32  A    between atoms: C_33  and  C_34 
REMARK   33  A    between atoms: C_34  and  C_35 
REMARK   34  A    between atoms: C_35  and  C_36 
REMARK   35  A    between atoms: C_36  and  C_37 
REMARK   36  A    between atoms: C_37  and  C_38 
REMARK   37  A    between atoms: C_38  and  C_39 
REMARK   38  A    between atoms: C_39  and  C_40 
REMARK   39  A    between atoms: C_40  and  C_41 
REMARK   40  A    between atoms: C_41  and  C_42 
REMARK   41  A    between atoms: C_42  and  C_43 
REMARK   42  A    between atoms: C_43  and  C_44 
REMARK   43  A    between atoms: C_44  and  C_45 
REMARK   44  A    between atoms: C_45  and  C_46 
REMARK   45  A    between atoms: C_46  and  C_47 
REMARK   46  A    between atoms: C_47  and  C_48 
REMARK   47  A    between atoms: C_48  and  C_49 
REMARK   48  A    between atoms: C_49  and  C_50 
REMARK   49  A    between atoms: C_52  and  O_53 
REMARK   50  A    between atoms: O_53  and  C_54 
REMARK   51  A    between atoms: C_54  and  C_56 
REMARK   52  A    between atoms: C_56  and  C_57 
REMARK   53  A    between atoms: C_57  and  C_58 
REMARK   54  A    between atoms: C_58  and  C_59 
REMARK   55  A    between atoms: C_59  and  C_60 
REMARK   56  A    between atoms: C_60  and  C_61 
REMARK   57  A    between atoms: C_61  and  C_62 
REMARK   58  A    between atoms: C_62  and  C_63 
REMARK   59  A    between atoms: C_63  and  C_64 
REMARK   60  A    between atoms: C_64  and  C_65 
REMARK   61  A    between atoms: C_65  and  C_66 
REMARK   62  A    between atoms: C_66  and  C_67 
REMARK   63  A    between atoms: C_67  and  C_68 
REMARK   64  A    between atoms: C_68  and  C_69 
REMARK   65  A    between atoms: C_69  and  C_70 
REMARK   66  A    between atoms: C_70  and  C_71 
REMARK   67  A    between atoms: C_71  and  C_72 
REMARK   68  A    between atoms: C_72  and  C_73 
REMARK   69  A    between atoms: C_73  and  C_74 
REMARK   70  A    between atoms: C_74  and  C_75 
REMARK   71  A    between atoms: C_77  and  O_78 
REMARK   72  A    between atoms: O_78  and  C_79 
REMARK   73  A    between atoms: C_79  and  C_81 
REMARK   74  A    between atoms: C_81  and  C_82 
REMARK   75  A    between atoms: C_82  and  C_83 
REMARK   76  A    between atoms: C_83  and  C_84 
REMARK   77  A    between atoms: C_84  and  C_85 
REMARK   78  A    between atoms: C_85  and  C_86 
REMARK   79  A    between atoms: C_86  and  C_87 
REMARK   80  A    between atoms: C_87  and  C_88 
REMARK   81  A    between atoms: C_88  and  C_89 
REMARK   82  A    between atoms: C_89  and  C_90 
REMARK   83  A    between atoms: C_90  and  C_91 
REMARK   84  A    between atoms: C_91  and  C_92 
REMARK   85  A    between atoms: C_92  and  C_93 
REMARK   86  A    between atoms: C_93  and  C_94 
REMARK   87  A    between atoms: C_94  and  C_95 
REMARK   88  A    between atoms: C_95  and  C_96 
REMARK   89  A    between atoms: C_96  and  C_97 
REMARK   90  A    between atoms: C_97  and  C_98 
REMARK   91  A    between atoms: C_98  and  C_99 
REMARK   92  A    between atoms: C_99  and  C_100 
ROOT
HETATM    1  C   UNL     1     -19.796  -8.609  -4.887  1.00  0.00     0.048 C 
ENDROOT
BRANCH   1   2
HETATM    2  C   UNL     1     -20.937  -9.352  -5.622  1.00  0.00     0.195 C 
BRANCH   2   3
HETATM    3  O   UNL     1     -20.556 -10.704  -5.971  1.00  0.00    -0.320 OA
BRANCH   3   4
HETATM    4  C   UNL     1     -21.248 -11.698  -5.326  1.00  0.00     0.258 C 
HETATM    5  O   UNL     1     -22.356 -11.578  -4.839  1.00  0.00    -0.265 OA
BRANCH   4   6
HETATM    6  C   UNL     1     -20.467 -13.005  -5.329  1.00  0.00     0.111 C 
BRANCH   6   7
HETATM    7  C   UNL     1     -19.664 -13.112  -4.040  1.00  0.00     0.010 C 
BRANCH   7   8
HETATM    8  C   UNL     1     -19.795 -14.483  -3.392  1.00  0.00     0.000 C 
BRANCH   8   9
HETATM    9  C   UNL     1     -18.420 -14.991  -2.979  1.00  0.00     0.000 C 
BRANCH   9  10
HETATM   10  C   UNL     1     -17.358 -13.957  -3.305  1.00  0.00     0.000 C 
BRANCH  10  11
HETATM   11  C   UNL     1     -16.291 -13.941  -2.225  1.00  0.00     0.000 C 
BRANCH  11  12
HETATM   12  C   UNL     1     -16.107 -12.527  -1.706  1.00  0.00     0.000 C 
BRANCH  12  13
HETATM   13  C   UNL     1     -15.808 -12.559  -0.219  1.00  0.00     0.000 C 
BRANCH  13  14
HETATM   14  C   UNL     1     -17.103 -12.611   0.567  1.00  0.00     0.000 C 
BRANCH  14  15
HETATM   15  C   UNL     1     -18.209 -11.926  -0.213  1.00  0.00     0.000 C 
BRANCH  15  16
HETATM   16  C   UNL     1     -19.541 -12.581   0.097  1.00  0.00     0.000 C 
BRANCH  16  17
HETATM   17  C   UNL     1     -19.349 -14.075   0.280  1.00  0.00     0.000 C 
BRANCH  17  18
HETATM   18  C   UNL     1     -20.550 -14.664   0.993  1.00  0.00     0.000 C 
BRANCH  18  19
HETATM   19  C   UNL     1     -21.828 -14.165   0.347  1.00  0.00     0.000 C 
BRANCH  19  20
HETATM   20  C   UNL     1     -22.585 -13.279   1.318  1.00  0.00     0.000 C 
BRANCH  20  21
HETATM   21  C   UNL     1     -23.691 -12.542   0.588  1.00  0.00     0.000 C 
BRANCH  21  22
HETATM   22  C   UNL     1     -23.134 -11.872  -0.654  1.00  0.00     0.000 C 
BRANCH  22  23
HETATM   23  C   UNL     1     -23.282 -10.365  -0.538  1.00  0.00     0.000 C 
BRANCH  23  24
HETATM   24  C   UNL     1     -21.920  -9.700  -0.637  1.00  0.00    -0.000 C 
BRANCH  24  25
HETATM   25  C   UNL     1     -21.782  -8.618   0.422  1.00  0.00    -0.005 C 
HETATM   26  C   UNL     1     -23.110  -7.922   0.633  1.00  0.00     0.005 C 
ENDBRANCH  24  25
ENDBRANCH  23  24
ENDBRANCH  22  23
ENDBRANCH  21  22
ENDBRANCH  20  21
ENDBRANCH  19  20
ENDBRANCH  18  19
ENDBRANCH  17  18
ENDBRANCH  16  17
ENDBRANCH  15  16
ENDBRANCH  14  15
ENDBRANCH  13  14
ENDBRANCH  12  13
ENDBRANCH  11  12
ENDBRANCH  10  11
ENDBRANCH   9  10
ENDBRANCH   8   9
ENDBRANCH   7   8
ENDBRANCH   6   7
ENDBRANCH   4   6
ENDBRANCH   3   4
ENDBRANCH   2   3
ENDBRANCH   1   2
BRANCH   1  27
HETATM   27  C   UNL     1     -19.093  -7.650  -5.873  1.00  0.00     0.195 C 
BRANCH  27  28
HETATM   28  O   UNL     1     -20.001  -7.042  -6.820  1.00  0.00    -0.320 OA
BRANCH  28  29
HETATM   29  C   UNL     1     -19.685  -5.771  -7.210  1.00  0.00     0.258 C 
HETATM   30  O   UNL     1     -19.132  -4.930  -6.510  1.00  0.00    -0.265 OA
BRANCH  29  31
HETATM   31  C   UNL     1     -19.994  -5.560  -8.676  1.00  0.00     0.111 C 
BRANCH  31  32
HETATM   32  C   UNL     1     -19.700  -4.115  -9.081  1.00  0.00     0.010 C 
BRANCH  32  33
HETATM   33  C   UNL     1     -20.754  -3.566 -10.035  1.00  0.00     0.000 C 
BRANCH  33  34
HETATM   34  C   UNL     1     -20.673  -4.283 -11.374  1.00  0.00     0.000 C 
BRANCH  34  35
HETATM   35  C   UNL     1     -22.044  -4.804 -11.769  1.00  0.00     0.000 C 
BRANCH  35  36
HETATM   36  C   UNL     1     -22.169  -4.845 -13.282  1.00  0.00     0.000 C 
BRANCH  36  37
HETATM   37  C   UNL     1     -23.173  -5.908 -13.687  1.00  0.00     0.000 C 
BRANCH  37  38
HETATM   38  C   UNL     1     -23.598  -5.694 -15.127  1.00  0.00     0.000 C 
BRANCH  38  39
HETATM   39  C   UNL     1     -23.944  -7.025 -15.767  1.00  0.00     0.000 C 
BRANCH  39  40
HETATM   40  C   UNL     1     -25.318  -6.950 -16.406  1.00  0.00     0.000 C 
BRANCH  40  41
HETATM   41  C   UNL     1     -26.370  -6.722 -15.338  1.00  0.00     0.000 C 
BRANCH  41  42
HETATM   42  C   UNL     1     -27.728  -7.162 -15.851  1.00  0.00     0.000 C 
BRANCH  42  43
HETATM   43  C   UNL     1     -28.817  -6.658 -14.923  1.00  0.00     0.000 C 
BRANCH  43  44
HETATM   44  C   UNL     1     -29.843  -5.871 -15.715  1.00  0.00     0.000 C 
BRANCH  44  45
HETATM   45  C   UNL     1     -30.462  -6.756 -16.780  1.00  0.00     0.000 C 
BRANCH  45  46
HETATM   46  C   UNL     1     -31.615  -6.032 -17.446  1.00  0.00     0.000 C 
BRANCH  46  47
HETATM   47  C   UNL     1     -32.169  -4.973 -16.510  1.00  0.00     0.000 C 
BRANCH  47  48
HETATM   48  C   UNL     1     -32.201  -3.628 -17.211  1.00  0.00     0.000 C 
BRANCH  48  49
HETATM   49  C   UNL     1     -33.633  -3.254 -17.553  1.00  0.00    -0.000 C 
BRANCH  49  50
HETATM   50  C   UNL     1     -34.372  -2.795 -16.306  1.00  0.00    -0.005 C 
HETATM   51  C   UNL     1     -35.324  -1.667 -16.649  1.00  0.00     0.005 C 
ENDBRANCH  49  50
ENDBRANCH  48  49
ENDBRANCH  47  48
ENDBRANCH  46  47
ENDBRANCH  45  46
ENDBRANCH  44  45
ENDBRANCH  43  44
ENDBRANCH  42  43
ENDBRANCH  41  42
ENDBRANCH  40  41
ENDBRANCH  39  40
ENDBRANCH  38  39
ENDBRANCH  37  38
ENDBRANCH  36  37
ENDBRANCH  35  36
ENDBRANCH  34  35
ENDBRANCH  33  34
ENDBRANCH  32  33
ENDBRANCH  31  32
ENDBRANCH  29  31
ENDBRANCH  28  29
ENDBRANCH  27  28
ENDBRANCH   1  27
BRANCH   1  52
HETATM   52  C   UNL     1     -20.380  -7.784  -3.709  1.00  0.00     0.195 C 
BRANCH  52  53
HETATM   53  O   UNL     1     -20.863  -6.485  -4.119  1.00  0.00    -0.320 OA
BRANCH  53  54
HETATM   54  C   UNL     1     -22.199  -6.272  -3.905  1.00  0.00     0.258 C 
HETATM   55  O   UNL     1     -22.708  -5.974  -2.850  1.00  0.00    -0.265 OA
BRANCH  54  56
HETATM   56  C   UNL     1     -22.965  -6.353  -5.220  1.00  0.00     0.111 C 
BRANCH  56  57
HETATM   57  C   UNL     1     -22.797  -5.059  -6.011  1.00  0.00     0.010 C 
BRANCH  57  58
HETATM   58  C   UNL     1     -23.005  -5.277  -7.505  1.00  0.00     0.000 C 
BRANCH  58  59
HETATM   59  C   UNL     1     -23.629  -4.042  -8.134  1.00  0.00     0.000 C 
BRANCH  59  60
HETATM   60  C   UNL     1     -24.389  -4.425  -9.391  1.00  0.00     0.000 C 
BRANCH  60  61
HETATM   61  C   UNL     1     -24.876  -3.179 -10.107  1.00  0.00     0.000 C 
BRANCH  61  62
HETATM   62  C   UNL     1     -24.511  -3.253 -11.577  1.00  0.00     0.000 C 
BRANCH  62  63
HETATM   63  C   UNL     1     -25.706  -2.859 -12.426  1.00  0.00     0.000 C 
BRANCH  63  64
HETATM   64  C   UNL     1     -25.482  -3.289 -13.864  1.00  0.00     0.000 C 
BRANCH  64  65
HETATM   65  C   UNL     1     -26.383  -2.491 -14.787  1.00  0.00     0.000 C 
BRANCH  65  66
HETATM   66  C   UNL     1     -27.093  -3.426 -15.747  1.00  0.00     0.000 C 
BRANCH  66  67
HETATM   67  C   UNL     1     -28.057  -2.638 -16.614  1.00  0.00     0.000 C 
BRANCH  67  68
HETATM   68  C   UNL     1     -28.753  -3.569 -17.588  1.00  0.00     0.000 C 
BRANCH  68  69
HETATM   69  C   UNL     1     -27.825  -4.711 -17.958  1.00  0.00     0.000 C 
BRANCH  69  70
HETATM   70  C   UNL     1     -28.370  -5.445 -19.169  1.00  0.00     0.000 C 
BRANCH  70  71
HETATM   71  C   UNL     1     -27.582  -6.720 -19.396  1.00  0.00     0.000 C 
BRANCH  71  72
HETATM   72  C   UNL     1     -26.518  -6.487 -20.454  1.00  0.00     0.000 C 
BRANCH  72  73
HETATM   73  C   UNL     1     -25.986  -7.820 -20.952  1.00  0.00     0.000 C 
BRANCH  73  74
HETATM   74  C   UNL     1     -24.470  -7.776 -21.029  1.00  0.00    -0.000 C 
BRANCH  74  75
HETATM   75  C   UNL     1     -24.018  -7.679 -22.477  1.00  0.00    -0.005 C 
HETATM   76  C   UNL     1     -22.827  -8.584 -22.716  1.00  0.00     0.005 C 
ENDBRANCH  74  75
ENDBRANCH  73  74
ENDBRANCH  72  73
ENDBRANCH  71  72
ENDBRANCH  70  71
ENDBRANCH  69  70
ENDBRANCH  68  69
ENDBRANCH  67  68
ENDBRANCH  66  67
ENDBRANCH  65  66
ENDBRANCH  64  65
ENDBRANCH  63  64
ENDBRANCH  62  63
ENDBRANCH  61  62
ENDBRANCH  60  61
ENDBRANCH  59  60
ENDBRANCH  58  59
ENDBRANCH  57  58
ENDBRANCH  56  57
ENDBRANCH  54  56
ENDBRANCH  53  54
ENDBRANCH  52  53
ENDBRANCH   1  52
BRANCH   1  77
HETATM   77  C   UNL     1     -18.752  -9.616  -4.338  1.00  0.00     0.195 C 
BRANCH  77  78
HETATM   78  O   UNL     1     -17.605  -9.778  -5.202  1.00  0.00    -0.320 OA
BRANCH  78  79
HETATM   79  C   UNL     1     -16.386  -9.829  -4.587  1.00  0.00     0.258 C 
HETATM   80  O   UNL     1     -16.177  -9.512  -3.424  1.00  0.00    -0.265 OA
BRANCH  79  81
HETATM   81  C   UNL     1     -15.329 -10.365  -5.533  1.00  0.00     0.111 C 
BRANCH  81  82
HETATM   82  C   UNL     1     -14.788 -11.687  -4.988  1.00  0.00     0.010 C 
BRANCH  82  83
HETATM   83  C   UNL     1     -15.027 -12.850  -5.941  1.00  0.00     0.000 C 
BRANCH  83  84
HETATM   84  C   UNL     1     -15.887 -12.399  -7.115  1.00  0.00     0.000 C 
BRANCH  84  85
HETATM   85  C   UNL     1     -17.255 -13.054  -7.046  1.00  0.00     0.000 C 
BRANCH  85  86
HETATM   86  C   UNL     1     -18.196 -12.410  -8.048  1.00  0.00     0.000 C 
BRANCH  86  87
HETATM   87  C   UNL     1     -19.019 -13.477  -8.745  1.00  0.00     0.000 C 
BRANCH  87  88
HETATM   88  C   UNL     1     -18.104 -14.531  -9.338  1.00  0.00     0.000 C 
BRANCH  88  89
HETATM   89  C   UNL     1     -18.622 -15.915  -8.998  1.00  0.00     0.000 C 
BRANCH  89  90
HETATM   90  C   UNL     1     -17.607 -16.649  -8.143  1.00  0.00     0.000 C 
BRANCH  90  91
HETATM   91  C   UNL     1     -17.985 -16.530  -6.678  1.00  0.00     0.000 C 
BRANCH  91  92
HETATM   92  C   UNL     1     -16.754 -16.720  -5.813  1.00  0.00     0.000 C 
BRANCH  92  93
HETATM   93  C   UNL     1     -15.512 -16.344  -6.597  1.00  0.00     0.000 C 
BRANCH  93  94
HETATM   94  C   UNL     1     -14.275 -16.611  -5.760  1.00  0.00     0.000 C 
BRANCH  94  95
HETATM   95  C   UNL     1     -14.635 -16.586  -4.286  1.00  0.00     0.000 C 
BRANCH  95  96
HETATM   96  C   UNL     1     -13.418 -16.205  -3.465  1.00  0.00     0.000 C 
BRANCH  96  97
HETATM   97  C   UNL     1     -13.049 -14.757  -3.729  1.00  0.00     0.000 C 
BRANCH  97  98
HETATM   98  C   UNL     1     -12.587 -14.098  -2.442  1.00  0.00     0.000 C 
BRANCH  98  99
HETATM   99  C   UNL     1     -12.896 -14.998  -1.258  1.00  0.00    -0.000 C 
BRANCH  99 100
HETATM  100  C   UNL     1     -12.479 -14.323   0.040  1.00  0.00    -0.005 C 
HETATM  101  C   UNL     1     -11.545 -15.225   0.821  1.00  0.00     0.005 C 
ENDBRANCH  99 100
ENDBRANCH  98  99
ENDBRANCH  97  98
ENDBRANCH  96  97
ENDBRANCH  95  96
ENDBRANCH  94  95
ENDBRANCH  93  94
ENDBRANCH  92  93
ENDBRANCH  91  92
ENDBRANCH  90  91
ENDBRANCH  89  90
ENDBRANCH  88  89
ENDBRANCH  87  88
ENDBRANCH  86  87
ENDBRANCH  85  86
ENDBRANCH  84  85
ENDBRANCH  83  84
ENDBRANCH  82  83
ENDBRANCH  81  82
ENDBRANCH  79  81
ENDBRANCH  78  79
ENDBRANCH  77  78
ENDBRANCH   1  77
TORSDOF 92
BEGIN_RES ARG D 557
REMARK  4 active torsions:
REMARK  status: ('A' for Active; 'I' for Inactive)
REMARK    1  A    between atoms: CA   and  CB  
REMARK    2  A    between atoms: CB   and  CG  
REMARK    3  A    between atoms: CG   and  CD  
REMARK    4  A    between atoms: CD   and  NE  
REMARK       I    between atoms: NE   and  CZ  
REMARK       I    between atoms: CZ   and  NH1 
REMARK       I    between atoms: CZ   and  NH2 
ROOT
ATOM      1  CA  ARG D 557     -26.217   2.705 -17.014  1.00 35.49     0.159 C 
ENDROOT
BRANCH   1   2
ATOM      2  CB  ARG D 557     -26.789   1.319 -17.183  1.00 35.49     0.034 C 
BRANCH   2   3
ATOM      3  CG  ARG D 557     -25.868   0.195 -16.976  1.00 35.49     0.027 C 
BRANCH   3   4
ATOM      4  CD  ARG D 557     -24.514   0.640 -16.576  1.00 35.49     0.116 C 
BRANCH   4   5
ATOM      5  NE  ARG D 557     -24.129   0.118 -15.291  1.00 35.49    -0.212 N 
ATOM      6  CZ  ARG D 557     -23.222  -0.810 -15.080  1.00 35.49     0.666 C 
ATOM      7  NH1 ARG D 557     -22.558  -1.389 -16.063  1.00 35.49    -0.235 N 
ATOM      8  NH2 ARG D 557     -22.986  -1.147 -13.845  1.00 35.49    -0.235 N 
ATOM      9  HH  ARG D 557     -22.696  -1.181 -16.882  1.00 35.49     0.174 HD
ATOM     10  HH  ARG D 557     -21.976  -1.986 -15.864  1.00 35.49     0.174 HD
ATOM     11  HH  ARG D 557     -23.425  -0.751 -13.231  1.00 35.49     0.174 HD
ATOM     12  HH  ARG D 557     -22.405  -1.739 -13.669  1.00 35.49     0.174 HD
ATOM     13  HE  ARG D 557     -24.559   0.383 -14.607  1.00 35.49     0.178 HD
ENDBRANCH   4   5
ENDBRANCH   3   4
ENDBRANCH   2   3
ENDBRANCH   1   2
END_RES ARG D 557
BEGIN_RES GLU D 570
REMARK  3 active torsions:
REMARK  status: ('A' for Active; 'I' for Inactive)
REMARK    5  A    between atoms: CA   and  CB  
REMARK    6  A    between atoms: CB   and  CG  
REMARK    7  A    between atoms: CG   and  CD  
ROOT
ATOM     14  CA  GLU D 570     -18.033  -6.348 -13.375  1.00 32.92     0.160 C 
ENDROOT
BRANCH  14  15
ATOM     15  CB  GLU D 570     -19.500  -6.345 -13.794  1.00 32.92     0.043 C 
BRANCH  15  16
ATOM     16  CG  GLU D 570     -20.069  -7.620 -14.303  1.00 32.92     0.100 C 
BRANCH  16  17
ATOM     17  CD  GLU D 570     -20.456  -7.551 -15.762  1.00 32.92     0.185 C 
ATOM     18  OE1 GLU D 570     -20.373  -6.461 -16.360  1.00 32.92    -0.647 OA
ATOM     19  OE2 GLU D 570     -20.863  -8.596 -16.308  1.00 32.92    -0.647 OA
ENDBRANCH  16  17
ENDBRANCH  15  16
ENDBRANCH  14  15
END_RES GLU D 570
ENDMDL
MODEL 9
REMARK VINA RESULT:      -4.3      2.756     14.824
REMARK WARNING: 32 MAX_TORS EXCEEDED!!!
REMARK  92 active torsions:
REMARK  status: ('A' for Active; 'I' for Inactive)
REMARK    1  A    between atoms: C_2  and  C_3 
REMARK    2  A    between atoms: C_3  and  C_4 
REMARK    3  A    between atoms: C_4  and  C_5 
REMARK    4  A    between atoms: C_5  and  C_6 
REMARK    5  A    between atoms: C_6  and  C_7 
REMARK    6  A    between atoms: C_7  and  C_8 
REMARK    7  A    between atoms: C_8  and  C_9 
REMARK    8  A    between atoms: C_9  and  C_10 
REMARK    9  A    between atoms: C_10  and  C_11 
REMARK   10  A    between atoms: C_11  and  C_12 
REMARK   11  A    between atoms: C_12  and  C_13 
REMARK   12  A    between atoms: C_13  and  C_14 
REMARK   13  A    between atoms: C_14  and  C_15 
REMARK   14  A    between atoms: C_15  and  C_16 
REMARK   15  A    between atoms: C_16  and  C_17 
REMARK   16  A    between atoms: C_17  and  C_18 
REMARK   17  A    between atoms: C_18  and  C_19 
REMARK   18  A    between atoms: C_19  and  C_20 
REMARK   19  A    between atoms: C_20  and  C_21 
REMARK   20  A    between atoms: C_21  and  C_22 
REMARK   21  A    between atoms: C_22  and  O_24 
REMARK   22  A    between atoms: O_24  and  C_25 
REMARK   23  A    between atoms: C_25  and  C_26 
REMARK   24  A    between atoms: C_26  and  C_27 
REMARK   25  A    between atoms: C_26  and  C_52 
REMARK   26  A    between atoms: C_26  and  C_77 
REMARK   27  A    between atoms: C_27  and  O_28 
REMARK   28  A    between atoms: O_28  and  C_29 
REMARK   29  A    between atoms: C_29  and  C_31 
REMARK   30  A    between atoms: C_31  and  C_32 
REMARK   31  A    between atoms: C_32  and  C_33 
REMARK   32  A    between atoms: C_33  and  C_34 
REMARK   33  A    between atoms: C_34  and  C_35 
REMARK   34  A    between atoms: C_35  and  C_36 
REMARK   35  A    between atoms: C_36  and  C_37 
REMARK   36  A    between atoms: C_37  and  C_38 
REMARK   37  A    between atoms: C_38  and  C_39 
REMARK   38  A    between atoms: C_39  and  C_40 
REMARK   39  A    between atoms: C_40  and  C_41 
REMARK   40  A    between atoms: C_41  and  C_42 
REMARK   41  A    between atoms: C_42  and  C_43 
REMARK   42  A    between atoms: C_43  and  C_44 
REMARK   43  A    between atoms: C_44  and  C_45 
REMARK   44  A    between atoms: C_45  and  C_46 
REMARK   45  A    between atoms: C_46  and  C_47 
REMARK   46  A    between atoms: C_47  and  C_48 
REMARK   47  A    between atoms: C_48  and  C_49 
REMARK   48  A    between atoms: C_49  and  C_50 
REMARK   49  A    between atoms: C_52  and  O_53 
REMARK   50  A    between atoms: O_53  and  C_54 
REMARK   51  A    between atoms: C_54  and  C_56 
REMARK   52  A    between atoms: C_56  and  C_57 
REMARK   53  A    between atoms: C_57  and  C_58 
REMARK   54  A    between atoms: C_58  and  C_59 
REMARK   55  A    between atoms: C_59  and  C_60 
REMARK   56  A    between atoms: C_60  and  C_61 
REMARK   57  A    between atoms: C_61  and  C_62 
REMARK   58  A    between atoms: C_62  and  C_63 
REMARK   59  A    between atoms: C_63  and  C_64 
REMARK   60  A    between atoms: C_64  and  C_65 
REMARK   61  A    between atoms: C_65  and  C_66 
REMARK   62  A    between atoms: C_66  and  C_67 
REMARK   63  A    between atoms: C_67  and  C_68 
REMARK   64  A    between atoms: C_68  and  C_69 
REMARK   65  A    between atoms: C_69  and  C_70 
REMARK   66  A    between atoms: C_70  and  C_71 
REMARK   67  A    between atoms: C_71  and  C_72 
REMARK   68  A    between atoms: C_72  and  C_73 
REMARK   69  A    between atoms: C_73  and  C_74 
REMARK   70  A    between atoms: C_74  and  C_75 
REMARK   71  A    between atoms: C_77  and  O_78 
REMARK   72  A    between atoms: O_78  and  C_79 
REMARK   73  A    between atoms: C_79  and  C_81 
REMARK   74  A    between atoms: C_81  and  C_82 
REMARK   75  A    between atoms: C_82  and  C_83 
REMARK   76  A    between atoms: C_83  and  C_84 
REMARK   77  A    between atoms: C_84  and  C_85 
REMARK   78  A    between atoms: C_85  and  C_86 
REMARK   79  A    between atoms: C_86  and  C_87 
REMARK   80  A    between atoms: C_87  and  C_88 
REMARK   81  A    between atoms: C_88  and  C_89 
REMARK   82  A    between atoms: C_89  and  C_90 
REMARK   83  A    between atoms: C_90  and  C_91 
REMARK   84  A    between atoms: C_91  and  C_92 
REMARK   85  A    between atoms: C_92  and  C_93 
REMARK   86  A    between atoms: C_93  and  C_94 
REMARK   87  A    between atoms: C_94  and  C_95 
REMARK   88  A    between atoms: C_95  and  C_96 
REMARK   89  A    between atoms: C_96  and  C_97 
REMARK   90  A    between atoms: C_97  and  C_98 
REMARK   91  A    between atoms: C_98  and  C_99 
REMARK   92  A    between atoms: C_99  and  C_100 
ROOT
HETATM    1  C   UNL     1     -20.887  -5.826  -5.525  1.00  0.00     0.048 C 
ENDROOT
BRANCH   1   2
HETATM    2  C   UNL     1     -20.049  -7.074  -5.889  1.00  0.00     0.195 C 
BRANCH   2   3
HETATM    3  O   UNL     1     -19.669  -7.824  -4.711  1.00  0.00    -0.320 OA
BRANCH   3   4
HETATM    4  C   UNL     1     -19.561  -9.181  -4.885  1.00  0.00     0.258 C 
HETATM    5  O   UNL     1     -20.422  -9.994  -4.607  1.00  0.00    -0.265 OA
BRANCH   4   6
HETATM    6  C   UNL     1     -18.225  -9.552  -5.515  1.00  0.00     0.111 C 
BRANCH   6   7
HETATM    7  C   UNL     1     -17.423 -10.394  -4.532  1.00  0.00     0.010 C 
BRANCH   7   8
HETATM    8  C   UNL     1     -17.213  -9.683  -3.203  1.00  0.00     0.000 C 
BRANCH   8   9
HETATM    9  C   UNL     1     -16.095 -10.365  -2.425  1.00  0.00     0.000 C 
BRANCH   9  10
HETATM   10  C   UNL     1     -15.318 -11.301  -3.333  1.00  0.00     0.000 C 
BRANCH  10  11
HETATM   11  C   UNL     1     -14.843 -12.515  -2.555  1.00  0.00     0.000 C 
BRANCH  11  12
HETATM   12  C   UNL     1     -13.953 -13.373  -3.434  1.00  0.00     0.000 C 
BRANCH  12  13
HETATM   13  C   UNL     1     -14.197 -13.040  -4.894  1.00  0.00     0.000 C 
BRANCH  13  14
HETATM   14  C   UNL     1     -14.831 -14.226  -5.595  1.00  0.00     0.000 C 
BRANCH  14  15
HETATM   15  C   UNL     1     -16.214 -13.852  -6.092  1.00  0.00     0.000 C 
BRANCH  15  16
HETATM   16  C   UNL     1     -16.813 -15.010  -6.869  1.00  0.00     0.000 C 
BRANCH  16  17
HETATM   17  C   UNL     1     -18.303 -14.792  -7.049  1.00  0.00     0.000 C 
BRANCH  17  18
HETATM   18  C   UNL     1     -18.571 -14.169  -8.406  1.00  0.00     0.000 C 
BRANCH  18  19
HETATM   19  C   UNL     1     -19.414 -12.920  -8.242  1.00  0.00     0.000 C 
BRANCH  19  20
HETATM   20  C   UNL     1     -20.004 -12.876  -6.846  1.00  0.00     0.000 C 
BRANCH  20  21
HETATM   21  C   UNL     1     -21.381 -12.240  -6.888  1.00  0.00     0.000 C 
BRANCH  21  22
HETATM   22  C   UNL     1     -22.356 -13.065  -6.069  1.00  0.00     0.000 C 
BRANCH  22  23
HETATM   23  C   UNL     1     -21.948 -14.527  -6.101  1.00  0.00     0.000 C 
BRANCH  23  24
HETATM   24  C   UNL     1     -22.772 -15.319  -5.100  1.00  0.00    -0.000 C 
BRANCH  24  25
HETATM   25  C   UNL     1     -23.036 -14.484  -3.856  1.00  0.00    -0.005 C 
HETATM   26  C   UNL     1     -22.876 -15.335  -2.613  1.00  0.00     0.005 C 
ENDBRANCH  24  25
ENDBRANCH  23  24
ENDBRANCH  22  23
ENDBRANCH  21  22
ENDBRANCH  20  21
ENDBRANCH  19  20
ENDBRANCH  18  19
ENDBRANCH  17  18
ENDBRANCH  16  17
ENDBRANCH  15  16
ENDBRANCH  14  15
ENDBRANCH  13  14
ENDBRANCH  12  13
ENDBRANCH  11  12
ENDBRANCH  10  11
ENDBRANCH   9  10
ENDBRANCH   8   9
ENDBRANCH   7   8
ENDBRANCH   6   7
ENDBRANCH   4   6
ENDBRANCH   3   4
ENDBRANCH   2   3
ENDBRANCH   1   2
BRANCH   1  27
HETATM   27  C   UNL     1     -20.200  -4.564  -6.091  1.00  0.00     0.195 C 
BRANCH  27  28
HETATM   28  O   UNL     1     -19.179  -4.865  -7.070  1.00  0.00    -0.320 OA
BRANCH  28  29
HETATM   29  C   UNL     1     -19.627  -5.073  -8.345  1.00  0.00     0.258 C 
HETATM   30  O   UNL     1     -20.060  -6.133  -8.782  1.00  0.00    -0.265 OA
BRANCH  29  31
HETATM   31  C   UNL     1     -19.638  -3.781  -9.135  1.00  0.00     0.111 C 
BRANCH  31  32
HETATM   32  C   UNL     1     -20.057  -4.044 -10.581  1.00  0.00     0.010 C 
BRANCH  32  33
HETATM   33  C   UNL     1     -20.492  -2.766 -11.288  1.00  0.00     0.000 C 
BRANCH  33  34
HETATM   34  C   UNL     1     -21.570  -3.076 -12.315  1.00  0.00     0.000 C 
BRANCH  34  35
HETATM   35  C   UNL     1     -22.630  -1.988 -12.302  1.00  0.00     0.000 C 
BRANCH  35  36
HETATM   36  C   UNL     1     -23.824  -2.414 -13.137  1.00  0.00     0.000 C 
BRANCH  36  37
HETATM   37  C   UNL     1     -23.683  -1.877 -14.549  1.00  0.00     0.000 C 
BRANCH  37  38
HETATM   38  C   UNL     1     -25.000  -1.280 -15.008  1.00  0.00     0.000 C 
BRANCH  38  39
HETATM   39  C   UNL     1     -26.076  -2.349 -15.018  1.00  0.00     0.000 C 
BRANCH  39  40
HETATM   40  C   UNL     1     -27.223  -1.919 -15.913  1.00  0.00     0.000 C 
BRANCH  40  41
HETATM   41  C   UNL     1     -27.885  -3.139 -16.525  1.00  0.00     0.000 C 
BRANCH  41  42
HETATM   42  C   UNL     1     -29.144  -2.727 -17.262  1.00  0.00     0.000 C 
BRANCH  42  43
HETATM   43  C   UNL     1     -29.970  -3.954 -17.596  1.00  0.00     0.000 C 
BRANCH  43  44
HETATM   44  C   UNL     1     -29.129  -4.944 -18.377  1.00  0.00     0.000 C 
BRANCH  44  45
HETATM   45  C   UNL     1     -29.742  -6.328 -18.284  1.00  0.00     0.000 C 
BRANCH  45  46
HETATM   46  C   UNL     1     -28.754  -7.364 -18.783  1.00  0.00     0.000 C 
BRANCH  46  47
HETATM   47  C   UNL     1     -27.612  -6.679 -19.512  1.00  0.00     0.000 C 
BRANCH  47  48
HETATM   48  C   UNL     1     -27.133  -7.552 -20.658  1.00  0.00     0.000 C 
BRANCH  48  49
HETATM   49  C   UNL     1     -25.627  -7.431 -20.809  1.00  0.00    -0.000 C 
BRANCH  49  50
HETATM   50  C   UNL     1     -25.046  -6.601 -19.675  1.00  0.00    -0.005 C 
HETATM   51  C   UNL     1     -23.838  -7.297 -19.083  1.00  0.00     0.005 C 
ENDBRANCH  49  50
ENDBRANCH  48  49
ENDBRANCH  47  48
ENDBRANCH  46  47
ENDBRANCH  45  46
ENDBRANCH  44  45
ENDBRANCH  43  44
ENDBRANCH  42  43
ENDBRANCH  41  42
ENDBRANCH  40  41
ENDBRANCH  39  40
ENDBRANCH  38  39
ENDBRANCH  37  38
ENDBRANCH  36  37
ENDBRANCH  35  36
ENDBRANCH  34  35
ENDBRANCH  33  34
ENDBRANCH  32  33
ENDBRANCH  31  32
ENDBRANCH  29  31
ENDBRANCH  28  29
ENDBRANCH  27  28
ENDBRANCH   1  27
BRANCH   1  52
HETATM   52  C   UNL     1     -22.306  -5.949  -6.142  1.00  0.00     0.195 C 
BRANCH  52  53
HETATM   53  O   UNL     1     -22.955  -4.669  -6.317  1.00  0.00    -0.320 OA
BRANCH  53  54
HETATM   54  C   UNL     1     -22.920  -4.172  -7.593  1.00  0.00     0.258 C 
HETATM   55  O   UNL     1     -22.471  -3.101  -7.923  1.00  0.00    -0.265 OA
BRANCH  54  56
HETATM   56  C   UNL     1     -23.432  -5.215  -8.579  1.00  0.00     0.111 C 
BRANCH  56  57
HETATM   57  C   UNL     1     -23.369  -4.673 -10.004  1.00  0.00     0.010 C 
BRANCH  57  58
HETATM   58  C   UNL     1     -24.063  -5.600 -10.994  1.00  0.00     0.000 C 
BRANCH  58  59
HETATM   59  C   UNL     1     -23.303  -5.623 -12.311  1.00  0.00     0.000 C 
BRANCH  59  60
HETATM   60  C   UNL     1     -24.259  -5.391 -13.468  1.00  0.00     0.000 C 
BRANCH  60  61
HETATM   61  C   UNL     1     -23.662  -5.932 -14.755  1.00  0.00     0.000 C 
BRANCH  61  62
HETATM   62  C   UNL     1     -24.614  -6.930 -15.386  1.00  0.00     0.000 C 
BRANCH  62  63
HETATM   63  C   UNL     1     -25.716  -6.195 -16.126  1.00  0.00     0.000 C 
BRANCH  63  64
HETATM   64  C   UNL     1     -27.068  -6.753 -15.724  1.00  0.00     0.000 C 
BRANCH  64  65
HETATM   65  C   UNL     1     -27.872  -5.685 -15.005  1.00  0.00     0.000 C 
BRANCH  65  66
HETATM   66  C   UNL     1     -29.229  -6.239 -14.615  1.00  0.00     0.000 C 
BRANCH  66  67
HETATM   67  C   UNL     1     -30.114  -5.118 -14.103  1.00  0.00     0.000 C 
BRANCH  67  68
HETATM   68  C   UNL     1     -30.647  -5.472 -12.728  1.00  0.00     0.000 C 
BRANCH  68  69
HETATM   69  C   UNL     1     -31.883  -4.646 -12.428  1.00  0.00     0.000 C 
BRANCH  69  70
HETATM   70  C   UNL     1     -32.773  -5.387 -11.449  1.00  0.00     0.000 C 
BRANCH  70  71
HETATM   71  C   UNL     1     -33.736  -4.417 -10.792  1.00  0.00     0.000 C 
BRANCH  71  72
HETATM   72  C   UNL     1     -33.303  -2.990 -11.074  1.00  0.00     0.000 C 
BRANCH  72  73
HETATM   73  C   UNL     1     -34.462  -2.040 -10.827  1.00  0.00     0.000 C 
BRANCH  73  74
HETATM   74  C   UNL     1     -34.738  -1.222 -12.077  1.00  0.00    -0.000 C 
BRANCH  74  75
HETATM   75  C   UNL     1     -36.048  -0.465 -11.933  1.00  0.00    -0.005 C 
HETATM   76  C   UNL     1     -36.560  -0.043 -13.295  1.00  0.00     0.005 C 
ENDBRANCH  74  75
ENDBRANCH  73  74
ENDBRANCH  72  73
ENDBRANCH  71  72
ENDBRANCH  70  71
ENDBRANCH  69  70
ENDBRANCH  68  69
ENDBRANCH  67  68
ENDBRANCH  66  67
ENDBRANCH  65  66
ENDBRANCH  64  65
ENDBRANCH  63  64
ENDBRANCH  62  63
ENDBRANCH  61  62
ENDBRANCH  60  61
ENDBRANCH  59  60
ENDBRANCH  58  59
ENDBRANCH  57  58
ENDBRANCH  56  57
ENDBRANCH  54  56
ENDBRANCH  53  54
ENDBRANCH  52  53
ENDBRANCH   1  52
BRANCH   1  77
HETATM   77  C   UNL     1     -21.011  -5.680  -3.985  1.00  0.00     0.195 C 
BRANCH  77  78
HETATM   78  O   UNL     1     -22.185  -6.324  -3.443  1.00  0.00    -0.320 OA
BRANCH  78  79
HETATM   79  C   UNL     1     -22.127  -6.677  -2.125  1.00  0.00     0.258 C 
HETATM   80  O   UNL     1     -22.526  -5.985  -1.199  1.00  0.00    -0.265 OA
BRANCH  79  81
HETATM   81  C   UNL     1     -21.531  -8.062  -1.964  1.00  0.00     0.111 C 
BRANCH  81  82
HETATM   82  C   UNL     1     -21.172  -8.291  -0.496  1.00  0.00     0.010 C 
BRANCH  82  83
HETATM   83  C   UNL     1     -22.219  -9.119   0.236  1.00  0.00     0.000 C 
BRANCH  83  84
HETATM   84  C   UNL     1     -22.942 -10.036  -0.742  1.00  0.00     0.000 C 
BRANCH  84  85
HETATM   85  C   UNL     1     -23.794 -11.042   0.012  1.00  0.00     0.000 C 
BRANCH  85  86
HETATM   86  C   UNL     1     -23.318 -12.454  -0.278  1.00  0.00     0.000 C 
BRANCH  86  87
HETATM   87  C   UNL     1     -22.188 -12.824   0.665  1.00  0.00     0.000 C 
BRANCH  87  88
HETATM   88  C   UNL     1     -21.015 -13.372  -0.124  1.00  0.00     0.000 C 
BRANCH  88  89
HETATM   89  C   UNL     1     -19.859 -12.391  -0.078  1.00  0.00     0.000 C 
BRANCH  89  90
HETATM   90  C   UNL     1     -19.752 -11.658  -1.402  1.00  0.00     0.000 C 
BRANCH  90  91
HETATM   91  C   UNL     1     -20.203 -12.566  -2.531  1.00  0.00     0.000 C 
BRANCH  91  92
HETATM   92  C   UNL     1     -18.998 -13.239  -3.161  1.00  0.00     0.000 C 
BRANCH  92  93
HETATM   93  C   UNL     1     -19.341 -14.672  -3.521  1.00  0.00     0.000 C 
BRANCH  93  94
HETATM   94  C   UNL     1     -18.581 -15.624  -2.617  1.00  0.00     0.000 C 
BRANCH  94  95
HETATM   95  C   UNL     1     -17.101 -15.290  -2.645  1.00  0.00     0.000 C 
BRANCH  95  96
HETATM   96  C   UNL     1     -16.480 -15.589  -1.294  1.00  0.00     0.000 C 
BRANCH  96  97
HETATM   97  C   UNL     1     -17.498 -15.353  -0.194  1.00  0.00     0.000 C 
BRANCH  97  98
HETATM   98  C   UNL     1     -16.929 -14.401   0.842  1.00  0.00     0.000 C 
BRANCH  98  99
HETATM   99  C   UNL     1     -15.415 -14.513   0.873  1.00  0.00    -0.000 C 
BRANCH  99 100
HETATM  100  C   UNL     1     -14.787 -13.138   1.045  1.00  0.00    -0.005 C 
HETATM  101  C   UNL     1     -15.848 -12.063   0.941  1.00  0.00     0.005 C 
ENDBRANCH  99 100
ENDBRANCH  98  99
ENDBRANCH  97  98
ENDBRANCH  96  97
ENDBRANCH  95  96
ENDBRANCH  94  95
ENDBRANCH  93  94
ENDBRANCH  92  93
ENDBRANCH  91  92
ENDBRANCH  90  91
ENDBRANCH  89  90
ENDBRANCH  88  89
ENDBRANCH  87  88
ENDBRANCH  86  87
ENDBRANCH  85  86
ENDBRANCH  84  85
ENDBRANCH  83  84
ENDBRANCH  82  83
ENDBRANCH  81  82
ENDBRANCH  79  81
ENDBRANCH  78  79
ENDBRANCH  77  78
ENDBRANCH   1  77
TORSDOF 92
BEGIN_RES ARG D 557
REMARK  4 active torsions:
REMARK  status: ('A' for Active; 'I' for Inactive)
REMARK    1  A    between atoms: CA   and  CB  
REMARK    2  A    between atoms: CB   and  CG  
REMARK    3  A    between atoms: CG   and  CD  
REMARK    4  A    between atoms: CD   and  NE  
REMARK       I    between atoms: NE   and  CZ  
REMARK       I    between atoms: CZ   and  NH1 
REMARK       I    between atoms: CZ   and  NH2 
ROOT
ATOM      1  CA  ARG D 557     -26.217   2.705 -17.014  1.00 35.49     0.159 C 
ENDROOT
BRANCH   1   2
ATOM      2  CB  ARG D 557     -26.789   1.319 -17.183  1.00 35.49     0.034 C 
BRANCH   2   3
ATOM      3  CG  ARG D 557     -26.868   0.799 -18.554  1.00 35.49     0.027 C 
BRANCH   3   4
ATOM      4  CD  ARG D 557     -28.246   0.415 -18.933  1.00 35.49     0.116 C 
BRANCH   4   5
ATOM      5  NE  ARG D 557     -29.101   0.259 -17.786  1.00 35.49    -0.212 N 
ATOM      6  CZ  ARG D 557     -29.952   1.153 -17.335  1.00 35.49     0.666 C 
ATOM      7  NH1 ARG D 557     -30.106   2.335 -17.902  1.00 35.49    -0.235 N 
ATOM      8  NH2 ARG D 557     -30.663   0.833 -16.293  1.00 35.49    -0.235 N 
ATOM      9  HH  ARG D 557     -29.650   2.566 -18.590  1.00 35.49     0.174 HD
ATOM     10  HH  ARG D 557     -30.678   2.877 -17.565  1.00 35.49     0.174 HD
ATOM     11  HH  ARG D 557     -30.548   0.059 -15.952  1.00 35.49     0.174 HD
ATOM     12  HH  ARG D 557     -31.226   1.382 -15.976  1.00 35.49     0.174 HD
ATOM     13  HE  ARG D 557     -29.016  -0.445 -17.317  1.00 35.49     0.178 HD
ENDBRANCH   4   5
ENDBRANCH   3   4
ENDBRANCH   2   3
ENDBRANCH   1   2
END_RES ARG D 557
BEGIN_RES GLU D 570
REMARK  3 active torsions:
REMARK  status: ('A' for Active; 'I' for Inactive)
REMARK    5  A    between atoms: CA   and  CB  
REMARK    6  A    between atoms: CB   and  CG  
REMARK    7  A    between atoms: CG   and  CD  
ROOT
ATOM     14  CA  GLU D 570     -18.033  -6.348 -13.375  1.00 32.92     0.160 C 
ENDROOT
BRANCH  14  15
ATOM     15  CB  GLU D 570     -19.500  -6.345 -13.794  1.00 32.92     0.043 C 
BRANCH  15  16
ATOM     16  CG  GLU D 570     -19.796  -6.291 -15.249  1.00 32.92     0.100 C 
BRANCH  16  17
ATOM     17  CD  GLU D 570     -20.556  -7.501 -15.741  1.00 32.92     0.185 C 
ATOM     18  OE1 GLU D 570     -21.221  -7.412 -16.791  1.00 32.92    -0.647 OA
ATOM     19  OE2 GLU D 570     -20.500  -8.544 -15.060  1.00 32.92    -0.647 OA
ENDBRANCH  16  17
ENDBRANCH  15  16
ENDBRANCH  14  15
END_RES GLU D 570
ENDMDL
