MODEL 1
REMARK VINA RESULT:      -7.6      0.000      0.000
REMARK  12 active torsions:
REMARK  status: ('A' for Active; 'I' for Inactive)
REMARK    1  A    between atoms: C_1  and  C_2 
REMARK    2  A    between atoms: C_1  and  O_23 
REMARK    3  A    between atoms: C_3  and  O_22 
REMARK    4  A    between atoms: C_4  and  O_21 
REMARK    5  A    between atoms: C_5  and  O_20 
REMARK    6  A    between atoms: C_6  and  O_8 
REMARK    7  A    between atoms: O_8  and  C_9 
REMARK    8  A    between atoms: C_10  and  C_18 
REMARK    9  A    between atoms: C_12  and  O_17 
REMARK   10  A    between atoms: C_13  and  O_16 
REMARK   11  A    between atoms: C_14  and  O_15 
REMARK   12  A    between atoms: C_18  and  O_19 
ROOT
HETATM    1  O   UNL     1     -24.552  -2.844 -12.215  1.00  0.00    -0.348 OA
ENDROOT
BRANCH   1   2
HETATM    2  C   UNL     1     -23.671  -3.592 -11.344  1.00  0.00     0.292 C 
HETATM    3  C   UNL     1     -24.371  -3.952 -10.017  1.00  0.00     0.204 C 
HETATM    4  C   UNL     1     -23.389  -4.673  -9.092  1.00  0.00     0.183 C 
HETATM    5  C   UNL     1     -22.142  -3.818  -8.840  1.00  0.00     0.180 C 
HETATM    6  C   UNL     1     -21.530  -3.381 -10.189  1.00  0.00     0.179 C 
HETATM    7  O   UNL     1     -22.519  -2.780 -11.062  1.00  0.00    -0.348 OA
BRANCH   3   8
HETATM    8  O   UNL     1     -24.850  -2.755  -9.372  1.00  0.00    -0.388 OA
HETATM    9  H   UNL     1     -24.322  -2.642  -8.553  1.00  0.00     0.210 HD
ENDBRANCH   3   8
BRANCH   4  10
HETATM   10  O   UNL     1     -24.050  -5.004  -7.871  1.00  0.00    -0.390 OA
HETATM   11  H   UNL     1     -23.580  -4.494  -7.181  1.00  0.00     0.210 HD
ENDBRANCH   4  10
BRANCH   5  12
HETATM   12  O   UNL     1     -22.475  -2.653  -8.064  1.00  0.00    -0.390 OA
HETATM   13  H   UNL     1     -21.839  -1.951  -8.304  1.00  0.00     0.210 HD
ENDBRANCH   5  12
BRANCH   6  14
HETATM   14  C   UNL     1     -20.758  -4.521 -10.879  1.00  0.00     0.198 C 
BRANCH  14  15
HETATM   15  O   UNL     1     -20.051  -4.031 -12.010  1.00  0.00    -0.398 OA
HETATM   16  H   UNL     1     -20.638  -4.092 -12.784  1.00  0.00     0.209 HD
ENDBRANCH  14  15
ENDBRANCH   6  14
ENDBRANCH   1   2
BRANCH   1  17
HETATM   17  C   UNL     1     -24.819  -3.431 -13.520  1.00  0.00     0.187 C 
HETATM   18  C   UNL     1     -24.057  -4.757 -13.728  1.00  0.00     0.180 C 
HETATM   19  O   UNL     1     -22.643  -4.562 -13.867  1.00  0.00    -0.349 OA
HETATM   20  C   UNL     1     -22.214  -3.592 -14.809  1.00  0.00     0.288 C 
HETATM   21  C   UNL     1     -22.925  -2.229 -14.705  1.00  0.00     0.204 C 
HETATM   22  C   UNL     1     -24.444  -2.408 -14.611  1.00  0.00     0.183 C 
BRANCH  18  23
HETATM   23  C   UNL     1     -24.664  -5.630 -14.842  1.00  0.00     0.198 C 
BRANCH  23  24
HETATM   24  O   UNL     1     -24.298  -7.000 -14.710  1.00  0.00    -0.398 OA
HETATM   25  H   UNL     1     -24.839  -7.515 -15.341  1.00  0.00     0.209 HD
ENDBRANCH  23  24
ENDBRANCH  18  23
BRANCH  20  26
HETATM   26  O   UNL     1     -22.234  -4.097 -16.138  1.00  0.00    -0.369 OA
HETATM   27  H   UNL     1     -21.945  -3.372 -16.729  1.00  0.00     0.212 HD
ENDBRANCH  20  26
BRANCH  21  28
HETATM   28  O   UNL     1     -22.583  -1.401 -15.829  1.00  0.00    -0.388 OA
HETATM   29  H   UNL     1     -23.059  -0.555 -15.702  1.00  0.00     0.210 HD
ENDBRANCH  21  28
BRANCH  22  30
HETATM   30  O   UNL     1     -25.123  -1.177 -14.345  1.00  0.00    -0.390 OA
HETATM   31  H   UNL     1     -26.044  -1.401 -14.088  1.00  0.00     0.210 HD
ENDBRANCH  22  30
ENDBRANCH   1  17
TORSDOF 12
BEGIN_RES ARG D 557
REMARK  4 active torsions:
REMARK  status: ('A' for Active; 'I' for Inactive)
REMARK    1  A    between atoms: CA   and  CB  
REMARK    2  A    between atoms: CB   and  CG  
REMARK    3  A    between atoms: CG   and  CD  
REMARK    4  A    between atoms: CD   and  NE  
REMARK       I    between atoms: NE   and  CZ  
REMARK       I    between atoms: CZ   and  NH1 
REMARK       I    between atoms: CZ   and  NH2 
ROOT
ATOM      1  CA  ARG D 557     -26.217   2.705 -17.014  1.00 35.49     0.159 C 
ENDROOT
BRANCH   1   2
ATOM      2  CB  ARG D 557     -26.789   1.319 -17.183  1.00 35.49     0.034 C 
BRANCH   2   3
ATOM      3  CG  ARG D 557     -28.229   1.227 -17.453  1.00 35.49     0.027 C 
BRANCH   3   4
ATOM      4  CD  ARG D 557     -28.921   0.310 -16.519  1.00 35.49     0.116 C 
BRANCH   4   5
ATOM      5  NE  ARG D 557     -29.269  -0.939 -17.143  1.00 35.49    -0.212 N 
ATOM      6  CZ  ARG D 557     -28.615  -2.072 -17.011  1.00 35.49     0.666 C 
ATOM      7  NH1 ARG D 557     -27.523  -2.179 -16.276  1.00 35.49    -0.235 N 
ATOM      8  NH2 ARG D 557     -29.086  -3.113 -17.633  1.00 35.49    -0.235 N 
ATOM      9  HH  ARG D 557     -27.197  -1.507 -15.856  1.00 35.49     0.174 HD
ATOM     10  HH  ARG D 557     -27.141  -2.944 -16.225  1.00 35.49     0.174 HD
ATOM     11  HH  ARG D 557     -29.797  -3.016 -18.095  1.00 35.49     0.174 HD
ATOM     12  HH  ARG D 557     -28.694  -3.862 -17.569  1.00 35.49     0.174 HD
ATOM     13  HE  ARG D 557     -29.918  -0.944 -17.692  1.00 35.49     0.178 HD
ENDBRANCH   4   5
ENDBRANCH   3   4
ENDBRANCH   2   3
ENDBRANCH   1   2
END_RES ARG D 557
BEGIN_RES GLU D 570
REMARK  3 active torsions:
REMARK  status: ('A' for Active; 'I' for Inactive)
REMARK    5  A    between atoms: CA   and  CB  
REMARK    6  A    between atoms: CB   and  CG  
REMARK    7  A    between atoms: CG   and  CD  
ROOT
ATOM     14  CA  GLU D 570     -18.033  -6.348 -13.375  1.00 32.92     0.160 C 
ENDROOT
BRANCH  14  15
ATOM     15  CB  GLU D 570     -19.500  -6.345 -13.794  1.00 32.92     0.043 C 
BRANCH  15  16
ATOM     16  CG  GLU D 570     -19.796  -6.319 -15.250  1.00 32.92     0.100 C 
BRANCH  16  17
ATOM     17  CD  GLU D 570     -20.819  -7.352 -15.662  1.00 32.92     0.185 C 
ATOM     18  OE1 GLU D 570     -20.640  -8.542 -15.339  1.00 32.92    -0.647 OA
ATOM     19  OE2 GLU D 570     -21.800  -6.970 -16.329  1.00 32.92    -0.647 OA
ENDBRANCH  16  17
ENDBRANCH  15  16
ENDBRANCH  14  15
END_RES GLU D 570
ENDMDL
MODEL 2
REMARK VINA RESULT:      -6.7      1.601      5.222
REMARK  12 active torsions:
REMARK  status: ('A' for Active; 'I' for Inactive)
REMARK    1  A    between atoms: C_1  and  C_2 
REMARK    2  A    between atoms: C_1  and  O_23 
REMARK    3  A    between atoms: C_3  and  O_22 
REMARK    4  A    between atoms: C_4  and  O_21 
REMARK    5  A    between atoms: C_5  and  O_20 
REMARK    6  A    between atoms: C_6  and  O_8 
REMARK    7  A    between atoms: O_8  and  C_9 
REMARK    8  A    between atoms: C_10  and  C_18 
REMARK    9  A    between atoms: C_12  and  O_17 
REMARK   10  A    between atoms: C_13  and  O_16 
REMARK   11  A    between atoms: C_14  and  O_15 
REMARK   12  A    between atoms: C_18  and  O_19 
ROOT
HETATM    1  O   UNL     1     -23.063  -4.826 -10.669  1.00  0.00    -0.348 OA
ENDROOT
BRANCH   1   2
HETATM    2  C   UNL     1     -23.123  -4.459 -12.067  1.00  0.00     0.292 C 
HETATM    3  C   UNL     1     -23.690  -3.036 -12.248  1.00  0.00     0.204 C 
HETATM    4  C   UNL     1     -23.811  -2.711 -13.738  1.00  0.00     0.183 C 
HETATM    5  C   UNL     1     -24.685  -3.745 -14.457  1.00  0.00     0.180 C 
HETATM    6  C   UNL     1     -24.157  -5.166 -14.164  1.00  0.00     0.179 C 
HETATM    7  O   UNL     1     -23.979  -5.395 -12.743  1.00  0.00    -0.348 OA
BRANCH   3   8
HETATM    8  O   UNL     1     -24.989  -2.940 -11.627  1.00  0.00    -0.388 OA
HETATM    9  H   UNL     1     -25.525  -3.684 -11.974  1.00  0.00     0.210 HD
ENDBRANCH   3   8
BRANCH   4  10
HETATM   10  O   UNL     1     -24.333  -1.390 -13.890  1.00  0.00    -0.390 OA
HETATM   11  H   UNL     1     -23.814  -0.995 -14.619  1.00  0.00     0.210 HD
ENDBRANCH   4  10
BRANCH   5  12
HETATM   12  O   UNL     1     -26.053  -3.643 -14.022  1.00  0.00    -0.390 OA
HETATM   13  H   UNL     1     -26.524  -4.431 -14.354  1.00  0.00     0.210 HD
ENDBRANCH   5  12
BRANCH   6  14
HETATM   14  C   UNL     1     -22.887  -5.497 -14.971  1.00  0.00     0.198 C 
BRANCH  14  15
HETATM   15  O   UNL     1     -23.217  -6.236 -16.138  1.00  0.00    -0.398 OA
HETATM   16  H   UNL     1     -24.071  -5.908 -16.473  1.00  0.00     0.209 HD
ENDBRANCH  14  15
ENDBRANCH   6  14
ENDBRANCH   1   2
BRANCH   1  17
HETATM   17  C   UNL     1     -22.314  -3.932  -9.799  1.00  0.00     0.187 C 
HETATM   18  C   UNL     1     -20.948  -4.527  -9.392  1.00  0.00     0.180 C 
HETATM   19  O   UNL     1     -21.079  -5.638  -8.496  1.00  0.00    -0.349 OA
HETATM   20  C   UNL     1     -21.899  -5.454  -7.353  1.00  0.00     0.288 C 
HETATM   21  C   UNL     1     -23.284  -4.845  -7.640  1.00  0.00     0.204 C 
HETATM   22  C   UNL     1     -23.167  -3.621  -8.553  1.00  0.00     0.183 C 
BRANCH  18  23
HETATM   23  C   UNL     1     -19.952  -3.461  -8.900  1.00  0.00     0.198 C 
BRANCH  23  24
HETATM   24  O   UNL     1     -19.021  -3.989  -7.962  1.00  0.00    -0.398 OA
HETATM   25  H   UNL     1     -18.988  -4.958  -8.087  1.00  0.00     0.209 HD
ENDBRANCH  23  24
ENDBRANCH  18  23
BRANCH  20  26
HETATM   26  O   UNL     1     -21.219  -4.752  -6.319  1.00  0.00    -0.369 OA
HETATM   27  H   UNL     1     -20.426  -5.277  -6.085  1.00  0.00     0.212 HD
ENDBRANCH  20  26
BRANCH  21  28
HETATM   28  O   UNL     1     -23.941  -4.497  -6.410  1.00  0.00    -0.388 OA
HETATM   29  H   UNL     1     -23.260  -4.553  -5.709  1.00  0.00     0.210 HD
ENDBRANCH  21  28
BRANCH  22  30
HETATM   30  O   UNL     1     -24.443  -3.131  -8.977  1.00  0.00    -0.390 OA
HETATM   31  H   UNL     1     -24.997  -3.025  -8.174  1.00  0.00     0.210 HD
ENDBRANCH  22  30
ENDBRANCH   1  17
TORSDOF 12
BEGIN_RES ARG D 557
REMARK  4 active torsions:
REMARK  status: ('A' for Active; 'I' for Inactive)
REMARK    1  A    between atoms: CA   and  CB  
REMARK    2  A    between atoms: CB   and  CG  
REMARK    3  A    between atoms: CG   and  CD  
REMARK    4  A    between atoms: CD   and  NE  
REMARK       I    between atoms: NE   and  CZ  
REMARK       I    between atoms: CZ   and  NH1 
REMARK       I    between atoms: CZ   and  NH2 
ROOT
ATOM      1  CA  ARG D 557     -26.217   2.705 -17.014  1.00 35.49     0.159 C 
ENDROOT
BRANCH   1   2
ATOM      2  CB  ARG D 557     -26.789   1.319 -17.183  1.00 35.49     0.034 C 
BRANCH   2   3
ATOM      3  CG  ARG D 557     -28.237   1.225 -17.408  1.00 35.49     0.027 C 
BRANCH   3   4
ATOM      4  CD  ARG D 557     -28.892   0.280 -16.474  1.00 35.49     0.116 C 
BRANCH   4   5
ATOM      5  NE  ARG D 557     -29.268  -0.949 -17.122  1.00 35.49    -0.212 N 
ATOM      6  CZ  ARG D 557     -28.634  -2.096 -17.021  1.00 35.49     0.666 C 
ATOM      7  NH1 ARG D 557     -27.537  -2.239 -16.300  1.00 35.49    -0.235 N 
ATOM      8  NH2 ARG D 557     -29.129  -3.114 -17.662  1.00 35.49    -0.235 N 
ATOM      9  HH  ARG D 557     -27.195  -1.582 -15.868  1.00 35.49     0.174 HD
ATOM     10  HH  ARG D 557     -27.168  -3.011 -16.269  1.00 35.49     0.174 HD
ATOM     11  HH  ARG D 557     -29.842  -2.994 -18.114  1.00 35.49     0.174 HD
ATOM     12  HH  ARG D 557     -28.750  -3.871 -17.618  1.00 35.49     0.174 HD
ATOM     13  HE  ARG D 557     -29.922  -0.931 -17.665  1.00 35.49     0.178 HD
ENDBRANCH   4   5
ENDBRANCH   3   4
ENDBRANCH   2   3
ENDBRANCH   1   2
END_RES ARG D 557
BEGIN_RES GLU D 570
REMARK  3 active torsions:
REMARK  status: ('A' for Active; 'I' for Inactive)
REMARK    5  A    between atoms: CA   and  CB  
REMARK    6  A    between atoms: CB   and  CG  
REMARK    7  A    between atoms: CG   and  CD  
ROOT
ATOM     14  CA  GLU D 570     -18.033  -6.348 -13.375  1.00 32.92     0.160 C 
ENDROOT
BRANCH  14  15
ATOM     15  CB  GLU D 570     -19.500  -6.345 -13.794  1.00 32.92     0.043 C 
BRANCH  15  16
ATOM     16  CG  GLU D 570     -20.098  -7.642 -14.203  1.00 32.92     0.100 C 
BRANCH  16  17
ATOM     17  CD  GLU D 570     -20.469  -7.685 -15.667  1.00 32.92     0.185 C 
ATOM     18  OE1 GLU D 570     -20.125  -6.743 -16.406  1.00 32.92    -0.647 OA
ATOM     19  OE2 GLU D 570     -21.126  -8.663 -16.075  1.00 32.92    -0.647 OA
ENDBRANCH  16  17
ENDBRANCH  15  16
ENDBRANCH  14  15
END_RES GLU D 570
ENDMDL
MODEL 3
REMARK VINA RESULT:      -6.5      1.340      5.130
REMARK  12 active torsions:
REMARK  status: ('A' for Active; 'I' for Inactive)
REMARK    1  A    between atoms: C_1  and  C_2 
REMARK    2  A    between atoms: C_1  and  O_23 
REMARK    3  A    between atoms: C_3  and  O_22 
REMARK    4  A    between atoms: C_4  and  O_21 
REMARK    5  A    between atoms: C_5  and  O_20 
REMARK    6  A    between atoms: C_6  and  O_8 
REMARK    7  A    between atoms: O_8  and  C_9 
REMARK    8  A    between atoms: C_10  and  C_18 
REMARK    9  A    between atoms: C_12  and  O_17 
REMARK   10  A    between atoms: C_13  and  O_16 
REMARK   11  A    between atoms: C_14  and  O_15 
REMARK   12  A    between atoms: C_18  and  O_19 
ROOT
HETATM    1  O   UNL     1     -23.797  -4.672 -11.022  1.00  0.00    -0.348 OA
ENDROOT
BRANCH   1   2
HETATM    2  C   UNL     1     -24.238  -4.337 -12.358  1.00  0.00     0.292 C 
HETATM    3  C   UNL     1     -23.761  -5.386 -13.384  1.00  0.00     0.204 C 
HETATM    4  C   UNL     1     -24.178  -4.962 -14.793  1.00  0.00     0.183 C 
HETATM    5  C   UNL     1     -23.628  -3.572 -15.134  1.00  0.00     0.180 C 
HETATM    6  C   UNL     1     -24.030  -2.569 -14.030  1.00  0.00     0.179 C 
HETATM    7  O   UNL     1     -23.689  -3.056 -12.707  1.00  0.00    -0.348 OA
BRANCH   3   8
HETATM    8  O   UNL     1     -22.325  -5.515 -13.325  1.00  0.00    -0.388 OA
HETATM    9  H   UNL     1     -21.954  -4.841 -13.932  1.00  0.00     0.210 HD
ENDBRANCH   3   8
BRANCH   4  10
HETATM   10  O   UNL     1     -23.733  -5.943 -15.731  1.00  0.00    -0.390 OA
HETATM   11  H   UNL     1     -23.051  -6.458 -15.254  1.00  0.00     0.210 HD
ENDBRANCH   4  10
BRANCH   5  12
HETATM   12  O   UNL     1     -22.195  -3.608 -15.251  1.00  0.00    -0.390 OA
HETATM   13  H   UNL     1     -21.875  -4.340 -14.688  1.00  0.00     0.210 HD
ENDBRANCH   5  12
BRANCH   6  14
HETATM   14  C   UNL     1     -25.506  -2.145 -14.133  1.00  0.00     0.198 C 
BRANCH  14  15
HETATM   15  O   UNL     1     -25.721  -1.364 -15.300  1.00  0.00    -0.398 OA
HETATM   16  H   UNL     1     -24.988  -1.535 -15.917  1.00  0.00     0.209 HD
ENDBRANCH  14  15
ENDBRANCH   6  14
ENDBRANCH   1   2
BRANCH   1  17
HETATM   17  C   UNL     1     -22.899  -3.722 -10.383  1.00  0.00     0.187 C 
HETATM   18  C   UNL     1     -21.457  -4.265 -10.279  1.00  0.00     0.180 C 
HETATM   19  O   UNL     1     -21.341  -5.338  -9.335  1.00  0.00    -0.349 OA
HETATM   20  C   UNL     1     -21.883  -5.123  -8.041  1.00  0.00     0.288 C 
HETATM   21  C   UNL     1     -23.317  -4.561  -8.025  1.00  0.00     0.204 C 
HETATM   22  C   UNL     1     -23.454  -3.376  -8.986  1.00  0.00     0.183 C 
BRANCH  18  23
HETATM   23  C   UNL     1     -20.411  -3.154 -10.070  1.00  0.00     0.198 C 
BRANCH  23  24
HETATM   24  O   UNL     1     -20.108  -2.468 -11.280  1.00  0.00    -0.398 OA
HETATM   25  H   UNL     1     -19.921  -3.140 -11.965  1.00  0.00     0.209 HD
ENDBRANCH  23  24
ENDBRANCH  18  23
BRANCH  20  26
HETATM   26  O   UNL     1     -21.008  -4.359  -7.219  1.00  0.00    -0.369 OA
HETATM   27  H   UNL     1     -20.122  -4.387  -7.635  1.00  0.00     0.212 HD
ENDBRANCH  20  26
BRANCH  21  28
HETATM   28  O   UNL     1     -23.686  -4.174  -6.691  1.00  0.00    -0.388 OA
HETATM   29  H   UNL     1     -24.583  -4.537  -6.537  1.00  0.00     0.210 HD
ENDBRANCH  21  28
BRANCH  22  30
HETATM   30  O   UNL     1     -24.809  -2.937  -9.123  1.00  0.00    -0.390 OA
HETATM   31  H   UNL     1     -25.298  -3.642  -9.600  1.00  0.00     0.210 HD
ENDBRANCH  22  30
ENDBRANCH   1  17
TORSDOF 12
BEGIN_RES ARG D 557
REMARK  4 active torsions:
REMARK  status: ('A' for Active; 'I' for Inactive)
REMARK    1  A    between atoms: CA   and  CB  
REMARK    2  A    between atoms: CB   and  CG  
REMARK    3  A    between atoms: CG   and  CD  
REMARK    4  A    between atoms: CD   and  NE  
REMARK       I    between atoms: NE   and  CZ  
REMARK       I    between atoms: CZ   and  NH1 
REMARK       I    between atoms: CZ   and  NH2 
ROOT
ATOM      1  CA  ARG D 557     -26.217   2.705 -17.014  1.00 35.49     0.159 C 
ENDROOT
BRANCH   1   2
ATOM      2  CB  ARG D 557     -26.789   1.319 -17.183  1.00 35.49     0.034 C 
BRANCH   2   3
ATOM      3  CG  ARG D 557     -28.166   1.111 -16.718  1.00 35.49     0.027 C 
BRANCH   3   4
ATOM      4  CD  ARG D 557     -28.780  -0.105 -17.298  1.00 35.49     0.116 C 
BRANCH   4   5
ATOM      5  NE  ARG D 557     -28.145  -1.309 -16.831  1.00 35.49    -0.212 N 
ATOM      6  CZ  ARG D 557     -28.598  -2.531 -17.000  1.00 35.49     0.666 C 
ATOM      7  NH1 ARG D 557     -29.731  -2.787 -17.627  1.00 35.49    -0.235 N 
ATOM      8  NH2 ARG D 557     -27.880  -3.508 -16.526  1.00 35.49    -0.235 N 
ATOM      9  HH  ARG D 557     -30.219  -2.160 -17.948  1.00 35.49     0.174 HD
ATOM     10  HH  ARG D 557     -29.975  -3.604 -17.709  1.00 35.49     0.174 HD
ATOM     11  HH  ARG D 557     -27.149  -3.313 -16.132  1.00 35.49     0.174 HD
ATOM     12  HH  ARG D 557     -28.138  -4.310 -16.619  1.00 35.49     0.174 HD
ATOM     13  HE  ARG D 557     -27.446  -1.232 -16.353  1.00 35.49     0.178 HD
ENDBRANCH   4   5
ENDBRANCH   3   4
ENDBRANCH   2   3
ENDBRANCH   1   2
END_RES ARG D 557
BEGIN_RES GLU D 570
REMARK  3 active torsions:
REMARK  status: ('A' for Active; 'I' for Inactive)
REMARK    5  A    between atoms: CA   and  CB  
REMARK    6  A    between atoms: CB   and  CG  
REMARK    7  A    between atoms: CG   and  CD  
ROOT
ATOM     14  CA  GLU D 570     -18.033  -6.348 -13.375  1.00 32.92     0.160 C 
ENDROOT
BRANCH  14  15
ATOM     15  CB  GLU D 570     -19.500  -6.345 -13.794  1.00 32.92     0.043 C 
BRANCH  15  16
ATOM     16  CG  GLU D 570     -20.072  -7.622 -14.293  1.00 32.92     0.100 C 
BRANCH  16  17
ATOM     17  CD  GLU D 570     -20.707  -7.490 -15.658  1.00 32.92     0.185 C 
ATOM     18  OE1 GLU D 570     -21.051  -6.362 -16.059  1.00 32.92    -0.647 OA
ATOM     19  OE2 GLU D 570     -20.878  -8.529 -16.326  1.00 32.92    -0.647 OA
ENDBRANCH  16  17
ENDBRANCH  15  16
ENDBRANCH  14  15
END_RES GLU D 570
ENDMDL
MODEL 4
REMARK VINA RESULT:      -6.4      1.619      2.851
REMARK  12 active torsions:
REMARK  status: ('A' for Active; 'I' for Inactive)
REMARK    1  A    between atoms: C_1  and  C_2 
REMARK    2  A    between atoms: C_1  and  O_23 
REMARK    3  A    between atoms: C_3  and  O_22 
REMARK    4  A    between atoms: C_4  and  O_21 
REMARK    5  A    between atoms: C_5  and  O_20 
REMARK    6  A    between atoms: C_6  and  O_8 
REMARK    7  A    between atoms: O_8  and  C_9 
REMARK    8  A    between atoms: C_10  and  C_18 
REMARK    9  A    between atoms: C_12  and  O_17 
REMARK   10  A    between atoms: C_13  and  O_16 
REMARK   11  A    between atoms: C_14  and  O_15 
REMARK   12  A    between atoms: C_18  and  O_19 
ROOT
HETATM    1  O   UNL     1     -21.935  -3.759 -11.637  1.00  0.00    -0.348 OA
ENDROOT
BRANCH   1   2
HETATM    2  C   UNL     1     -21.751  -3.772 -10.202  1.00  0.00     0.292 C 
HETATM    3  C   UNL     1     -20.254  -3.785  -9.831  1.00  0.00     0.204 C 
HETATM    4  C   UNL     1     -20.097  -3.876  -8.312  1.00  0.00     0.183 C 
HETATM    5  C   UNL     1     -20.809  -5.116  -7.759  1.00  0.00     0.180 C 
HETATM    6  C   UNL     1     -22.277  -5.130  -8.242  1.00  0.00     0.179 C 
HETATM    7  O   UNL     1     -22.375  -4.956  -9.678  1.00  0.00    -0.348 OA
BRANCH   3   8
HETATM    8  O   UNL     1     -19.601  -4.912 -10.451  1.00  0.00    -0.388 OA
HETATM    9  H   UNL     1     -20.252  -5.315 -11.064  1.00  0.00     0.210 HD
ENDBRANCH   3   8
BRANCH   4  10
HETATM   10  O   UNL     1     -18.707  -3.883  -7.982  1.00  0.00    -0.390 OA
HETATM   11  H   UNL     1     -18.675  -3.745  -7.014  1.00  0.00     0.210 HD
ENDBRANCH   4  10
BRANCH   5  12
HETATM   12  O   UNL     1     -20.149  -6.317  -8.195  1.00  0.00    -0.390 OA
HETATM   13  H   UNL     1     -19.410  -6.484  -7.578  1.00  0.00     0.210 HD
ENDBRANCH   5  12
BRANCH   6  14
HETATM   14  C   UNL     1     -23.157  -4.130  -7.471  1.00  0.00     0.198 C 
BRANCH  14  15
HETATM   15  O   UNL     1     -24.341  -3.841  -8.202  1.00  0.00    -0.398 OA
HETATM   16  H   UNL     1     -24.376  -4.439  -8.970  1.00  0.00     0.209 HD
ENDBRANCH  14  15
ENDBRANCH   6  14
ENDBRANCH   1   2
BRANCH   1  17
HETATM   17  C   UNL     1     -23.080  -4.497 -12.147  1.00  0.00     0.187 C 
HETATM   18  C   UNL     1     -22.815  -5.085 -13.550  1.00  0.00     0.180 C 
HETATM   19  O   UNL     1     -22.743  -4.074 -14.564  1.00  0.00    -0.349 OA
HETATM   20  C   UNL     1     -23.804  -3.132 -14.615  1.00  0.00     0.288 C 
HETATM   21  C   UNL     1     -24.169  -2.494 -13.261  1.00  0.00     0.204 C 
HETATM   22  C   UNL     1     -24.305  -3.561 -12.170  1.00  0.00     0.183 C 
BRANCH  18  23
HETATM   23  C   UNL     1     -23.769  -6.240 -13.907  1.00  0.00     0.198 C 
BRANCH  23  24
HETATM   24  O   UNL     1     -23.905  -6.407 -15.315  1.00  0.00    -0.398 OA
HETATM   25  H   UNL     1     -23.071  -6.115 -15.732  1.00  0.00     0.209 HD
ENDBRANCH  23  24
ENDBRANCH  18  23
BRANCH  20  26
HETATM   26  O   UNL     1     -24.949  -3.657 -15.276  1.00  0.00    -0.369 OA
HETATM   27  H   UNL     1     -24.627  -4.246 -15.989  1.00  0.00     0.212 HD
ENDBRANCH  20  26
BRANCH  21  28
HETATM   28  O   UNL     1     -25.383  -1.734 -13.378  1.00  0.00    -0.388 OA
HETATM   29  H   UNL     1     -26.104  -2.319 -13.069  1.00  0.00     0.210 HD
ENDBRANCH  21  28
BRANCH  22  30
HETATM   30  O   UNL     1     -24.477  -2.992 -10.868  1.00  0.00    -0.390 OA
HETATM   31  H   UNL     1     -24.586  -3.735 -10.237  1.00  0.00     0.210 HD
ENDBRANCH  22  30
ENDBRANCH   1  17
TORSDOF 12
BEGIN_RES ARG D 557
REMARK  4 active torsions:
REMARK  status: ('A' for Active; 'I' for Inactive)
REMARK    1  A    between atoms: CA   and  CB  
REMARK    2  A    between atoms: CB   and  CG  
REMARK    3  A    between atoms: CG   and  CD  
REMARK    4  A    between atoms: CD   and  NE  
REMARK       I    between atoms: NE   and  CZ  
REMARK       I    between atoms: CZ   and  NH1 
REMARK       I    between atoms: CZ   and  NH2 
ROOT
ATOM      1  CA  ARG D 557     -26.217   2.705 -17.014  1.00 35.49     0.159 C 
ENDROOT
BRANCH   1   2
ATOM      2  CB  ARG D 557     -26.789   1.319 -17.183  1.00 35.49     0.034 C 
BRANCH   2   3
ATOM      3  CG  ARG D 557     -28.232   1.226 -17.434  1.00 35.49     0.027 C 
BRANCH   3   4
ATOM      4  CD  ARG D 557     -28.911   0.305 -16.493  1.00 35.49     0.116 C 
BRANCH   4   5
ATOM      5  NE  ARG D 557     -28.136  -0.881 -16.242  1.00 35.49    -0.212 N 
ATOM      6  CZ  ARG D 557     -28.390  -2.079 -16.720  1.00 35.49     0.666 C 
ATOM      7  NH1 ARG D 557     -29.428  -2.328 -17.497  1.00 35.49    -0.235 N 
ATOM      8  NH2 ARG D 557     -27.567  -3.037 -16.406  1.00 35.49    -0.235 N 
ATOM      9  HH  ARG D 557     -29.981  -1.712 -17.718  1.00 35.49     0.174 HD
ATOM     10  HH  ARG D 557     -29.541  -3.128 -17.781  1.00 35.49     0.174 HD
ATOM     11  HH  ARG D 557     -26.901  -2.846 -15.909  1.00 35.49     0.174 HD
ATOM     12  HH  ARG D 557     -27.695  -3.823 -16.698  1.00 35.49     0.174 HD
ATOM     13  HE  ARG D 557     -27.489  -0.827 -15.693  1.00 35.49     0.178 HD
ENDBRANCH   4   5
ENDBRANCH   3   4
ENDBRANCH   2   3
ENDBRANCH   1   2
END_RES ARG D 557
BEGIN_RES GLU D 570
REMARK  3 active torsions:
REMARK  status: ('A' for Active; 'I' for Inactive)
REMARK    5  A    between atoms: CA   and  CB  
REMARK    6  A    between atoms: CB   and  CG  
REMARK    7  A    between atoms: CG   and  CD  
ROOT
ATOM     14  CA  GLU D 570     -18.033  -6.348 -13.375  1.00 32.92     0.160 C 
ENDROOT
BRANCH  14  15
ATOM     15  CB  GLU D 570     -19.500  -6.345 -13.794  1.00 32.92     0.043 C 
BRANCH  15  16
ATOM     16  CG  GLU D 570     -19.797  -6.239 -15.246  1.00 32.92     0.100 C 
BRANCH  16  17
ATOM     17  CD  GLU D 570     -20.675  -7.360 -15.752  1.00 32.92     0.185 C 
ATOM     18  OE1 GLU D 570     -20.612  -8.474 -15.199  1.00 32.92    -0.647 OA
ATOM     19  OE2 GLU D 570     -21.422  -7.125 -16.722  1.00 32.92    -0.647 OA
ENDBRANCH  16  17
ENDBRANCH  15  16
ENDBRANCH  14  15
END_RES GLU D 570
ENDMDL
MODEL 5
REMARK VINA RESULT:      -5.9      1.469      5.342
REMARK  12 active torsions:
REMARK  status: ('A' for Active; 'I' for Inactive)
REMARK    1  A    between atoms: C_1  and  C_2 
REMARK    2  A    between atoms: C_1  and  O_23 
REMARK    3  A    between atoms: C_3  and  O_22 
REMARK    4  A    between atoms: C_4  and  O_21 
REMARK    5  A    between atoms: C_5  and  O_20 
REMARK    6  A    between atoms: C_6  and  O_8 
REMARK    7  A    between atoms: O_8  and  C_9 
REMARK    8  A    between atoms: C_10  and  C_18 
REMARK    9  A    between atoms: C_12  and  O_17 
REMARK   10  A    between atoms: C_13  and  O_16 
REMARK   11  A    between atoms: C_14  and  O_15 
REMARK   12  A    between atoms: C_18  and  O_19 
ROOT
HETATM    1  O   UNL     1     -22.109  -3.303 -10.635  1.00  0.00    -0.348 OA
ENDROOT
BRANCH   1   2
HETATM    2  C   UNL     1     -22.979  -3.427 -11.783  1.00  0.00     0.292 C 
HETATM    3  C   UNL     1     -22.822  -4.805 -12.458  1.00  0.00     0.204 C 
HETATM    4  C   UNL     1     -23.698  -4.873 -13.710  1.00  0.00     0.183 C 
HETATM    5  C   UNL     1     -23.351  -3.743 -14.686  1.00  0.00     0.180 C 
HETATM    6  C   UNL     1     -23.409  -2.385 -13.950  1.00  0.00     0.179 C 
HETATM    7  O   UNL     1     -22.631  -2.400 -12.727  1.00  0.00    -0.348 OA
BRANCH   3   8
HETATM    8  O   UNL     1     -21.443  -5.021 -12.822  1.00  0.00    -0.388 OA
HETATM    9  H   UNL     1     -21.188  -4.287 -13.420  1.00  0.00     0.210 HD
ENDBRANCH   3   8
BRANCH   4  10
HETATM   10  O   UNL     1     -23.546  -6.155 -14.321  1.00  0.00    -0.390 OA
HETATM   11  H   UNL     1     -23.445  -5.970 -15.277  1.00  0.00     0.210 HD
ENDBRANCH   4  10
BRANCH   5  12
HETATM   12  O   UNL     1     -22.036  -3.934 -15.236  1.00  0.00    -0.390 OA
HETATM   13  H   UNL     1     -21.816  -3.134 -15.752  1.00  0.00     0.210 HD
ENDBRANCH   5  12
BRANCH   6  14
HETATM   14  C   UNL     1     -24.854  -1.906 -13.717  1.00  0.00     0.198 C 
BRANCH  14  15
HETATM   15  O   UNL     1     -25.227  -0.951 -14.700  1.00  0.00    -0.398 OA
HETATM   16  H   UNL     1     -26.119  -1.176 -15.017  1.00  0.00     0.209 HD
ENDBRANCH  14  15
ENDBRANCH   6  14
ENDBRANCH   1   2
BRANCH   1  17
HETATM   17  C   UNL     1     -22.142  -4.399  -9.679  1.00  0.00     0.187 C 
HETATM   18  C   UNL     1     -22.940  -4.037  -8.407  1.00  0.00     0.180 C 
HETATM   19  O   UNL     1     -22.267  -3.065  -7.595  1.00  0.00    -0.349 OA
HETATM   20  C   UNL     1     -20.910  -3.321  -7.271  1.00  0.00     0.288 C 
HETATM   21  C   UNL     1     -20.021  -3.713  -8.467  1.00  0.00     0.204 C 
HETATM   22  C   UNL     1     -20.694  -4.791  -9.322  1.00  0.00     0.183 C 
BRANCH  18  23
HETATM   23  C   UNL     1     -23.404  -5.275  -7.617  1.00  0.00     0.198 C 
BRANCH  23  24
HETATM   24  O   UNL     1     -23.826  -4.942  -6.299  1.00  0.00    -0.398 OA
HETATM   25  H   UNL     1     -24.471  -4.211  -6.367  1.00  0.00     0.209 HD
ENDBRANCH  23  24
ENDBRANCH  18  23
BRANCH  20  26
HETATM   26  O   UNL     1     -20.785  -4.245  -6.197  1.00  0.00    -0.369 OA
HETATM   27  H   UNL     1     -21.151  -3.813  -5.398  1.00  0.00     0.212 HD
ENDBRANCH  20  26
BRANCH  21  28
HETATM   28  O   UNL     1     -18.736  -4.162  -8.007  1.00  0.00    -0.388 OA
HETATM   29  H   UNL     1     -18.819  -4.291  -7.040  1.00  0.00     0.210 HD
ENDBRANCH  21  28
BRANCH  22  30
HETATM   30  O   UNL     1     -19.976  -5.058 -10.530  1.00  0.00    -0.390 OA
HETATM   31  H   UNL     1     -19.815  -4.196 -10.971  1.00  0.00     0.210 HD
ENDBRANCH  22  30
ENDBRANCH   1  17
TORSDOF 12
BEGIN_RES ARG D 557
REMARK  4 active torsions:
REMARK  status: ('A' for Active; 'I' for Inactive)
REMARK    1  A    between atoms: CA   and  CB  
REMARK    2  A    between atoms: CB   and  CG  
REMARK    3  A    between atoms: CG   and  CD  
REMARK    4  A    between atoms: CD   and  NE  
REMARK       I    between atoms: NE   and  CZ  
REMARK       I    between atoms: CZ   and  NH1 
REMARK       I    between atoms: CZ   and  NH2 
ROOT
ATOM      1  CA  ARG D 557     -26.217   2.705 -17.014  1.00 35.49     0.159 C 
ENDROOT
BRANCH   1   2
ATOM      2  CB  ARG D 557     -26.789   1.319 -17.183  1.00 35.49     0.034 C 
BRANCH   2   3
ATOM      3  CG  ARG D 557     -28.233   1.226 -17.429  1.00 35.49     0.027 C 
BRANCH   3   4
ATOM      4  CD  ARG D 557     -28.894   0.238 -16.545  1.00 35.49     0.116 C 
BRANCH   4   5
ATOM      5  NE  ARG D 557     -28.009  -0.834 -16.172  1.00 35.49    -0.212 N 
ATOM      6  CZ  ARG D 557     -28.097  -2.080 -16.581  1.00 35.49     0.666 C 
ATOM      7  NH1 ARG D 557     -29.051  -2.493 -17.394  1.00 35.49    -0.235 N 
ATOM      8  NH2 ARG D 557     -27.193  -2.915 -16.158  1.00 35.49    -0.235 N 
ATOM      9  HH  ARG D 557     -29.655  -1.960 -17.686  1.00 35.49     0.174 HD
ATOM     10  HH  ARG D 557     -29.057  -3.317 -17.629  1.00 35.49     0.174 HD
ATOM     11  HH  ARG D 557     -26.585  -2.618 -15.640  1.00 35.49     0.174 HD
ATOM     12  HH  ARG D 557     -27.215  -3.727 -16.403  1.00 35.49     0.174 HD
ATOM     13  HE  ARG D 557     -27.407  -0.672 -15.594  1.00 35.49     0.178 HD
ENDBRANCH   4   5
ENDBRANCH   3   4
ENDBRANCH   2   3
ENDBRANCH   1   2
END_RES ARG D 557
BEGIN_RES GLU D 570
REMARK  3 active torsions:
REMARK  status: ('A' for Active; 'I' for Inactive)
REMARK    5  A    between atoms: CA   and  CB  
REMARK    6  A    between atoms: CB   and  CG  
REMARK    7  A    between atoms: CG   and  CD  
ROOT
ATOM     14  CA  GLU D 570     -18.033  -6.348 -13.375  1.00 32.92     0.160 C 
ENDROOT
BRANCH  14  15
ATOM     15  CB  GLU D 570     -19.500  -6.345 -13.794  1.00 32.92     0.043 C 
BRANCH  15  16
ATOM     16  CG  GLU D 570     -20.098  -7.642 -14.204  1.00 32.92     0.100 C 
BRANCH  16  17
ATOM     17  CD  GLU D 570     -20.770  -7.581 -15.555  1.00 32.92     0.185 C 
ATOM     18  OE1 GLU D 570     -21.301  -6.514 -15.919  1.00 32.92    -0.647 OA
ATOM     19  OE2 GLU D 570     -20.781  -8.615 -16.251  1.00 32.92    -0.647 OA
ENDBRANCH  16  17
ENDBRANCH  15  16
ENDBRANCH  14  15
END_RES GLU D 570
ENDMDL
MODEL 6
REMARK VINA RESULT:      -5.9      1.423      5.166
REMARK  12 active torsions:
REMARK  status: ('A' for Active; 'I' for Inactive)
REMARK    1  A    between atoms: C_1  and  C_2 
REMARK    2  A    between atoms: C_1  and  O_23 
REMARK    3  A    between atoms: C_3  and  O_22 
REMARK    4  A    between atoms: C_4  and  O_21 
REMARK    5  A    between atoms: C_5  and  O_20 
REMARK    6  A    between atoms: C_6  and  O_8 
REMARK    7  A    between atoms: O_8  and  C_9 
REMARK    8  A    between atoms: C_10  and  C_18 
REMARK    9  A    between atoms: C_12  and  O_17 
REMARK   10  A    between atoms: C_13  and  O_16 
REMARK   11  A    between atoms: C_14  and  O_15 
REMARK   12  A    between atoms: C_18  and  O_19 
ROOT
HETATM    1  O   UNL     1     -21.705  -3.540 -11.060  1.00  0.00    -0.348 OA
ENDROOT
BRANCH   1   2
HETATM    2  C   UNL     1     -22.263  -3.850 -12.358  1.00  0.00     0.292 C 
HETATM    3  C   UNL     1     -22.665  -2.567 -13.114  1.00  0.00     0.204 C 
HETATM    4  C   UNL     1     -23.320  -2.933 -14.447  1.00  0.00     0.183 C 
HETATM    5  C   UNL     1     -24.533  -3.845 -14.231  1.00  0.00     0.180 C 
HETATM    6  C   UNL     1     -24.121  -5.064 -13.376  1.00  0.00     0.179 C 
HETATM    7  O   UNL     1     -23.430  -4.666 -12.165  1.00  0.00    -0.348 OA
BRANCH   3   8
HETATM    8  O   UNL     1     -23.589  -1.795 -12.319  1.00  0.00    -0.388 OA
HETATM    9  H   UNL     1     -24.164  -1.307 -12.945  1.00  0.00     0.210 HD
ENDBRANCH   3   8
BRANCH   4  10
HETATM   10  O   UNL     1     -23.683  -1.737 -15.137  1.00  0.00    -0.390 OA
HETATM   11  H   UNL     1     -23.805  -1.066 -14.435  1.00  0.00     0.210 HD
ENDBRANCH   4  10
BRANCH   5  12
HETATM   12  O   UNL     1     -25.592  -3.131 -13.569  1.00  0.00    -0.390 OA
HETATM   13  H   UNL     1     -26.258  -2.902 -14.247  1.00  0.00     0.210 HD
ENDBRANCH   5  12
BRANCH   6  14
HETATM   14  C   UNL     1     -23.327  -6.106 -14.185  1.00  0.00     0.198 C 
BRANCH  14  15
HETATM   15  O   UNL     1     -23.795  -6.157 -15.526  1.00  0.00    -0.398 OA
HETATM   16  H   UNL     1     -23.142  -6.648 -16.055  1.00  0.00     0.209 HD
ENDBRANCH  14  15
ENDBRANCH   6  14
ENDBRANCH   1   2
BRANCH   1  17
HETATM   17  C   UNL     1     -21.975  -4.498  -9.997  1.00  0.00     0.187 C 
HETATM   18  C   UNL     1     -22.885  -3.906  -8.900  1.00  0.00     0.180 C 
HETATM   19  O   UNL     1     -22.224  -2.902  -8.120  1.00  0.00    -0.349 OA
HETATM   20  C   UNL     1     -20.953  -3.233  -7.583  1.00  0.00     0.288 C 
HETATM   21  C   UNL     1     -19.965  -3.852  -8.590  1.00  0.00     0.204 C 
HETATM   22  C   UNL     1     -20.633  -4.967  -9.399  1.00  0.00     0.183 C 
BRANCH  18  23
HETATM   23  C   UNL     1     -23.573  -4.987  -8.044  1.00  0.00     0.198 C 
BRANCH  23  24
HETATM   24  O   UNL     1     -24.003  -4.480  -6.785  1.00  0.00    -0.398 OA
HETATM   25  H   UNL     1     -23.418  -4.856  -6.097  1.00  0.00     0.209 HD
ENDBRANCH  23  24
ENDBRANCH  18  23
BRANCH  20  26
HETATM   26  O   UNL     1     -21.063  -4.019  -6.402  1.00  0.00    -0.369 OA
HETATM   27  H   UNL     1     -20.239  -4.540  -6.322  1.00  0.00     0.212 HD
ENDBRANCH  20  26
BRANCH  21  28
HETATM   28  O   UNL     1     -18.803  -4.350  -7.907  1.00  0.00    -0.388 OA
HETATM   29  H   UNL     1     -18.030  -4.075  -8.442  1.00  0.00     0.210 HD
ENDBRANCH  21  28
BRANCH  22  30
HETATM   30  O   UNL     1     -19.799  -5.450 -10.457  1.00  0.00    -0.390 OA
HETATM   31  H   UNL     1     -18.873  -5.423 -10.135  1.00  0.00     0.210 HD
ENDBRANCH  22  30
ENDBRANCH   1  17
TORSDOF 12
BEGIN_RES ARG D 557
REMARK  4 active torsions:
REMARK  status: ('A' for Active; 'I' for Inactive)
REMARK    1  A    between atoms: CA   and  CB  
REMARK    2  A    between atoms: CB   and  CG  
REMARK    3  A    between atoms: CG   and  CD  
REMARK    4  A    between atoms: CD   and  NE  
REMARK       I    between atoms: NE   and  CZ  
REMARK       I    between atoms: CZ   and  NH1 
REMARK       I    between atoms: CZ   and  NH2 
ROOT
ATOM      1  CA  ARG D 557     -26.217   2.705 -17.014  1.00 35.49     0.159 C 
ENDROOT
BRANCH   1   2
ATOM      2  CB  ARG D 557     -26.789   1.319 -17.183  1.00 35.49     0.034 C 
BRANCH   2   3
ATOM      3  CG  ARG D 557     -28.237   1.225 -17.408  1.00 35.49     0.027 C 
BRANCH   3   4
ATOM      4  CD  ARG D 557     -28.891   0.275 -16.479  1.00 35.49     0.116 C 
BRANCH   4   5
ATOM      5  NE  ARG D 557     -29.192  -0.982 -17.112  1.00 35.49    -0.212 N 
ATOM      6  CZ  ARG D 557     -28.516  -2.099 -16.964  1.00 35.49     0.666 C 
ATOM      7  NH1 ARG D 557     -27.441  -2.181 -16.201  1.00 35.49    -0.235 N 
ATOM      8  NH2 ARG D 557     -28.946  -3.150 -17.599  1.00 35.49    -0.235 N 
ATOM      9  HH  ARG D 557     -27.142  -1.502 -15.772  1.00 35.49     0.174 HD
ATOM     10  HH  ARG D 557     -27.042  -2.937 -16.140  1.00 35.49     0.174 HD
ATOM     11  HH  ARG D 557     -29.646  -3.070 -18.078  1.00 35.49     0.174 HD
ATOM     12  HH  ARG D 557     -28.537  -3.890 -17.525  1.00 35.49     0.174 HD
ATOM     13  HE  ARG D 557     -29.827  -1.002 -17.678  1.00 35.49     0.178 HD
ENDBRANCH   4   5
ENDBRANCH   3   4
ENDBRANCH   2   3
ENDBRANCH   1   2
END_RES ARG D 557
BEGIN_RES GLU D 570
REMARK  3 active torsions:
REMARK  status: ('A' for Active; 'I' for Inactive)
REMARK    5  A    between atoms: CA   and  CB  
REMARK    6  A    between atoms: CB   and  CG  
REMARK    7  A    between atoms: CG   and  CD  
ROOT
ATOM     14  CA  GLU D 570     -18.033  -6.348 -13.375  1.00 32.92     0.160 C 
ENDROOT
BRANCH  14  15
ATOM     15  CB  GLU D 570     -19.500  -6.345 -13.794  1.00 32.92     0.043 C 
BRANCH  15  16
ATOM     16  CG  GLU D 570     -19.797  -6.226 -15.245  1.00 32.92     0.100 C 
BRANCH  16  17
ATOM     17  CD  GLU D 570     -20.576  -7.403 -15.785  1.00 32.92     0.185 C 
ATOM     18  OE1 GLU D 570     -20.498  -8.500 -15.201  1.00 32.92    -0.647 OA
ATOM     19  OE2 GLU D 570     -21.259  -7.229 -16.814  1.00 32.92    -0.647 OA
ENDBRANCH  16  17
ENDBRANCH  15  16
ENDBRANCH  14  15
END_RES GLU D 570
ENDMDL
MODEL 7
REMARK VINA RESULT:      -5.7      7.891     10.797
REMARK  12 active torsions:
REMARK  status: ('A' for Active; 'I' for Inactive)
REMARK    1  A    between atoms: C_1  and  C_2 
REMARK    2  A    between atoms: C_1  and  O_23 
REMARK    3  A    between atoms: C_3  and  O_22 
REMARK    4  A    between atoms: C_4  and  O_21 
REMARK    5  A    between atoms: C_5  and  O_20 
REMARK    6  A    between atoms: C_6  and  O_8 
REMARK    7  A    between atoms: O_8  and  C_9 
REMARK    8  A    between atoms: C_10  and  C_18 
REMARK    9  A    between atoms: C_12  and  O_17 
REMARK   10  A    between atoms: C_13  and  O_16 
REMARK   11  A    between atoms: C_14  and  O_15 
REMARK   12  A    between atoms: C_18  and  O_19 
ROOT
HETATM    1  O   UNL     1     -35.121  -2.357 -14.142  1.00  0.00    -0.348 OA
ENDROOT
BRANCH   1   2
HETATM    2  C   UNL     1     -34.501  -2.682 -12.876  1.00  0.00     0.292 C 
HETATM    3  C   UNL     1     -33.648  -3.963 -12.984  1.00  0.00     0.204 C 
HETATM    4  C   UNL     1     -33.071  -4.320 -11.614  1.00  0.00     0.183 C 
HETATM    5  C   UNL     1     -34.185  -4.489 -10.574  1.00  0.00     0.180 C 
HETATM    6  C   UNL     1     -35.087  -3.235 -10.571  1.00  0.00     0.179 C 
HETATM    7  O   UNL     1     -35.539  -2.890 -11.904  1.00  0.00    -0.348 OA
BRANCH   3   8
HETATM    8  O   UNL     1     -34.459  -5.056 -13.464  1.00  0.00    -0.388 OA
HETATM    9  H   UNL     1     -34.686  -4.854 -14.396  1.00  0.00     0.210 HD
ENDBRANCH   3   8
BRANCH   4  10
HETATM   10  O   UNL     1     -32.281  -5.504 -11.730  1.00  0.00    -0.390 OA
HETATM   11  H   UNL     1     -32.128  -5.798 -10.809  1.00  0.00     0.210 HD
ENDBRANCH   4  10
BRANCH   5  12
HETATM   12  O   UNL     1     -34.980  -5.651 -10.869  1.00  0.00    -0.390 OA
HETATM   13  H   UNL     1     -35.881  -5.481 -10.530  1.00  0.00     0.210 HD
ENDBRANCH   5  12
BRANCH   6  14
HETATM   14  C   UNL     1     -34.429  -2.042  -9.851  1.00  0.00     0.198 C 
BRANCH  14  15
HETATM   15  O   UNL     1     -35.326  -0.943  -9.787  1.00  0.00    -0.398 OA
HETATM   16  H   UNL     1     -35.412  -0.569 -10.682  1.00  0.00     0.209 HD
ENDBRANCH  14  15
ENDBRANCH   6  14
ENDBRANCH   1   2
BRANCH   1  17
HETATM   17  C   UNL     1     -34.960  -0.987 -14.606  1.00  0.00     0.187 C 
HETATM   18  C   UNL     1     -35.651   0.028 -13.670  1.00  0.00     0.180 C 
HETATM   19  O   UNL     1     -37.080  -0.052 -13.732  1.00  0.00    -0.349 OA
HETATM   20  C   UNL     1     -37.675  -0.021 -15.020  1.00  0.00     0.288 C 
HETATM   21  C   UNL     1     -37.050  -0.985 -16.046  1.00  0.00     0.204 C 
HETATM   22  C   UNL     1     -35.521  -0.879 -16.038  1.00  0.00     0.183 C 
BRANCH  18  23
HETATM   23  C   UNL     1     -35.113   1.462 -13.839  1.00  0.00     0.198 C 
BRANCH  23  24
HETATM   24  O   UNL     1     -35.188   1.907 -15.189  1.00  0.00    -0.398 OA
HETATM   25  H   UNL     1     -34.322   1.734 -15.609  1.00  0.00     0.209 HD
ENDBRANCH  23  24
ENDBRANCH  18  23
BRANCH  20  26
HETATM   26  O   UNL     1     -37.768   1.304 -15.530  1.00  0.00    -0.369 OA
HETATM   27  H   UNL     1     -37.225   1.877 -14.951  1.00  0.00     0.212 HD
ENDBRANCH  20  26
BRANCH  21  28
HETATM   28  O   UNL     1     -37.567  -0.720 -17.360  1.00  0.00    -0.388 OA
HETATM   29  H   UNL     1     -38.267  -1.386 -17.519  1.00  0.00     0.210 HD
ENDBRANCH  21  28
BRANCH  22  30
HETATM   30  O   UNL     1     -34.900  -1.876 -16.855  1.00  0.00    -0.390 OA
HETATM   31  H   UNL     1     -35.391  -1.906 -17.704  1.00  0.00     0.210 HD
ENDBRANCH  22  30
ENDBRANCH   1  17
TORSDOF 12
BEGIN_RES ARG D 557
REMARK  4 active torsions:
REMARK  status: ('A' for Active; 'I' for Inactive)
REMARK    1  A    between atoms: CA   and  CB  
REMARK    2  A    between atoms: CB   and  CG  
REMARK    3  A    between atoms: CG   and  CD  
REMARK    4  A    between atoms: CD   and  NE  
REMARK       I    between atoms: NE   and  CZ  
REMARK       I    between atoms: CZ   and  NH1 
REMARK       I    between atoms: CZ   and  NH2 
ROOT
ATOM      1  CA  ARG D 557     -26.217   2.705 -17.014  1.00 35.49     0.159 C 
ENDROOT
BRANCH   1   2
ATOM      2  CB  ARG D 557     -26.789   1.319 -17.183  1.00 35.49     0.034 C 
BRANCH   2   3
ATOM      3  CG  ARG D 557     -28.218   1.153 -16.889  1.00 35.49     0.027 C 
BRANCH   3   4
ATOM      4  CD  ARG D 557     -28.607  -0.270 -16.767  1.00 35.49     0.116 C 
BRANCH   4   5
ATOM      5  NE  ARG D 557     -27.620  -1.044 -16.062  1.00 35.49    -0.212 N 
ATOM      6  CZ  ARG D 557     -27.474  -2.348 -16.130  1.00 35.49     0.666 C 
ATOM      7  NH1 ARG D 557     -28.257  -3.112 -16.870  1.00 35.49    -0.235 N 
ATOM      8  NH2 ARG D 557     -26.510  -2.882 -15.438  1.00 35.49    -0.235 N 
ATOM      9  HH  ARG D 557     -28.896  -2.782 -17.336  1.00 35.49     0.174 HD
ATOM     10  HH  ARG D 557     -28.113  -3.956 -16.878  1.00 35.49     0.174 HD
ATOM     11  HH  ARG D 557     -26.015  -2.364 -14.975  1.00 35.49     0.174 HD
ATOM     12  HH  ARG D 557     -26.382  -3.720 -15.460  1.00 35.49     0.174 HD
ATOM     13  HE  ARG D 557     -27.119  -0.641 -15.505  1.00 35.49     0.178 HD
ENDBRANCH   4   5
ENDBRANCH   3   4
ENDBRANCH   2   3
ENDBRANCH   1   2
END_RES ARG D 557
BEGIN_RES GLU D 570
REMARK  3 active torsions:
REMARK  status: ('A' for Active; 'I' for Inactive)
REMARK    5  A    between atoms: CA   and  CB  
REMARK    6  A    between atoms: CB   and  CG  
REMARK    7  A    between atoms: CG   and  CD  
ROOT
ATOM     14  CA  GLU D 570     -18.033  -6.348 -13.375  1.00 32.92     0.160 C 
ENDROOT
BRANCH  14  15
ATOM     15  CB  GLU D 570     -19.500  -6.345 -13.794  1.00 32.92     0.043 C 
BRANCH  15  16
ATOM     16  CG  GLU D 570     -20.448  -5.562 -12.960  1.00 32.92     0.100 C 
BRANCH  16  17
ATOM     17  CD  GLU D 570     -21.702  -5.168 -13.706  1.00 32.92     0.185 C 
ATOM     18  OE1 GLU D 570     -22.737  -4.918 -13.060  1.00 32.92    -0.647 OA
ATOM     19  OE2 GLU D 570     -21.652  -5.125 -14.951  1.00 32.92    -0.647 OA
ENDBRANCH  16  17
ENDBRANCH  15  16
ENDBRANCH  14  15
END_RES GLU D 570
ENDMDL
MODEL 8
REMARK VINA RESULT:      -5.6      7.655     11.049
REMARK  12 active torsions:
REMARK  status: ('A' for Active; 'I' for Inactive)
REMARK    1  A    between atoms: C_1  and  C_2 
REMARK    2  A    between atoms: C_1  and  O_23 
REMARK    3  A    between atoms: C_3  and  O_22 
REMARK    4  A    between atoms: C_4  and  O_21 
REMARK    5  A    between atoms: C_5  and  O_20 
REMARK    6  A    between atoms: C_6  and  O_8 
REMARK    7  A    between atoms: O_8  and  C_9 
REMARK    8  A    between atoms: C_10  and  C_18 
REMARK    9  A    between atoms: C_12  and  O_17 
REMARK   10  A    between atoms: C_13  and  O_16 
REMARK   11  A    between atoms: C_14  and  O_15 
REMARK   12  A    between atoms: C_18  and  O_19 
ROOT
HETATM    1  O   UNL     1     -20.103  -9.889  -2.156  1.00  0.00    -0.348 OA
ENDROOT
BRANCH   1   2
HETATM    2  C   UNL     1     -19.094  -9.940  -3.191  1.00  0.00     0.292 C 
HETATM    3  C   UNL     1     -19.668 -10.510  -4.505  1.00  0.00     0.204 C 
HETATM    4  C   UNL     1     -18.559 -10.622  -5.551  1.00  0.00     0.183 C 
HETATM    5  C   UNL     1     -17.403 -11.489  -5.037  1.00  0.00     0.180 C 
HETATM    6  C   UNL     1     -16.925 -10.958  -3.667  1.00  0.00     0.179 C 
HETATM    7  O   UNL     1     -18.026 -10.789  -2.739  1.00  0.00    -0.348 OA
BRANCH   3   8
HETATM    8  O   UNL     1     -20.241 -11.813  -4.268  1.00  0.00    -0.388 OA
HETATM    9  H   UNL     1     -20.942 -11.942  -4.941  1.00  0.00     0.210 HD
ENDBRANCH   3   8
BRANCH   4  10
HETATM   10  O   UNL     1     -19.105 -11.147  -6.762  1.00  0.00    -0.390 OA
HETATM   11  H   UNL     1     -19.630 -10.413  -7.142  1.00  0.00     0.210 HD
ENDBRANCH   4  10
BRANCH   5  12
HETATM   12  O   UNL     1     -17.819 -12.859  -4.902  1.00  0.00    -0.390 OA
HETATM   13  H   UNL     1     -17.280 -13.390  -5.520  1.00  0.00     0.210 HD
ENDBRANCH   5  12
BRANCH   6  14
HETATM   14  C   UNL     1     -16.072  -9.682  -3.799  1.00  0.00     0.198 C 
BRANCH  14  15
HETATM   15  O   UNL     1     -15.823  -9.116  -2.520  1.00  0.00    -0.398 OA
HETATM   16  H   UNL     1     -16.448  -9.510  -1.887  1.00  0.00     0.209 HD
ENDBRANCH  14  15
ENDBRANCH   6  14
ENDBRANCH   1   2
BRANCH   1  17
HETATM   17  C   UNL     1     -21.270  -9.065  -2.434  1.00  0.00     0.187 C 
HETATM   18  C   UNL     1     -21.172  -7.674  -1.772  1.00  0.00     0.180 C 
HETATM   19  O   UNL     1     -21.289  -7.737  -0.345  1.00  0.00    -0.349 OA
HETATM   20  C   UNL     1     -22.390  -8.459   0.183  1.00  0.00     0.288 C 
HETATM   21  C   UNL     1     -22.597  -9.860  -0.422  1.00  0.00     0.204 C 
HETATM   22  C   UNL     1     -22.531  -9.812  -1.952  1.00  0.00     0.183 C 
BRANCH  18  23
HETATM   23  C   UNL     1     -22.109  -6.636  -2.415  1.00  0.00     0.198 C 
BRANCH  23  24
HETATM   24  O   UNL     1     -22.390  -5.550  -1.538  1.00  0.00    -0.398 OA
HETATM   25  H   UNL     1     -23.343  -5.576  -1.325  1.00  0.00     0.209 HD
ENDBRANCH  23  24
ENDBRANCH  18  23
BRANCH  20  26
HETATM   26  O   UNL     1     -23.589  -7.693   0.159  1.00  0.00    -0.369 OA
HETATM   27  H   UNL     1     -23.329  -6.749   0.143  1.00  0.00     0.212 HD
ENDBRANCH  20  26
BRANCH  21  28
HETATM   28  O   UNL     1     -23.851 -10.412   0.011  1.00  0.00    -0.388 OA
HETATM   29  H   UNL     1     -24.096 -11.091  -0.650  1.00  0.00     0.210 HD
ENDBRANCH  21  28
BRANCH  22  30
HETATM   30  O   UNL     1     -22.550 -11.116  -2.541  1.00  0.00    -0.390 OA
HETATM   31  H   UNL     1     -23.436 -11.501  -2.371  1.00  0.00     0.210 HD
ENDBRANCH  22  30
ENDBRANCH   1  17
TORSDOF 12
BEGIN_RES ARG D 557
REMARK  4 active torsions:
REMARK  status: ('A' for Active; 'I' for Inactive)
REMARK    1  A    between atoms: CA   and  CB  
REMARK    2  A    between atoms: CB   and  CG  
REMARK    3  A    between atoms: CG   and  CD  
REMARK    4  A    between atoms: CD   and  NE  
REMARK       I    between atoms: NE   and  CZ  
REMARK       I    between atoms: CZ   and  NH1 
REMARK       I    between atoms: CZ   and  NH2 
ROOT
ATOM      1  CA  ARG D 557     -26.217   2.705 -17.014  1.00 35.49     0.159 C 
ENDROOT
BRANCH   1   2
ATOM      2  CB  ARG D 557     -26.789   1.319 -17.183  1.00 35.49     0.034 C 
BRANCH   2   3
ATOM      3  CG  ARG D 557     -25.836   0.203 -17.153  1.00 35.49     0.027 C 
BRANCH   3   4
ATOM      4  CD  ARG D 557     -24.759   0.408 -16.158  1.00 35.49     0.116 C 
BRANCH   4   5
ATOM      5  NE  ARG D 557     -24.912  -0.445 -15.009  1.00 35.49    -0.212 N 
ATOM      6  CZ  ARG D 557     -24.102  -1.421 -14.663  1.00 35.49     0.666 C 
ATOM      7  NH1 ARG D 557     -23.033  -1.739 -15.369  1.00 35.49    -0.235 N 
ATOM      8  NH2 ARG D 557     -24.384  -2.078 -13.576  1.00 35.49    -0.235 N 
ATOM      9  HH  ARG D 557     -22.827  -1.318 -16.086  1.00 35.49     0.174 HD
ATOM     10  HH  ARG D 557     -22.540  -2.383 -15.093  1.00 35.49     0.174 HD
ATOM     11  HH  ARG D 557     -25.077  -1.846 -13.136  1.00 35.49     0.174 HD
ATOM     12  HH  ARG D 557     -23.883  -2.712 -13.318  1.00 35.49     0.174 HD
ATOM     13  HE  ARG D 557     -25.614  -0.358 -14.537  1.00 35.49     0.178 HD
ENDBRANCH   4   5
ENDBRANCH   3   4
ENDBRANCH   2   3
ENDBRANCH   1   2
END_RES ARG D 557
BEGIN_RES GLU D 570
REMARK  3 active torsions:
REMARK  status: ('A' for Active; 'I' for Inactive)
REMARK    5  A    between atoms: CA   and  CB  
REMARK    6  A    between atoms: CB   and  CG  
REMARK    7  A    between atoms: CG   and  CD  
ROOT
ATOM     14  CA  GLU D 570     -18.033  -6.348 -13.375  1.00 32.92     0.160 C 
ENDROOT
BRANCH  14  15
ATOM     15  CB  GLU D 570     -19.500  -6.345 -13.794  1.00 32.92     0.043 C 
BRANCH  15  16
ATOM     16  CG  GLU D 570     -20.443  -5.534 -12.980  1.00 32.92     0.100 C 
BRANCH  16  17
ATOM     17  CD  GLU D 570     -21.734  -5.231 -13.703  1.00 32.92     0.185 C 
ATOM     18  OE1 GLU D 570     -22.304  -4.143 -13.494  1.00 32.92    -0.647 OA
ATOM     19  OE2 GLU D 570     -22.190  -6.098 -14.474  1.00 32.92    -0.647 OA
ENDBRANCH  16  17
ENDBRANCH  15  16
ENDBRANCH  14  15
END_RES GLU D 570
ENDMDL
MODEL 9
REMARK VINA RESULT:      -5.5      8.013     11.331
REMARK  12 active torsions:
REMARK  status: ('A' for Active; 'I' for Inactive)
REMARK    1  A    between atoms: C_1  and  C_2 
REMARK    2  A    between atoms: C_1  and  O_23 
REMARK    3  A    between atoms: C_3  and  O_22 
REMARK    4  A    between atoms: C_4  and  O_21 
REMARK    5  A    between atoms: C_5  and  O_20 
REMARK    6  A    between atoms: C_6  and  O_8 
REMARK    7  A    between atoms: O_8  and  C_9 
REMARK    8  A    between atoms: C_10  and  C_18 
REMARK    9  A    between atoms: C_12  and  O_17 
REMARK   10  A    between atoms: C_13  and  O_16 
REMARK   11  A    between atoms: C_14  and  O_15 
REMARK   12  A    between atoms: C_18  and  O_19 
ROOT
HETATM    1  O   UNL     1     -20.104 -10.056  -1.685  1.00  0.00    -0.348 OA
ENDROOT
BRANCH   1   2
HETATM    2  C   UNL     1     -19.207 -10.517  -2.721  1.00  0.00     0.292 C 
HETATM    3  C   UNL     1     -18.338 -11.692  -2.227  1.00  0.00     0.204 C 
HETATM    4  C   UNL     1     -17.349 -12.102  -3.320  1.00  0.00     0.183 C 
HETATM    5  C   UNL     1     -16.477 -10.916  -3.746  1.00  0.00     0.180 C 
HETATM    6  C   UNL     1     -17.376  -9.720  -4.128  1.00  0.00     0.179 C 
HETATM    7  O   UNL     1     -18.351  -9.425  -3.096  1.00  0.00    -0.348 OA
BRANCH   3   8
HETATM    8  O   UNL     1     -17.611 -11.303  -1.042  1.00  0.00    -0.388 OA
HETATM    9  H   UNL     1     -17.152 -10.463  -1.253  1.00  0.00     0.210 HD
ENDBRANCH   3   8
BRANCH   4  10
HETATM   10  O   UNL     1     -16.555 -13.192  -2.850  1.00  0.00    -0.390 OA
HETATM   11  H   UNL     1     -16.508 -13.072  -1.879  1.00  0.00     0.210 HD
ENDBRANCH   4  10
BRANCH   5  12
HETATM   12  O   UNL     1     -15.592 -10.529  -2.680  1.00  0.00    -0.390 OA
HETATM   13  H   UNL     1     -15.158  -9.696  -2.948  1.00  0.00     0.210 HD
ENDBRANCH   5  12
BRANCH   6  14
HETATM   14  C   UNL     1     -18.028  -9.896  -5.512  1.00  0.00     0.198 C 
BRANCH  14  15
HETATM   15  O   UNL     1     -18.897  -8.809  -5.795  1.00  0.00    -0.398 OA
HETATM   16  H   UNL     1     -19.246  -8.927  -6.696  1.00  0.00     0.209 HD
ENDBRANCH  14  15
ENDBRANCH   6  14
ENDBRANCH   1   2
BRANCH   1  17
HETATM   17  C   UNL     1     -21.227  -9.239  -2.121  1.00  0.00     0.187 C 
HETATM   18  C   UNL     1     -21.163  -7.808  -1.545  1.00  0.00     0.180 C 
HETATM   19  O   UNL     1     -21.408  -7.774  -0.133  1.00  0.00    -0.349 OA
HETATM   20  C   UNL     1     -22.565  -8.445   0.340  1.00  0.00     0.288 C 
HETATM   21  C   UNL     1     -22.742  -9.882  -0.189  1.00  0.00     0.204 C 
HETATM   22  C   UNL     1     -22.539  -9.937  -1.706  1.00  0.00     0.183 C 
BRANCH  18  23
HETATM   23  C   UNL     1     -22.021  -6.804  -2.337  1.00  0.00     0.198 C 
BRANCH  23  24
HETATM   24  O   UNL     1     -22.349  -5.653  -1.565  1.00  0.00    -0.398 OA
HETATM   25  H   UNL     1     -22.773  -5.958  -0.739  1.00  0.00     0.209 HD
ENDBRANCH  23  24
ENDBRANCH  18  23
BRANCH  20  26
HETATM   26  O   UNL     1     -23.743  -7.668   0.157  1.00  0.00    -0.369 OA
HETATM   27  H   UNL     1     -24.436  -8.268  -0.186  1.00  0.00     0.212 HD
ENDBRANCH  20  26
BRANCH  21  28
HETATM   28  O   UNL     1     -24.039 -10.388   0.165  1.00  0.00    -0.388 OA
HETATM   29  H   UNL     1     -23.885 -11.123   0.794  1.00  0.00     0.210 HD
ENDBRANCH  21  28
BRANCH  22  30
HETATM   30  O   UNL     1     -22.528 -11.277  -2.208  1.00  0.00    -0.390 OA
HETATM   31  H   UNL     1     -22.971 -11.265  -3.084  1.00  0.00     0.210 HD
ENDBRANCH  22  30
ENDBRANCH   1  17
TORSDOF 12
BEGIN_RES ARG D 557
REMARK  4 active torsions:
REMARK  status: ('A' for Active; 'I' for Inactive)
REMARK    1  A    between atoms: CA   and  CB  
REMARK    2  A    between atoms: CB   and  CG  
REMARK    3  A    between atoms: CG   and  CD  
REMARK    4  A    between atoms: CD   and  NE  
REMARK       I    between atoms: NE   and  CZ  
REMARK       I    between atoms: CZ   and  NH1 
REMARK       I    between atoms: CZ   and  NH2 
ROOT
ATOM      1  CA  ARG D 557     -26.217   2.705 -17.014  1.00 35.49     0.159 C 
ENDROOT
BRANCH   1   2
ATOM      2  CB  ARG D 557     -26.789   1.319 -17.183  1.00 35.49     0.034 C 
BRANCH   2   3
ATOM      3  CG  ARG D 557     -25.837   0.202 -17.144  1.00 35.49     0.027 C 
BRANCH   3   4
ATOM      4  CD  ARG D 557     -24.752   0.419 -16.160  1.00 35.49     0.116 C 
BRANCH   4   5
ATOM      5  NE  ARG D 557     -24.888  -0.431 -15.007  1.00 35.49    -0.212 N 
ATOM      6  CZ  ARG D 557     -24.069  -1.402 -14.668  1.00 35.49     0.666 C 
ATOM      7  NH1 ARG D 557     -23.006  -1.716 -15.385  1.00 35.49    -0.235 N 
ATOM      8  NH2 ARG D 557     -24.335  -2.058 -13.576  1.00 35.49    -0.235 N 
ATOM      9  HH  ARG D 557     -22.811  -1.296 -16.106  1.00 35.49     0.174 HD
ATOM     10  HH  ARG D 557     -22.506  -2.357 -15.113  1.00 35.49     0.174 HD
ATOM     11  HH  ARG D 557     -25.024  -1.828 -13.129  1.00 35.49     0.174 HD
ATOM     12  HH  ARG D 557     -23.827  -2.688 -13.322  1.00 35.49     0.174 HD
ATOM     13  HE  ARG D 557     -25.585  -0.346 -14.527  1.00 35.49     0.178 HD
ENDBRANCH   4   5
ENDBRANCH   3   4
ENDBRANCH   2   3
ENDBRANCH   1   2
END_RES ARG D 557
BEGIN_RES GLU D 570
REMARK  3 active torsions:
REMARK  status: ('A' for Active; 'I' for Inactive)
REMARK    5  A    between atoms: CA   and  CB  
REMARK    6  A    between atoms: CB   and  CG  
REMARK    7  A    between atoms: CG   and  CD  
ROOT
ATOM     14  CA  GLU D 570     -18.033  -6.348 -13.375  1.00 32.92     0.160 C 
ENDROOT
BRANCH  14  15
ATOM     15  CB  GLU D 570     -19.500  -6.345 -13.794  1.00 32.92     0.043 C 
BRANCH  15  16
ATOM     16  CG  GLU D 570     -20.446  -5.552 -12.967  1.00 32.92     0.100 C 
BRANCH  16  17
ATOM     17  CD  GLU D 570     -21.737  -5.238 -13.687  1.00 32.92     0.185 C 
ATOM     18  OE1 GLU D 570     -22.265  -4.121 -13.523  1.00 32.92    -0.647 OA
ATOM     19  OE2 GLU D 570     -22.234  -6.123 -14.410  1.00 32.92    -0.647 OA
ENDBRANCH  16  17
ENDBRANCH  15  16
ENDBRANCH  14  15
END_RES GLU D 570
ENDMDL
