MODEL 1
REMARK VINA RESULT:      -7.0      0.000      0.000
REMARK  14 active torsions:
REMARK  status: ('A' for Active; 'I' for Inactive)
REMARK    1  A    between atoms: C_2  and  C_3 
REMARK    2  A    between atoms: C_3  and  C_4 
REMARK    3  A    between atoms: C_4  and  C_5 
REMARK    4  A    between atoms: C_5  and  C_6 
REMARK    5  A    between atoms: C_6  and  C_7 
REMARK    6  A    between atoms: C_7  and  C_8 
REMARK    7  A    between atoms: C_8  and  C_9 
REMARK    8  A    between atoms: C_9  and  C_10 
REMARK    9  A    between atoms: C_10  and  C_11 
REMARK   10  A    between atoms: C_11  and  C_12 
REMARK   11  A    between atoms: C_12  and  C_13 
REMARK   12  A    between atoms: C_13  and  O_14 
REMARK   13  A    between atoms: O_14  and  C_15 
REMARK   14  A    between atoms: C_15  and  C_17 
ROOT
HETATM    1  C   UNL     1     -20.131  -4.541  -6.664  1.00  0.00     0.000 C 
ENDROOT
BRANCH   1   2
HETATM    2  C   UNL     1     -20.563  -5.140  -5.333  1.00  0.00     0.000 C 
BRANCH   2   3
HETATM    3  C   UNL     1     -21.798  -5.994  -5.515  1.00  0.00     0.000 C 
BRANCH   3   4
HETATM    4  C   UNL     1     -21.897  -7.000  -4.382  1.00  0.00     0.000 C 
BRANCH   4   5
HETATM    5  C   UNL     1     -21.319  -6.401  -3.114  1.00  0.00     0.000 C 
BRANCH   5   6
HETATM    6  C   UNL     1     -20.710  -7.495  -2.256  1.00  0.00     0.000 C 
BRANCH   6   7
HETATM    7  C   UNL     1     -21.806  -8.246  -1.522  1.00  0.00     0.000 C 
BRANCH   7   8
HETATM    8  C   UNL     1     -22.459  -7.340  -0.494  1.00  0.00    -0.000 C 
BRANCH   8   9
HETATM    9  C   UNL     1     -22.621  -8.071   0.829  1.00  0.00    -0.005 C 
HETATM   10  C   UNL     1     -21.271  -8.534   1.339  1.00  0.00     0.005 C 
ENDBRANCH   8   9
ENDBRANCH   7   8
ENDBRANCH   6   7
ENDBRANCH   5   6
ENDBRANCH   4   5
ENDBRANCH   3   4
ENDBRANCH   2   3
ENDBRANCH   1   2
BRANCH   1  11
HETATM   11  C   UNL     1     -21.187  -3.583  -7.195  1.00  0.00     0.002 C 
BRANCH  11  12
HETATM   12  C   UNL     1     -21.631  -3.982  -8.603  1.00  0.00     0.027 C 
BRANCH  12  13
HETATM   13  C   UNL     1     -23.143  -4.028  -8.721  1.00  0.00     0.178 C 
BRANCH  13  14
HETATM   14  O   UNL     1     -23.548  -4.589  -9.987  1.00  0.00    -0.321 OA
BRANCH  14  15
HETATM   15  C   UNL     1     -24.284  -3.742 -10.765  1.00  0.00     0.266 C 
HETATM   16  O   UNL     1     -25.310  -3.172 -10.378  1.00  0.00    -0.264 OA
BRANCH  15  17
HETATM   17  C   UNL     1     -23.694  -3.564 -12.166  1.00  0.00     0.037 C 
HETATM   18  C   UNL     1     -23.259  -4.917 -12.737  1.00  0.00     0.025 C 
HETATM   19  C   UNL     1     -24.740  -2.942 -13.108  1.00  0.00     0.025 C 
HETATM   20  C   UNL     1     -22.482  -2.630 -12.106  1.00  0.00     0.025 C 
ENDBRANCH  15  17
ENDBRANCH  14  15
ENDBRANCH  13  14
ENDBRANCH  12  13
ENDBRANCH  11  12
ENDBRANCH   1  11
TORSDOF 14
BEGIN_RES ARG D 557
REMARK  4 active torsions:
REMARK  status: ('A' for Active; 'I' for Inactive)
REMARK    1  A    between atoms: CA   and  CB  
REMARK    2  A    between atoms: CB   and  CG  
REMARK    3  A    between atoms: CG   and  CD  
REMARK    4  A    between atoms: CD   and  NE  
REMARK       I    between atoms: NE   and  CZ  
REMARK       I    between atoms: CZ   and  NH1 
REMARK       I    between atoms: CZ   and  NH2 
ROOT
ATOM      1  CA  ARG D 557     -26.217   2.705 -17.014  1.00 35.49     0.159 C 
ENDROOT
BRANCH   1   2
ATOM      2  CB  ARG D 557     -26.789   1.319 -17.183  1.00 35.49     0.034 C 
BRANCH   2   3
ATOM      3  CG  ARG D 557     -28.231   1.227 -17.444  1.00 35.49     0.027 C 
BRANCH   3   4
ATOM      4  CD  ARG D 557     -28.916   0.307 -16.507  1.00 35.49     0.116 C 
BRANCH   4   5
ATOM      5  NE  ARG D 557     -29.283  -0.934 -17.137  1.00 35.49    -0.212 N 
ATOM      6  CZ  ARG D 557     -28.643  -2.075 -17.018  1.00 35.49     0.666 C 
ATOM      7  NH1 ARG D 557     -27.548  -2.201 -16.292  1.00 35.49    -0.235 N 
ATOM      8  NH2 ARG D 557     -29.131  -3.106 -17.644  1.00 35.49    -0.235 N 
ATOM      9  HH  ARG D 557     -27.210  -1.537 -15.869  1.00 35.49     0.174 HD
ATOM     10  HH  ARG D 557     -27.174  -2.971 -16.248  1.00 35.49     0.174 HD
ATOM     11  HH  ARG D 557     -29.844  -2.997 -18.100  1.00 35.49     0.174 HD
ATOM     12  HH  ARG D 557     -28.748  -3.860 -17.588  1.00 35.49     0.174 HD
ATOM     13  HE  ARG D 557     -29.936  -0.927 -17.682  1.00 35.49     0.178 HD
ENDBRANCH   4   5
ENDBRANCH   3   4
ENDBRANCH   2   3
ENDBRANCH   1   2
END_RES ARG D 557
BEGIN_RES GLU D 570
REMARK  3 active torsions:
REMARK  status: ('A' for Active; 'I' for Inactive)
REMARK    5  A    between atoms: CA   and  CB  
REMARK    6  A    between atoms: CB   and  CG  
REMARK    7  A    between atoms: CG   and  CD  
ROOT
ATOM     14  CA  GLU D 570     -18.033  -6.348 -13.375  1.00 32.92     0.160 C 
ENDROOT
BRANCH  14  15
ATOM     15  CB  GLU D 570     -19.500  -6.345 -13.794  1.00 32.92     0.043 C 
BRANCH  15  16
ATOM     16  CG  GLU D 570     -20.091  -7.637 -14.228  1.00 32.92     0.100 C 
BRANCH  16  17
ATOM     17  CD  GLU D 570     -20.707  -7.570 -15.606  1.00 32.92     0.185 C 
ATOM     18  OE1 GLU D 570     -20.869  -6.458 -16.143  1.00 32.92    -0.647 OA
ATOM     19  OE2 GLU D 570     -21.048  -8.641 -16.146  1.00 32.92    -0.647 OA
ENDBRANCH  16  17
ENDBRANCH  15  16
ENDBRANCH  14  15
END_RES GLU D 570
ENDMDL
MODEL 2
REMARK VINA RESULT:      -6.8      4.311      6.872
REMARK  14 active torsions:
REMARK  status: ('A' for Active; 'I' for Inactive)
REMARK    1  A    between atoms: C_2  and  C_3 
REMARK    2  A    between atoms: C_3  and  C_4 
REMARK    3  A    between atoms: C_4  and  C_5 
REMARK    4  A    between atoms: C_5  and  C_6 
REMARK    5  A    between atoms: C_6  and  C_7 
REMARK    6  A    between atoms: C_7  and  C_8 
REMARK    7  A    between atoms: C_8  and  C_9 
REMARK    8  A    between atoms: C_9  and  C_10 
REMARK    9  A    between atoms: C_10  and  C_11 
REMARK   10  A    between atoms: C_11  and  C_12 
REMARK   11  A    between atoms: C_12  and  C_13 
REMARK   12  A    between atoms: C_13  and  O_14 
REMARK   13  A    between atoms: O_14  and  C_15 
REMARK   14  A    between atoms: C_15  and  C_17 
ROOT
HETATM    1  C   UNL     1     -22.959  -5.163 -13.562  1.00  0.00     0.000 C 
ENDROOT
BRANCH   1   2
HETATM    2  C   UNL     1     -23.809  -3.904 -13.465  1.00  0.00     0.000 C 
BRANCH   2   3
HETATM    3  C   UNL     1     -23.003  -2.765 -12.882  1.00  0.00     0.000 C 
BRANCH   3   4
HETATM    4  C   UNL     1     -22.827  -2.974 -11.388  1.00  0.00     0.000 C 
BRANCH   4   5
HETATM    5  C   UNL     1     -24.160  -3.334 -10.761  1.00  0.00     0.000 C 
BRANCH   5   6
HETATM    6  C   UNL     1     -23.977  -3.613  -9.281  1.00  0.00     0.000 C 
BRANCH   6   7
HETATM    7  C   UNL     1     -22.695  -4.394  -9.058  1.00  0.00     0.000 C 
BRANCH   7   8
HETATM    8  C   UNL     1     -21.932  -3.817  -7.879  1.00  0.00    -0.000 C 
BRANCH   8   9
HETATM    9  C   UNL     1     -20.450  -4.126  -8.005  1.00  0.00    -0.005 C 
HETATM   10  C   UNL     1     -20.127  -4.582  -9.413  1.00  0.00     0.005 C 
ENDBRANCH   8   9
ENDBRANCH   7   8
ENDBRANCH   6   7
ENDBRANCH   5   6
ENDBRANCH   4   5
ENDBRANCH   3   4
ENDBRANCH   2   3
ENDBRANCH   1   2
BRANCH   1  11
HETATM   11  C   UNL     1     -23.671  -6.236 -14.372  1.00  0.00     0.002 C 
BRANCH  11  12
HETATM   12  C   UNL     1     -24.905  -5.666 -15.072  1.00  0.00     0.027 C 
BRANCH  12  13
HETATM   13  C   UNL     1     -25.534  -6.680 -16.011  1.00  0.00     0.178 C 
BRANCH  13  14
HETATM   14  O   UNL     1     -26.749  -6.163 -16.593  1.00  0.00    -0.321 OA
BRANCH  14  15
HETATM   15  C   UNL     1     -27.886  -6.774 -16.148  1.00  0.00     0.266 C 
HETATM   16  O   UNL     1     -27.933  -7.485 -15.138  1.00  0.00    -0.264 OA
BRANCH  15  17
HETATM   17  C   UNL     1     -29.101  -6.472 -17.028  1.00  0.00     0.037 C 
HETATM   18  C   UNL     1     -29.802  -7.771 -17.435  1.00  0.00     0.025 C 
HETATM   19  C   UNL     1     -30.104  -5.587 -16.265  1.00  0.00     0.025 C 
HETATM   20  C   UNL     1     -28.659  -5.723 -18.289  1.00  0.00     0.025 C 
ENDBRANCH  15  17
ENDBRANCH  14  15
ENDBRANCH  13  14
ENDBRANCH  12  13
ENDBRANCH  11  12
ENDBRANCH   1  11
TORSDOF 14
BEGIN_RES ARG D 557
REMARK  4 active torsions:
REMARK  status: ('A' for Active; 'I' for Inactive)
REMARK    1  A    between atoms: CA   and  CB  
REMARK    2  A    between atoms: CB   and  CG  
REMARK    3  A    between atoms: CG   and  CD  
REMARK    4  A    between atoms: CD   and  NE  
REMARK       I    between atoms: NE   and  CZ  
REMARK       I    between atoms: CZ   and  NH1 
REMARK       I    between atoms: CZ   and  NH2 
ROOT
ATOM      1  CA  ARG D 557     -26.217   2.705 -17.014  1.00 35.49     0.159 C 
ENDROOT
BRANCH   1   2
ATOM      2  CB  ARG D 557     -26.789   1.319 -17.183  1.00 35.49     0.034 C 
BRANCH   2   3
ATOM      3  CG  ARG D 557     -28.234   1.225 -17.421  1.00 35.49     0.027 C 
BRANCH   3   4
ATOM      4  CD  ARG D 557     -28.906   0.315 -16.465  1.00 35.49     0.116 C 
BRANCH   4   5
ATOM      5  NE  ARG D 557     -28.126  -0.865 -16.201  1.00 35.49    -0.212 N 
ATOM      6  CZ  ARG D 557     -28.353  -2.062 -16.694  1.00 35.49     0.666 C 
ATOM      7  NH1 ARG D 557     -29.366  -2.316 -17.502  1.00 35.49    -0.235 N 
ATOM      8  NH2 ARG D 557     -27.529  -3.013 -16.363  1.00 35.49    -0.235 N 
ATOM      9  HH  ARG D 557     -29.919  -1.705 -17.734  1.00 35.49     0.174 HD
ATOM     10  HH  ARG D 557     -29.462  -3.116 -17.794  1.00 35.49     0.174 HD
ATOM     11  HH  ARG D 557     -26.879  -2.819 -15.846  1.00 35.49     0.174 HD
ATOM     12  HH  ARG D 557     -27.640  -3.798 -16.665  1.00 35.49     0.174 HD
ATOM     13  HE  ARG D 557     -27.496  -0.808 -15.633  1.00 35.49     0.178 HD
ENDBRANCH   4   5
ENDBRANCH   3   4
ENDBRANCH   2   3
ENDBRANCH   1   2
END_RES ARG D 557
BEGIN_RES GLU D 570
REMARK  3 active torsions:
REMARK  status: ('A' for Active; 'I' for Inactive)
REMARK    5  A    between atoms: CA   and  CB  
REMARK    6  A    between atoms: CB   and  CG  
REMARK    7  A    between atoms: CG   and  CD  
ROOT
ATOM     14  CA  GLU D 570     -18.033  -6.348 -13.375  1.00 32.92     0.160 C 
ENDROOT
BRANCH  14  15
ATOM     15  CB  GLU D 570     -19.500  -6.345 -13.794  1.00 32.92     0.043 C 
BRANCH  15  16
ATOM     16  CG  GLU D 570     -20.086  -7.634 -14.246  1.00 32.92     0.100 C 
BRANCH  16  17
ATOM     17  CD  GLU D 570     -20.626  -7.573 -15.655  1.00 32.92     0.185 C 
ATOM     18  OE1 GLU D 570     -21.109  -8.604 -16.163  1.00 32.92    -0.647 OA
ATOM     19  OE2 GLU D 570     -20.552  -6.488 -16.264  1.00 32.92    -0.647 OA
ENDBRANCH  16  17
ENDBRANCH  15  16
ENDBRANCH  14  15
END_RES GLU D 570
ENDMDL
MODEL 3
REMARK VINA RESULT:      -6.7      1.503      2.382
REMARK  14 active torsions:
REMARK  status: ('A' for Active; 'I' for Inactive)
REMARK    1  A    between atoms: C_2  and  C_3 
REMARK    2  A    between atoms: C_3  and  C_4 
REMARK    3  A    between atoms: C_4  and  C_5 
REMARK    4  A    between atoms: C_5  and  C_6 
REMARK    5  A    between atoms: C_6  and  C_7 
REMARK    6  A    between atoms: C_7  and  C_8 
REMARK    7  A    between atoms: C_8  and  C_9 
REMARK    8  A    between atoms: C_9  and  C_10 
REMARK    9  A    between atoms: C_10  and  C_11 
REMARK   10  A    between atoms: C_11  and  C_12 
REMARK   11  A    between atoms: C_12  and  C_13 
REMARK   12  A    between atoms: C_13  and  O_14 
REMARK   13  A    between atoms: O_14  and  C_15 
REMARK   14  A    between atoms: C_15  and  C_17 
ROOT
HETATM    1  C   UNL     1     -21.118  -6.964  -5.477  1.00  0.00     0.000 C 
ENDROOT
BRANCH   1   2
HETATM    2  C   UNL     1     -22.250  -6.644  -4.511  1.00  0.00     0.000 C 
BRANCH   2   3
HETATM    3  C   UNL     1     -21.706  -6.411  -3.119  1.00  0.00     0.000 C 
BRANCH   3   4
HETATM    4  C   UNL     1     -20.862  -7.598  -2.693  1.00  0.00     0.000 C 
BRANCH   4   5
HETATM    5  C   UNL     1     -21.093  -7.890  -1.222  1.00  0.00     0.000 C 
BRANCH   5   6
HETATM    6  C   UNL     1     -22.351  -7.189  -0.747  1.00  0.00     0.000 C 
BRANCH   6   7
HETATM    7  C   UNL     1     -23.078  -8.060   0.262  1.00  0.00     0.000 C 
BRANCH   7   8
HETATM    8  C   UNL     1     -22.624  -9.503   0.125  1.00  0.00    -0.000 C 
BRANCH   8   9
HETATM    9  C   UNL     1     -23.823 -10.419  -0.055  1.00  0.00    -0.005 C 
HETATM   10  C   UNL     1     -23.709 -11.182  -1.359  1.00  0.00     0.005 C 
ENDBRANCH   8   9
ENDBRANCH   7   8
ENDBRANCH   6   7
ENDBRANCH   5   6
ENDBRANCH   4   5
ENDBRANCH   3   4
ENDBRANCH   2   3
ENDBRANCH   1   2
BRANCH   1  11
HETATM   11  C   UNL     1     -20.496  -5.687  -6.023  1.00  0.00     0.002 C 
BRANCH  11  12
HETATM   12  C   UNL     1     -20.923  -5.447  -7.472  1.00  0.00     0.027 C 
BRANCH  12  13
HETATM   13  C   UNL     1     -22.038  -4.421  -7.564  1.00  0.00     0.178 C 
BRANCH  13  14
HETATM   14  O   UNL     1     -21.889  -3.598  -8.739  1.00  0.00    -0.321 OA
BRANCH  14  15
HETATM   15  C   UNL     1     -22.962  -3.629  -9.583  1.00  0.00     0.266 C 
HETATM   16  O   UNL     1     -24.131  -3.468  -9.215  1.00  0.00    -0.264 OA
BRANCH  15  17
HETATM   17  C   UNL     1     -22.559  -3.871 -11.040  1.00  0.00     0.037 C 
HETATM   18  C   UNL     1     -22.790  -2.608 -11.875  1.00  0.00     0.025 C 
HETATM   19  C   UNL     1     -21.070  -4.254 -11.124  1.00  0.00     0.025 C 
HETATM   20  C   UNL     1     -23.386  -5.019 -11.626  1.00  0.00     0.025 C 
ENDBRANCH  15  17
ENDBRANCH  14  15
ENDBRANCH  13  14
ENDBRANCH  12  13
ENDBRANCH  11  12
ENDBRANCH   1  11
TORSDOF 14
BEGIN_RES ARG D 557
REMARK  4 active torsions:
REMARK  status: ('A' for Active; 'I' for Inactive)
REMARK    1  A    between atoms: CA   and  CB  
REMARK    2  A    between atoms: CB   and  CG  
REMARK    3  A    between atoms: CG   and  CD  
REMARK    4  A    between atoms: CD   and  NE  
REMARK       I    between atoms: NE   and  CZ  
REMARK       I    between atoms: CZ   and  NH1 
REMARK       I    between atoms: CZ   and  NH2 
ROOT
ATOM      1  CA  ARG D 557     -26.217   2.705 -17.014  1.00 35.49     0.159 C 
ENDROOT
BRANCH   1   2
ATOM      2  CB  ARG D 557     -26.789   1.319 -17.183  1.00 35.49     0.034 C 
BRANCH   2   3
ATOM      3  CG  ARG D 557     -28.155   1.103 -16.690  1.00 35.49     0.027 C 
BRANCH   3   4
ATOM      4  CD  ARG D 557     -28.792  -0.088 -17.297  1.00 35.49     0.116 C 
BRANCH   4   5
ATOM      5  NE  ARG D 557     -28.180  -1.314 -16.856  1.00 35.49    -0.212 N 
ATOM      6  CZ  ARG D 557     -28.663  -2.522 -17.039  1.00 35.49     0.666 C 
ATOM      7  NH1 ARG D 557     -29.809  -2.742 -17.657  1.00 35.49    -0.235 N 
ATOM      8  NH2 ARG D 557     -27.962  -3.523 -16.591  1.00 35.49    -0.235 N 
ATOM      9  HH  ARG D 557     -30.286  -2.099 -17.962  1.00 35.49     0.174 HD
ATOM     10  HH  ARG D 557     -30.073  -3.552 -17.749  1.00 35.49     0.174 HD
ATOM     11  HH  ARG D 557     -27.222  -3.351 -16.203  1.00 35.49     0.174 HD
ATOM     12  HH  ARG D 557     -28.239  -4.318 -16.693  1.00 35.49     0.174 HD
ATOM     13  HE  ARG D 557     -27.474  -1.261 -16.386  1.00 35.49     0.178 HD
ENDBRANCH   4   5
ENDBRANCH   3   4
ENDBRANCH   2   3
ENDBRANCH   1   2
END_RES ARG D 557
BEGIN_RES GLU D 570
REMARK  3 active torsions:
REMARK  status: ('A' for Active; 'I' for Inactive)
REMARK    5  A    between atoms: CA   and  CB  
REMARK    6  A    between atoms: CB   and  CG  
REMARK    7  A    between atoms: CG   and  CD  
ROOT
ATOM     14  CA  GLU D 570     -18.033  -6.348 -13.375  1.00 32.92     0.160 C 
ENDROOT
BRANCH  14  15
ATOM     15  CB  GLU D 570     -19.500  -6.345 -13.794  1.00 32.92     0.043 C 
BRANCH  15  16
ATOM     16  CG  GLU D 570     -19.796  -6.341 -15.250  1.00 32.92     0.100 C 
BRANCH  16  17
ATOM     17  CD  GLU D 570     -20.984  -5.479 -15.608  1.00 32.92     0.185 C 
ATOM     18  OE1 GLU D 570     -21.259  -5.295 -16.809  1.00 32.92    -0.647 OA
ATOM     19  OE2 GLU D 570     -21.637  -4.968 -14.676  1.00 32.92    -0.647 OA
ENDBRANCH  16  17
ENDBRANCH  15  16
ENDBRANCH  14  15
END_RES GLU D 570
ENDMDL
MODEL 4
REMARK VINA RESULT:      -6.7      3.440      8.223
REMARK  14 active torsions:
REMARK  status: ('A' for Active; 'I' for Inactive)
REMARK    1  A    between atoms: C_2  and  C_3 
REMARK    2  A    between atoms: C_3  and  C_4 
REMARK    3  A    between atoms: C_4  and  C_5 
REMARK    4  A    between atoms: C_5  and  C_6 
REMARK    5  A    between atoms: C_6  and  C_7 
REMARK    6  A    between atoms: C_7  and  C_8 
REMARK    7  A    between atoms: C_8  and  C_9 
REMARK    8  A    between atoms: C_9  and  C_10 
REMARK    9  A    between atoms: C_10  and  C_11 
REMARK   10  A    between atoms: C_11  and  C_12 
REMARK   11  A    between atoms: C_12  and  C_13 
REMARK   12  A    between atoms: C_13  and  O_14 
REMARK   13  A    between atoms: O_14  and  C_15 
REMARK   14  A    between atoms: C_15  and  C_17 
ROOT
HETATM    1  C   UNL     1     -21.693  -7.584  -4.341  1.00  0.00     0.000 C 
ENDROOT
BRANCH   1   2
HETATM    2  C   UNL     1     -21.792  -6.477  -5.380  1.00  0.00     0.000 C 
BRANCH   2   3
HETATM    3  C   UNL     1     -21.004  -6.842  -6.618  1.00  0.00     0.000 C 
BRANCH   3   4
HETATM    4  C   UNL     1     -19.953  -5.780  -6.889  1.00  0.00     0.000 C 
BRANCH   4   5
HETATM    5  C   UNL     1     -20.409  -4.451  -6.316  1.00  0.00     0.000 C 
BRANCH   5   6
HETATM    6  C   UNL     1     -21.066  -3.618  -7.401  1.00  0.00     0.000 C 
BRANCH   6   7
HETATM    7  C   UNL     1     -20.590  -4.080  -8.766  1.00  0.00     0.000 C 
BRANCH   7   8
HETATM    8  C   UNL     1     -21.745  -4.066  -9.751  1.00  0.00    -0.000 C 
BRANCH   8   9
HETATM    9  C   UNL     1     -23.070  -3.994  -9.011  1.00  0.00    -0.005 C 
HETATM   10  C   UNL     1     -24.197  -3.703  -9.981  1.00  0.00     0.005 C 
ENDBRANCH   8   9
ENDBRANCH   7   8
ENDBRANCH   6   7
ENDBRANCH   5   6
ENDBRANCH   4   5
ENDBRANCH   3   4
ENDBRANCH   2   3
ENDBRANCH   1   2
BRANCH   1  11
HETATM   11  C   UNL     1     -21.141  -7.048  -3.029  1.00  0.00     0.002 C 
BRANCH  11  12
HETATM   12  C   UNL     1     -22.238  -6.364  -2.211  1.00  0.00     0.027 C 
BRANCH  12  13
HETATM   13  C   UNL     1     -22.147  -6.726  -0.740  1.00  0.00     0.178 C 
BRANCH  13  14
HETATM   14  O   UNL     1     -21.790  -8.114  -0.568  1.00  0.00    -0.321 OA
BRANCH  14  15
HETATM   15  C   UNL     1     -22.785  -8.886  -0.042  1.00  0.00     0.266 C 
HETATM   16  O   UNL     1     -23.677  -8.450   0.693  1.00  0.00    -0.264 OA
BRANCH  15  17
HETATM   17  C   UNL     1     -22.684 -10.352  -0.473  1.00  0.00     0.037 C 
HETATM   18  C   UNL     1     -21.555 -11.055   0.286  1.00  0.00     0.025 C 
HETATM   19  C   UNL     1     -24.006 -11.084  -0.181  1.00  0.00     0.025 C 
HETATM   20  C   UNL     1     -22.407 -10.436  -1.977  1.00  0.00     0.025 C 
ENDBRANCH  15  17
ENDBRANCH  14  15
ENDBRANCH  13  14
ENDBRANCH  12  13
ENDBRANCH  11  12
ENDBRANCH   1  11
TORSDOF 14
BEGIN_RES ARG D 557
REMARK  4 active torsions:
REMARK  status: ('A' for Active; 'I' for Inactive)
REMARK    1  A    between atoms: CA   and  CB  
REMARK    2  A    between atoms: CB   and  CG  
REMARK    3  A    between atoms: CG   and  CD  
REMARK    4  A    between atoms: CD   and  NE  
REMARK       I    between atoms: NE   and  CZ  
REMARK       I    between atoms: CZ   and  NH1 
REMARK       I    between atoms: CZ   and  NH2 
ROOT
ATOM      1  CA  ARG D 557     -26.217   2.705 -17.014  1.00 35.49     0.159 C 
ENDROOT
BRANCH   1   2
ATOM      2  CB  ARG D 557     -26.789   1.319 -17.183  1.00 35.49     0.034 C 
BRANCH   2   3
ATOM      3  CG  ARG D 557     -25.871   0.194 -16.965  1.00 35.49     0.027 C 
BRANCH   3   4
ATOM      4  CD  ARG D 557     -26.309  -0.685 -15.857  1.00 35.49     0.116 C 
BRANCH   4   5
ATOM      5  NE  ARG D 557     -25.253  -0.934 -14.912  1.00 35.49    -0.212 N 
ATOM      6  CZ  ARG D 557     -24.965  -2.096 -14.370  1.00 35.49     0.666 C 
ATOM      7  NH1 ARG D 557     -25.652  -3.192 -14.636  1.00 35.49    -0.235 N 
ATOM      8  NH2 ARG D 557     -23.958  -2.143 -13.548  1.00 35.49    -0.235 N 
ATOM      9  HH  ARG D 557     -26.318  -3.185 -15.176  1.00 35.49     0.174 HD
ATOM     10  HH  ARG D 557     -25.417  -3.923 -14.255  1.00 35.49     0.174 HD
ATOM     11  HH  ARG D 557     -23.528  -1.421 -13.400  1.00 35.49     0.174 HD
ATOM     12  HH  ARG D 557     -23.739  -2.876 -13.181  1.00 35.49     0.174 HD
ATOM     13  HE  ARG D 557     -24.805  -0.269 -14.628  1.00 35.49     0.178 HD
ENDBRANCH   4   5
ENDBRANCH   3   4
ENDBRANCH   2   3
ENDBRANCH   1   2
END_RES ARG D 557
BEGIN_RES GLU D 570
REMARK  3 active torsions:
REMARK  status: ('A' for Active; 'I' for Inactive)
REMARK    5  A    between atoms: CA   and  CB  
REMARK    6  A    between atoms: CB   and  CG  
REMARK    7  A    between atoms: CG   and  CD  
ROOT
ATOM     14  CA  GLU D 570     -18.033  -6.348 -13.375  1.00 32.92     0.160 C 
ENDROOT
BRANCH  14  15
ATOM     15  CB  GLU D 570     -19.500  -6.345 -13.794  1.00 32.92     0.043 C 
BRANCH  15  16
ATOM     16  CG  GLU D 570     -20.446  -5.550 -12.969  1.00 32.92     0.100 C 
BRANCH  16  17
ATOM     17  CD  GLU D 570     -21.690  -5.145 -13.725  1.00 32.92     0.185 C 
ATOM     18  OE1 GLU D 570     -21.615  -4.947 -14.953  1.00 32.92    -0.647 OA
ATOM     19  OE2 GLU D 570     -22.748  -5.008 -13.079  1.00 32.92    -0.647 OA
ENDBRANCH  16  17
ENDBRANCH  15  16
ENDBRANCH  14  15
END_RES GLU D 570
ENDMDL
MODEL 5
REMARK VINA RESULT:      -6.6      4.065      6.615
REMARK  14 active torsions:
REMARK  status: ('A' for Active; 'I' for Inactive)
REMARK    1  A    between atoms: C_2  and  C_3 
REMARK    2  A    between atoms: C_3  and  C_4 
REMARK    3  A    between atoms: C_4  and  C_5 
REMARK    4  A    between atoms: C_5  and  C_6 
REMARK    5  A    between atoms: C_6  and  C_7 
REMARK    6  A    between atoms: C_7  and  C_8 
REMARK    7  A    between atoms: C_8  and  C_9 
REMARK    8  A    between atoms: C_9  and  C_10 
REMARK    9  A    between atoms: C_10  and  C_11 
REMARK   10  A    between atoms: C_11  and  C_12 
REMARK   11  A    between atoms: C_12  and  C_13 
REMARK   12  A    between atoms: C_13  and  O_14 
REMARK   13  A    between atoms: O_14  and  C_15 
REMARK   14  A    between atoms: C_15  and  C_17 
ROOT
HETATM    1  C   UNL     1     -22.983  -5.607 -13.752  1.00  0.00     0.000 C 
ENDROOT
BRANCH   1   2
HETATM    2  C   UNL     1     -23.233  -5.096 -12.340  1.00  0.00     0.000 C 
BRANCH   2   3
HETATM    3  C   UNL     1     -21.990  -4.435 -11.789  1.00  0.00     0.000 C 
BRANCH   3   4
HETATM    4  C   UNL     1     -22.321  -3.723 -10.490  1.00  0.00     0.000 C 
BRANCH   4   5
HETATM    5  C   UNL     1     -22.731  -4.738  -9.439  1.00  0.00     0.000 C 
BRANCH   5   6
HETATM    6  C   UNL     1     -23.028  -4.034  -8.129  1.00  0.00     0.000 C 
BRANCH   6   7
HETATM    7  C   UNL     1     -21.847  -4.176  -7.186  1.00  0.00     0.000 C 
BRANCH   7   8
HETATM    8  C   UNL     1     -21.326  -5.601  -7.215  1.00  0.00    -0.000 C 
BRANCH   8   9
HETATM    9  C   UNL     1     -19.807  -5.610  -7.192  1.00  0.00    -0.005 C 
HETATM   10  C   UNL     1     -19.266  -4.352  -7.840  1.00  0.00     0.005 C 
ENDBRANCH   8   9
ENDBRANCH   7   8
ENDBRANCH   6   7
ENDBRANCH   5   6
ENDBRANCH   4   5
ENDBRANCH   3   4
ENDBRANCH   2   3
ENDBRANCH   1   2
BRANCH   1  11
HETATM   11  C   UNL     1     -24.248  -5.521 -14.592  1.00  0.00     0.002 C 
BRANCH  11  12
HETATM   12  C   UNL     1     -24.453  -6.797 -15.408  1.00  0.00     0.027 C 
BRANCH  12  13
HETATM   13  C   UNL     1     -25.897  -6.953 -15.850  1.00  0.00     0.178 C 
BRANCH  13  14
HETATM   14  O   UNL     1     -26.182  -6.117 -16.991  1.00  0.00    -0.321 OA
BRANCH  14  15
HETATM   15  C   UNL     1     -27.314  -5.365 -16.864  1.00  0.00     0.266 C 
HETATM   16  O   UNL     1     -27.459  -4.481 -16.012  1.00  0.00    -0.264 OA
BRANCH  15  17
HETATM   17  C   UNL     1     -28.381  -5.725 -17.901  1.00  0.00     0.037 C 
HETATM   18  C   UNL     1     -29.273  -6.854 -17.378  1.00  0.00     0.025 C 
HETATM   19  C   UNL     1     -29.262  -4.499 -18.205  1.00  0.00     0.025 C 
HETATM   20  C   UNL     1     -27.713  -6.173 -19.204  1.00  0.00     0.025 C 
ENDBRANCH  15  17
ENDBRANCH  14  15
ENDBRANCH  13  14
ENDBRANCH  12  13
ENDBRANCH  11  12
ENDBRANCH   1  11
TORSDOF 14
BEGIN_RES ARG D 557
REMARK  4 active torsions:
REMARK  status: ('A' for Active; 'I' for Inactive)
REMARK    1  A    between atoms: CA   and  CB  
REMARK    2  A    between atoms: CB   and  CG  
REMARK    3  A    between atoms: CG   and  CD  
REMARK    4  A    between atoms: CD   and  NE  
REMARK       I    between atoms: NE   and  CZ  
REMARK       I    between atoms: CZ   and  NH1 
REMARK       I    between atoms: CZ   and  NH2 
ROOT
ATOM      1  CA  ARG D 557     -26.217   2.705 -17.014  1.00 35.49     0.159 C 
ENDROOT
BRANCH   1   2
ATOM      2  CB  ARG D 557     -26.789   1.319 -17.183  1.00 35.49     0.034 C 
BRANCH   2   3
ATOM      3  CG  ARG D 557     -25.853   0.197 -17.044  1.00 35.49     0.027 C 
BRANCH   3   4
ATOM      4  CD  ARG D 557     -26.195  -0.685 -15.905  1.00 35.49     0.116 C 
BRANCH   4   5
ATOM      5  NE  ARG D 557     -25.073  -0.898 -15.028  1.00 35.49    -0.212 N 
ATOM      6  CZ  ARG D 557     -24.943  -1.887 -14.173  1.00 35.49     0.666 C 
ATOM      7  NH1 ARG D 557     -25.870  -2.814 -14.015  1.00 35.49    -0.235 N 
ATOM      8  NH2 ARG D 557     -23.847  -1.935 -13.473  1.00 35.49    -0.235 N 
ATOM      9  HH  ARG D 557     -26.598  -2.803 -14.467  1.00 35.49     0.174 HD
ATOM     10  HH  ARG D 557     -25.729  -3.437 -13.444  1.00 35.49     0.174 HD
ATOM     11  HH  ARG D 557     -23.263  -1.327 -13.602  1.00 35.49     0.174 HD
ATOM     12  HH  ARG D 557     -23.725  -2.561 -12.914  1.00 35.49     0.174 HD
ATOM     13  HE  ARG D 557     -24.461  -0.307 -15.012  1.00 35.49     0.178 HD
ENDBRANCH   4   5
ENDBRANCH   3   4
ENDBRANCH   2   3
ENDBRANCH   1   2
END_RES ARG D 557
BEGIN_RES GLU D 570
REMARK  3 active torsions:
REMARK  status: ('A' for Active; 'I' for Inactive)
REMARK    5  A    between atoms: CA   and  CB  
REMARK    6  A    between atoms: CB   and  CG  
REMARK    7  A    between atoms: CG   and  CD  
ROOT
ATOM     14  CA  GLU D 570     -18.033  -6.348 -13.375  1.00 32.92     0.160 C 
ENDROOT
BRANCH  14  15
ATOM     15  CB  GLU D 570     -19.500  -6.345 -13.794  1.00 32.92     0.043 C 
BRANCH  15  16
ATOM     16  CG  GLU D 570     -19.798  -6.206 -15.243  1.00 32.92     0.100 C 
BRANCH  16  17
ATOM     17  CD  GLU D 570     -20.624  -7.348 -15.787  1.00 32.92     0.185 C 
ATOM     18  OE1 GLU D 570     -20.625  -8.436 -15.181  1.00 32.92    -0.647 OA
ATOM     19  OE2 GLU D 570     -21.262  -7.157 -16.841  1.00 32.92    -0.647 OA
ENDBRANCH  16  17
ENDBRANCH  15  16
ENDBRANCH  14  15
END_RES GLU D 570
ENDMDL
MODEL 6
REMARK VINA RESULT:      -6.4      3.228      8.201
REMARK  14 active torsions:
REMARK  status: ('A' for Active; 'I' for Inactive)
REMARK    1  A    between atoms: C_2  and  C_3 
REMARK    2  A    between atoms: C_3  and  C_4 
REMARK    3  A    between atoms: C_4  and  C_5 
REMARK    4  A    between atoms: C_5  and  C_6 
REMARK    5  A    between atoms: C_6  and  C_7 
REMARK    6  A    between atoms: C_7  and  C_8 
REMARK    7  A    between atoms: C_8  and  C_9 
REMARK    8  A    between atoms: C_9  and  C_10 
REMARK    9  A    between atoms: C_10  and  C_11 
REMARK   10  A    between atoms: C_11  and  C_12 
REMARK   11  A    between atoms: C_12  and  C_13 
REMARK   12  A    between atoms: C_13  and  O_14 
REMARK   13  A    between atoms: O_14  and  C_15 
REMARK   14  A    between atoms: C_15  and  C_17 
ROOT
HETATM    1  C   UNL     1     -22.059  -6.241  -5.228  1.00  0.00     0.000 C 
ENDROOT
BRANCH   1   2
HETATM    2  C   UNL     1     -20.747  -5.470  -5.208  1.00  0.00     0.000 C 
BRANCH   2   3
HETATM    3  C   UNL     1     -20.705  -4.471  -6.343  1.00  0.00     0.000 C 
BRANCH   3   4
HETATM    4  C   UNL     1     -19.743  -4.953  -7.414  1.00  0.00     0.000 C 
BRANCH   4   5
HETATM    5  C   UNL     1     -19.742  -3.980  -8.577  1.00  0.00     0.000 C 
BRANCH   5   6
HETATM    6  C   UNL     1     -20.158  -4.694  -9.850  1.00  0.00     0.000 C 
BRANCH   6   7
HETATM    7  C   UNL     1     -21.234  -3.894 -10.563  1.00  0.00     0.000 C 
BRANCH   7   8
HETATM    8  C   UNL     1     -22.596  -4.515 -10.311  1.00  0.00    -0.000 C 
BRANCH   8   9
HETATM    9  C   UNL     1     -23.308  -3.789  -9.181  1.00  0.00    -0.005 C 
HETATM   10  C   UNL     1     -24.661  -3.294  -9.648  1.00  0.00     0.005 C 
ENDBRANCH   8   9
ENDBRANCH   7   8
ENDBRANCH   6   7
ENDBRANCH   5   6
ENDBRANCH   4   5
ENDBRANCH   3   4
ENDBRANCH   2   3
ENDBRANCH   1   2
BRANCH   1  11
HETATM   11  C   UNL     1     -21.839  -7.693  -4.829  1.00  0.00     0.002 C 
BRANCH  11  12
HETATM   12  C   UNL     1     -20.543  -7.852  -4.033  1.00  0.00     0.027 C 
BRANCH  12  13
HETATM   13  C   UNL     1     -20.534  -9.141  -3.231  1.00  0.00     0.178 C 
BRANCH  13  14
HETATM   14  O   UNL     1     -21.680  -9.217  -2.357  1.00  0.00    -0.321 OA
BRANCH  14  15
HETATM   15  C   UNL     1     -21.370  -9.437  -1.047  1.00  0.00     0.266 C 
HETATM   16  O   UNL     1     -20.550 -10.282  -0.667  1.00  0.00    -0.264 OA
BRANCH  15  17
HETATM   17  C   UNL     1     -22.138  -8.516  -0.096  1.00  0.00     0.037 C 
HETATM   18  C   UNL     1     -21.357  -8.322   1.207  1.00  0.00     0.025 C 
HETATM   19  C   UNL     1     -22.357  -7.140  -0.750  1.00  0.00     0.025 C 
HETATM   20  C   UNL     1     -23.508  -9.122   0.224  1.00  0.00     0.025 C 
ENDBRANCH  15  17
ENDBRANCH  14  15
ENDBRANCH  13  14
ENDBRANCH  12  13
ENDBRANCH  11  12
ENDBRANCH   1  11
TORSDOF 14
BEGIN_RES ARG D 557
REMARK  4 active torsions:
REMARK  status: ('A' for Active; 'I' for Inactive)
REMARK    1  A    between atoms: CA   and  CB  
REMARK    2  A    between atoms: CB   and  CG  
REMARK    3  A    between atoms: CG   and  CD  
REMARK    4  A    between atoms: CD   and  NE  
REMARK       I    between atoms: NE   and  CZ  
REMARK       I    between atoms: CZ   and  NH1 
REMARK       I    between atoms: CZ   and  NH2 
ROOT
ATOM      1  CA  ARG D 557     -26.217   2.705 -17.014  1.00 35.49     0.159 C 
ENDROOT
BRANCH   1   2
ATOM      2  CB  ARG D 557     -26.789   1.319 -17.183  1.00 35.49     0.034 C 
BRANCH   2   3
ATOM      3  CG  ARG D 557     -25.864   0.195 -16.995  1.00 35.49     0.027 C 
BRANCH   3   4
ATOM      4  CD  ARG D 557     -26.296  -0.717 -15.912  1.00 35.49     0.116 C 
BRANCH   4   5
ATOM      5  NE  ARG D 557     -25.264  -0.919 -14.929  1.00 35.49    -0.212 N 
ATOM      6  CZ  ARG D 557     -24.991  -2.053 -14.324  1.00 35.49     0.666 C 
ATOM      7  NH1 ARG D 557     -25.670  -3.162 -14.556  1.00 35.49    -0.235 N 
ATOM      8  NH2 ARG D 557     -24.005  -2.058 -13.475  1.00 35.49    -0.235 N 
ATOM      9  HH  ARG D 557     -26.321  -3.182 -15.112  1.00 35.49     0.174 HD
ATOM     10  HH  ARG D 557     -25.444  -3.873 -14.134  1.00 35.49     0.174 HD
ATOM     11  HH  ARG D 557     -23.580  -1.330 -13.351  1.00 35.49     0.174 HD
ATOM     12  HH  ARG D 557     -23.796  -2.772 -13.068  1.00 35.49     0.174 HD
ATOM     13  HE  ARG D 557     -24.825  -0.240 -14.666  1.00 35.49     0.178 HD
ENDBRANCH   4   5
ENDBRANCH   3   4
ENDBRANCH   2   3
ENDBRANCH   1   2
END_RES ARG D 557
BEGIN_RES GLU D 570
REMARK  3 active torsions:
REMARK  status: ('A' for Active; 'I' for Inactive)
REMARK    5  A    between atoms: CA   and  CB  
REMARK    6  A    between atoms: CB   and  CG  
REMARK    7  A    between atoms: CG   and  CD  
ROOT
ATOM     14  CA  GLU D 570     -18.033  -6.348 -13.375  1.00 32.92     0.160 C 
ENDROOT
BRANCH  14  15
ATOM     15  CB  GLU D 570     -19.500  -6.345 -13.794  1.00 32.92     0.043 C 
BRANCH  15  16
ATOM     16  CG  GLU D 570     -19.802  -6.099 -15.228  1.00 32.92     0.100 C 
BRANCH  16  17
ATOM     17  CD  GLU D 570     -21.115  -5.382 -15.439  1.00 32.92     0.185 C 
ATOM     18  OE1 GLU D 570     -21.843  -5.150 -14.455  1.00 32.92    -0.647 OA
ATOM     19  OE2 GLU D 570     -21.427  -5.065 -16.604  1.00 32.92    -0.647 OA
ENDBRANCH  16  17
ENDBRANCH  15  16
ENDBRANCH  14  15
END_RES GLU D 570
ENDMDL
MODEL 7
REMARK VINA RESULT:      -6.3      6.918     12.380
REMARK  14 active torsions:
REMARK  status: ('A' for Active; 'I' for Inactive)
REMARK    1  A    between atoms: C_2  and  C_3 
REMARK    2  A    between atoms: C_3  and  C_4 
REMARK    3  A    between atoms: C_4  and  C_5 
REMARK    4  A    between atoms: C_5  and  C_6 
REMARK    5  A    between atoms: C_6  and  C_7 
REMARK    6  A    between atoms: C_7  and  C_8 
REMARK    7  A    between atoms: C_8  and  C_9 
REMARK    8  A    between atoms: C_9  and  C_10 
REMARK    9  A    between atoms: C_10  and  C_11 
REMARK   10  A    between atoms: C_11  and  C_12 
REMARK   11  A    between atoms: C_12  and  C_13 
REMARK   12  A    between atoms: C_13  and  O_14 
REMARK   13  A    between atoms: O_14  and  C_15 
REMARK   14  A    between atoms: C_15  and  C_17 
ROOT
HETATM    1  C   UNL     1     -34.459  -4.991 -12.538  1.00  0.00     0.000 C 
ENDROOT
BRANCH   1   2
HETATM    2  C   UNL     1     -34.725  -4.211 -11.258  1.00  0.00     0.000 C 
BRANCH   2   3
HETATM    3  C   UNL     1     -33.509  -3.397 -10.874  1.00  0.00     0.000 C 
BRANCH   3   4
HETATM    4  C   UNL     1     -33.907  -1.945 -10.674  1.00  0.00     0.000 C 
BRANCH   4   5
HETATM    5  C   UNL     1     -35.416  -1.814 -10.737  1.00  0.00     0.000 C 
BRANCH   5   6
HETATM    6  C   UNL     1     -35.796  -0.621 -11.595  1.00  0.00     0.000 C 
BRANCH   6   7
HETATM    7  C   UNL     1     -35.036  -0.666 -12.908  1.00  0.00     0.000 C 
BRANCH   7   8
HETATM    8  C   UNL     1     -34.774   0.744 -13.406  1.00  0.00    -0.000 C 
BRANCH   8   9
HETATM    9  C   UNL     1     -35.231   0.889 -14.848  1.00  0.00    -0.005 C 
HETATM   10  C   UNL     1     -35.580  -0.468 -15.426  1.00  0.00     0.005 C 
ENDBRANCH   8   9
ENDBRANCH   7   8
ENDBRANCH   6   7
ENDBRANCH   5   6
ENDBRANCH   4   5
ENDBRANCH   3   4
ENDBRANCH   2   3
ENDBRANCH   1   2
BRANCH   1  11
HETATM   11  C   UNL     1     -33.907  -4.079 -13.623  1.00  0.00     0.002 C 
BRANCH  11  12
HETATM   12  C   UNL     1     -34.569  -4.368 -14.971  1.00  0.00     0.027 C 
BRANCH  12  13
HETATM   13  C   UNL     1     -33.669  -3.981 -16.130  1.00  0.00     0.178 C 
BRANCH  13  14
HETATM   14  O   UNL     1     -32.312  -4.417 -15.902  1.00  0.00    -0.321 OA
BRANCH  14  15
HETATM   15  C   UNL     1     -31.471  -4.205 -16.956  1.00  0.00     0.266 C 
HETATM   16  O   UNL     1     -31.524  -3.209 -17.687  1.00  0.00    -0.264 OA
BRANCH  15  17
HETATM   17  C   UNL     1     -30.445  -5.327 -17.127  1.00  0.00     0.037 C 
HETATM   18  C   UNL     1     -29.657  -5.533 -15.831  1.00  0.00     0.025 C 
HETATM   19  C   UNL     1     -31.155  -6.645 -17.489  1.00  0.00     0.025 C 
HETATM   20  C   UNL     1     -29.473  -4.977 -18.257  1.00  0.00     0.025 C 
ENDBRANCH  15  17
ENDBRANCH  14  15
ENDBRANCH  13  14
ENDBRANCH  12  13
ENDBRANCH  11  12
ENDBRANCH   1  11
TORSDOF 14
BEGIN_RES ARG D 557
REMARK  4 active torsions:
REMARK  status: ('A' for Active; 'I' for Inactive)
REMARK    1  A    between atoms: CA   and  CB  
REMARK    2  A    between atoms: CB   and  CG  
REMARK    3  A    between atoms: CG   and  CD  
REMARK    4  A    between atoms: CD   and  NE  
REMARK       I    between atoms: NE   and  CZ  
REMARK       I    between atoms: CZ   and  NH1 
REMARK       I    between atoms: CZ   and  NH2 
ROOT
ATOM      1  CA  ARG D 557     -26.217   2.705 -17.014  1.00 35.49     0.159 C 
ENDROOT
BRANCH   1   2
ATOM      2  CB  ARG D 557     -26.789   1.319 -17.183  1.00 35.49     0.034 C 
BRANCH   2   3
ATOM      3  CG  ARG D 557     -25.864   0.195 -16.993  1.00 35.49     0.027 C 
BRANCH   3   4
ATOM      4  CD  ARG D 557     -26.277  -0.694 -15.884  1.00 35.49     0.116 C 
BRANCH   4   5
ATOM      5  NE  ARG D 557     -25.216  -0.907 -14.935  1.00 35.49    -0.212 N 
ATOM      6  CZ  ARG D 557     -24.914  -2.051 -14.364  1.00 35.49     0.666 C 
ATOM      7  NH1 ARG D 557     -25.588  -3.161 -14.600  1.00 35.49    -0.235 N 
ATOM      8  NH2 ARG D 557     -23.903  -2.064 -13.543  1.00 35.49    -0.235 N 
ATOM      9  HH  ARG D 557     -26.255  -3.176 -15.138  1.00 35.49     0.174 HD
ATOM     10  HH  ARG D 557     -25.343  -3.879 -14.201  1.00 35.49     0.174 HD
ATOM     11  HH  ARG D 557     -23.482  -1.334 -13.416  1.00 35.49     0.174 HD
ATOM     12  HH  ARG D 557     -23.676  -2.785 -13.159  1.00 35.49     0.174 HD
ATOM     13  HE  ARG D 557     -24.776  -0.229 -14.670  1.00 35.49     0.178 HD
ENDBRANCH   4   5
ENDBRANCH   3   4
ENDBRANCH   2   3
ENDBRANCH   1   2
END_RES ARG D 557
BEGIN_RES GLU D 570
REMARK  3 active torsions:
REMARK  status: ('A' for Active; 'I' for Inactive)
REMARK    5  A    between atoms: CA   and  CB  
REMARK    6  A    between atoms: CB   and  CG  
REMARK    7  A    between atoms: CG   and  CD  
ROOT
ATOM     14  CA  GLU D 570     -18.033  -6.348 -13.375  1.00 32.92     0.160 C 
ENDROOT
BRANCH  14  15
ATOM     15  CB  GLU D 570     -19.500  -6.345 -13.794  1.00 32.92     0.043 C 
BRANCH  15  16
ATOM     16  CG  GLU D 570     -20.446  -5.550 -12.969  1.00 32.92     0.100 C 
BRANCH  16  17
ATOM     17  CD  GLU D 570     -21.688  -5.140 -13.726  1.00 32.92     0.185 C 
ATOM     18  OE1 GLU D 570     -22.720  -4.859 -13.088  1.00 32.92    -0.647 OA
ATOM     19  OE2 GLU D 570     -21.632  -5.116 -14.971  1.00 32.92    -0.647 OA
ENDBRANCH  16  17
ENDBRANCH  15  16
ENDBRANCH  14  15
END_RES GLU D 570
ENDMDL
MODEL 8
REMARK VINA RESULT:      -6.2      3.875      8.335
REMARK  14 active torsions:
REMARK  status: ('A' for Active; 'I' for Inactive)
REMARK    1  A    between atoms: C_2  and  C_3 
REMARK    2  A    between atoms: C_3  and  C_4 
REMARK    3  A    between atoms: C_4  and  C_5 
REMARK    4  A    between atoms: C_5  and  C_6 
REMARK    5  A    between atoms: C_6  and  C_7 
REMARK    6  A    between atoms: C_7  and  C_8 
REMARK    7  A    between atoms: C_8  and  C_9 
REMARK    8  A    between atoms: C_9  and  C_10 
REMARK    9  A    between atoms: C_10  and  C_11 
REMARK   10  A    between atoms: C_11  and  C_12 
REMARK   11  A    between atoms: C_12  and  C_13 
REMARK   12  A    between atoms: C_13  and  O_14 
REMARK   13  A    between atoms: O_14  and  C_15 
REMARK   14  A    between atoms: C_15  and  C_17 
ROOT
HETATM    1  C   UNL     1     -20.500  -7.424  -2.522  1.00  0.00     0.000 C 
ENDROOT
BRANCH   1   2
HETATM    2  C   UNL     1     -21.724  -7.030  -3.336  1.00  0.00     0.000 C 
BRANCH   2   3
HETATM    3  C   UNL     1     -21.789  -7.835  -4.616  1.00  0.00     0.000 C 
BRANCH   3   4
HETATM    4  C   UNL     1     -21.036  -7.109  -5.716  1.00  0.00     0.000 C 
BRANCH   4   5
HETATM    5  C   UNL     1     -21.405  -5.638  -5.706  1.00  0.00     0.000 C 
BRANCH   5   6
HETATM    6  C   UNL     1     -20.156  -4.790  -5.856  1.00  0.00     0.000 C 
BRANCH   6   7
HETATM    7  C   UNL     1     -19.502  -5.068  -7.197  1.00  0.00     0.000 C 
BRANCH   7   8
HETATM    8  C   UNL     1     -19.773  -3.922  -8.155  1.00  0.00    -0.000 C 
BRANCH   8   9
HETATM    9  C   UNL     1     -20.442  -4.436  -9.419  1.00  0.00    -0.005 C 
HETATM   10  C   UNL     1     -21.946  -4.457  -9.244  1.00  0.00     0.005 C 
ENDBRANCH   8   9
ENDBRANCH   7   8
ENDBRANCH   6   7
ENDBRANCH   5   6
ENDBRANCH   4   5
ENDBRANCH   3   4
ENDBRANCH   2   3
ENDBRANCH   1   2
BRANCH   1  11
HETATM   11  C   UNL     1     -20.903  -7.902  -1.135  1.00  0.00     0.002 C 
BRANCH  11  12
HETATM   12  C   UNL     1     -22.297  -7.394  -0.765  1.00  0.00     0.027 C 
BRANCH  12  13
HETATM   13  C   UNL     1     -22.936  -8.250   0.313  1.00  0.00     0.178 C 
BRANCH  13  14
HETATM   14  O   UNL     1     -22.442  -9.606   0.260  1.00  0.00    -0.321 OA
BRANCH  14  15
HETATM   15  C   UNL     1     -23.347 -10.512  -0.212  1.00  0.00     0.266 C 
HETATM   16  O   UNL     1     -24.539 -10.528   0.116  1.00  0.00    -0.264 OA
BRANCH  15  17
HETATM   17  C   UNL     1     -22.729 -11.501  -1.204  1.00  0.00     0.037 C 
HETATM   18  C   UNL     1     -23.567 -12.781  -1.274  1.00  0.00     0.025 C 
HETATM   19  C   UNL     1     -22.663 -10.875  -2.609  1.00  0.00     0.025 C 
HETATM   20  C   UNL     1     -21.304 -11.856  -0.767  1.00  0.00     0.025 C 
ENDBRANCH  15  17
ENDBRANCH  14  15
ENDBRANCH  13  14
ENDBRANCH  12  13
ENDBRANCH  11  12
ENDBRANCH   1  11
TORSDOF 14
BEGIN_RES ARG D 557
REMARK  4 active torsions:
REMARK  status: ('A' for Active; 'I' for Inactive)
REMARK    1  A    between atoms: CA   and  CB  
REMARK    2  A    between atoms: CB   and  CG  
REMARK    3  A    between atoms: CG   and  CD  
REMARK    4  A    between atoms: CD   and  NE  
REMARK       I    between atoms: NE   and  CZ  
REMARK       I    between atoms: CZ   and  NH1 
REMARK       I    between atoms: CZ   and  NH2 
ROOT
ATOM      1  CA  ARG D 557     -26.217   2.705 -17.014  1.00 35.49     0.159 C 
ENDROOT
BRANCH   1   2
ATOM      2  CB  ARG D 557     -26.789   1.319 -17.183  1.00 35.49     0.034 C 
BRANCH   2   3
ATOM      3  CG  ARG D 557     -25.838   0.201 -17.133  1.00 35.49     0.027 C 
BRANCH   3   4
ATOM      4  CD  ARG D 557     -24.755   0.426 -16.150  1.00 35.49     0.116 C 
BRANCH   4   5
ATOM      5  NE  ARG D 557     -24.864  -0.450 -15.013  1.00 35.49    -0.212 N 
ATOM      6  CZ  ARG D 557     -24.023  -1.409 -14.698  1.00 35.49     0.666 C 
ATOM      7  NH1 ARG D 557     -22.958  -1.687 -15.429  1.00 35.49    -0.235 N 
ATOM      8  NH2 ARG D 557     -24.267  -2.092 -13.618  1.00 35.49    -0.235 N 
ATOM      9  HH  ARG D 557     -22.777  -1.249 -16.143  1.00 35.49     0.174 HD
ATOM     10  HH  ARG D 557     -22.444  -2.322 -15.173  1.00 35.49     0.174 HD
ATOM     11  HH  ARG D 557     -24.958  -1.886 -13.162  1.00 35.49     0.174 HD
ATOM     12  HH  ARG D 557     -23.745  -2.717 -13.381  1.00 35.49     0.174 HD
ATOM     13  HE  ARG D 557     -25.560  -0.389 -14.527  1.00 35.49     0.178 HD
ENDBRANCH   4   5
ENDBRANCH   3   4
ENDBRANCH   2   3
ENDBRANCH   1   2
END_RES ARG D 557
BEGIN_RES GLU D 570
REMARK  3 active torsions:
REMARK  status: ('A' for Active; 'I' for Inactive)
REMARK    5  A    between atoms: CA   and  CB  
REMARK    6  A    between atoms: CB   and  CG  
REMARK    7  A    between atoms: CG   and  CD  
ROOT
ATOM     14  CA  GLU D 570     -18.033  -6.348 -13.375  1.00 32.92     0.160 C 
ENDROOT
BRANCH  14  15
ATOM     15  CB  GLU D 570     -19.500  -6.345 -13.794  1.00 32.92     0.043 C 
BRANCH  15  16
ATOM     16  CG  GLU D 570     -20.446  -5.552 -12.967  1.00 32.92     0.100 C 
BRANCH  16  17
ATOM     17  CD  GLU D 570     -21.643  -5.061 -13.749  1.00 32.92     0.185 C 
ATOM     18  OE1 GLU D 570     -22.664  -4.703 -13.131  1.00 32.92    -0.647 OA
ATOM     19  OE2 GLU D 570     -21.564  -5.051 -14.993  1.00 32.92    -0.647 OA
ENDBRANCH  16  17
ENDBRANCH  15  16
ENDBRANCH  14  15
END_RES GLU D 570
ENDMDL
MODEL 9
REMARK VINA RESULT:      -6.1     15.241     16.785
REMARK  14 active torsions:
REMARK  status: ('A' for Active; 'I' for Inactive)
REMARK    1  A    between atoms: C_2  and  C_3 
REMARK    2  A    between atoms: C_3  and  C_4 
REMARK    3  A    between atoms: C_4  and  C_5 
REMARK    4  A    between atoms: C_5  and  C_6 
REMARK    5  A    between atoms: C_6  and  C_7 
REMARK    6  A    between atoms: C_7  and  C_8 
REMARK    7  A    between atoms: C_8  and  C_9 
REMARK    8  A    between atoms: C_9  and  C_10 
REMARK    9  A    between atoms: C_10  and  C_11 
REMARK   10  A    between atoms: C_11  and  C_12 
REMARK   11  A    between atoms: C_12  and  C_13 
REMARK   12  A    between atoms: C_13  and  O_14 
REMARK   13  A    between atoms: O_14  and  C_15 
REMARK   14  A    between atoms: C_15  and  C_17 
ROOT
HETATM    1  C   UNL     1     -14.887   9.147   6.948  1.00  0.00     0.000 C 
ENDROOT
BRANCH   1   2
HETATM    2  C   UNL     1     -13.674   8.610   6.201  1.00  0.00     0.000 C 
BRANCH   2   3
HETATM    3  C   UNL     1     -13.685   9.086   4.766  1.00  0.00     0.000 C 
BRANCH   3   4
HETATM    4  C   UNL     1     -14.499   8.128   3.914  1.00  0.00     0.000 C 
BRANCH   4   5
HETATM    5  C   UNL     1     -14.334   8.478   2.448  1.00  0.00     0.000 C 
BRANCH   5   6
HETATM    6  C   UNL     1     -13.287   9.565   2.290  1.00  0.00     0.000 C 
BRANCH   6   7
HETATM    7  C   UNL     1     -13.534  10.337   1.006  1.00  0.00     0.000 C 
BRANCH   7   8
HETATM    8  C   UNL     1     -14.960  10.856   0.978  1.00  0.00    -0.000 C 
BRANCH   8   9
HETATM    9  C   UNL     1     -15.057  12.176   1.725  1.00  0.00    -0.005 C 
HETATM   10  C   UNL     1     -15.972  12.032   2.924  1.00  0.00     0.005 C 
ENDBRANCH   8   9
ENDBRANCH   7   8
ENDBRANCH   6   7
ENDBRANCH   5   6
ENDBRANCH   4   5
ENDBRANCH   3   4
ENDBRANCH   2   3
ENDBRANCH   1   2
BRANCH   1  11
HETATM   11  C   UNL     1     -15.085  10.629   6.666  1.00  0.00     0.002 C 
BRANCH  11  12
HETATM   12  C   UNL     1     -16.554  10.940   6.378  1.00  0.00     0.027 C 
BRANCH  12  13
HETATM   13  C   UNL     1     -17.365   9.673   6.174  1.00  0.00     0.178 C 
BRANCH  13  14
HETATM   14  O   UNL     1     -17.636   9.450   4.774  1.00  0.00    -0.321 OA
BRANCH  14  15
HETATM   15  C   UNL     1     -18.912   9.757   4.396  1.00  0.00     0.266 C 
HETATM   16  O   UNL     1     -19.742  10.284   5.145  1.00  0.00    -0.264 OA
BRANCH  15  17
HETATM   17  C   UNL     1     -19.199   9.389   2.938  1.00  0.00     0.037 C 
HETATM   18  C   UNL     1     -19.806  10.583   2.196  1.00  0.00     0.025 C 
HETATM   19  C   UNL     1     -17.898   8.975   2.228  1.00  0.00     0.025 C 
HETATM   20  C   UNL     1     -20.176   8.211   2.880  1.00  0.00     0.025 C 
ENDBRANCH  15  17
ENDBRANCH  14  15
ENDBRANCH  13  14
ENDBRANCH  12  13
ENDBRANCH  11  12
ENDBRANCH   1  11
TORSDOF 14
BEGIN_RES ARG D 557
REMARK  4 active torsions:
REMARK  status: ('A' for Active; 'I' for Inactive)
REMARK    1  A    between atoms: CA   and  CB  
REMARK    2  A    between atoms: CB   and  CG  
REMARK    3  A    between atoms: CG   and  CD  
REMARK    4  A    between atoms: CD   and  NE  
REMARK       I    between atoms: NE   and  CZ  
REMARK       I    between atoms: CZ   and  NH1 
REMARK       I    between atoms: CZ   and  NH2 
ROOT
ATOM      1  CA  ARG D 557     -26.217   2.705 -17.014  1.00 35.49     0.159 C 
ENDROOT
BRANCH   1   2
ATOM      2  CB  ARG D 557     -26.789   1.319 -17.183  1.00 35.49     0.034 C 
BRANCH   2   3
ATOM      3  CG  ARG D 557     -25.835   0.204 -17.163  1.00 35.49     0.027 C 
BRANCH   3   4
ATOM      4  CD  ARG D 557     -24.750   0.407 -16.176  1.00 35.49     0.116 C 
BRANCH   4   5
ATOM      5  NE  ARG D 557     -24.904  -0.437 -15.020  1.00 35.49    -0.212 N 
ATOM      6  CZ  ARG D 557     -24.097  -1.413 -14.669  1.00 35.49     0.666 C 
ATOM      7  NH1 ARG D 557     -23.031  -1.741 -15.375  1.00 35.49    -0.235 N 
ATOM      8  NH2 ARG D 557     -24.379  -2.061 -13.576  1.00 35.49    -0.235 N 
ATOM      9  HH  ARG D 557     -22.825  -1.326 -16.096  1.00 35.49     0.174 HD
ATOM     10  HH  ARG D 557     -22.540  -2.385 -15.096  1.00 35.49     0.174 HD
ATOM     11  HH  ARG D 557     -25.069  -1.822 -13.136  1.00 35.49     0.174 HD
ATOM     12  HH  ARG D 557     -23.879  -2.695 -13.315  1.00 35.49     0.174 HD
ATOM     13  HE  ARG D 557     -25.604  -0.343 -14.547  1.00 35.49     0.178 HD
ENDBRANCH   4   5
ENDBRANCH   3   4
ENDBRANCH   2   3
ENDBRANCH   1   2
END_RES ARG D 557
BEGIN_RES GLU D 570
REMARK  3 active torsions:
REMARK  status: ('A' for Active; 'I' for Inactive)
REMARK    5  A    between atoms: CA   and  CB  
REMARK    6  A    between atoms: CB   and  CG  
REMARK    7  A    between atoms: CG   and  CD  
ROOT
ATOM     14  CA  GLU D 570     -18.033  -6.348 -13.375  1.00 32.92     0.160 C 
ENDROOT
BRANCH  14  15
ATOM     15  CB  GLU D 570     -19.500  -6.345 -13.794  1.00 32.92     0.043 C 
BRANCH  15  16
ATOM     16  CG  GLU D 570     -20.443  -5.535 -12.980  1.00 32.92     0.100 C 
BRANCH  16  17
ATOM     17  CD  GLU D 570     -21.735  -5.233 -13.702  1.00 32.92     0.185 C 
ATOM     18  OE1 GLU D 570     -22.299  -4.140 -13.502  1.00 32.92    -0.647 OA
ATOM     19  OE2 GLU D 570     -22.198  -6.106 -14.463  1.00 32.92    -0.647 OA
ENDBRANCH  16  17
ENDBRANCH  15  16
ENDBRANCH  14  15
END_RES GLU D 570
ENDMDL
