MODEL 1
REMARK VINA RESULT:      -7.5      0.000      0.000
REMARK  6 active torsions:
REMARK  status: ('A' for Active; 'I' for Inactive)
REMARK    1  A    between atoms: C_1  and  O_13 
REMARK    2  A    between atoms: C_2  and  O_12 
REMARK    3  A    between atoms: C_3  and  C_9 
REMARK    4  A    between atoms: C_5  and  O_8 
REMARK    5  A    between atoms: C_6  and  O_7 
REMARK    6  A    between atoms: C_9  and  O_11 
ROOT
HETATM    1  C   UNL     1     -22.473  -4.456 -11.360  1.00  0.00     0.183 C 
HETATM    2  C   UNL     1     -23.045  -4.359 -12.769  1.00  0.00     0.188 C 
HETATM    3  C   UNL     1     -23.872  -3.088 -12.838  1.00  0.00     0.258 C 
HETATM    4  O   UNL     1     -24.962  -3.058 -11.894  1.00  0.00    -0.341 OA
HETATM    5  C   UNL     1     -24.560  -3.279 -10.551  1.00  0.00     0.289 C 
HETATM    6  C   UNL     1     -23.624  -4.497 -10.346  1.00  0.00     0.204 C 
ENDROOT
BRANCH   3   7
HETATM    7  C   UNL     1     -24.407  -2.758 -14.229  1.00  0.00     0.321 C 
HETATM    8  O   UNL     1     -25.146  -3.619 -14.788  1.00  0.00    -0.260 OA
BRANCH   7   9
HETATM    9  O   UNL     1     -24.012  -1.608 -14.623  1.00  0.00    -0.147 OA
HETATM   10 NA   UNL     2     -25.062   0.052 -14.297  1.00  0.00     0.000 Na
ENDBRANCH   7   9
ENDBRANCH   3   7
BRANCH   2  11
HETATM   11  O   UNL     1     -23.846  -5.521 -13.035  1.00  0.00    -0.390 OA
HETATM   12  H   UNL     1     -23.598  -6.177 -12.335  1.00  0.00     0.210 HD
ENDBRANCH   2  11
BRANCH   1  13
HETATM   13  O   UNL     1     -21.654  -3.302 -11.059  1.00  0.00    -0.390 OA
HETATM   14  H   UNL     1     -21.280  -3.446 -10.169  1.00  0.00     0.210 HD
ENDBRANCH   1  13
BRANCH   5  15
HETATM   15  O   UNL     1     -25.741  -3.385  -9.768  1.00  0.00    -0.368 OA
HETATM   16  H   UNL     1     -26.471  -3.064 -10.334  1.00  0.00     0.212 HD
ENDBRANCH   5  15
BRANCH   6  17
HETATM   17  O   UNL     1     -23.081  -4.487  -9.015  1.00  0.00    -0.388 OA
HETATM   18  H   UNL     1     -22.126  -4.310  -9.123  1.00  0.00     0.210 HD
ENDBRANCH   6  17
TORSDOF 6
BEGIN_RES ARG D 557
REMARK  4 active torsions:
REMARK  status: ('A' for Active; 'I' for Inactive)
REMARK    1  A    between atoms: CA   and  CB  
REMARK    2  A    between atoms: CB   and  CG  
REMARK    3  A    between atoms: CG   and  CD  
REMARK    4  A    between atoms: CD   and  NE  
REMARK       I    between atoms: NE   and  CZ  
REMARK       I    between atoms: CZ   and  NH1 
REMARK       I    between atoms: CZ   and  NH2 
ROOT
ATOM      1  CA  ARG D 557     -26.217   2.705 -17.014  1.00 35.49     0.159 C 
ENDROOT
BRANCH   1   2
ATOM      2  CB  ARG D 557     -26.789   1.319 -17.183  1.00 35.49     0.034 C 
BRANCH   2   3
ATOM      3  CG  ARG D 557     -28.230   1.227 -17.445  1.00 35.49     0.027 C 
BRANCH   3   4
ATOM      4  CD  ARG D 557     -28.917   0.307 -16.509  1.00 35.49     0.116 C 
BRANCH   4   5
ATOM      5  NE  ARG D 557     -29.264  -0.942 -17.133  1.00 35.49    -0.212 N 
ATOM      6  CZ  ARG D 557     -28.607  -2.074 -17.005  1.00 35.49     0.666 C 
ATOM      7  NH1 ARG D 557     -27.512  -2.179 -16.275  1.00 35.49    -0.235 N 
ATOM      8  NH2 ARG D 557     -29.078  -3.115 -17.627  1.00 35.49    -0.235 N 
ATOM      9  HH  ARG D 557     -27.186  -1.507 -15.855  1.00 35.49     0.174 HD
ATOM     10  HH  ARG D 557     -27.128  -2.943 -16.226  1.00 35.49     0.174 HD
ATOM     11  HH  ARG D 557     -29.791  -3.019 -18.085  1.00 35.49     0.174 HD
ATOM     12  HH  ARG D 557     -28.684  -3.863 -17.565  1.00 35.49     0.174 HD
ATOM     13  HE  ARG D 557     -29.915  -0.948 -17.680  1.00 35.49     0.178 HD
ENDBRANCH   4   5
ENDBRANCH   3   4
ENDBRANCH   2   3
ENDBRANCH   1   2
END_RES ARG D 557
BEGIN_RES GLU D 570
REMARK  3 active torsions:
REMARK  status: ('A' for Active; 'I' for Inactive)
REMARK    5  A    between atoms: CA   and  CB  
REMARK    6  A    between atoms: CB   and  CG  
REMARK    7  A    between atoms: CG   and  CD  
ROOT
ATOM     14  CA  GLU D 570     -18.033  -6.348 -13.375  1.00 32.92     0.160 C 
ENDROOT
BRANCH  14  15
ATOM     15  CB  GLU D 570     -19.500  -6.345 -13.794  1.00 32.92     0.043 C 
BRANCH  15  16
ATOM     16  CG  GLU D 570     -19.801  -6.125 -15.232  1.00 32.92     0.100 C 
BRANCH  16  17
ATOM     17  CD  GLU D 570     -21.268  -5.883 -15.497  1.00 32.92     0.185 C 
ATOM     18  OE1 GLU D 570     -21.622  -4.802 -16.006  1.00 32.92    -0.647 OA
ATOM     19  OE2 GLU D 570     -22.075  -6.778 -15.177  1.00 32.92    -0.647 OA
ENDBRANCH  16  17
ENDBRANCH  15  16
ENDBRANCH  14  15
END_RES GLU D 570
ENDMDL
MODEL 2
REMARK VINA RESULT:      -7.4      1.757      3.422
REMARK  6 active torsions:
REMARK  status: ('A' for Active; 'I' for Inactive)
REMARK    1  A    between atoms: C_1  and  O_13 
REMARK    2  A    between atoms: C_2  and  O_12 
REMARK    3  A    between atoms: C_3  and  C_9 
REMARK    4  A    between atoms: C_5  and  O_8 
REMARK    5  A    between atoms: C_6  and  O_7 
REMARK    6  A    between atoms: C_9  and  O_11 
ROOT
HETATM    1  C   UNL     1     -22.275  -4.499 -12.885  1.00  0.00     0.183 C 
HETATM    2  C   UNL     1     -22.548  -4.181 -11.420  1.00  0.00     0.188 C 
HETATM    3  C   UNL     1     -24.004  -3.767 -11.308  1.00  0.00     0.258 C 
HETATM    4  O   UNL     1     -24.337  -2.609 -12.102  1.00  0.00    -0.341 OA
HETATM    5  C   UNL     1     -23.995  -2.741 -13.473  1.00  0.00     0.289 C 
HETATM    6  C   UNL     1     -22.557  -3.255 -13.737  1.00  0.00     0.204 C 
ENDROOT
BRANCH   3   7
HETATM    7  C   UNL     1     -24.489  -3.546  -9.877  1.00  0.00     0.321 C 
HETATM    8  O   UNL     1     -23.666  -3.769  -8.943  1.00  0.00    -0.260 OA
BRANCH   7   9
HETATM    9  O   UNL     1     -25.702  -3.145  -9.850  1.00  0.00    -0.147 OA
HETATM   10 NA   UNL     2     -27.213  -4.341  -9.353  1.00  0.00     0.000 Na
ENDBRANCH   7   9
ENDBRANCH   3   7
BRANCH   2  11
HETATM   11  O   UNL     1     -21.669  -3.127 -10.994  1.00  0.00    -0.390 OA
HETATM   12  H   UNL     1     -20.753  -3.463 -11.168  1.00  0.00     0.210 HD
ENDBRANCH   2  11
BRANCH   1  13
HETATM   13  O   UNL     1     -23.141  -5.562 -13.348  1.00  0.00    -0.390 OA
HETATM   14  H   UNL     1     -22.718  -6.403 -13.090  1.00  0.00     0.210 HD
ENDBRANCH   1  13
BRANCH   5  15
HETATM   15  O   UNL     1     -24.225  -1.482 -14.090  1.00  0.00    -0.368 OA
HETATM   16  H   UNL     1     -23.344  -1.140 -14.343  1.00  0.00     0.212 HD
ENDBRANCH   5  15
BRANCH   6  17
HETATM   17  O   UNL     1     -22.395  -3.587 -15.126  1.00  0.00    -0.388 OA
HETATM   18  H   UNL     1     -21.473  -3.350 -15.346  1.00  0.00     0.210 HD
ENDBRANCH   6  17
TORSDOF 6
BEGIN_RES ARG D 557
REMARK  4 active torsions:
REMARK  status: ('A' for Active; 'I' for Inactive)
REMARK    1  A    between atoms: CA   and  CB  
REMARK    2  A    between atoms: CB   and  CG  
REMARK    3  A    between atoms: CG   and  CD  
REMARK    4  A    between atoms: CD   and  NE  
REMARK       I    between atoms: NE   and  CZ  
REMARK       I    between atoms: CZ   and  NH1 
REMARK       I    between atoms: CZ   and  NH2 
ROOT
ATOM      1  CA  ARG D 557     -26.217   2.705 -17.014  1.00 35.49     0.159 C 
ENDROOT
BRANCH   1   2
ATOM      2  CB  ARG D 557     -26.789   1.319 -17.183  1.00 35.49     0.034 C 
BRANCH   2   3
ATOM      3  CG  ARG D 557     -28.222   1.158 -16.910  1.00 35.49     0.027 C 
BRANCH   3   4
ATOM      4  CD  ARG D 557     -28.632  -0.264 -16.864  1.00 35.49     0.116 C 
BRANCH   4   5
ATOM      5  NE  ARG D 557     -27.679  -1.080 -16.158  1.00 35.49    -0.212 N 
ATOM      6  CZ  ARG D 557     -27.583  -2.388 -16.234  1.00 35.49     0.666 C 
ATOM      7  NH1 ARG D 557     -28.390  -3.117 -16.984  1.00 35.49    -0.235 N 
ATOM      8  NH2 ARG D 557     -26.644  -2.963 -15.539  1.00 35.49    -0.235 N 
ATOM      9  HH  ARG D 557     -29.013  -2.760 -17.451  1.00 35.49     0.174 HD
ATOM     10  HH  ARG D 557     -28.278  -3.966 -16.996  1.00 35.49     0.174 HD
ATOM     11  HH  ARG D 557     -26.133  -2.466 -15.070  1.00 35.49     0.174 HD
ATOM     12  HH  ARG D 557     -26.548  -3.805 -15.566  1.00 35.49     0.174 HD
ATOM     13  HE  ARG D 557     -27.167  -0.700 -15.596  1.00 35.49     0.178 HD
ENDBRANCH   4   5
ENDBRANCH   3   4
ENDBRANCH   2   3
ENDBRANCH   1   2
END_RES ARG D 557
BEGIN_RES GLU D 570
REMARK  3 active torsions:
REMARK  status: ('A' for Active; 'I' for Inactive)
REMARK    5  A    between atoms: CA   and  CB  
REMARK    6  A    between atoms: CB   and  CG  
REMARK    7  A    between atoms: CG   and  CD  
ROOT
ATOM     14  CA  GLU D 570     -18.033  -6.348 -13.375  1.00 32.92     0.160 C 
ENDROOT
BRANCH  14  15
ATOM     15  CB  GLU D 570     -19.500  -6.345 -13.794  1.00 32.92     0.043 C 
BRANCH  15  16
ATOM     16  CG  GLU D 570     -19.798  -6.213 -15.244  1.00 32.92     0.100 C 
BRANCH  16  17
ATOM     17  CD  GLU D 570     -20.984  -7.041 -15.679  1.00 32.92     0.185 C 
ATOM     18  OE1 GLU D 570     -22.070  -6.471 -15.904  1.00 32.92    -0.647 OA
ATOM     19  OE2 GLU D 570     -20.832  -8.274 -15.781  1.00 32.92    -0.647 OA
ENDBRANCH  16  17
ENDBRANCH  15  16
ENDBRANCH  14  15
END_RES GLU D 570
ENDMDL
MODEL 3
REMARK VINA RESULT:      -6.7      3.806      5.953
REMARK  6 active torsions:
REMARK  status: ('A' for Active; 'I' for Inactive)
REMARK    1  A    between atoms: C_1  and  O_13 
REMARK    2  A    between atoms: C_2  and  O_12 
REMARK    3  A    between atoms: C_3  and  C_9 
REMARK    4  A    between atoms: C_5  and  O_8 
REMARK    5  A    between atoms: C_6  and  O_7 
REMARK    6  A    between atoms: C_9  and  O_11 
ROOT
HETATM    1  C   UNL     1     -28.655  -6.662 -16.793  1.00  0.00     0.183 C 
HETATM    2  C   UNL     1     -29.638  -5.498 -16.740  1.00  0.00     0.188 C 
HETATM    3  C   UNL     1     -28.894  -4.254 -17.188  1.00  0.00     0.258 C 
HETATM    4  O   UNL     1     -27.755  -3.935 -16.362  1.00  0.00    -0.341 OA
HETATM    5  C   UNL     1     -26.832  -5.004 -16.226  1.00  0.00     0.289 C 
HETATM    6  C   UNL     1     -27.470  -6.369 -15.864  1.00  0.00     0.204 C 
ENDROOT
BRANCH   3   7
HETATM    7  C   UNL     1     -29.770  -3.012 -17.330  1.00  0.00     0.321 C 
HETATM    8  O   UNL     1     -31.010  -3.191 -17.506  1.00  0.00    -0.260 OA
BRANCH   7   9
HETATM    9  O   UNL     1     -29.082  -1.939 -17.235  1.00  0.00    -0.147 OA
HETATM   10 NA   UNL     2     -29.505  -0.302 -18.286  1.00  0.00     0.000 Na
ENDBRANCH   7   9
ENDBRANCH   3   7
BRANCH   2  11
HETATM   11  O   UNL     1     -30.133  -5.360 -15.399  1.00  0.00    -0.390 OA
HETATM   12  H   UNL     1     -30.074  -6.266 -15.002  1.00  0.00     0.210 HD
ENDBRANCH   2  11
BRANCH   1  13
HETATM   13  O   UNL     1     -28.139  -6.835 -18.134  1.00  0.00    -0.390 OA
HETATM   14  H   UNL     1     -28.487  -6.097 -18.668  1.00  0.00     0.210 HD
ENDBRANCH   1  13
BRANCH   5  15
HETATM   15  O   UNL     1     -25.862  -4.607 -15.266  1.00  0.00    -0.368 OA
HETATM   16  H   UNL     1     -26.321  -4.602 -14.403  1.00  0.00     0.212 HD
ENDBRANCH   5  15
BRANCH   6  17
HETATM   17  O   UNL     1     -26.498  -7.421 -15.993  1.00  0.00    -0.388 OA
HETATM   18  H   UNL     1     -25.635  -7.005 -15.802  1.00  0.00     0.210 HD
ENDBRANCH   6  17
TORSDOF 6
BEGIN_RES ARG D 557
REMARK  4 active torsions:
REMARK  status: ('A' for Active; 'I' for Inactive)
REMARK    1  A    between atoms: CA   and  CB  
REMARK    2  A    between atoms: CB   and  CG  
REMARK    3  A    between atoms: CG   and  CD  
REMARK    4  A    between atoms: CD   and  NE  
REMARK       I    between atoms: NE   and  CZ  
REMARK       I    between atoms: CZ   and  NH1 
REMARK       I    between atoms: CZ   and  NH2 
ROOT
ATOM      1  CA  ARG D 557     -26.217   2.705 -17.014  1.00 35.49     0.159 C 
ENDROOT
BRANCH   1   2
ATOM      2  CB  ARG D 557     -26.789   1.319 -17.183  1.00 35.49     0.034 C 
BRANCH   2   3
ATOM      3  CG  ARG D 557     -25.841   0.200 -17.113  1.00 35.49     0.027 C 
BRANCH   3   4
ATOM      4  CD  ARG D 557     -24.812   0.398 -16.067  1.00 35.49     0.116 C 
BRANCH   4   5
ATOM      5  NE  ARG D 557     -24.959  -0.533 -14.978  1.00 35.49    -0.212 N 
ATOM      6  CZ  ARG D 557     -24.120  -1.498 -14.674  1.00 35.49     0.666 C 
ATOM      7  NH1 ARG D 557     -23.023  -1.730 -15.371  1.00 35.49    -0.235 N 
ATOM      8  NH2 ARG D 557     -24.402  -2.234 -13.639  1.00 35.49    -0.235 N 
ATOM      9  HH  ARG D 557     -22.817  -1.257 -16.055  1.00 35.49     0.174 HD
ATOM     10  HH  ARG D 557     -22.512  -2.372 -15.124  1.00 35.49     0.174 HD
ATOM     11  HH  ARG D 557     -25.114  -2.056 -13.203  1.00 35.49     0.174 HD
ATOM     12  HH  ARG D 557     -23.883  -2.864 -13.409  1.00 35.49     0.174 HD
ATOM     13  HE  ARG D 557     -25.675  -0.502 -14.521  1.00 35.49     0.178 HD
ENDBRANCH   4   5
ENDBRANCH   3   4
ENDBRANCH   2   3
ENDBRANCH   1   2
END_RES ARG D 557
BEGIN_RES GLU D 570
REMARK  3 active torsions:
REMARK  status: ('A' for Active; 'I' for Inactive)
REMARK    5  A    between atoms: CA   and  CB  
REMARK    6  A    between atoms: CB   and  CG  
REMARK    7  A    between atoms: CG   and  CD  
ROOT
ATOM     14  CA  GLU D 570     -18.033  -6.348 -13.375  1.00 32.92     0.160 C 
ENDROOT
BRANCH  14  15
ATOM     15  CB  GLU D 570     -19.500  -6.345 -13.794  1.00 32.92     0.043 C 
BRANCH  15  16
ATOM     16  CG  GLU D 570     -20.446  -5.552 -12.968  1.00 32.92     0.100 C 
BRANCH  16  17
ATOM     17  CD  GLU D 570     -21.661  -5.093 -13.740  1.00 32.92     0.185 C 
ATOM     18  OE1 GLU D 570     -22.663  -4.697 -13.113  1.00 32.92    -0.647 OA
ATOM     19  OE2 GLU D 570     -21.617  -5.146 -14.985  1.00 32.92    -0.647 OA
ENDBRANCH  16  17
ENDBRANCH  15  16
ENDBRANCH  14  15
END_RES GLU D 570
ENDMDL
MODEL 4
REMARK VINA RESULT:      -6.7      3.796      6.437
REMARK  6 active torsions:
REMARK  status: ('A' for Active; 'I' for Inactive)
REMARK    1  A    between atoms: C_1  and  O_13 
REMARK    2  A    between atoms: C_2  and  O_12 
REMARK    3  A    between atoms: C_3  and  C_9 
REMARK    4  A    between atoms: C_5  and  O_8 
REMARK    5  A    between atoms: C_6  and  O_7 
REMARK    6  A    between atoms: C_9  and  O_11 
ROOT
HETATM    1  C   UNL     1     -30.184  -5.549 -17.571  1.00  0.00     0.183 C 
HETATM    2  C   UNL     1     -28.855  -6.279 -17.422  1.00  0.00     0.188 C 
HETATM    3  C   UNL     1     -28.059  -5.561 -16.348  1.00  0.00     0.258 C 
HETATM    4  O   UNL     1     -27.793  -4.177 -16.656  1.00  0.00    -0.341 OA
HETATM    5  C   UNL     1     -28.960  -3.425 -16.951  1.00  0.00     0.289 C 
HETATM    6  C   UNL     1     -29.921  -4.091 -17.968  1.00  0.00     0.204 C 
ENDROOT
BRANCH   3   7
HETATM    7  C   UNL     1     -26.749  -6.247 -15.968  1.00  0.00     0.321 C 
HETATM    8  O   UNL     1     -26.826  -7.388 -15.428  1.00  0.00    -0.260 OA
BRANCH   7   9
HETATM    9  O   UNL     1     -25.737  -5.531 -16.278  1.00  0.00    -0.147 OA
HETATM   10 NA   UNL     2     -24.024  -5.607 -15.268  1.00  0.00     0.000 Na
ENDBRANCH   7   9
ENDBRANCH   3   7
BRANCH   2  11
HETATM   11  O   UNL     1     -28.166  -6.267 -18.682  1.00  0.00    -0.390 OA
HETATM   12  H   UNL     1     -28.730  -5.719 -19.284  1.00  0.00     0.210 HD
ENDBRANCH   2  11
BRANCH   1  13
HETATM   13  O   UNL     1     -30.910  -5.546 -16.319  1.00  0.00    -0.390 OA
HETATM   14  H   UNL     1     -30.246  -5.469 -15.608  1.00  0.00     0.210 HD
ENDBRANCH   1  13
BRANCH   5  15
HETATM   15  O   UNL     1     -28.536  -2.141 -17.391  1.00  0.00    -0.368 OA
HETATM   16  H   UNL     1     -27.573  -2.103 -17.226  1.00  0.00     0.212 HD
ENDBRANCH   5  15
BRANCH   6  17
HETATM   17  O   UNL     1     -31.170  -3.380 -18.009  1.00  0.00    -0.388 OA
HETATM   18  H   UNL     1     -31.780  -3.891 -17.442  1.00  0.00     0.210 HD
ENDBRANCH   6  17
TORSDOF 6
BEGIN_RES ARG D 557
REMARK  4 active torsions:
REMARK  status: ('A' for Active; 'I' for Inactive)
REMARK    1  A    between atoms: CA   and  CB  
REMARK    2  A    between atoms: CB   and  CG  
REMARK    3  A    between atoms: CG   and  CD  
REMARK    4  A    between atoms: CD   and  NE  
REMARK       I    between atoms: NE   and  CZ  
REMARK       I    between atoms: CZ   and  NH1 
REMARK       I    between atoms: CZ   and  NH2 
ROOT
ATOM      1  CA  ARG D 557     -26.217   2.705 -17.014  1.00 35.49     0.159 C 
ENDROOT
BRANCH   1   2
ATOM      2  CB  ARG D 557     -26.789   1.319 -17.183  1.00 35.49     0.034 C 
BRANCH   2   3
ATOM      3  CG  ARG D 557     -25.868   0.195 -16.976  1.00 35.49     0.027 C 
BRANCH   3   4
ATOM      4  CD  ARG D 557     -26.271  -0.662 -15.837  1.00 35.49     0.116 C 
BRANCH   4   5
ATOM      5  NE  ARG D 557     -25.175  -0.925 -14.942  1.00 35.49    -0.212 N 
ATOM      6  CZ  ARG D 557     -24.933  -2.067 -14.339  1.00 35.49     0.666 C 
ATOM      7  NH1 ARG D 557     -25.707  -3.126 -14.488  1.00 35.49    -0.235 N 
ATOM      8  NH2 ARG D 557     -23.879  -2.133 -13.578  1.00 35.49    -0.235 N 
ATOM      9  HH  ARG D 557     -26.404  -3.106 -14.986  1.00 35.49     0.174 HD
ATOM     10  HH  ARG D 557     -25.498  -3.845 -14.072  1.00 35.49     0.174 HD
ATOM     11  HH  ARG D 557     -23.393  -1.436 -13.506  1.00 35.49     0.174 HD
ATOM     12  HH  ARG D 557     -23.688  -2.854 -13.175  1.00 35.49     0.174 HD
ATOM     13  HE  ARG D 557     -24.666  -0.276 -14.732  1.00 35.49     0.178 HD
ENDBRANCH   4   5
ENDBRANCH   3   4
ENDBRANCH   2   3
ENDBRANCH   1   2
END_RES ARG D 557
BEGIN_RES GLU D 570
REMARK  3 active torsions:
REMARK  status: ('A' for Active; 'I' for Inactive)
REMARK    5  A    between atoms: CA   and  CB  
REMARK    6  A    between atoms: CB   and  CG  
REMARK    7  A    between atoms: CG   and  CD  
ROOT
ATOM     14  CA  GLU D 570     -18.033  -6.348 -13.375  1.00 32.92     0.160 C 
ENDROOT
BRANCH  14  15
ATOM     15  CB  GLU D 570     -19.500  -6.345 -13.794  1.00 32.92     0.043 C 
BRANCH  15  16
ATOM     16  CG  GLU D 570     -20.448  -5.558 -12.963  1.00 32.92     0.100 C 
BRANCH  16  17
ATOM     17  CD  GLU D 570     -21.689  -5.144 -13.717  1.00 32.92     0.185 C 
ATOM     18  OE1 GLU D 570     -22.756  -4.994 -13.091  1.00 32.92    -0.647 OA
ATOM     19  OE2 GLU D 570     -21.598  -4.984 -14.951  1.00 32.92    -0.647 OA
ENDBRANCH  16  17
ENDBRANCH  15  16
ENDBRANCH  14  15
END_RES GLU D 570
ENDMDL
MODEL 5
REMARK VINA RESULT:      -6.7      4.483      6.776
REMARK  6 active torsions:
REMARK  status: ('A' for Active; 'I' for Inactive)
REMARK    1  A    between atoms: C_1  and  O_13 
REMARK    2  A    between atoms: C_2  and  O_12 
REMARK    3  A    between atoms: C_3  and  C_9 
REMARK    4  A    between atoms: C_5  and  O_8 
REMARK    5  A    between atoms: C_6  and  O_7 
REMARK    6  A    between atoms: C_9  and  O_11 
ROOT
HETATM    1  C   UNL     1     -28.045  -4.801 -16.868  1.00  0.00     0.183 C 
HETATM    2  C   UNL     1     -29.370  -4.191 -17.309  1.00  0.00     0.188 C 
HETATM    3  C   UNL     1     -30.481  -5.007 -16.674  1.00  0.00     0.258 C 
HETATM    4  O   UNL     1     -30.463  -6.398 -17.054  1.00  0.00    -0.341 OA
HETATM    5  C   UNL     1     -29.220  -7.039 -16.814  1.00  0.00     0.289 C 
HETATM    6  C   UNL     1     -27.981  -6.263 -17.327  1.00  0.00     0.204 C 
ENDROOT
BRANCH   3   7
HETATM    7  C   UNL     1     -31.883  -4.446 -16.897  1.00  0.00     0.321 C 
HETATM    8  O   UNL     1     -32.859  -5.232 -16.728  1.00  0.00    -0.260 OA
BRANCH   7   9
HETATM    9  O   UNL     1     -31.847  -3.211 -17.226  1.00  0.00    -0.147 OA
HETATM   10 NA   UNL     2     -31.180  -2.595 -18.997  1.00  0.00     0.000 Na
ENDBRANCH   7   9
ENDBRANCH   3   7
BRANCH   2  11
HETATM   11  O   UNL     1     -29.450  -4.223 -18.743  1.00  0.00    -0.390 OA
HETATM   12  H   UNL     1     -28.516  -4.135 -19.060  1.00  0.00     0.210 HD
ENDBRANCH   2  11
BRANCH   1  13
HETATM   13  O   UNL     1     -27.927  -4.780 -15.426  1.00  0.00    -0.390 OA
HETATM   14  H   UNL     1     -26.984  -4.922 -15.218  1.00  0.00     0.210 HD
ENDBRANCH   1  13
BRANCH   5  15
HETATM   15  O   UNL     1     -29.298  -8.340 -17.382  1.00  0.00    -0.368 OA
HETATM   16  H   UNL     1     -30.217  -8.440 -17.703  1.00  0.00     0.212 HD
ENDBRANCH   5  15
BRANCH   6  17
HETATM   17  O   UNL     1     -26.776  -6.864 -16.823  1.00  0.00    -0.388 OA
HETATM   18  H   UNL     1     -26.156  -6.882 -17.579  1.00  0.00     0.210 HD
ENDBRANCH   6  17
TORSDOF 6
BEGIN_RES ARG D 557
REMARK  4 active torsions:
REMARK  status: ('A' for Active; 'I' for Inactive)
REMARK    1  A    between atoms: CA   and  CB  
REMARK    2  A    between atoms: CB   and  CG  
REMARK    3  A    between atoms: CG   and  CD  
REMARK    4  A    between atoms: CD   and  NE  
REMARK       I    between atoms: NE   and  CZ  
REMARK       I    between atoms: CZ   and  NH1 
REMARK       I    between atoms: CZ   and  NH2 
ROOT
ATOM      1  CA  ARG D 557     -26.217   2.705 -17.014  1.00 35.49     0.159 C 
ENDROOT
BRANCH   1   2
ATOM      2  CB  ARG D 557     -26.789   1.319 -17.183  1.00 35.49     0.034 C 
BRANCH   2   3
ATOM      3  CG  ARG D 557     -25.863   0.195 -16.998  1.00 35.49     0.027 C 
BRANCH   3   4
ATOM      4  CD  ARG D 557     -26.262  -0.685 -15.876  1.00 35.49     0.116 C 
BRANCH   4   5
ATOM      5  NE  ARG D 557     -25.191  -0.883 -14.935  1.00 35.49    -0.212 N 
ATOM      6  CZ  ARG D 557     -24.868  -2.024 -14.368  1.00 35.49     0.666 C 
ATOM      7  NH1 ARG D 557     -25.527  -3.144 -14.601  1.00 35.49    -0.235 N 
ATOM      8  NH2 ARG D 557     -23.852  -2.023 -13.554  1.00 35.49    -0.235 N 
ATOM      9  HH  ARG D 557     -26.197  -3.168 -15.135  1.00 35.49     0.174 HD
ATOM     10  HH  ARG D 557     -25.269  -3.858 -14.204  1.00 35.49     0.174 HD
ATOM     11  HH  ARG D 557     -23.441  -1.287 -13.428  1.00 35.49     0.174 HD
ATOM     12  HH  ARG D 557     -23.611  -2.741 -13.172  1.00 35.49     0.174 HD
ATOM     13  HE  ARG D 557     -24.759  -0.200 -14.671  1.00 35.49     0.178 HD
ENDBRANCH   4   5
ENDBRANCH   3   4
ENDBRANCH   2   3
ENDBRANCH   1   2
END_RES ARG D 557
BEGIN_RES GLU D 570
REMARK  3 active torsions:
REMARK  status: ('A' for Active; 'I' for Inactive)
REMARK    5  A    between atoms: CA   and  CB  
REMARK    6  A    between atoms: CB   and  CG  
REMARK    7  A    between atoms: CG   and  CD  
ROOT
ATOM     14  CA  GLU D 570     -18.033  -6.348 -13.375  1.00 32.92     0.160 C 
ENDROOT
BRANCH  14  15
ATOM     15  CB  GLU D 570     -19.500  -6.345 -13.794  1.00 32.92     0.043 C 
BRANCH  15  16
ATOM     16  CG  GLU D 570     -20.447  -5.557 -12.964  1.00 32.92     0.100 C 
BRANCH  16  17
ATOM     17  CD  GLU D 570     -21.688  -5.141 -13.720  1.00 32.92     0.185 C 
ATOM     18  OE1 GLU D 570     -22.717  -4.850 -13.081  1.00 32.92    -0.647 OA
ATOM     19  OE2 GLU D 570     -21.634  -5.121 -14.965  1.00 32.92    -0.647 OA
ENDBRANCH  16  17
ENDBRANCH  15  16
ENDBRANCH  14  15
END_RES GLU D 570
ENDMDL
MODEL 6
REMARK VINA RESULT:      -6.4      7.722     10.421
REMARK  6 active torsions:
REMARK  status: ('A' for Active; 'I' for Inactive)
REMARK    1  A    between atoms: C_1  and  O_13 
REMARK    2  A    between atoms: C_2  and  O_12 
REMARK    3  A    between atoms: C_3  and  C_9 
REMARK    4  A    between atoms: C_5  and  O_8 
REMARK    5  A    between atoms: C_6  and  O_7 
REMARK    6  A    between atoms: C_9  and  O_11 
ROOT
HETATM    1  C   UNL     1     -37.037   0.388 -15.415  1.00  0.00     0.183 C 
HETATM    2  C   UNL     1     -37.008   0.186 -13.905  1.00  0.00     0.188 C 
HETATM    3  C   UNL     1     -35.583  -0.173 -13.522  1.00  0.00     0.258 C 
HETATM    4  O   UNL     1     -35.101  -1.374 -14.158  1.00  0.00    -0.341 OA
HETATM    5  C   UNL     1     -35.210  -1.353 -15.573  1.00  0.00     0.289 C 
HETATM    6  C   UNL     1     -36.594  -0.906 -16.110  1.00  0.00     0.204 C 
ENDROOT
BRANCH   3   7
HETATM    7  C   UNL     1     -35.341  -0.273 -12.018  1.00  0.00     0.321 C 
HETATM    8  O   UNL     1     -34.357  -0.967 -11.631  1.00  0.00    -0.260 OA
BRANCH   7   9
HETATM    9  O   UNL     1     -36.206   0.398 -11.358  1.00  0.00    -0.147 OA
HETATM   10 NA   UNL     2     -35.696   1.683  -9.926  1.00  0.00     0.000 Na
ENDBRANCH   7   9
ENDBRANCH   3   7
BRANCH   2  11
HETATM   11  O   UNL     1     -37.925  -0.860 -13.550  1.00  0.00    -0.390 OA
HETATM   12  H   UNL     1     -38.671  -0.407 -13.080  1.00  0.00     0.210 HD
ENDBRANCH   2  11
BRANCH   1  13
HETATM   13  O   UNL     1     -36.126   1.441 -15.809  1.00  0.00    -0.390 OA
HETATM   14  H   UNL     1     -36.050   1.400 -16.781  1.00  0.00     0.210 HD
ENDBRANCH   1  13
BRANCH   5  15
HETATM   15  O   UNL     1     -34.857  -2.647 -16.044  1.00  0.00    -0.368 OA
HETATM   16  H   UNL     1     -33.882  -2.697 -15.990  1.00  0.00     0.212 HD
ENDBRANCH   5  15
BRANCH   6  17
HETATM   17  O   UNL     1     -36.526  -0.680 -17.528  1.00  0.00    -0.388 OA
HETATM   18  H   UNL     1     -37.451  -0.706 -17.842  1.00  0.00     0.210 HD
ENDBRANCH   6  17
TORSDOF 6
BEGIN_RES ARG D 557
REMARK  4 active torsions:
REMARK  status: ('A' for Active; 'I' for Inactive)
REMARK    1  A    between atoms: CA   and  CB  
REMARK    2  A    between atoms: CB   and  CG  
REMARK    3  A    between atoms: CG   and  CD  
REMARK    4  A    between atoms: CD   and  NE  
REMARK       I    between atoms: NE   and  CZ  
REMARK       I    between atoms: CZ   and  NH1 
REMARK       I    between atoms: CZ   and  NH2 
ROOT
ATOM      1  CA  ARG D 557     -26.217   2.705 -17.014  1.00 35.49     0.159 C 
ENDROOT
BRANCH   1   2
ATOM      2  CB  ARG D 557     -26.789   1.319 -17.183  1.00 35.49     0.034 C 
BRANCH   2   3
ATOM      3  CG  ARG D 557     -25.864   0.195 -16.996  1.00 35.49     0.027 C 
BRANCH   3   4
ATOM      4  CD  ARG D 557     -26.287  -0.708 -15.901  1.00 35.49     0.116 C 
BRANCH   4   5
ATOM      5  NE  ARG D 557     -25.239  -0.920 -14.938  1.00 35.49    -0.212 N 
ATOM      6  CZ  ARG D 557     -24.951  -2.063 -14.355  1.00 35.49     0.666 C 
ATOM      7  NH1 ARG D 557     -25.629  -3.170 -14.592  1.00 35.49    -0.235 N 
ATOM      8  NH2 ARG D 557     -23.952  -2.077 -13.521  1.00 35.49    -0.235 N 
ATOM      9  HH  ARG D 557     -26.289  -3.185 -15.139  1.00 35.49     0.174 HD
ATOM     10  HH  ARG D 557     -25.394  -3.887 -14.185  1.00 35.49     0.174 HD
ATOM     11  HH  ARG D 557     -23.528  -1.348 -13.393  1.00 35.49     0.174 HD
ATOM     12  HH  ARG D 557     -23.734  -2.796 -13.129  1.00 35.49     0.174 HD
ATOM     13  HE  ARG D 557     -24.798  -0.244 -14.671  1.00 35.49     0.178 HD
ENDBRANCH   4   5
ENDBRANCH   3   4
ENDBRANCH   2   3
ENDBRANCH   1   2
END_RES ARG D 557
BEGIN_RES GLU D 570
REMARK  3 active torsions:
REMARK  status: ('A' for Active; 'I' for Inactive)
REMARK    5  A    between atoms: CA   and  CB  
REMARK    6  A    between atoms: CB   and  CG  
REMARK    7  A    between atoms: CG   and  CD  
ROOT
ATOM     14  CA  GLU D 570     -18.033  -6.348 -13.375  1.00 32.92     0.160 C 
ENDROOT
BRANCH  14  15
ATOM     15  CB  GLU D 570     -19.500  -6.345 -13.794  1.00 32.92     0.043 C 
BRANCH  15  16
ATOM     16  CG  GLU D 570     -20.451  -5.576 -12.950  1.00 32.92     0.100 C 
BRANCH  16  17
ATOM     17  CD  GLU D 570     -21.680  -5.127 -13.707  1.00 32.92     0.185 C 
ATOM     18  OE1 GLU D 570     -21.628  -5.042 -14.949  1.00 32.92    -0.647 OA
ATOM     19  OE2 GLU D 570     -22.700  -4.842 -13.049  1.00 32.92    -0.647 OA
ENDBRANCH  16  17
ENDBRANCH  15  16
ENDBRANCH  14  15
END_RES GLU D 570
ENDMDL
MODEL 7
REMARK VINA RESULT:      -6.3      3.594      5.587
REMARK  6 active torsions:
REMARK  status: ('A' for Active; 'I' for Inactive)
REMARK    1  A    between atoms: C_1  and  O_13 
REMARK    2  A    between atoms: C_2  and  O_12 
REMARK    3  A    between atoms: C_3  and  C_9 
REMARK    4  A    between atoms: C_5  and  O_8 
REMARK    5  A    between atoms: C_6  and  O_7 
REMARK    6  A    between atoms: C_9  and  O_11 
ROOT
HETATM    1  C   UNL     1     -23.482  -7.347 -16.086  1.00  0.00     0.183 C 
HETATM    2  C   UNL     1     -24.698  -6.704 -15.430  1.00  0.00     0.188 C 
HETATM    3  C   UNL     1     -25.907  -7.044 -16.282  1.00  0.00     0.258 C 
HETATM    4  O   UNL     1     -25.808  -6.567 -17.640  1.00  0.00    -0.341 OA
HETATM    5  C   UNL     1     -24.633  -6.994 -18.310  1.00  0.00     0.289 C 
HETATM    6  C   UNL     1     -23.321  -6.796 -17.509  1.00  0.00     0.204 C 
ENDROOT
BRANCH   3   7
HETATM    7  C   UNL     1     -27.241  -6.595 -15.691  1.00  0.00     0.321 C 
HETATM    8  O   UNL     1     -27.504  -5.358 -15.721  1.00  0.00    -0.260 OA
BRANCH   7   9
HETATM    9  O   UNL     1     -27.915  -7.587 -15.248  1.00  0.00    -0.147 OA
HETATM   10 NA   UNL     2     -28.875  -8.850 -16.451  1.00  0.00     0.000 Na
ENDBRANCH   7   9
ENDBRANCH   3   7
BRANCH   2  11
HETATM   11  O   UNL     1     -24.496  -5.285 -15.350  1.00  0.00    -0.390 OA
HETATM   12  H   UNL     1     -23.927  -5.056 -16.128  1.00  0.00     0.210 HD
ENDBRANCH   2  11
BRANCH   1  13
HETATM   13  O   UNL     1     -23.649  -8.782 -16.179  1.00  0.00    -0.390 OA
HETATM   14  H   UNL     1     -23.275  -9.054 -17.038  1.00  0.00     0.210 HD
ENDBRANCH   1  13
BRANCH   5  15
HETATM   15  O   UNL     1     -24.591  -6.322 -19.561  1.00  0.00    -0.368 OA
HETATM   16  H   UNL     1     -25.425  -6.550 -20.019  1.00  0.00     0.212 HD
ENDBRANCH   5  15
BRANCH   6  17
HETATM   17  O   UNL     1     -22.235  -7.478 -18.159  1.00  0.00    -0.388 OA
HETATM   18  H   UNL     1     -21.778  -7.975 -17.452  1.00  0.00     0.210 HD
ENDBRANCH   6  17
TORSDOF 6
BEGIN_RES ARG D 557
REMARK  4 active torsions:
REMARK  status: ('A' for Active; 'I' for Inactive)
REMARK    1  A    between atoms: CA   and  CB  
REMARK    2  A    between atoms: CB   and  CG  
REMARK    3  A    between atoms: CG   and  CD  
REMARK    4  A    between atoms: CD   and  NE  
REMARK       I    between atoms: NE   and  CZ  
REMARK       I    between atoms: CZ   and  NH1 
REMARK       I    between atoms: CZ   and  NH2 
ROOT
ATOM      1  CA  ARG D 557     -26.217   2.705 -17.014  1.00 35.49     0.159 C 
ENDROOT
BRANCH   1   2
ATOM      2  CB  ARG D 557     -26.789   1.319 -17.183  1.00 35.49     0.034 C 
BRANCH   2   3
ATOM      3  CG  ARG D 557     -28.251   1.198 -17.141  1.00 35.49     0.027 C 
BRANCH   3   4
ATOM      4  CD  ARG D 557     -28.695  -0.068 -16.514  1.00 35.49     0.116 C 
BRANCH   4   5
ATOM      5  NE  ARG D 557     -27.599  -0.800 -15.935  1.00 35.49    -0.212 N 
ATOM      6  CZ  ARG D 557     -27.361  -2.082 -16.098  1.00 35.49     0.666 C 
ATOM      7  NH1 ARG D 557     -28.140  -2.861 -16.825  1.00 35.49    -0.235 N 
ATOM      8  NH2 ARG D 557     -26.307  -2.575 -15.515  1.00 35.49    -0.235 N 
ATOM      9  HH  ARG D 557     -28.837  -2.557 -17.219  1.00 35.49     0.174 HD
ATOM     10  HH  ARG D 557     -27.933  -3.690 -16.898  1.00 35.49     0.174 HD
ATOM     11  HH  ARG D 557     -25.818  -2.047 -15.058  1.00 35.49     0.174 HD
ATOM     12  HH  ARG D 557     -26.119  -3.397 -15.600  1.00 35.49     0.174 HD
ATOM     13  HE  ARG D 557     -27.088  -0.390 -15.393  1.00 35.49     0.178 HD
ENDBRANCH   4   5
ENDBRANCH   3   4
ENDBRANCH   2   3
ENDBRANCH   1   2
END_RES ARG D 557
BEGIN_RES GLU D 570
REMARK  3 active torsions:
REMARK  status: ('A' for Active; 'I' for Inactive)
REMARK    5  A    between atoms: CA   and  CB  
REMARK    6  A    between atoms: CB   and  CG  
REMARK    7  A    between atoms: CG   and  CD  
ROOT
ATOM     14  CA  GLU D 570     -18.033  -6.348 -13.375  1.00 32.92     0.160 C 
ENDROOT
BRANCH  14  15
ATOM     15  CB  GLU D 570     -19.500  -6.345 -13.794  1.00 32.92     0.043 C 
BRANCH  15  16
ATOM     16  CG  GLU D 570     -20.460  -5.623 -12.920  1.00 32.92     0.100 C 
BRANCH  16  17
ATOM     17  CD  GLU D 570     -21.670  -5.114 -13.668  1.00 32.92     0.185 C 
ATOM     18  OE1 GLU D 570     -22.741  -4.955 -13.050  1.00 32.92    -0.647 OA
ATOM     19  OE2 GLU D 570     -21.551  -4.888 -14.888  1.00 32.92    -0.647 OA
ENDBRANCH  16  17
ENDBRANCH  15  16
ENDBRANCH  14  15
END_RES GLU D 570
ENDMDL
MODEL 8
REMARK VINA RESULT:      -6.1      7.462     10.144
REMARK  6 active torsions:
REMARK  status: ('A' for Active; 'I' for Inactive)
REMARK    1  A    between atoms: C_1  and  O_13 
REMARK    2  A    between atoms: C_2  and  O_12 
REMARK    3  A    between atoms: C_3  and  C_9 
REMARK    4  A    between atoms: C_5  and  O_8 
REMARK    5  A    between atoms: C_6  and  O_7 
REMARK    6  A    between atoms: C_9  and  O_11 
ROOT
HETATM    1  C   UNL     1     -37.044   0.377 -15.455  1.00  0.00     0.183 C 
HETATM    2  C   UNL     1     -37.027   0.187 -13.943  1.00  0.00     0.188 C 
HETATM    3  C   UNL     1     -35.605  -0.168 -13.546  1.00  0.00     0.258 C 
HETATM    4  O   UNL     1     -35.116  -1.374 -14.169  1.00  0.00    -0.341 OA
HETATM    5  C   UNL     1     -35.214  -1.364 -15.584  1.00  0.00     0.289 C 
HETATM    6  C   UNL     1     -36.593  -0.921 -16.136  1.00  0.00     0.204 C 
ENDROOT
BRANCH   3   7
HETATM    7  C   UNL     1     -35.376  -0.256 -12.039  1.00  0.00     0.321 C 
HETATM    8  O   UNL     1     -36.226   0.300 -11.287  1.00  0.00    -0.260 OA
BRANCH   7   9
HETATM    9  O   UNL     1     -34.316  -0.917 -11.764  1.00  0.00    -0.147 OA
HETATM   10 NA   UNL     2     -33.809  -2.577 -12.737  1.00  0.00     0.000 Na
ENDBRANCH   7   9
ENDBRANCH   3   7
BRANCH   2  11
HETATM   11  O   UNL     1     -37.946  -0.858 -13.589  1.00  0.00    -0.390 OA
HETATM   12  H   UNL     1     -37.661  -1.165 -12.690  1.00  0.00     0.210 HD
ENDBRANCH   2  11
BRANCH   1  13
HETATM   13  O   UNL     1     -36.130   1.428 -15.849  1.00  0.00    -0.390 OA
HETATM   14  H   UNL     1     -36.575   2.275 -15.658  1.00  0.00     0.210 HD
ENDBRANCH   1  13
BRANCH   5  15
HETATM   15  O   UNL     1     -34.856  -2.660 -16.043  1.00  0.00    -0.368 OA
HETATM   16  H   UNL     1     -33.878  -2.693 -16.023  1.00  0.00     0.212 HD
ENDBRANCH   5  15
BRANCH   6  17
HETATM   17  O   UNL     1     -36.514  -0.707 -17.556  1.00  0.00    -0.388 OA
HETATM   18  H   UNL     1     -36.900  -1.507 -17.963  1.00  0.00     0.210 HD
ENDBRANCH   6  17
TORSDOF 6
BEGIN_RES ARG D 557
REMARK  4 active torsions:
REMARK  status: ('A' for Active; 'I' for Inactive)
REMARK    1  A    between atoms: CA   and  CB  
REMARK    2  A    between atoms: CB   and  CG  
REMARK    3  A    between atoms: CG   and  CD  
REMARK    4  A    between atoms: CD   and  NE  
REMARK       I    between atoms: NE   and  CZ  
REMARK       I    between atoms: CZ   and  NH1 
REMARK       I    between atoms: CZ   and  NH2 
ROOT
ATOM      1  CA  ARG D 557     -26.217   2.705 -17.014  1.00 35.49     0.159 C 
ENDROOT
BRANCH   1   2
ATOM      2  CB  ARG D 557     -26.789   1.319 -17.183  1.00 35.49     0.034 C 
BRANCH   2   3
ATOM      3  CG  ARG D 557     -28.154   1.103 -16.689  1.00 35.49     0.027 C 
BRANCH   3   4
ATOM      4  CD  ARG D 557     -28.793  -0.087 -17.296  1.00 35.49     0.116 C 
BRANCH   4   5
ATOM      5  NE  ARG D 557     -28.184  -1.314 -16.855  1.00 35.49    -0.212 N 
ATOM      6  CZ  ARG D 557     -28.671  -2.521 -17.035  1.00 35.49     0.666 C 
ATOM      7  NH1 ARG D 557     -29.819  -2.738 -17.651  1.00 35.49    -0.235 N 
ATOM      8  NH2 ARG D 557     -27.973  -3.524 -16.586  1.00 35.49    -0.235 N 
ATOM      9  HH  ARG D 557     -30.294  -2.094 -17.956  1.00 35.49     0.174 HD
ATOM     10  HH  ARG D 557     -30.085  -3.548 -17.742  1.00 35.49     0.174 HD
ATOM     11  HH  ARG D 557     -27.232  -3.354 -16.199  1.00 35.49     0.174 HD
ATOM     12  HH  ARG D 557     -28.253  -4.318 -16.687  1.00 35.49     0.174 HD
ATOM     13  HE  ARG D 557     -27.477  -1.263 -16.385  1.00 35.49     0.178 HD
ENDBRANCH   4   5
ENDBRANCH   3   4
ENDBRANCH   2   3
ENDBRANCH   1   2
END_RES ARG D 557
BEGIN_RES GLU D 570
REMARK  3 active torsions:
REMARK  status: ('A' for Active; 'I' for Inactive)
REMARK    5  A    between atoms: CA   and  CB  
REMARK    6  A    between atoms: CB   and  CG  
REMARK    7  A    between atoms: CG   and  CD  
ROOT
ATOM     14  CA  GLU D 570     -18.033  -6.348 -13.375  1.00 32.92     0.160 C 
ENDROOT
BRANCH  14  15
ATOM     15  CB  GLU D 570     -19.500  -6.345 -13.794  1.00 32.92     0.043 C 
BRANCH  15  16
ATOM     16  CG  GLU D 570     -20.449  -5.567 -12.957  1.00 32.92     0.100 C 
BRANCH  16  17
ATOM     17  CD  GLU D 570     -21.697  -5.159 -13.705  1.00 32.92     0.185 C 
ATOM     18  OE1 GLU D 570     -22.742  -4.935 -13.064  1.00 32.92    -0.647 OA
ATOM     19  OE2 GLU D 570     -21.634  -5.079 -14.948  1.00 32.92    -0.647 OA
ENDBRANCH  16  17
ENDBRANCH  15  16
ENDBRANCH  14  15
END_RES GLU D 570
ENDMDL
MODEL 9
REMARK VINA RESULT:      -6.1      7.444      9.267
REMARK  6 active torsions:
REMARK  status: ('A' for Active; 'I' for Inactive)
REMARK    1  A    between atoms: C_1  and  O_13 
REMARK    2  A    between atoms: C_2  and  O_12 
REMARK    3  A    between atoms: C_3  and  C_9 
REMARK    4  A    between atoms: C_5  and  O_8 
REMARK    5  A    between atoms: C_6  and  O_7 
REMARK    6  A    between atoms: C_9  and  O_11 
ROOT
HETATM    1  C   UNL     1     -34.762  -1.871 -10.664  1.00  0.00     0.183 C 
HETATM    2  C   UNL     1     -35.062  -3.364 -10.625  1.00  0.00     0.188 C 
HETATM    3  C   UNL     1     -34.371  -3.999 -11.818  1.00  0.00     0.258 C 
HETATM    4  O   UNL     1     -34.812  -3.472 -13.087  1.00  0.00    -0.341 OA
HETATM    5  C   UNL     1     -34.707  -2.060 -13.185  1.00  0.00     0.289 C 
HETATM    6  C   UNL     1     -35.289  -1.281 -11.979  1.00  0.00     0.204 C 
ENDROOT
BRANCH   3   7
HETATM    7  C   UNL     1     -34.450  -5.523 -11.856  1.00  0.00     0.321 C 
HETATM    8  O   UNL     1     -33.796  -6.161 -10.982  1.00  0.00    -0.260 OA
BRANCH   7   9
HETATM    9  O   UNL     1     -35.207  -5.930 -12.802  1.00  0.00    -0.147 OA
HETATM   10 NA   UNL     2     -35.663  -7.851 -13.055  1.00  0.00     0.000 Na
ENDBRANCH   7   9
ENDBRANCH   3   7
BRANCH   2  11
HETATM   11  O   UNL     1     -36.484  -3.561 -10.676  1.00  0.00    -0.390 OA
HETATM   12  H   UNL     1     -36.695  -4.150  -9.907  1.00  0.00     0.210 HD
ENDBRANCH   2  11
BRANCH   1  13
HETATM   13  O   UNL     1     -33.335  -1.633 -10.609  1.00  0.00    -0.390 OA
HETATM   14  H   UNL     1     -33.204  -0.675 -10.736  1.00  0.00     0.210 HD
ENDBRANCH   1  13
BRANCH   5  15
HETATM   15  O   UNL     1     -35.323  -1.674 -14.407  1.00  0.00    -0.368 OA
HETATM   16  H   UNL     1     -35.434  -2.496 -14.925  1.00  0.00     0.212 HD
ENDBRANCH   5  15
BRANCH   6  17
HETATM   17  O   UNL     1     -34.915   0.105 -12.057  1.00  0.00    -0.388 OA
HETATM   18  H   UNL     1     -35.745   0.591 -12.235  1.00  0.00     0.210 HD
ENDBRANCH   6  17
TORSDOF 6
BEGIN_RES ARG D 557
REMARK  4 active torsions:
REMARK  status: ('A' for Active; 'I' for Inactive)
REMARK    1  A    between atoms: CA   and  CB  
REMARK    2  A    between atoms: CB   and  CG  
REMARK    3  A    between atoms: CG   and  CD  
REMARK    4  A    between atoms: CD   and  NE  
REMARK       I    between atoms: NE   and  CZ  
REMARK       I    between atoms: CZ   and  NH1 
REMARK       I    between atoms: CZ   and  NH2 
ROOT
ATOM      1  CA  ARG D 557     -26.217   2.705 -17.014  1.00 35.49     0.159 C 
ENDROOT
BRANCH   1   2
ATOM      2  CB  ARG D 557     -26.789   1.319 -17.183  1.00 35.49     0.034 C 
BRANCH   2   3
ATOM      3  CG  ARG D 557     -25.835   0.204 -17.163  1.00 35.49     0.027 C 
BRANCH   3   4
ATOM      4  CD  ARG D 557     -24.751   0.406 -16.175  1.00 35.49     0.116 C 
BRANCH   4   5
ATOM      5  NE  ARG D 557     -24.906  -0.436 -15.019  1.00 35.49    -0.212 N 
ATOM      6  CZ  ARG D 557     -24.101  -1.414 -14.666  1.00 35.49     0.666 C 
ATOM      7  NH1 ARG D 557     -23.035  -1.744 -15.372  1.00 35.49    -0.235 N 
ATOM      8  NH2 ARG D 557     -24.385  -2.060 -13.573  1.00 35.49    -0.235 N 
ATOM      9  HH  ARG D 557     -22.828  -1.330 -16.093  1.00 35.49     0.174 HD
ATOM     10  HH  ARG D 557     -22.545  -2.388 -15.092  1.00 35.49     0.174 HD
ATOM     11  HH  ARG D 557     -25.075  -1.820 -13.134  1.00 35.49     0.174 HD
ATOM     12  HH  ARG D 557     -23.887  -2.695 -13.312  1.00 35.49     0.174 HD
ATOM     13  HE  ARG D 557     -25.607  -0.341 -14.547  1.00 35.49     0.178 HD
ENDBRANCH   4   5
ENDBRANCH   3   4
ENDBRANCH   2   3
ENDBRANCH   1   2
END_RES ARG D 557
BEGIN_RES GLU D 570
REMARK  3 active torsions:
REMARK  status: ('A' for Active; 'I' for Inactive)
REMARK    5  A    between atoms: CA   and  CB  
REMARK    6  A    between atoms: CB   and  CG  
REMARK    7  A    between atoms: CG   and  CD  
ROOT
ATOM     14  CA  GLU D 570     -18.033  -6.348 -13.375  1.00 32.92     0.160 C 
ENDROOT
BRANCH  14  15
ATOM     15  CB  GLU D 570     -19.500  -6.345 -13.794  1.00 32.92     0.043 C 
BRANCH  15  16
ATOM     16  CG  GLU D 570     -20.442  -5.531 -12.983  1.00 32.92     0.100 C 
BRANCH  16  17
ATOM     17  CD  GLU D 570     -21.738  -5.239 -13.702  1.00 32.92     0.185 C 
ATOM     18  OE1 GLU D 570     -22.334  -4.170 -13.466  1.00 32.92    -0.647 OA
ATOM     19  OE2 GLU D 570     -22.172  -6.096 -14.497  1.00 32.92    -0.647 OA
ENDBRANCH  16  17
ENDBRANCH  15  16
ENDBRANCH  14  15
END_RES GLU D 570
ENDMDL
