MODEL 1
REMARK VINA RESULT:      -8.5      0.000      0.000
REMARK  21 active torsions:
REMARK  status: ('A' for Active; 'I' for Inactive)
REMARK    1  A    between atoms: C_2  and  C_3 
REMARK    2  A    between atoms: C_3  and  C_4 
REMARK    3  A    between atoms: C_4  and  C_5 
REMARK    4  A    between atoms: C_5  and  C_6 
REMARK    5  A    between atoms: C_6  and  C_7 
REMARK    6  A    between atoms: C_7  and  C_8 
REMARK    7  A    between atoms: C_8  and  C_9 
REMARK    8  A    between atoms: C_9  and  C_10 
REMARK    9  A    between atoms: C_10  and  C_11 
REMARK   10  A    between atoms: C_11  and  C_12 
REMARK   11  A    between atoms: C_12  and  C_13 
REMARK   12  A    between atoms: C_13  and  C_14 
REMARK   13  A    between atoms: C_14  and  C_15 
REMARK   14  A    between atoms: C_15  and  C_16 
REMARK   15  A    between atoms: C_16  and  O_18 
REMARK   16  A    between atoms: O_18  and  C_19 
REMARK   17  A    between atoms: C_19  and  C_20 
REMARK   18  A    between atoms: C_20  and  C_21 
REMARK   19  A    between atoms: C_20  and  O_29 
REMARK   20  A    between atoms: C_22  and  O_28 
REMARK   21  A    between atoms: C_23  and  O_27 
ROOT
HETATM    1  C   UNL     1     -20.829  -4.160 -10.059  1.00  0.00     0.258 C 
HETATM    2  O   UNL     1     -20.288  -4.150 -11.159  1.00  0.00    -0.265 OA
ENDROOT
BRANCH   1   3
HETATM    3  C   UNL     1     -20.140  -4.509  -8.758  1.00  0.00     0.111 C 
BRANCH   3   4
HETATM    4  C   UNL     1     -20.949  -3.964  -7.585  1.00  0.00     0.010 C 
BRANCH   4   5
HETATM    5  C   UNL     1     -20.533  -4.549  -6.252  1.00  0.00     0.000 C 
BRANCH   5   6
HETATM    6  C   UNL     1     -20.092  -5.996  -6.440  1.00  0.00     0.000 C 
BRANCH   6   7
HETATM    7  C   UNL     1     -21.195  -6.946  -6.001  1.00  0.00     0.000 C 
BRANCH   7   8
HETATM    8  C   UNL     1     -21.949  -6.372  -4.812  1.00  0.00     0.000 C 
BRANCH   8   9
HETATM    9  C   UNL     1     -21.474  -7.030  -3.528  1.00  0.00     0.000 C 
BRANCH   9  10
HETATM   10  C   UNL     1     -21.743  -6.117  -2.346  1.00  0.00     0.000 C 
BRANCH  10  11
HETATM   11  C   UNL     1     -22.424  -6.897  -1.234  1.00  0.00     0.000 C 
BRANCH  11  12
HETATM   12  C   UNL     1     -21.423  -7.818  -0.559  1.00  0.00     0.000 C 
BRANCH  12  13
HETATM   13  C   UNL     1     -22.115  -8.643   0.511  1.00  0.00     0.000 C 
BRANCH  13  14
HETATM   14  C   UNL     1     -22.220 -10.093   0.067  1.00  0.00     0.000 C 
BRANCH  14  15
HETATM   15  C   UNL     1     -23.680 -10.490  -0.082  1.00  0.00    -0.000 C 
BRANCH  15  16
HETATM   16  C   UNL     1     -23.896 -11.257  -1.380  1.00  0.00    -0.005 C 
HETATM   17  C   UNL     1     -22.780 -10.961  -2.363  1.00  0.00     0.005 C 
ENDBRANCH  15  16
ENDBRANCH  14  15
ENDBRANCH  13  14
ENDBRANCH  12  13
ENDBRANCH  11  12
ENDBRANCH  10  11
ENDBRANCH   9  10
ENDBRANCH   8   9
ENDBRANCH   7   8
ENDBRANCH   6   7
ENDBRANCH   5   6
ENDBRANCH   4   5
ENDBRANCH   3   4
ENDBRANCH   1   3
BRANCH   1  18
HETATM   18  O   UNL     1     -22.122  -3.763  -9.856  1.00  0.00    -0.319 OA
BRANCH  18  19
HETATM   19  C   UNL     1     -23.104  -4.396 -10.697  1.00  0.00     0.213 C 
BRANCH  19  20
HETATM   20  C   UNL     1     -23.932  -3.353 -11.466  1.00  0.00     0.178 C 
BRANCH  20  21
HETATM   21  C   UNL     1     -24.162  -3.733 -12.951  1.00  0.00     0.222 C 
HETATM   22  C   UNL     1     -23.018  -3.338 -13.811  1.00  0.00     0.114 C 
HETATM   23  C   UNL     1     -23.381  -2.360 -14.671  1.00  0.00     0.173 C 
HETATM   24  C   UNL     1     -24.826  -2.110 -14.439  1.00  0.00     0.320 C 
HETATM   25  O   UNL     1     -25.507  -1.266 -14.992  1.00  0.00    -0.257 OA
HETATM   26  O   UNL     1     -25.276  -3.032 -13.530  1.00  0.00    -0.301 OA
BRANCH  22  27
HETATM   27  O   UNL     1     -21.785  -3.941 -13.722  1.00  0.00    -0.359 OA
HETATM   28  H   UNL     1     -21.247  -3.585 -14.465  1.00  0.00     0.217 HD
ENDBRANCH  22  27
BRANCH  23  29
HETATM   29  O   UNL     1     -22.634  -1.742 -15.622  1.00  0.00    -0.353 OA
HETATM   30  H   UNL     1     -21.958  -1.212 -15.164  1.00  0.00     0.218 HD
ENDBRANCH  23  29
ENDBRANCH  20  21
BRANCH  20  31
HETATM   31  O   UNL     1     -25.192  -3.094 -10.838  1.00  0.00    -0.390 OA
HETATM   32  H   UNL     1     -25.536  -3.932 -10.478  1.00  0.00     0.210 HD
ENDBRANCH  20  31
ENDBRANCH  19  20
ENDBRANCH  18  19
ENDBRANCH   1  18
TORSDOF 21
BEGIN_RES ARG D 557
REMARK  4 active torsions:
REMARK  status: ('A' for Active; 'I' for Inactive)
REMARK    1  A    between atoms: CA   and  CB  
REMARK    2  A    between atoms: CB   and  CG  
REMARK    3  A    between atoms: CG   and  CD  
REMARK    4  A    between atoms: CD   and  NE  
REMARK       I    between atoms: NE   and  CZ  
REMARK       I    between atoms: CZ   and  NH1 
REMARK       I    between atoms: CZ   and  NH2 
ROOT
ATOM      1  CA  ARG D 557     -26.217   2.705 -17.014  1.00 35.49     0.159 C 
ENDROOT
BRANCH   1   2
ATOM      2  CB  ARG D 557     -26.789   1.319 -17.183  1.00 35.49     0.034 C 
BRANCH   2   3
ATOM      3  CG  ARG D 557     -28.235   1.225 -17.416  1.00 35.49     0.027 C 
BRANCH   3   4
ATOM      4  CD  ARG D 557     -28.902   0.307 -16.464  1.00 35.49     0.116 C 
BRANCH   4   5
ATOM      5  NE  ARG D 557     -28.146  -0.900 -16.255  1.00 35.49    -0.212 N 
ATOM      6  CZ  ARG D 557     -28.428  -2.080 -16.762  1.00 35.49     0.666 C 
ATOM      7  NH1 ARG D 557     -29.481  -2.288 -17.531  1.00 35.49    -0.235 N 
ATOM      8  NH2 ARG D 557     -27.619  -3.061 -16.484  1.00 35.49    -0.235 N 
ATOM      9  HH  ARG D 557     -30.025  -1.656 -17.728  1.00 35.49     0.174 HD
ATOM     10  HH  ARG D 557     -29.612  -3.078 -17.835  1.00 35.49     0.174 HD
ATOM     11  HH  ARG D 557     -26.943  -2.895 -15.991  1.00 35.49     0.174 HD
ATOM     12  HH  ARG D 557     -27.766  -3.835 -16.796  1.00 35.49     0.174 HD
ATOM     13  HE  ARG D 557     -27.492  -0.873 -15.713  1.00 35.49     0.178 HD
ENDBRANCH   4   5
ENDBRANCH   3   4
ENDBRANCH   2   3
ENDBRANCH   1   2
END_RES ARG D 557
BEGIN_RES GLU D 570
REMARK  3 active torsions:
REMARK  status: ('A' for Active; 'I' for Inactive)
REMARK    5  A    between atoms: CA   and  CB  
REMARK    6  A    between atoms: CB   and  CG  
REMARK    7  A    between atoms: CG   and  CD  
ROOT
ATOM     14  CA  GLU D 570     -18.033  -6.348 -13.375  1.00 32.92     0.160 C 
ENDROOT
BRANCH  14  15
ATOM     15  CB  GLU D 570     -19.500  -6.345 -13.794  1.00 32.92     0.043 C 
BRANCH  15  16
ATOM     16  CG  GLU D 570     -19.796  -6.311 -15.250  1.00 32.92     0.100 C 
BRANCH  16  17
ATOM     17  CD  GLU D 570     -20.836  -7.326 -15.663  1.00 32.92     0.185 C 
ATOM     18  OE1 GLU D 570     -20.623  -8.534 -15.443  1.00 32.92    -0.647 OA
ATOM     19  OE2 GLU D 570     -21.866  -6.911 -16.229  1.00 32.92    -0.647 OA
ENDBRANCH  16  17
ENDBRANCH  15  16
ENDBRANCH  14  15
END_RES GLU D 570
ENDMDL
MODEL 2
REMARK VINA RESULT:      -8.2      1.647      2.954
REMARK  21 active torsions:
REMARK  status: ('A' for Active; 'I' for Inactive)
REMARK    1  A    between atoms: C_2  and  C_3 
REMARK    2  A    between atoms: C_3  and  C_4 
REMARK    3  A    between atoms: C_4  and  C_5 
REMARK    4  A    between atoms: C_5  and  C_6 
REMARK    5  A    between atoms: C_6  and  C_7 
REMARK    6  A    between atoms: C_7  and  C_8 
REMARK    7  A    between atoms: C_8  and  C_9 
REMARK    8  A    between atoms: C_9  and  C_10 
REMARK    9  A    between atoms: C_10  and  C_11 
REMARK   10  A    between atoms: C_11  and  C_12 
REMARK   11  A    between atoms: C_12  and  C_13 
REMARK   12  A    between atoms: C_13  and  C_14 
REMARK   13  A    between atoms: C_14  and  C_15 
REMARK   14  A    between atoms: C_15  and  C_16 
REMARK   15  A    between atoms: C_16  and  O_18 
REMARK   16  A    between atoms: O_18  and  C_19 
REMARK   17  A    between atoms: C_19  and  C_20 
REMARK   18  A    between atoms: C_20  and  C_21 
REMARK   19  A    between atoms: C_20  and  O_29 
REMARK   20  A    between atoms: C_22  and  O_28 
REMARK   21  A    between atoms: C_23  and  O_27 
ROOT
HETATM    1  C   UNL     1     -24.046  -3.492 -10.960  1.00  0.00     0.258 C 
HETATM    2  O   UNL     1     -24.703  -4.099 -10.121  1.00  0.00    -0.265 OA
ENDROOT
BRANCH   1   3
HETATM    3  C   UNL     1     -22.536  -3.402 -10.979  1.00  0.00     0.111 C 
BRANCH   3   4
HETATM    4  C   UNL     1     -21.981  -3.767  -9.605  1.00  0.00     0.010 C 
BRANCH   4   5
HETATM    5  C   UNL     1     -20.645  -4.477  -9.672  1.00  0.00     0.000 C 
BRANCH   5   6
HETATM    6  C   UNL     1     -20.321  -5.092  -8.315  1.00  0.00     0.000 C 
BRANCH   6   7
HETATM    7  C   UNL     1     -20.610  -4.098  -7.202  1.00  0.00     0.000 C 
BRANCH   7   8
HETATM    8  C   UNL     1     -20.371  -4.737  -5.844  1.00  0.00     0.000 C 
BRANCH   8   9
HETATM    9  C   UNL     1     -20.578  -6.239  -5.932  1.00  0.00     0.000 C 
BRANCH   9  10
HETATM   10  C   UNL     1     -21.854  -6.632  -5.210  1.00  0.00     0.000 C 
BRANCH  10  11
HETATM   11  C   UNL     1     -21.527  -7.539  -4.037  1.00  0.00     0.000 C 
BRANCH  11  12
HETATM   12  C   UNL     1     -21.476  -6.728  -2.754  1.00  0.00     0.000 C 
BRANCH  12  13
HETATM   13  C   UNL     1     -21.504  -7.654  -1.551  1.00  0.00     0.000 C 
BRANCH  13  14
HETATM   14  C   UNL     1     -22.391  -7.070  -0.463  1.00  0.00     0.000 C 
BRANCH  14  15
HETATM   15  C   UNL     1     -23.003  -8.187   0.369  1.00  0.00    -0.000 C 
BRANCH  15  16
HETATM   16  C   UNL     1     -22.582  -9.547  -0.171  1.00  0.00    -0.005 C 
HETATM   17  C   UNL     1     -23.774 -10.482  -0.239  1.00  0.00     0.005 C 
ENDBRANCH  15  16
ENDBRANCH  14  15
ENDBRANCH  13  14
ENDBRANCH  12  13
ENDBRANCH  11  12
ENDBRANCH  10  11
ENDBRANCH   9  10
ENDBRANCH   8   9
ENDBRANCH   7   8
ENDBRANCH   6   7
ENDBRANCH   5   6
ENDBRANCH   4   5
ENDBRANCH   3   4
ENDBRANCH   1   3
BRANCH   1  18
HETATM   18  O   UNL     1     -24.602  -2.886 -12.053  1.00  0.00    -0.319 OA
BRANCH  18  19
HETATM   19  C   UNL     1     -23.691  -2.590 -13.128  1.00  0.00     0.213 C 
BRANCH  19  20
HETATM   20  C   UNL     1     -24.191  -3.181 -14.457  1.00  0.00     0.178 C 
BRANCH  20  21
HETATM   21  C   UNL     1     -25.089  -4.431 -14.268  1.00  0.00     0.222 C 
HETATM   22  C   UNL     1     -24.317  -5.694 -14.380  1.00  0.00     0.114 C 
HETATM   23  C   UNL     1     -24.688  -6.385 -15.481  1.00  0.00     0.173 C 
HETATM   24  C   UNL     1     -25.782  -5.609 -16.116  1.00  0.00     0.320 C 
HETATM   25  O   UNL     1     -26.349  -5.886 -17.158  1.00  0.00    -0.257 OA
HETATM   26  O   UNL     1     -26.085  -4.551 -15.299  1.00  0.00    -0.301 OA
BRANCH  22  27
HETATM   27  O   UNL     1     -23.384  -6.074 -13.444  1.00  0.00    -0.359 OA
HETATM   28  H   UNL     1     -22.506  -6.011 -13.885  1.00  0.00     0.217 HD
ENDBRANCH  22  27
BRANCH  23  29
HETATM   29  O   UNL     1     -24.233  -7.585 -15.927  1.00  0.00    -0.353 OA
HETATM   30  H   UNL     1     -24.530  -7.686 -16.847  1.00  0.00     0.218 HD
ENDBRANCH  23  29
ENDBRANCH  20  21
BRANCH  20  31
HETATM   31  O   UNL     1     -24.882  -2.212 -15.252  1.00  0.00    -0.390 OA
HETATM   32  H   UNL     1     -25.816  -2.483 -15.328  1.00  0.00     0.210 HD
ENDBRANCH  20  31
ENDBRANCH  19  20
ENDBRANCH  18  19
ENDBRANCH   1  18
TORSDOF 21
BEGIN_RES ARG D 557
REMARK  4 active torsions:
REMARK  status: ('A' for Active; 'I' for Inactive)
REMARK    1  A    between atoms: CA   and  CB  
REMARK    2  A    between atoms: CB   and  CG  
REMARK    3  A    between atoms: CG   and  CD  
REMARK    4  A    between atoms: CD   and  NE  
REMARK       I    between atoms: NE   and  CZ  
REMARK       I    between atoms: CZ   and  NH1 
REMARK       I    between atoms: CZ   and  NH2 
ROOT
ATOM      1  CA  ARG D 557     -26.217   2.705 -17.014  1.00 35.49     0.159 C 
ENDROOT
BRANCH   1   2
ATOM      2  CB  ARG D 557     -26.789   1.319 -17.183  1.00 35.49     0.034 C 
BRANCH   2   3
ATOM      3  CG  ARG D 557     -28.236   1.225 -17.409  1.00 35.49     0.027 C 
BRANCH   3   4
ATOM      4  CD  ARG D 557     -28.893   0.283 -16.474  1.00 35.49     0.116 C 
BRANCH   4   5
ATOM      5  NE  ARG D 557     -29.296  -0.936 -17.126  1.00 35.49    -0.212 N 
ATOM      6  CZ  ARG D 557     -28.667  -2.088 -17.058  1.00 35.49     0.666 C 
ATOM      7  NH1 ARG D 557     -27.551  -2.247 -16.370  1.00 35.49    -0.235 N 
ATOM      8  NH2 ARG D 557     -29.188  -3.095 -17.696  1.00 35.49    -0.235 N 
ATOM      9  HH  ARG D 557     -27.192  -1.598 -15.940  1.00 35.49     0.174 HD
ATOM     10  HH  ARG D 557     -27.186  -3.022 -16.360  1.00 35.49     0.174 HD
ATOM     11  HH  ARG D 557     -29.913  -2.964 -18.126  1.00 35.49     0.174 HD
ATOM     12  HH  ARG D 557     -28.813  -3.855 -17.673  1.00 35.49     0.174 HD
ATOM     13  HE  ARG D 557     -29.965  -0.906 -17.649  1.00 35.49     0.178 HD
ENDBRANCH   4   5
ENDBRANCH   3   4
ENDBRANCH   2   3
ENDBRANCH   1   2
END_RES ARG D 557
BEGIN_RES GLU D 570
REMARK  3 active torsions:
REMARK  status: ('A' for Active; 'I' for Inactive)
REMARK    5  A    between atoms: CA   and  CB  
REMARK    6  A    between atoms: CB   and  CG  
REMARK    7  A    between atoms: CG   and  CD  
ROOT
ATOM     14  CA  GLU D 570     -18.033  -6.348 -13.375  1.00 32.92     0.160 C 
ENDROOT
BRANCH  14  15
ATOM     15  CB  GLU D 570     -19.500  -6.345 -13.794  1.00 32.92     0.043 C 
BRANCH  15  16
ATOM     16  CG  GLU D 570     -20.090  -7.637 -14.229  1.00 32.92     0.100 C 
BRANCH  16  17
ATOM     17  CD  GLU D 570     -20.932  -7.510 -15.478  1.00 32.92     0.185 C 
ATOM     18  OE1 GLU D 570     -21.282  -6.377 -15.858  1.00 32.92    -0.647 OA
ATOM     19  OE2 GLU D 570     -21.257  -8.557 -16.072  1.00 32.92    -0.647 OA
ENDBRANCH  16  17
ENDBRANCH  15  16
ENDBRANCH  14  15
END_RES GLU D 570
ENDMDL
MODEL 3
REMARK VINA RESULT:      -8.1      2.832      4.590
REMARK  21 active torsions:
REMARK  status: ('A' for Active; 'I' for Inactive)
REMARK    1  A    between atoms: C_2  and  C_3 
REMARK    2  A    between atoms: C_3  and  C_4 
REMARK    3  A    between atoms: C_4  and  C_5 
REMARK    4  A    between atoms: C_5  and  C_6 
REMARK    5  A    between atoms: C_6  and  C_7 
REMARK    6  A    between atoms: C_7  and  C_8 
REMARK    7  A    between atoms: C_8  and  C_9 
REMARK    8  A    between atoms: C_9  and  C_10 
REMARK    9  A    between atoms: C_10  and  C_11 
REMARK   10  A    between atoms: C_11  and  C_12 
REMARK   11  A    between atoms: C_12  and  C_13 
REMARK   12  A    between atoms: C_13  and  C_14 
REMARK   13  A    between atoms: C_14  and  C_15 
REMARK   14  A    between atoms: C_15  and  C_16 
REMARK   15  A    between atoms: C_16  and  O_18 
REMARK   16  A    between atoms: O_18  and  C_19 
REMARK   17  A    between atoms: C_19  and  C_20 
REMARK   18  A    between atoms: C_20  and  C_21 
REMARK   19  A    between atoms: C_20  and  O_29 
REMARK   20  A    between atoms: C_22  and  O_28 
REMARK   21  A    between atoms: C_23  and  O_27 
ROOT
HETATM    1  C   UNL     1     -23.100  -4.234 -14.345  1.00  0.00     0.258 C 
HETATM    2  O   UNL     1     -22.572  -3.387 -15.057  1.00  0.00    -0.265 OA
ENDROOT
BRANCH   1   3
HETATM    3  C   UNL     1     -22.613  -4.636 -12.970  1.00  0.00     0.111 C 
BRANCH   3   4
HETATM    4  C   UNL     1     -23.484  -3.981 -11.902  1.00  0.00     0.010 C 
BRANCH   4   5
HETATM    5  C   UNL     1     -23.621  -4.819 -10.649  1.00  0.00     0.000 C 
BRANCH   5   6
HETATM    6  C   UNL     1     -23.052  -4.060  -9.457  1.00  0.00     0.000 C 
BRANCH   6   7
HETATM    7  C   UNL     1     -21.662  -4.572  -9.119  1.00  0.00     0.000 C 
BRANCH   7   8
HETATM    8  C   UNL     1     -21.255  -4.122  -7.725  1.00  0.00     0.000 C 
BRANCH   8   9
HETATM    9  C   UNL     1     -20.077  -4.948  -7.235  1.00  0.00     0.000 C 
BRANCH   9  10
HETATM   10  C   UNL     1     -20.564  -6.061  -6.326  1.00  0.00     0.000 C 
BRANCH  10  11
HETATM   11  C   UNL     1     -20.823  -5.517  -4.932  1.00  0.00     0.000 C 
BRANCH  11  12
HETATM   12  C   UNL     1     -21.853  -6.377  -4.223  1.00  0.00     0.000 C 
BRANCH  12  13
HETATM   13  C   UNL     1     -21.281  -6.907  -2.921  1.00  0.00     0.000 C 
BRANCH  13  14
HETATM   14  C   UNL     1     -22.238  -6.621  -1.775  1.00  0.00     0.000 C 
BRANCH  14  15
HETATM   15  C   UNL     1     -21.827  -7.408  -0.540  1.00  0.00    -0.000 C 
BRANCH  15  16
HETATM   16  C   UNL     1     -23.053  -7.958   0.177  1.00  0.00    -0.005 C 
HETATM   17  C   UNL     1     -23.165  -9.455  -0.038  1.00  0.00     0.005 C 
ENDBRANCH  15  16
ENDBRANCH  14  15
ENDBRANCH  13  14
ENDBRANCH  12  13
ENDBRANCH  11  12
ENDBRANCH  10  11
ENDBRANCH   9  10
ENDBRANCH   8   9
ENDBRANCH   7   8
ENDBRANCH   6   7
ENDBRANCH   5   6
ENDBRANCH   4   5
ENDBRANCH   3   4
ENDBRANCH   1   3
BRANCH   1  18
HETATM   18  O   UNL     1     -24.268  -4.867 -14.672  1.00  0.00    -0.319 OA
BRANCH  18  19
HETATM   19  C   UNL     1     -24.189  -6.301 -14.769  1.00  0.00     0.213 C 
BRANCH  19  20
HETATM   20  C   UNL     1     -25.078  -6.830 -15.906  1.00  0.00     0.178 C 
BRANCH  20  21
HETATM   21  C   UNL     1     -26.471  -6.151 -15.957  1.00  0.00     0.222 C 
HETATM   22  C   UNL     1     -27.576  -7.136 -15.863  1.00  0.00     0.114 C 
HETATM   23  C   UNL     1     -28.270  -7.189 -17.023  1.00  0.00     0.173 C 
HETATM   24  C   UNL     1     -27.665  -6.174 -17.921  1.00  0.00     0.320 C 
HETATM   25  O   UNL     1     -27.986  -5.951 -19.075  1.00  0.00    -0.257 OA
HETATM   26  O   UNL     1     -26.713  -5.490 -17.211  1.00  0.00    -0.301 OA
BRANCH  22  27
HETATM   27  O   UNL     1     -27.833  -7.851 -14.717  1.00  0.00    -0.359 OA
HETATM   28  H   UNL     1     -27.265  -8.653 -14.755  1.00  0.00     0.217 HD
ENDBRANCH  22  27
BRANCH  23  29
HETATM   29  O   UNL     1     -29.353  -7.948 -17.334  1.00  0.00    -0.353 OA
HETATM   30  H   UNL     1     -29.024  -8.795 -17.681  1.00  0.00     0.218 HD
ENDBRANCH  23  29
ENDBRANCH  20  21
BRANCH  20  31
HETATM   31  O   UNL     1     -24.445  -6.718 -17.184  1.00  0.00    -0.390 OA
HETATM   32  H   UNL     1     -23.535  -6.392 -17.051  1.00  0.00     0.210 HD
ENDBRANCH  20  31
ENDBRANCH  19  20
ENDBRANCH  18  19
ENDBRANCH   1  18
TORSDOF 21
BEGIN_RES ARG D 557
REMARK  4 active torsions:
REMARK  status: ('A' for Active; 'I' for Inactive)
REMARK    1  A    between atoms: CA   and  CB  
REMARK    2  A    between atoms: CB   and  CG  
REMARK    3  A    between atoms: CG   and  CD  
REMARK    4  A    between atoms: CD   and  NE  
REMARK       I    between atoms: NE   and  CZ  
REMARK       I    between atoms: CZ   and  NH1 
REMARK       I    between atoms: CZ   and  NH2 
ROOT
ATOM      1  CA  ARG D 557     -26.217   2.705 -17.014  1.00 35.49     0.159 C 
ENDROOT
BRANCH   1   2
ATOM      2  CB  ARG D 557     -26.789   1.319 -17.183  1.00 35.49     0.034 C 
BRANCH   2   3
ATOM      3  CG  ARG D 557     -28.236   1.172 -16.982  1.00 35.49     0.027 C 
BRANCH   3   4
ATOM      4  CD  ARG D 557     -28.623  -0.221 -16.664  1.00 35.49     0.116 C 
BRANCH   4   5
ATOM      5  NE  ARG D 557     -27.570  -0.936 -15.991  1.00 35.49    -0.212 N 
ATOM      6  CZ  ARG D 557     -27.365  -2.233 -16.048  1.00 35.49     0.666 C 
ATOM      7  NH1 ARG D 557     -28.142  -3.045 -16.741  1.00 35.49    -0.235 N 
ATOM      8  NH2 ARG D 557     -26.347  -2.709 -15.391  1.00 35.49    -0.235 N 
ATOM      9  HH  ARG D 557     -28.816  -2.753 -17.183  1.00 35.49     0.174 HD
ATOM     10  HH  ARG D 557     -27.958  -3.882 -16.743  1.00 35.49     0.174 HD
ATOM     11  HH  ARG D 557     -25.858  -2.161 -14.958  1.00 35.49     0.174 HD
ATOM     12  HH  ARG D 557     -26.181  -3.541 -15.406  1.00 35.49     0.174 HD
ATOM     13  HE  ARG D 557     -27.065  -0.501 -15.463  1.00 35.49     0.178 HD
ENDBRANCH   4   5
ENDBRANCH   3   4
ENDBRANCH   2   3
ENDBRANCH   1   2
END_RES ARG D 557
BEGIN_RES GLU D 570
REMARK  3 active torsions:
REMARK  status: ('A' for Active; 'I' for Inactive)
REMARK    5  A    between atoms: CA   and  CB  
REMARK    6  A    between atoms: CB   and  CG  
REMARK    7  A    between atoms: CG   and  CD  
ROOT
ATOM     14  CA  GLU D 570     -18.033  -6.348 -13.375  1.00 32.92     0.160 C 
ENDROOT
BRANCH  14  15
ATOM     15  CB  GLU D 570     -19.500  -6.345 -13.794  1.00 32.92     0.043 C 
BRANCH  15  16
ATOM     16  CG  GLU D 570     -19.810  -5.967 -15.197  1.00 32.92     0.100 C 
BRANCH  16  17
ATOM     17  CD  GLU D 570     -20.741  -6.943 -15.878  1.00 32.92     0.185 C 
ATOM     18  OE1 GLU D 570     -21.431  -6.551 -16.839  1.00 32.92    -0.647 OA
ATOM     19  OE2 GLU D 570     -20.793  -8.107 -15.435  1.00 32.92    -0.647 OA
ENDBRANCH  16  17
ENDBRANCH  15  16
ENDBRANCH  14  15
END_RES GLU D 570
ENDMDL
MODEL 4
REMARK VINA RESULT:      -8.1      1.243      2.245
REMARK  21 active torsions:
REMARK  status: ('A' for Active; 'I' for Inactive)
REMARK    1  A    between atoms: C_2  and  C_3 
REMARK    2  A    between atoms: C_3  and  C_4 
REMARK    3  A    between atoms: C_4  and  C_5 
REMARK    4  A    between atoms: C_5  and  C_6 
REMARK    5  A    between atoms: C_6  and  C_7 
REMARK    6  A    between atoms: C_7  and  C_8 
REMARK    7  A    between atoms: C_8  and  C_9 
REMARK    8  A    between atoms: C_9  and  C_10 
REMARK    9  A    between atoms: C_10  and  C_11 
REMARK   10  A    between atoms: C_11  and  C_12 
REMARK   11  A    between atoms: C_12  and  C_13 
REMARK   12  A    between atoms: C_13  and  C_14 
REMARK   13  A    between atoms: C_14  and  C_15 
REMARK   14  A    between atoms: C_15  and  C_16 
REMARK   15  A    between atoms: C_16  and  O_18 
REMARK   16  A    between atoms: O_18  and  C_19 
REMARK   17  A    between atoms: C_19  and  C_20 
REMARK   18  A    between atoms: C_20  and  C_21 
REMARK   19  A    between atoms: C_20  and  O_29 
REMARK   20  A    between atoms: C_22  and  O_28 
REMARK   21  A    between atoms: C_23  and  O_27 
ROOT
HETATM    1  C   UNL     1     -19.676  -4.093  -7.847  1.00  0.00     0.258 C 
HETATM    2  O   UNL     1     -18.534  -4.417  -7.541  1.00  0.00    -0.265 OA
ENDROOT
BRANCH   1   3
HETATM    3  C   UNL     1     -20.845  -4.029  -6.890  1.00  0.00     0.111 C 
BRANCH   3   4
HETATM    4  C   UNL     1     -20.696  -5.109  -5.822  1.00  0.00     0.010 C 
BRANCH   4   5
HETATM    5  C   UNL     1     -21.063  -6.491  -6.318  1.00  0.00     0.000 C 
BRANCH   5   6
HETATM    6  C   UNL     1     -20.514  -7.544  -5.363  1.00  0.00     0.000 C 
BRANCH   6   7
HETATM    7  C   UNL     1     -21.635  -8.130  -4.521  1.00  0.00     0.000 C 
BRANCH   7   8
HETATM    8  C   UNL     1     -21.389  -7.861  -3.045  1.00  0.00     0.000 C 
BRANCH   8   9
HETATM    9  C   UNL     1     -21.851  -6.459  -2.688  1.00  0.00     0.000 C 
BRANCH   9  10
HETATM   10  C   UNL     1     -22.248  -6.398  -1.225  1.00  0.00     0.000 C 
BRANCH  10  11
HETATM   11  C   UNL     1     -22.002  -7.744  -0.565  1.00  0.00     0.000 C 
BRANCH  11  12
HETATM   12  C   UNL     1     -23.003  -7.962   0.556  1.00  0.00     0.000 C 
BRANCH  12  13
HETATM   13  C   UNL     1     -23.741  -9.272   0.348  1.00  0.00     0.000 C 
BRANCH  13  14
HETATM   14  C   UNL     1     -22.895 -10.221  -0.486  1.00  0.00     0.000 C 
BRANCH  14  15
HETATM   15  C   UNL     1     -23.652 -11.518  -0.731  1.00  0.00    -0.000 C 
BRANCH  15  16
HETATM   16  C   UNL     1     -23.072 -12.255  -1.931  1.00  0.00    -0.005 C 
HETATM   17  C   UNL     1     -22.809 -11.290  -3.070  1.00  0.00     0.005 C 
ENDBRANCH  15  16
ENDBRANCH  14  15
ENDBRANCH  13  14
ENDBRANCH  12  13
ENDBRANCH  11  12
ENDBRANCH  10  11
ENDBRANCH   9  10
ENDBRANCH   8   9
ENDBRANCH   7   8
ENDBRANCH   6   7
ENDBRANCH   5   6
ENDBRANCH   4   5
ENDBRANCH   3   4
ENDBRANCH   1   3
BRANCH   1  18
HETATM   18  O   UNL     1     -20.021  -3.655  -9.096  1.00  0.00    -0.319 OA
BRANCH  18  19
HETATM   19  C   UNL     1     -21.128  -4.341  -9.710  1.00  0.00     0.213 C 
BRANCH  19  20
HETATM   20  C   UNL     1     -21.067  -4.235 -11.243  1.00  0.00     0.178 C 
BRANCH  20  21
HETATM   21  C   UNL     1     -22.408  -4.594 -11.932  1.00  0.00     0.222 C 
HETATM   22  C   UNL     1     -22.803  -3.584 -12.944  1.00  0.00     0.114 C 
HETATM   23  C   UNL     1     -23.918  -2.925 -12.553  1.00  0.00     0.173 C 
HETATM   24  C   UNL     1     -24.336  -3.534 -11.266  1.00  0.00     0.320 C 
HETATM   25  O   UNL     1     -25.275  -3.181 -10.575  1.00  0.00    -0.257 OA
HETATM   26  O   UNL     1     -23.513  -4.600 -11.011  1.00  0.00    -0.301 OA
BRANCH  22  27
HETATM   27  O   UNL     1     -22.110  -3.404 -14.118  1.00  0.00    -0.359 OA
HETATM   28  H   UNL     1     -21.766  -2.482 -14.100  1.00  0.00     0.217 HD
ENDBRANCH  22  27
BRANCH  23  29
HETATM   29  O   UNL     1     -24.599  -1.944 -13.201  1.00  0.00    -0.353 OA
HETATM   30  H   UNL     1     -25.466  -2.308 -13.451  1.00  0.00     0.218 HD
ENDBRANCH  23  29
ENDBRANCH  20  21
BRANCH  20  31
HETATM   31  O   UNL     1     -20.637  -2.941 -11.678  1.00  0.00    -0.390 OA
HETATM   32  H   UNL     1     -20.877  -2.834 -12.617  1.00  0.00     0.210 HD
ENDBRANCH  20  31
ENDBRANCH  19  20
ENDBRANCH  18  19
ENDBRANCH   1  18
TORSDOF 21
BEGIN_RES ARG D 557
REMARK  4 active torsions:
REMARK  status: ('A' for Active; 'I' for Inactive)
REMARK    1  A    between atoms: CA   and  CB  
REMARK    2  A    between atoms: CB   and  CG  
REMARK    3  A    between atoms: CG   and  CD  
REMARK    4  A    between atoms: CD   and  NE  
REMARK       I    between atoms: NE   and  CZ  
REMARK       I    between atoms: CZ   and  NH1 
REMARK       I    between atoms: CZ   and  NH2 
ROOT
ATOM      1  CA  ARG D 557     -26.217   2.705 -17.014  1.00 35.49     0.159 C 
ENDROOT
BRANCH   1   2
ATOM      2  CB  ARG D 557     -26.789   1.319 -17.183  1.00 35.49     0.034 C 
BRANCH   2   3
ATOM      3  CG  ARG D 557     -28.237   1.224 -17.404  1.00 35.49     0.027 C 
BRANCH   3   4
ATOM      4  CD  ARG D 557     -28.890   0.279 -16.469  1.00 35.49     0.116 C 
BRANCH   4   5
ATOM      5  NE  ARG D 557     -29.280  -0.944 -17.120  1.00 35.49    -0.212 N 
ATOM      6  CZ  ARG D 557     -28.650  -2.094 -17.035  1.00 35.49     0.666 C 
ATOM      7  NH1 ARG D 557     -27.544  -2.247 -16.330  1.00 35.49    -0.235 N 
ATOM      8  NH2 ARG D 557     -29.159  -3.106 -17.676  1.00 35.49    -0.235 N 
ATOM      9  HH  ARG D 557     -27.193  -1.595 -15.899  1.00 35.49     0.174 HD
ATOM     10  HH  ARG D 557     -27.178  -3.021 -16.309  1.00 35.49     0.174 HD
ATOM     11  HH  ARG D 557     -29.878  -2.980 -18.118  1.00 35.49     0.174 HD
ATOM     12  HH  ARG D 557     -28.782  -3.865 -17.642  1.00 35.49     0.174 HD
ATOM     13  HE  ARG D 557     -29.941  -0.919 -17.654  1.00 35.49     0.178 HD
ENDBRANCH   4   5
ENDBRANCH   3   4
ENDBRANCH   2   3
ENDBRANCH   1   2
END_RES ARG D 557
BEGIN_RES GLU D 570
REMARK  3 active torsions:
REMARK  status: ('A' for Active; 'I' for Inactive)
REMARK    5  A    between atoms: CA   and  CB  
REMARK    6  A    between atoms: CB   and  CG  
REMARK    7  A    between atoms: CG   and  CD  
ROOT
ATOM     14  CA  GLU D 570     -18.033  -6.348 -13.375  1.00 32.92     0.160 C 
ENDROOT
BRANCH  14  15
ATOM     15  CB  GLU D 570     -19.500  -6.345 -13.794  1.00 32.92     0.043 C 
BRANCH  15  16
ATOM     16  CG  GLU D 570     -19.797  -6.442 -15.247  1.00 32.92     0.100 C 
BRANCH  16  17
ATOM     17  CD  GLU D 570     -21.198  -5.993 -15.593  1.00 32.92     0.185 C 
ATOM     18  OE1 GLU D 570     -22.161  -6.484 -14.973  1.00 32.92    -0.647 OA
ATOM     19  OE2 GLU D 570     -21.335  -5.155 -16.505  1.00 32.92    -0.647 OA
ENDBRANCH  16  17
ENDBRANCH  15  16
ENDBRANCH  14  15
END_RES GLU D 570
ENDMDL
MODEL 5
REMARK VINA RESULT:      -8.0      3.488      6.786
REMARK  21 active torsions:
REMARK  status: ('A' for Active; 'I' for Inactive)
REMARK    1  A    between atoms: C_2  and  C_3 
REMARK    2  A    between atoms: C_3  and  C_4 
REMARK    3  A    between atoms: C_4  and  C_5 
REMARK    4  A    between atoms: C_5  and  C_6 
REMARK    5  A    between atoms: C_6  and  C_7 
REMARK    6  A    between atoms: C_7  and  C_8 
REMARK    7  A    between atoms: C_8  and  C_9 
REMARK    8  A    between atoms: C_9  and  C_10 
REMARK    9  A    between atoms: C_10  and  C_11 
REMARK   10  A    between atoms: C_11  and  C_12 
REMARK   11  A    between atoms: C_12  and  C_13 
REMARK   12  A    between atoms: C_13  and  C_14 
REMARK   13  A    between atoms: C_14  and  C_15 
REMARK   14  A    between atoms: C_15  and  C_16 
REMARK   15  A    between atoms: C_16  and  O_18 
REMARK   16  A    between atoms: O_18  and  C_19 
REMARK   17  A    between atoms: C_19  and  C_20 
REMARK   18  A    between atoms: C_20  and  C_21 
REMARK   19  A    between atoms: C_20  and  O_29 
REMARK   20  A    between atoms: C_22  and  O_28 
REMARK   21  A    between atoms: C_23  and  O_27 
ROOT
HETATM    1  C   UNL     1     -24.363  -6.584 -15.256  1.00  0.00     0.258 C 
HETATM    2  O   UNL     1     -24.125  -7.660 -15.795  1.00  0.00    -0.265 OA
ENDROOT
BRANCH   1   3
HETATM    3  C   UNL     1     -23.556  -5.986 -14.125  1.00  0.00     0.111 C 
BRANCH   3   4
HETATM    4  C   UNL     1     -22.841  -4.729 -14.612  1.00  0.00     0.010 C 
BRANCH   4   5
HETATM    5  C   UNL     1     -22.805  -3.625 -13.576  1.00  0.00     0.000 C 
BRANCH   5   6
HETATM    6  C   UNL     1     -24.217  -3.115 -13.318  1.00  0.00     0.000 C 
BRANCH   6   7
HETATM    7  C   UNL     1     -24.506  -3.090 -11.826  1.00  0.00     0.000 C 
BRANCH   7   8
HETATM    8  C   UNL     1     -23.418  -3.829 -11.062  1.00  0.00     0.000 C 
BRANCH   8   9
HETATM    9  C   UNL     1     -23.606  -3.633  -9.568  1.00  0.00     0.000 C 
BRANCH   9  10
HETATM   10  C   UNL     1     -22.608  -4.481  -8.802  1.00  0.00     0.000 C 
BRANCH  10  11
HETATM   11  C   UNL     1     -21.260  -4.455  -9.502  1.00  0.00     0.000 C 
BRANCH  11  12
HETATM   12  C   UNL     1     -20.155  -4.773  -8.511  1.00  0.00     0.000 C 
BRANCH  12  13
HETATM   13  C   UNL     1     -20.339  -3.955  -7.246  1.00  0.00     0.000 C 
BRANCH  13  14
HETATM   14  C   UNL     1     -20.168  -4.839  -6.022  1.00  0.00     0.000 C 
BRANCH  14  15
HETATM   15  C   UNL     1     -20.054  -6.297  -6.441  1.00  0.00    -0.000 C 
BRANCH  15  16
HETATM   16  C   UNL     1     -20.911  -7.180  -5.544  1.00  0.00    -0.005 C 
HETATM   17  C   UNL     1     -22.181  -6.455  -5.143  1.00  0.00     0.005 C 
ENDBRANCH  15  16
ENDBRANCH  14  15
ENDBRANCH  13  14
ENDBRANCH  12  13
ENDBRANCH  11  12
ENDBRANCH  10  11
ENDBRANCH   9  10
ENDBRANCH   8   9
ENDBRANCH   7   8
ENDBRANCH   6   7
ENDBRANCH   5   6
ENDBRANCH   4   5
ENDBRANCH   3   4
ENDBRANCH   1   3
BRANCH   1  18
HETATM   18  O   UNL     1     -25.350  -5.736 -15.677  1.00  0.00    -0.319 OA
BRANCH  18  19
HETATM   19  C   UNL     1     -26.166  -6.224 -16.758  1.00  0.00     0.213 C 
BRANCH  19  20
HETATM   20  C   UNL     1     -27.637  -6.354 -16.327  1.00  0.00     0.178 C 
BRANCH  20  21
HETATM   21  C   UNL     1     -28.635  -5.951 -17.443  1.00  0.00     0.222 C 
HETATM   22  C   UNL     1     -30.025  -5.838 -16.934  1.00  0.00     0.114 C 
HETATM   23  C   UNL     1     -30.810  -6.802 -17.467  1.00  0.00     0.173 C 
HETATM   24  C   UNL     1     -29.956  -7.566 -18.410  1.00  0.00     0.320 C 
HETATM   25  O   UNL     1     -30.291  -8.544 -19.053  1.00  0.00    -0.257 OA
HETATM   26  O   UNL     1     -28.734  -6.947 -18.476  1.00  0.00    -0.301 OA
BRANCH  22  27
HETATM   27  O   UNL     1     -30.413  -4.848 -16.062  1.00  0.00    -0.359 OA
HETATM   28  H   UNL     1     -29.635  -4.659 -15.490  1.00  0.00     0.217 HD
ENDBRANCH  22  27
BRANCH  23  29
HETATM   29  O   UNL     1     -32.134  -7.029 -17.267  1.00  0.00    -0.353 OA
HETATM   30  H   UNL     1     -32.558  -7.069 -18.141  1.00  0.00     0.218 HD
ENDBRANCH  23  29
ENDBRANCH  20  21
BRANCH  20  31
HETATM   31  O   UNL     1     -27.949  -7.670 -15.859  1.00  0.00    -0.390 OA
HETATM   32  H   UNL     1     -27.726  -8.309 -16.561  1.00  0.00     0.210 HD
ENDBRANCH  20  31
ENDBRANCH  19  20
ENDBRANCH  18  19
ENDBRANCH   1  18
TORSDOF 21
BEGIN_RES ARG D 557
REMARK  4 active torsions:
REMARK  status: ('A' for Active; 'I' for Inactive)
REMARK    1  A    between atoms: CA   and  CB  
REMARK    2  A    between atoms: CB   and  CG  
REMARK    3  A    between atoms: CG   and  CD  
REMARK    4  A    between atoms: CD   and  NE  
REMARK       I    between atoms: NE   and  CZ  
REMARK       I    between atoms: CZ   and  NH1 
REMARK       I    between atoms: CZ   and  NH2 
ROOT
ATOM      1  CA  ARG D 557     -26.217   2.705 -17.014  1.00 35.49     0.159 C 
ENDROOT
BRANCH   1   2
ATOM      2  CB  ARG D 557     -26.789   1.319 -17.183  1.00 35.49     0.034 C 
BRANCH   2   3
ATOM      3  CG  ARG D 557     -28.231   1.226 -17.441  1.00 35.49     0.027 C 
BRANCH   3   4
ATOM      4  CD  ARG D 557     -28.901   0.246 -16.557  1.00 35.49     0.116 C 
BRANCH   4   5
ATOM      5  NE  ARG D 557     -28.002  -0.785 -16.111  1.00 35.49    -0.212 N 
ATOM      6  CZ  ARG D 557     -28.010  -2.037 -16.510  1.00 35.49     0.666 C 
ATOM      7  NH1 ARG D 557     -28.887  -2.497 -17.383  1.00 35.49    -0.235 N 
ATOM      8  NH2 ARG D 557     -27.106  -2.831 -16.015  1.00 35.49    -0.235 N 
ATOM      9  HH  ARG D 557     -29.490  -1.992 -17.723  1.00 35.49     0.174 HD
ATOM     10  HH  ARG D 557     -28.843  -3.323 -17.608  1.00 35.49     0.174 HD
ATOM     11  HH  ARG D 557     -26.548  -2.505 -15.458  1.00 35.49     0.174 HD
ATOM     12  HH  ARG D 557     -27.077  -3.645 -16.251  1.00 35.49     0.174 HD
ATOM     13  HE  ARG D 557     -27.450  -0.594 -15.493  1.00 35.49     0.178 HD
ENDBRANCH   4   5
ENDBRANCH   3   4
ENDBRANCH   2   3
ENDBRANCH   1   2
END_RES ARG D 557
BEGIN_RES GLU D 570
REMARK  3 active torsions:
REMARK  status: ('A' for Active; 'I' for Inactive)
REMARK    5  A    between atoms: CA   and  CB  
REMARK    6  A    between atoms: CB   and  CG  
REMARK    7  A    between atoms: CG   and  CD  
ROOT
ATOM     14  CA  GLU D 570     -18.033  -6.348 -13.375  1.00 32.92     0.160 C 
ENDROOT
BRANCH  14  15
ATOM     15  CB  GLU D 570     -19.500  -6.345 -13.794  1.00 32.92     0.043 C 
BRANCH  15  16
ATOM     16  CG  GLU D 570     -20.098  -7.643 -14.201  1.00 32.92     0.100 C 
BRANCH  16  17
ATOM     17  CD  GLU D 570     -20.503  -7.675 -15.656  1.00 32.92     0.185 C 
ATOM     18  OE1 GLU D 570     -20.601  -6.601 -16.281  1.00 32.92    -0.647 OA
ATOM     19  OE2 GLU D 570     -20.740  -8.784 -16.173  1.00 32.92    -0.647 OA
ENDBRANCH  16  17
ENDBRANCH  15  16
ENDBRANCH  14  15
END_RES GLU D 570
ENDMDL
MODEL 6
REMARK VINA RESULT:      -7.8      2.478      3.619
REMARK  21 active torsions:
REMARK  status: ('A' for Active; 'I' for Inactive)
REMARK    1  A    between atoms: C_2  and  C_3 
REMARK    2  A    between atoms: C_3  and  C_4 
REMARK    3  A    between atoms: C_4  and  C_5 
REMARK    4  A    between atoms: C_5  and  C_6 
REMARK    5  A    between atoms: C_6  and  C_7 
REMARK    6  A    between atoms: C_7  and  C_8 
REMARK    7  A    between atoms: C_8  and  C_9 
REMARK    8  A    between atoms: C_9  and  C_10 
REMARK    9  A    between atoms: C_10  and  C_11 
REMARK   10  A    between atoms: C_11  and  C_12 
REMARK   11  A    between atoms: C_12  and  C_13 
REMARK   12  A    between atoms: C_13  and  C_14 
REMARK   13  A    between atoms: C_14  and  C_15 
REMARK   14  A    between atoms: C_15  and  C_16 
REMARK   15  A    between atoms: C_16  and  O_18 
REMARK   16  A    between atoms: O_18  and  C_19 
REMARK   17  A    between atoms: C_19  and  C_20 
REMARK   18  A    between atoms: C_20  and  C_21 
REMARK   19  A    between atoms: C_20  and  O_29 
REMARK   20  A    between atoms: C_22  and  O_28 
REMARK   21  A    between atoms: C_23  and  O_27 
ROOT
HETATM    1  C   UNL     1     -22.557  -4.352 -11.985  1.00  0.00     0.258 C 
HETATM    2  O   UNL     1     -22.120  -3.501 -12.752  1.00  0.00    -0.265 OA
ENDROOT
BRANCH   1   3
HETATM    3  C   UNL     1     -22.280  -4.402 -10.499  1.00  0.00     0.111 C 
BRANCH   3   4
HETATM    4  C   UNL     1     -20.779  -4.532 -10.258  1.00  0.00     0.010 C 
BRANCH   4   5
HETATM    5  C   UNL     1     -20.348  -4.022  -8.899  1.00  0.00     0.000 C 
BRANCH   5   6
HETATM    6  C   UNL     1     -21.065  -4.802  -7.805  1.00  0.00     0.000 C 
BRANCH   6   7
HETATM    7  C   UNL     1     -20.224  -4.832  -6.539  1.00  0.00     0.000 C 
BRANCH   7   8
HETATM    8  C   UNL     1     -20.348  -6.183  -5.852  1.00  0.00     0.000 C 
BRANCH   8   9
HETATM    9  C   UNL     1     -21.743  -6.346  -5.273  1.00  0.00     0.000 C 
BRANCH   9  10
HETATM   10  C   UNL     1     -21.668  -7.022  -3.917  1.00  0.00     0.000 C 
BRANCH  10  11
HETATM   11  C   UNL     1     -21.501  -5.979  -2.826  1.00  0.00     0.000 C 
BRANCH  11  12
HETATM   12  C   UNL     1     -22.197  -6.440  -1.557  1.00  0.00     0.000 C 
BRANCH  12  13
HETATM   13  C   UNL     1     -21.723  -7.832  -1.180  1.00  0.00     0.000 C 
BRANCH  13  14
HETATM   14  C   UNL     1     -22.227  -8.198   0.206  1.00  0.00     0.000 C 
BRANCH  14  15
HETATM   15  C   UNL     1     -22.299  -9.710   0.355  1.00  0.00    -0.000 C 
BRANCH  15  16
HETATM   16  C   UNL     1     -23.436 -10.276  -0.484  1.00  0.00    -0.005 C 
HETATM   17  C   UNL     1     -23.781 -11.681  -0.031  1.00  0.00     0.005 C 
ENDBRANCH  15  16
ENDBRANCH  14  15
ENDBRANCH  13  14
ENDBRANCH  12  13
ENDBRANCH  11  12
ENDBRANCH  10  11
ENDBRANCH   9  10
ENDBRANCH   8   9
ENDBRANCH   7   8
ENDBRANCH   6   7
ENDBRANCH   5   6
ENDBRANCH   4   5
ENDBRANCH   3   4
ENDBRANCH   1   3
BRANCH   1  18
HETATM   18  O   UNL     1     -23.436  -5.327 -12.369  1.00  0.00    -0.319 OA
BRANCH  18  19
HETATM   19  C   UNL     1     -24.006  -5.166 -13.681  1.00  0.00     0.213 C 
BRANCH  19  20
HETATM   20  C   UNL     1     -23.211  -5.958 -14.733  1.00  0.00     0.178 C 
BRANCH  20  21
HETATM   21  C   UNL     1     -24.027  -7.109 -15.373  1.00  0.00     0.222 C 
HETATM   22  C   UNL     1     -24.060  -7.014 -16.854  1.00  0.00     0.114 C 
HETATM   23  C   UNL     1     -25.311  -6.744 -17.289  1.00  0.00     0.173 C 
HETATM   24  C   UNL     1     -26.177  -6.707 -16.083  1.00  0.00     0.320 C 
HETATM   25  O   UNL     1     -27.366  -6.447 -16.059  1.00  0.00    -0.257 OA
HETATM   26  O   UNL     1     -25.416  -7.069 -15.002  1.00  0.00    -0.301 OA
BRANCH  22  27
HETATM   27  O   UNL     1     -22.943  -7.212 -17.631  1.00  0.00    -0.359 OA
HETATM   28  H   UNL     1     -23.265  -7.505 -18.513  1.00  0.00     0.217 HD
ENDBRANCH  22  27
BRANCH  23  29
HETATM   29  O   UNL     1     -25.756  -6.594 -18.563  1.00  0.00    -0.353 OA
HETATM   30  H   UNL     1     -26.183  -7.429 -18.823  1.00  0.00     0.218 HD
ENDBRANCH  23  29
ENDBRANCH  20  21
BRANCH  20  31
HETATM   31  O   UNL     1     -22.687  -5.113 -15.762  1.00  0.00    -0.390 OA
HETATM   32  H   UNL     1     -22.229  -4.361 -15.343  1.00  0.00     0.210 HD
ENDBRANCH  20  31
ENDBRANCH  19  20
ENDBRANCH  18  19
ENDBRANCH   1  18
TORSDOF 21
BEGIN_RES ARG D 557
REMARK  4 active torsions:
REMARK  status: ('A' for Active; 'I' for Inactive)
REMARK    1  A    between atoms: CA   and  CB  
REMARK    2  A    between atoms: CB   and  CG  
REMARK    3  A    between atoms: CG   and  CD  
REMARK    4  A    between atoms: CD   and  NE  
REMARK       I    between atoms: NE   and  CZ  
REMARK       I    between atoms: CZ   and  NH1 
REMARK       I    between atoms: CZ   and  NH2 
ROOT
ATOM      1  CA  ARG D 557     -26.217   2.705 -17.014  1.00 35.49     0.159 C 
ENDROOT
BRANCH   1   2
ATOM      2  CB  ARG D 557     -26.789   1.319 -17.183  1.00 35.49     0.034 C 
BRANCH   2   3
ATOM      3  CG  ARG D 557     -25.832   0.206 -17.187  1.00 35.49     0.027 C 
BRANCH   3   4
ATOM      4  CD  ARG D 557     -24.706   0.426 -16.252  1.00 35.49     0.116 C 
BRANCH   4   5
ATOM      5  NE  ARG D 557     -24.860  -0.322 -15.032  1.00 35.49    -0.212 N 
ATOM      6  CZ  ARG D 557     -24.116  -1.338 -14.655  1.00 35.49     0.666 C 
ATOM      7  NH1 ARG D 557     -23.123  -1.802 -15.391  1.00 35.49    -0.235 N 
ATOM      8  NH2 ARG D 557     -24.385  -1.885 -13.505  1.00 35.49    -0.235 N 
ATOM      9  HH  ARG D 557     -22.927  -1.456 -16.150  1.00 35.49     0.174 HD
ATOM     10  HH  ARG D 557     -22.670  -2.465 -15.093  1.00 35.49     0.174 HD
ATOM     11  HH  ARG D 557     -25.027  -1.559 -13.048  1.00 35.49     0.174 HD
ATOM     12  HH  ARG D 557     -23.924  -2.540 -13.226  1.00 35.49     0.174 HD
ATOM     13  HE  ARG D 557     -25.521  -0.137 -14.531  1.00 35.49     0.178 HD
ENDBRANCH   4   5
ENDBRANCH   3   4
ENDBRANCH   2   3
ENDBRANCH   1   2
END_RES ARG D 557
BEGIN_RES GLU D 570
REMARK  3 active torsions:
REMARK  status: ('A' for Active; 'I' for Inactive)
REMARK    5  A    between atoms: CA   and  CB  
REMARK    6  A    between atoms: CB   and  CG  
REMARK    7  A    between atoms: CG   and  CD  
ROOT
ATOM     14  CA  GLU D 570     -18.033  -6.348 -13.375  1.00 32.92     0.160 C 
ENDROOT
BRANCH  14  15
ATOM     15  CB  GLU D 570     -19.500  -6.345 -13.794  1.00 32.92     0.043 C 
BRANCH  15  16
ATOM     16  CG  GLU D 570     -20.094  -7.640 -14.217  1.00 32.92     0.100 C 
BRANCH  16  17
ATOM     17  CD  GLU D 570     -20.415  -7.687 -15.692  1.00 32.92     0.185 C 
ATOM     18  OE1 GLU D 570     -20.291  -6.651 -16.372  1.00 32.92    -0.647 OA
ATOM     19  OE2 GLU D 570     -20.810  -8.769 -16.170  1.00 32.92    -0.647 OA
ENDBRANCH  16  17
ENDBRANCH  15  16
ENDBRANCH  14  15
END_RES GLU D 570
ENDMDL
MODEL 7
REMARK VINA RESULT:      -7.7      3.063      6.083
REMARK  21 active torsions:
REMARK  status: ('A' for Active; 'I' for Inactive)
REMARK    1  A    between atoms: C_2  and  C_3 
REMARK    2  A    between atoms: C_3  and  C_4 
REMARK    3  A    between atoms: C_4  and  C_5 
REMARK    4  A    between atoms: C_5  and  C_6 
REMARK    5  A    between atoms: C_6  and  C_7 
REMARK    6  A    between atoms: C_7  and  C_8 
REMARK    7  A    between atoms: C_8  and  C_9 
REMARK    8  A    between atoms: C_9  and  C_10 
REMARK    9  A    between atoms: C_10  and  C_11 
REMARK   10  A    between atoms: C_11  and  C_12 
REMARK   11  A    between atoms: C_12  and  C_13 
REMARK   12  A    between atoms: C_13  and  C_14 
REMARK   13  A    between atoms: C_14  and  C_15 
REMARK   14  A    between atoms: C_15  and  C_16 
REMARK   15  A    between atoms: C_16  and  O_18 
REMARK   16  A    between atoms: O_18  and  C_19 
REMARK   17  A    between atoms: C_19  and  C_20 
REMARK   18  A    between atoms: C_20  and  C_21 
REMARK   19  A    between atoms: C_20  and  O_29 
REMARK   20  A    between atoms: C_22  and  O_28 
REMARK   21  A    between atoms: C_23  and  O_27 
ROOT
HETATM    1  C   UNL     1     -24.714  -6.666 -15.384  1.00  0.00     0.258 C 
HETATM    2  O   UNL     1     -24.584  -7.717 -16.003  1.00  0.00    -0.265 OA
ENDROOT
BRANCH   1   3
HETATM    3  C   UNL     1     -23.790  -6.187 -14.287  1.00  0.00     0.111 C 
BRANCH   3   4
HETATM    4  C   UNL     1     -23.038  -4.943 -14.752  1.00  0.00     0.010 C 
BRANCH   4   5
HETATM    5  C   UNL     1     -22.370  -4.192 -13.620  1.00  0.00     0.000 C 
BRANCH   5   6
HETATM    6  C   UNL     1     -22.740  -4.833 -12.288  1.00  0.00     0.000 C 
BRANCH   6   7
HETATM    7  C   UNL     1     -22.369  -3.912 -11.137  1.00  0.00     0.000 C 
BRANCH   7   8
HETATM    8  C   UNL     1     -23.462  -3.918 -10.080  1.00  0.00     0.000 C 
BRANCH   8   9
HETATM    9  C   UNL     1     -22.888  -4.353  -8.742  1.00  0.00     0.000 C 
BRANCH   9  10
HETATM   10  C   UNL     1     -21.604  -3.598  -8.456  1.00  0.00     0.000 C 
BRANCH  10  11
HETATM   11  C   UNL     1     -20.900  -4.209  -7.257  1.00  0.00     0.000 C 
BRANCH  11  12
HETATM   12  C   UNL     1     -20.619  -5.679  -7.515  1.00  0.00     0.000 C 
BRANCH  12  13
HETATM   13  C   UNL     1     -20.440  -6.414  -6.199  1.00  0.00     0.000 C 
BRANCH  13  14
HETATM   14  C   UNL     1     -21.123  -5.649  -5.076  1.00  0.00     0.000 C 
BRANCH  14  15
HETATM   15  C   UNL     1     -21.928  -6.603  -4.207  1.00  0.00    -0.000 C 
BRANCH  15  16
HETATM   16  C   UNL     1     -21.285  -6.746  -2.834  1.00  0.00    -0.005 C 
HETATM   17  C   UNL     1     -22.233  -6.268  -1.752  1.00  0.00     0.005 C 
ENDBRANCH  15  16
ENDBRANCH  14  15
ENDBRANCH  13  14
ENDBRANCH  12  13
ENDBRANCH  11  12
ENDBRANCH  10  11
ENDBRANCH   9  10
ENDBRANCH   8   9
ENDBRANCH   7   8
ENDBRANCH   6   7
ENDBRANCH   5   6
ENDBRANCH   4   5
ENDBRANCH   3   4
ENDBRANCH   1   3
BRANCH   1  18
HETATM   18  O   UNL     1     -25.676  -5.739 -15.676  1.00  0.00    -0.319 OA
BRANCH  18  19
HETATM   19  C   UNL     1     -26.410  -5.969 -16.893  1.00  0.00     0.213 C 
BRANCH  19  20
HETATM   20  C   UNL     1     -27.857  -6.396 -16.597  1.00  0.00     0.178 C 
BRANCH  20  21
HETATM   21  C   UNL     1     -28.707  -5.266 -15.962  1.00  0.00     0.222 C 
HETATM   22  C   UNL     1     -29.979  -5.045 -16.695  1.00  0.00     0.114 C 
HETATM   23  C   UNL     1     -29.981  -3.835 -17.297  1.00  0.00     0.173 C 
HETATM   24  C   UNL     1     -28.703  -3.178 -16.925  1.00  0.00     0.320 C 
HETATM   25  O   UNL     1     -28.315  -2.089 -17.310  1.00  0.00    -0.257 OA
HETATM   26  O   UNL     1     -28.054  -3.986 -16.028  1.00  0.00    -0.301 OA
BRANCH  22  27
HETATM   27  O   UNL     1     -30.996  -5.971 -16.703  1.00  0.00    -0.359 OA
HETATM   28  H   UNL     1     -30.588  -6.832 -16.948  1.00  0.00     0.217 HD
ENDBRANCH  22  27
BRANCH  23  29
HETATM   29  O   UNL     1     -30.956  -3.257 -18.046  1.00  0.00    -0.353 OA
HETATM   30  H   UNL     1     -30.589  -3.102 -18.933  1.00  0.00     0.218 HD
ENDBRANCH  23  29
ENDBRANCH  20  21
BRANCH  20  31
HETATM   31  O   UNL     1     -28.521  -6.898 -17.761  1.00  0.00    -0.390 OA
HETATM   32  H   UNL     1     -27.846  -7.179 -18.406  1.00  0.00     0.210 HD
ENDBRANCH  20  31
ENDBRANCH  19  20
ENDBRANCH  18  19
ENDBRANCH   1  18
TORSDOF 21
BEGIN_RES ARG D 557
REMARK  4 active torsions:
REMARK  status: ('A' for Active; 'I' for Inactive)
REMARK    1  A    between atoms: CA   and  CB  
REMARK    2  A    between atoms: CB   and  CG  
REMARK    3  A    between atoms: CG   and  CD  
REMARK    4  A    between atoms: CD   and  NE  
REMARK       I    between atoms: NE   and  CZ  
REMARK       I    between atoms: CZ   and  NH1 
REMARK       I    between atoms: CZ   and  NH2 
ROOT
ATOM      1  CA  ARG D 557     -26.217   2.705 -17.014  1.00 35.49     0.159 C 
ENDROOT
BRANCH   1   2
ATOM      2  CB  ARG D 557     -26.789   1.319 -17.183  1.00 35.49     0.034 C 
BRANCH   2   3
ATOM      3  CG  ARG D 557     -25.836   0.203 -17.157  1.00 35.49     0.027 C 
BRANCH   3   4
ATOM      4  CD  ARG D 557     -25.419  -0.151 -15.781  1.00 35.49     0.116 C 
BRANCH   4   5
ATOM      5  NE  ARG D 557     -25.956  -1.418 -15.360  1.00 35.49    -0.212 N 
ATOM      6  CZ  ARG D 557     -25.494  -2.160 -14.379  1.00 35.49     0.666 C 
ATOM      7  NH1 ARG D 557     -24.442  -1.813 -13.661  1.00 35.49    -0.235 N 
ATOM      8  NH2 ARG D 557     -26.120  -3.272 -14.122  1.00 35.49    -0.235 N 
ATOM      9  HH  ARG D 557     -24.016  -1.085 -13.812  1.00 35.49     0.174 HD
ATOM     10  HH  ARG D 557     -24.188  -2.336 -13.032  1.00 35.49     0.174 HD
ATOM     11  HH  ARG D 557     -26.801  -3.467 -14.597  1.00 35.49     0.174 HD
ATOM     12  HH  ARG D 557     -25.854  -3.776 -13.494  1.00 35.49     0.174 HD
ATOM     13  HE  ARG D 557     -26.591  -1.753 -15.815  1.00 35.49     0.178 HD
ENDBRANCH   4   5
ENDBRANCH   3   4
ENDBRANCH   2   3
ENDBRANCH   1   2
END_RES ARG D 557
BEGIN_RES GLU D 570
REMARK  3 active torsions:
REMARK  status: ('A' for Active; 'I' for Inactive)
REMARK    5  A    between atoms: CA   and  CB  
REMARK    6  A    between atoms: CB   and  CG  
REMARK    7  A    between atoms: CG   and  CD  
ROOT
ATOM     14  CA  GLU D 570     -18.033  -6.348 -13.375  1.00 32.92     0.160 C 
ENDROOT
BRANCH  14  15
ATOM     15  CB  GLU D 570     -19.500  -6.345 -13.794  1.00 32.92     0.043 C 
BRANCH  15  16
ATOM     16  CG  GLU D 570     -19.796  -6.320 -15.250  1.00 32.92     0.100 C 
BRANCH  16  17
ATOM     17  CD  GLU D 570     -20.619  -7.502 -15.705  1.00 32.92     0.185 C 
ATOM     18  OE1 GLU D 570     -21.331  -7.389 -16.721  1.00 32.92    -0.647 OA
ATOM     19  OE2 GLU D 570     -20.565  -8.547 -15.027  1.00 32.92    -0.647 OA
ENDBRANCH  16  17
ENDBRANCH  15  16
ENDBRANCH  14  15
END_RES GLU D 570
ENDMDL
MODEL 8
REMARK VINA RESULT:      -7.5      1.326      2.690
REMARK  21 active torsions:
REMARK  status: ('A' for Active; 'I' for Inactive)
REMARK    1  A    between atoms: C_2  and  C_3 
REMARK    2  A    between atoms: C_3  and  C_4 
REMARK    3  A    between atoms: C_4  and  C_5 
REMARK    4  A    between atoms: C_5  and  C_6 
REMARK    5  A    between atoms: C_6  and  C_7 
REMARK    6  A    between atoms: C_7  and  C_8 
REMARK    7  A    between atoms: C_8  and  C_9 
REMARK    8  A    between atoms: C_9  and  C_10 
REMARK    9  A    between atoms: C_10  and  C_11 
REMARK   10  A    between atoms: C_11  and  C_12 
REMARK   11  A    between atoms: C_12  and  C_13 
REMARK   12  A    between atoms: C_13  and  C_14 
REMARK   13  A    between atoms: C_14  and  C_15 
REMARK   14  A    between atoms: C_15  and  C_16 
REMARK   15  A    between atoms: C_16  and  O_18 
REMARK   16  A    between atoms: O_18  and  C_19 
REMARK   17  A    between atoms: C_19  and  C_20 
REMARK   18  A    between atoms: C_20  and  C_21 
REMARK   19  A    between atoms: C_20  and  O_29 
REMARK   20  A    between atoms: C_22  and  O_28 
REMARK   21  A    between atoms: C_23  and  O_27 
ROOT
HETATM    1  C   UNL     1     -21.004  -4.520  -7.681  1.00  0.00     0.258 C 
HETATM    2  O   UNL     1     -21.402  -3.489  -7.150  1.00  0.00    -0.265 OA
ENDROOT
BRANCH   1   3
HETATM    3  C   UNL     1     -20.433  -5.710  -6.942  1.00  0.00     0.111 C 
BRANCH   3   4
HETATM    4  C   UNL     1     -20.792  -5.618  -5.461  1.00  0.00     0.010 C 
BRANCH   4   5
HETATM    5  C   UNL     1     -21.758  -6.695  -5.015  1.00  0.00     0.000 C 
BRANCH   5   6
HETATM    6  C   UNL     1     -21.391  -7.166  -3.612  1.00  0.00     0.000 C 
BRANCH   6   7
HETATM    7  C   UNL     1     -21.631  -6.055  -2.603  1.00  0.00     0.000 C 
BRANCH   7   8
HETATM    8  C   UNL     1     -22.251  -6.617  -1.333  1.00  0.00     0.000 C 
BRANCH   8   9
HETATM    9  C   UNL     1     -21.397  -7.752  -0.795  1.00  0.00     0.000 C 
BRANCH   9  10
HETATM   10  C   UNL     1     -21.937  -8.221   0.543  1.00  0.00     0.000 C 
BRANCH  10  11
HETATM   11  C   UNL     1     -23.281  -8.902   0.349  1.00  0.00     0.000 C 
BRANCH  11  12
HETATM   12  C   UNL     1     -23.112 -10.148  -0.503  1.00  0.00     0.000 C 
BRANCH  12  13
HETATM   13  C   UNL     1     -24.094 -11.218  -0.061  1.00  0.00     0.000 C 
BRANCH  13  14
HETATM   14  C   UNL     1     -23.346 -12.474   0.355  1.00  0.00     0.000 C 
BRANCH  14  15
HETATM   15  C   UNL     1     -21.918 -12.127   0.748  1.00  0.00    -0.000 C 
BRANCH  15  16
HETATM   16  C   UNL     1     -20.933 -13.073   0.075  1.00  0.00    -0.005 C 
HETATM   17  C   UNL     1     -19.963 -12.299  -0.794  1.00  0.00     0.005 C 
ENDBRANCH  15  16
ENDBRANCH  14  15
ENDBRANCH  13  14
ENDBRANCH  12  13
ENDBRANCH  11  12
ENDBRANCH  10  11
ENDBRANCH   9  10
ENDBRANCH   8   9
ENDBRANCH   7   8
ENDBRANCH   6   7
ENDBRANCH   5   6
ENDBRANCH   4   5
ENDBRANCH   3   4
ENDBRANCH   1   3
BRANCH   1  18
HETATM   18  O   UNL     1     -21.111  -4.763  -9.023  1.00  0.00    -0.319 OA
BRANCH  18  19
HETATM   19  C   UNL     1     -22.407  -4.510  -9.596  1.00  0.00     0.213 C 
BRANCH  19  20
HETATM   20  C   UNL     1     -22.316  -4.346 -11.123  1.00  0.00     0.178 C 
BRANCH  20  21
HETATM   21  C   UNL     1     -22.925  -3.014 -11.629  1.00  0.00     0.222 C 
HETATM   22  C   UNL     1     -24.394  -3.109 -11.821  1.00  0.00     0.114 C 
HETATM   23  C   UNL     1     -24.712  -3.010 -13.132  1.00  0.00     0.173 C 
HETATM   24  C   UNL     1     -23.438  -2.785 -13.859  1.00  0.00     0.320 C 
HETATM   25  O   UNL     1     -23.306  -2.691 -15.066  1.00  0.00    -0.257 OA
HETATM   26  O   UNL     1     -22.437  -2.649 -12.932  1.00  0.00    -0.301 OA
BRANCH  22  27
HETATM   27  O   UNL     1     -25.268  -3.248 -10.769  1.00  0.00    -0.359 OA
HETATM   28  H   UNL     1     -24.762  -3.026  -9.955  1.00  0.00     0.217 HD
ENDBRANCH  22  27
BRANCH  23  29
HETATM   29  O   UNL     1     -25.939  -3.037 -13.714  1.00  0.00    -0.353 OA
HETATM   30  H   UNL     1     -26.492  -2.378 -13.260  1.00  0.00     0.218 HD
ENDBRANCH  23  29
ENDBRANCH  20  21
BRANCH  20  31
HETATM   31  O   UNL     1     -20.973  -4.470 -11.600  1.00  0.00    -0.390 OA
HETATM   32  H   UNL     1     -20.937  -5.208 -12.236  1.00  0.00     0.210 HD
ENDBRANCH  20  31
ENDBRANCH  19  20
ENDBRANCH  18  19
ENDBRANCH   1  18
TORSDOF 21
BEGIN_RES ARG D 557
REMARK  4 active torsions:
REMARK  status: ('A' for Active; 'I' for Inactive)
REMARK    1  A    between atoms: CA   and  CB  
REMARK    2  A    between atoms: CB   and  CG  
REMARK    3  A    between atoms: CG   and  CD  
REMARK    4  A    between atoms: CD   and  NE  
REMARK       I    between atoms: NE   and  CZ  
REMARK       I    between atoms: CZ   and  NH1 
REMARK       I    between atoms: CZ   and  NH2 
ROOT
ATOM      1  CA  ARG D 557     -26.217   2.705 -17.014  1.00 35.49     0.159 C 
ENDROOT
BRANCH   1   2
ATOM      2  CB  ARG D 557     -26.789   1.319 -17.183  1.00 35.49     0.034 C 
BRANCH   2   3
ATOM      3  CG  ARG D 557     -28.167   1.229 -17.681  1.00 35.49     0.027 C 
BRANCH   3   4
ATOM      4  CD  ARG D 557     -28.955   0.192 -16.976  1.00 35.49     0.116 C 
BRANCH   4   5
ATOM      5  NE  ARG D 557     -28.142  -0.922 -16.567  1.00 35.49    -0.212 N 
ATOM      6  CZ  ARG D 557     -28.398  -2.189 -16.806  1.00 35.49     0.666 C 
ATOM      7  NH1 ARG D 557     -29.475  -2.583 -17.459  1.00 35.49    -0.235 N 
ATOM      8  NH2 ARG D 557     -27.537  -3.067 -16.379  1.00 35.49    -0.235 N 
ATOM      9  HH  ARG D 557     -30.054  -2.023 -17.751  1.00 35.49     0.174 HD
ATOM     10  HH  ARG D 557     -29.588  -3.423 -17.588  1.00 35.49     0.174 HD
ATOM     11  HH  ARG D 557     -26.847  -2.782 -15.967  1.00 35.49     0.174 HD
ATOM     12  HH  ARG D 557     -27.666  -3.893 -16.518  1.00 35.49     0.174 HD
ATOM     13  HE  ARG D 557     -27.464  -0.764 -16.077  1.00 35.49     0.178 HD
ENDBRANCH   4   5
ENDBRANCH   3   4
ENDBRANCH   2   3
ENDBRANCH   1   2
END_RES ARG D 557
BEGIN_RES GLU D 570
REMARK  3 active torsions:
REMARK  status: ('A' for Active; 'I' for Inactive)
REMARK    5  A    between atoms: CA   and  CB  
REMARK    6  A    between atoms: CB   and  CG  
REMARK    7  A    between atoms: CG   and  CD  
ROOT
ATOM     14  CA  GLU D 570     -18.033  -6.348 -13.375  1.00 32.92     0.160 C 
ENDROOT
BRANCH  14  15
ATOM     15  CB  GLU D 570     -19.500  -6.345 -13.794  1.00 32.92     0.043 C 
BRANCH  15  16
ATOM     16  CG  GLU D 570     -19.805  -6.046 -15.217  1.00 32.92     0.100 C 
BRANCH  16  17
ATOM     17  CD  GLU D 570     -21.238  -5.620 -15.436  1.00 32.92     0.185 C 
ATOM     18  OE1 GLU D 570     -22.084  -5.867 -14.555  1.00 32.92    -0.647 OA
ATOM     19  OE2 GLU D 570     -21.521  -5.048 -16.507  1.00 32.92    -0.647 OA
ENDBRANCH  16  17
ENDBRANCH  15  16
ENDBRANCH  14  15
END_RES GLU D 570
ENDMDL
MODEL 9
REMARK VINA RESULT:      -7.5      2.489      5.044
REMARK  21 active torsions:
REMARK  status: ('A' for Active; 'I' for Inactive)
REMARK    1  A    between atoms: C_2  and  C_3 
REMARK    2  A    between atoms: C_3  and  C_4 
REMARK    3  A    between atoms: C_4  and  C_5 
REMARK    4  A    between atoms: C_5  and  C_6 
REMARK    5  A    between atoms: C_6  and  C_7 
REMARK    6  A    between atoms: C_7  and  C_8 
REMARK    7  A    between atoms: C_8  and  C_9 
REMARK    8  A    between atoms: C_9  and  C_10 
REMARK    9  A    between atoms: C_10  and  C_11 
REMARK   10  A    between atoms: C_11  and  C_12 
REMARK   11  A    between atoms: C_12  and  C_13 
REMARK   12  A    between atoms: C_13  and  C_14 
REMARK   13  A    between atoms: C_14  and  C_15 
REMARK   14  A    between atoms: C_15  and  C_16 
REMARK   15  A    between atoms: C_16  and  O_18 
REMARK   16  A    between atoms: O_18  and  C_19 
REMARK   17  A    between atoms: C_19  and  C_20 
REMARK   18  A    between atoms: C_20  and  C_21 
REMARK   19  A    between atoms: C_20  and  O_29 
REMARK   20  A    between atoms: C_22  and  O_28 
REMARK   21  A    between atoms: C_23  and  O_27 
ROOT
HETATM    1  C   UNL     1     -21.871  -6.350  -5.283  1.00  0.00     0.258 C 
HETATM    2  O   UNL     1     -23.060  -6.068  -5.177  1.00  0.00    -0.265 OA
ENDROOT
BRANCH   1   3
HETATM    3  C   UNL     1     -20.970  -6.749  -4.135  1.00  0.00     0.111 C 
BRANCH   3   4
HETATM    4  C   UNL     1     -21.592  -6.306  -2.814  1.00  0.00     0.010 C 
BRANCH   4   5
HETATM    5  C   UNL     1     -21.358  -7.289  -1.686  1.00  0.00     0.000 C 
BRANCH   5   6
HETATM    6  C   UNL     1     -22.372  -7.047  -0.575  1.00  0.00     0.000 C 
BRANCH   6   7
HETATM    7  C   UNL     1     -22.309  -8.168   0.451  1.00  0.00     0.000 C 
BRANCH   7   8
HETATM    8  C   UNL     1     -23.603  -8.966   0.444  1.00  0.00     0.000 C 
BRANCH   8   9
HETATM    9  C   UNL     1     -23.416 -10.253  -0.340  1.00  0.00     0.000 C 
BRANCH   9  10
HETATM   10  C   UNL     1     -22.016 -10.796  -0.124  1.00  0.00     0.000 C 
BRANCH  10  11
HETATM   11  C   UNL     1     -21.387 -11.155  -1.459  1.00  0.00     0.000 C 
BRANCH  11  12
HETATM   12  C   UNL     1     -22.322 -10.770  -2.592  1.00  0.00     0.000 C 
BRANCH  12  13
HETATM   13  C   UNL     1     -21.519 -10.385  -3.821  1.00  0.00     0.000 C 
BRANCH  13  14
HETATM   14  C   UNL     1     -20.118 -10.967  -3.734  1.00  0.00     0.000 C 
BRANCH  14  15
HETATM   15  C   UNL     1     -19.089  -9.914  -4.116  1.00  0.00    -0.000 C 
BRANCH  15  16
HETATM   16  C   UNL     1     -18.456  -9.308  -2.871  1.00  0.00    -0.005 C 
HETATM   17  C   UNL     1     -16.955  -9.518  -2.883  1.00  0.00     0.005 C 
ENDBRANCH  15  16
ENDBRANCH  14  15
ENDBRANCH  13  14
ENDBRANCH  12  13
ENDBRANCH  11  12
ENDBRANCH  10  11
ENDBRANCH   9  10
ENDBRANCH   8   9
ENDBRANCH   7   8
ENDBRANCH   6   7
ENDBRANCH   5   6
ENDBRANCH   4   5
ENDBRANCH   3   4
ENDBRANCH   1   3
BRANCH   1  18
HETATM   18  O   UNL     1     -21.223  -6.426  -6.485  1.00  0.00    -0.319 OA
BRANCH  18  19
HETATM   19  C   UNL     1     -20.748  -5.174  -7.013  1.00  0.00     0.213 C 
BRANCH  19  20
HETATM   20  C   UNL     1     -21.139  -5.011  -8.492  1.00  0.00     0.178 C 
BRANCH  20  21
HETATM   21  C   UNL     1     -22.014  -3.759  -8.756  1.00  0.00     0.222 C 
HETATM   22  C   UNL     1     -23.446  -4.005  -8.453  1.00  0.00     0.114 C 
HETATM   23  C   UNL     1     -24.187  -3.971  -9.584  1.00  0.00     0.173 C 
HETATM   24  C   UNL     1     -23.253  -3.638 -10.689  1.00  0.00     0.320 C 
HETATM   25  O   UNL     1     -23.536  -3.560 -11.870  1.00  0.00    -0.257 OA
HETATM   26  O   UNL     1     -22.023  -3.379 -10.143  1.00  0.00    -0.301 OA
BRANCH  22  27
HETATM   27  O   UNL     1     -23.906  -4.205  -7.173  1.00  0.00    -0.359 OA
HETATM   28  H   UNL     1     -23.728  -3.372  -6.679  1.00  0.00     0.217 HD
ENDBRANCH  22  27
BRANCH  23  29
HETATM   29  O   UNL     1     -25.528  -4.134  -9.729  1.00  0.00    -0.353 OA
HETATM   30  H   UNL     1     -25.931  -4.031  -8.849  1.00  0.00     0.218 HD
ENDBRANCH  23  29
ENDBRANCH  20  21
BRANCH  20  31
HETATM   31  O   UNL     1     -19.997  -4.986  -9.353  1.00  0.00    -0.390 OA
HETATM   32  H   UNL     1     -19.229  -5.328  -8.858  1.00  0.00     0.210 HD
ENDBRANCH  20  31
ENDBRANCH  19  20
ENDBRANCH  18  19
ENDBRANCH   1  18
TORSDOF 21
BEGIN_RES ARG D 557
REMARK  4 active torsions:
REMARK  status: ('A' for Active; 'I' for Inactive)
REMARK    1  A    between atoms: CA   and  CB  
REMARK    2  A    between atoms: CB   and  CG  
REMARK    3  A    between atoms: CG   and  CD  
REMARK    4  A    between atoms: CD   and  NE  
REMARK       I    between atoms: NE   and  CZ  
REMARK       I    between atoms: CZ   and  NH1 
REMARK       I    between atoms: CZ   and  NH2 
ROOT
ATOM      1  CA  ARG D 557     -26.217   2.705 -17.014  1.00 35.49     0.159 C 
ENDROOT
BRANCH   1   2
ATOM      2  CB  ARG D 557     -26.789   1.319 -17.183  1.00 35.49     0.034 C 
BRANCH   2   3
ATOM      3  CG  ARG D 557     -25.860   0.195 -17.009  1.00 35.49     0.027 C 
BRANCH   3   4
ATOM      4  CD  ARG D 557     -25.352   0.092 -15.622  1.00 35.49     0.116 C 
BRANCH   4   5
ATOM      5  NE  ARG D 557     -24.185  -0.745 -15.533  1.00 35.49    -0.212 N 
ATOM      6  CZ  ARG D 557     -24.021  -1.747 -14.698  1.00 35.49     0.666 C 
ATOM      7  NH1 ARG D 557     -24.938  -2.091 -13.814  1.00 35.49    -0.235 N 
ATOM      8  NH2 ARG D 557     -22.904  -2.412 -14.772  1.00 35.49    -0.235 N 
ATOM      9  HH  ARG D 557     -25.681  -1.668 -13.749  1.00 35.49     0.174 HD
ATOM     10  HH  ARG D 557     -24.776  -2.755 -13.297  1.00 35.49     0.174 HD
ATOM     11  HH  ARG D 557     -22.333  -2.172 -15.358  1.00 35.49     0.174 HD
ATOM     12  HH  ARG D 557     -22.764  -3.067 -14.252  1.00 35.49     0.174 HD
ATOM     13  HE  ARG D 557     -23.515  -0.549 -16.018  1.00 35.49     0.178 HD
ENDBRANCH   4   5
ENDBRANCH   3   4
ENDBRANCH   2   3
ENDBRANCH   1   2
END_RES ARG D 557
BEGIN_RES GLU D 570
REMARK  3 active torsions:
REMARK  status: ('A' for Active; 'I' for Inactive)
REMARK    5  A    between atoms: CA   and  CB  
REMARK    6  A    between atoms: CB   and  CG  
REMARK    7  A    between atoms: CG   and  CD  
ROOT
ATOM     14  CA  GLU D 570     -18.033  -6.348 -13.375  1.00 32.92     0.160 C 
ENDROOT
BRANCH  14  15
ATOM     15  CB  GLU D 570     -19.500  -6.345 -13.794  1.00 32.92     0.043 C 
BRANCH  15  16
ATOM     16  CG  GLU D 570     -19.812  -5.953 -15.193  1.00 32.92     0.100 C 
BRANCH  16  17
ATOM     17  CD  GLU D 570     -21.190  -5.353 -15.344  1.00 32.92     0.185 C 
ATOM     18  OE1 GLU D 570     -21.531  -4.889 -16.449  1.00 32.92    -0.647 OA
ATOM     19  OE2 GLU D 570     -21.931  -5.331 -14.341  1.00 32.92    -0.647 OA
ENDBRANCH  16  17
ENDBRANCH  15  16
ENDBRANCH  14  15
END_RES GLU D 570
ENDMDL
