MODEL 1
REMARK VINA RESULT:      -8.2      0.000      0.000
REMARK  8 active torsions:
REMARK  status: ('A' for Active; 'I' for Inactive)
REMARK    1  A    between atoms: N_2  and  C_4 
REMARK    2  A    between atoms: C_7  and  C_10 
REMARK    3  A    between atoms: C_10  and  C_20 
REMARK    4  A    between atoms: C_24  and  S_35 
REMARK    5  A    between atoms: C_28  and  S_31 
REMARK    6  A    between atoms: C_29  and  O_30 
REMARK    7  A    between atoms: S_31  and  O_34 
REMARK    8  A    between atoms: S_35  and  O_38 
ROOT
HETATM    1  C   UNL     1     -20.981  -9.488  -4.014  1.00  0.00     0.022 A 
HETATM    2  C   UNL     1     -21.556 -10.705  -4.510  1.00  0.00    -0.012 A 
HETATM    3  C   UNL     1     -21.196 -11.302  -5.746  1.00  0.00     0.015 A 
HETATM    4  C   UNL     1     -21.805 -12.468  -6.210  1.00  0.00     0.026 A 
HETATM    5  C   UNL     1     -22.785 -13.072  -5.434  1.00  0.00     0.073 A 
HETATM    6  C   UNL     1     -23.159 -12.529  -4.204  1.00  0.00     0.037 A 
HETATM    7  C   UNL     1     -22.542 -11.362  -3.731  1.00  0.00    -0.022 A 
HETATM    8  C   UNL     1     -22.874 -10.873  -2.466  1.00  0.00     0.040 A 
HETATM    9  C   UNL     1     -22.246  -9.731  -1.966  1.00  0.00     0.107 A 
HETATM   10  C   UNL     1     -21.362  -8.993  -2.752  1.00  0.00     0.101 A 
ENDROOT
BRANCH   1  11
HETATM   11  C   UNL     1     -19.892  -8.797  -4.805  1.00  0.00    -0.002 C 
HETATM   12  C   UNL     1     -20.224  -7.580  -5.349  1.00  0.00    -0.024 C 
HETATM   13  C   UNL     1     -21.591  -7.037  -5.309  1.00  0.00     0.014 C 
HETATM   14  C   UNL     1     -19.243  -6.661  -5.925  1.00  0.00     0.014 C 
HETATM   15  C   UNL     1     -22.000  -6.118  -6.199  1.00  0.00     0.030 C 
HETATM   16  C   UNL     1     -21.042  -5.596  -7.230  1.00  0.00     0.029 C 
HETATM   17  N   UNL     1     -21.417  -5.027  -8.343  1.00  0.00    -0.390 N 
HETATM   18  C   UNL     1     -19.600  -5.737  -6.830  1.00  0.00     0.030 C 
HETATM   19  C   UNL     1     -20.462  -4.583  -9.414  1.00  0.00     0.149 C 
HETATM   20  C   UNL     1     -22.845  -4.770  -8.728  1.00  0.00     0.149 C 
BRANCH  11  21
HETATM   21  C   UNL     1     -18.514  -9.427  -4.903  1.00  0.00    -0.024 A 
HETATM   22  C   UNL     1     -18.001  -9.846  -6.138  1.00  0.00     0.014 A 
HETATM   23  C   UNL     1     -16.751 -10.480  -6.250  1.00  0.00     0.030 A 
HETATM   24  C   UNL     1     -15.933 -10.726  -5.141  1.00  0.00     0.029 A 
HETATM   25  C   UNL     1     -16.426 -10.261  -3.918  1.00  0.00     0.030 A 
HETATM   26  C   UNL     1     -17.657  -9.586  -3.808  1.00  0.00     0.014 A 
BRANCH  24  27
HETATM   27  N   UNL     1     -14.719 -11.400  -5.259  1.00  0.00    -0.390 N 
HETATM   28  C   UNL     1     -14.119 -11.970  -4.052  1.00  0.00     0.149 C 
HETATM   29  C   UNL     1     -14.326 -12.004  -6.528  1.00  0.00     0.149 C 
ENDBRANCH  24  27
ENDBRANCH  11  21
ENDBRANCH   1  11
BRANCH  10  30
HETATM   30  O   UNL     1     -20.797  -7.823  -2.311  1.00  0.00    -0.358 OA
HETATM   31  H   UNL     1     -21.496  -7.222  -1.971  1.00  0.00     0.217 HD
ENDBRANCH  10  30
BRANCH   9  32
HETATM   32  S   UNL     1     -22.466  -9.319  -0.265  1.00  0.00     0.132 S 
HETATM   33  O   UNL     1     -23.678  -9.979   0.168  1.00  0.00    -0.597 OA
HETATM   34  O   UNL     1     -21.191  -9.548   0.378  1.00  0.00    -0.597 OA
BRANCH  32  35
HETATM   35  O   UNL     1     -22.789  -7.741  -0.233  1.00  0.00    -0.292 OA
HETATM   36  H   UNL     1     -22.690  -7.428   0.693  1.00  0.00     0.232 HD
ENDBRANCH  32  35
ENDBRANCH   9  32
BRANCH   5  37
HETATM   37  S   UNL     1     -23.606 -14.527  -6.019  1.00  0.00     0.129 S 
HETATM   38  O   UNL     1     -24.962 -14.157  -6.369  1.00  0.00    -0.598 OA
HETATM   39  O   UNL     1     -22.710 -15.178  -6.939  1.00  0.00    -0.598 OA
BRANCH  37  40
HETATM   40  O   UNL     1     -23.745 -15.442  -4.698  1.00  0.00    -0.292 OA
HETATM   41  H   UNL     1     -24.509 -16.045  -4.833  1.00  0.00     0.232 HD
ENDBRANCH  37  40
ENDBRANCH   5  37
TORSDOF 8
BEGIN_RES ARG D 557
REMARK  4 active torsions:
REMARK  status: ('A' for Active; 'I' for Inactive)
REMARK    1  A    between atoms: CA   and  CB  
REMARK    2  A    between atoms: CB   and  CG  
REMARK    3  A    between atoms: CG   and  CD  
REMARK    4  A    between atoms: CD   and  NE  
REMARK       I    between atoms: NE   and  CZ  
REMARK       I    between atoms: CZ   and  NH1 
REMARK       I    between atoms: CZ   and  NH2 
ROOT
ATOM      1  CA  ARG D 557     -26.217   2.705 -17.014  1.00 35.49     0.159 C 
ENDROOT
BRANCH   1   2
ATOM      2  CB  ARG D 557     -26.789   1.319 -17.183  1.00 35.49     0.034 C 
BRANCH   2   3
ATOM      3  CG  ARG D 557     -25.835   0.203 -17.161  1.00 35.49     0.027 C 
BRANCH   3   4
ATOM      4  CD  ARG D 557     -24.749   0.409 -16.176  1.00 35.49     0.116 C 
BRANCH   4   5
ATOM      5  NE  ARG D 557     -24.896  -0.439 -15.022  1.00 35.49    -0.212 N 
ATOM      6  CZ  ARG D 557     -24.077  -1.404 -14.669  1.00 35.49     0.666 C 
ATOM      7  NH1 ARG D 557     -23.002  -1.715 -15.370  1.00 35.49    -0.235 N 
ATOM      8  NH2 ARG D 557     -24.354  -2.058 -13.578  1.00 35.49    -0.235 N 
ATOM      9  HH  ARG D 557     -22.799  -1.296 -16.090  1.00 35.49     0.174 HD
ATOM     10  HH  ARG D 557     -22.503  -2.352 -15.090  1.00 35.49     0.174 HD
ATOM     11  HH  ARG D 557     -25.051  -1.831 -13.142  1.00 35.49     0.174 HD
ATOM     12  HH  ARG D 557     -23.847  -2.685 -13.316  1.00 35.49     0.174 HD
ATOM     13  HE  ARG D 557     -25.600  -0.356 -14.553  1.00 35.49     0.178 HD
ENDBRANCH   4   5
ENDBRANCH   3   4
ENDBRANCH   2   3
ENDBRANCH   1   2
END_RES ARG D 557
BEGIN_RES GLU D 570
REMARK  3 active torsions:
REMARK  status: ('A' for Active; 'I' for Inactive)
REMARK    5  A    between atoms: CA   and  CB  
REMARK    6  A    between atoms: CB   and  CG  
REMARK    7  A    between atoms: CG   and  CD  
ROOT
ATOM     14  CA  GLU D 570     -18.033  -6.348 -13.375  1.00 32.92     0.160 C 
ENDROOT
BRANCH  14  15
ATOM     15  CB  GLU D 570     -19.500  -6.345 -13.794  1.00 32.92     0.043 C 
BRANCH  15  16
ATOM     16  CG  GLU D 570     -20.441  -5.526 -12.987  1.00 32.92     0.100 C 
BRANCH  16  17
ATOM     17  CD  GLU D 570     -21.712  -5.186 -13.729  1.00 32.92     0.185 C 
ATOM     18  OE1 GLU D 570     -22.132  -5.970 -14.602  1.00 32.92    -0.647 OA
ATOM     19  OE2 GLU D 570     -22.287  -4.116 -13.445  1.00 32.92    -0.647 OA
ENDBRANCH  16  17
ENDBRANCH  15  16
ENDBRANCH  14  15
END_RES GLU D 570
ENDMDL
MODEL 2
REMARK VINA RESULT:      -7.9      1.447      1.709
REMARK  8 active torsions:
REMARK  status: ('A' for Active; 'I' for Inactive)
REMARK    1  A    between atoms: N_2  and  C_4 
REMARK    2  A    between atoms: C_7  and  C_10 
REMARK    3  A    between atoms: C_10  and  C_20 
REMARK    4  A    between atoms: C_24  and  S_35 
REMARK    5  A    between atoms: C_28  and  S_31 
REMARK    6  A    between atoms: C_29  and  O_30 
REMARK    7  A    between atoms: S_31  and  O_34 
REMARK    8  A    between atoms: S_35  and  O_38 
ROOT
HETATM    1  C   UNL     1     -20.989  -9.472  -4.018  1.00  0.00     0.022 A 
HETATM    2  C   UNL     1     -21.562 -10.692  -4.510  1.00  0.00    -0.012 A 
HETATM    3  C   UNL     1     -21.202 -11.292  -5.745  1.00  0.00     0.015 A 
HETATM    4  C   UNL     1     -21.808 -12.461  -6.205  1.00  0.00     0.026 A 
HETATM    5  C   UNL     1     -22.785 -13.065  -5.426  1.00  0.00     0.073 A 
HETATM    6  C   UNL     1     -23.159 -12.520  -4.197  1.00  0.00     0.037 A 
HETATM    7  C   UNL     1     -22.545 -11.350  -3.728  1.00  0.00    -0.022 A 
HETATM    8  C   UNL     1     -22.876 -10.858  -2.464  1.00  0.00     0.040 A 
HETATM    9  C   UNL     1     -22.250  -9.713  -1.967  1.00  0.00     0.107 A 
HETATM   10  C   UNL     1     -21.369  -8.975  -2.757  1.00  0.00     0.101 A 
ENDROOT
BRANCH   1  11
HETATM   11  C   UNL     1     -19.903  -8.780  -4.813  1.00  0.00    -0.002 C 
HETATM   12  C   UNL     1     -20.237  -7.563  -5.355  1.00  0.00    -0.024 C 
HETATM   13  C   UNL     1     -21.604  -7.020  -5.309  1.00  0.00     0.014 C 
HETATM   14  C   UNL     1     -19.259  -6.644  -5.934  1.00  0.00     0.014 C 
HETATM   15  C   UNL     1     -22.017  -6.101  -6.198  1.00  0.00     0.030 C 
HETATM   16  C   UNL     1     -21.063  -5.578  -7.231  1.00  0.00     0.029 C 
HETATM   17  N   UNL     1     -21.442  -5.009  -8.343  1.00  0.00    -0.390 N 
HETATM   18  C   UNL     1     -19.619  -5.719  -6.837  1.00  0.00     0.030 C 
HETATM   19  C   UNL     1     -20.491  -4.564  -9.417  1.00  0.00     0.149 C 
HETATM   20  C   UNL     1     -22.871  -4.752  -8.723  1.00  0.00     0.149 C 
BRANCH  11  21
HETATM   21  C   UNL     1     -18.525  -9.410  -4.917  1.00  0.00    -0.024 A 
HETATM   22  C   UNL     1     -18.016  -9.826  -6.154  1.00  0.00     0.014 A 
HETATM   23  C   UNL     1     -16.766 -10.460  -6.271  1.00  0.00     0.030 A 
HETATM   24  C   UNL     1     -15.944 -10.708  -5.165  1.00  0.00     0.029 A 
HETATM   25  C   UNL     1     -16.434 -10.246  -3.939  1.00  0.00     0.030 A 
HETATM   26  C   UNL     1     -17.665  -9.573  -3.825  1.00  0.00     0.014 A 
BRANCH  24  27
HETATM   27  N   UNL     1     -14.731 -11.382  -5.288  1.00  0.00    -0.390 N 
HETATM   28  C   UNL     1     -14.121 -11.943  -4.082  1.00  0.00     0.149 C 
HETATM   29  C   UNL     1     -14.348 -11.994  -6.556  1.00  0.00     0.149 C 
ENDBRANCH  24  27
ENDBRANCH  11  21
ENDBRANCH   1  11
BRANCH  10  30
HETATM   30  O   UNL     1     -20.807  -7.802  -2.320  1.00  0.00    -0.358 OA
HETATM   31  H   UNL     1     -19.888  -7.966  -2.012  1.00  0.00     0.217 HD
ENDBRANCH  10  30
BRANCH   9  32
HETATM   32  S   UNL     1     -22.468  -9.297  -0.267  1.00  0.00     0.132 S 
HETATM   33  O   UNL     1     -23.672  -9.967   0.172  1.00  0.00    -0.597 OA
HETATM   34  O   UNL     1     -21.189  -9.511   0.372  1.00  0.00    -0.597 OA
BRANCH  32  35
HETATM   35  O   UNL     1     -22.807  -7.722  -0.240  1.00  0.00    -0.292 OA
HETATM   36  H   UNL     1     -23.363  -7.543   0.550  1.00  0.00     0.232 HD
ENDBRANCH  32  35
ENDBRANCH   9  32
BRANCH   5  37
HETATM   37  S   UNL     1     -23.603 -14.524  -6.005  1.00  0.00     0.129 S 
HETATM   38  O   UNL     1     -24.953 -14.153  -6.378  1.00  0.00    -0.598 OA
HETATM   39  O   UNL     1     -22.698 -15.188  -6.907  1.00  0.00    -0.598 OA
BRANCH  37  40
HETATM   40  O   UNL     1     -23.763 -15.423  -4.677  1.00  0.00    -0.292 OA
HETATM   41  H   UNL     1     -23.654 -16.364  -4.938  1.00  0.00     0.232 HD
ENDBRANCH  37  40
ENDBRANCH   5  37
TORSDOF 8
BEGIN_RES ARG D 557
REMARK  4 active torsions:
REMARK  status: ('A' for Active; 'I' for Inactive)
REMARK    1  A    between atoms: CA   and  CB  
REMARK    2  A    between atoms: CB   and  CG  
REMARK    3  A    between atoms: CG   and  CD  
REMARK    4  A    between atoms: CD   and  NE  
REMARK       I    between atoms: NE   and  CZ  
REMARK       I    between atoms: CZ   and  NH1 
REMARK       I    between atoms: CZ   and  NH2 
ROOT
ATOM      1  CA  ARG D 557     -26.217   2.705 -17.014  1.00 35.49     0.159 C 
ENDROOT
BRANCH   1   2
ATOM      2  CB  ARG D 557     -26.789   1.319 -17.183  1.00 35.49     0.034 C 
BRANCH   2   3
ATOM      3  CG  ARG D 557     -28.237   1.224 -17.405  1.00 35.49     0.027 C 
BRANCH   3   4
ATOM      4  CD  ARG D 557     -28.891   0.283 -16.468  1.00 35.49     0.116 C 
BRANCH   4   5
ATOM      5  NE  ARG D 557     -29.283  -0.942 -17.115  1.00 35.49    -0.212 N 
ATOM      6  CZ  ARG D 557     -28.654  -2.092 -17.027  1.00 35.49     0.666 C 
ATOM      7  NH1 ARG D 557     -27.548  -2.243 -16.321  1.00 35.49    -0.235 N 
ATOM      8  NH2 ARG D 557     -29.164  -3.106 -17.664  1.00 35.49    -0.235 N 
ATOM      9  HH  ARG D 557     -27.196  -1.591 -15.892  1.00 35.49     0.174 HD
ATOM     10  HH  ARG D 557     -27.183  -3.018 -16.298  1.00 35.49     0.174 HD
ATOM     11  HH  ARG D 557     -29.882  -2.980 -18.106  1.00 35.49     0.174 HD
ATOM     12  HH  ARG D 557     -28.788  -3.865 -17.628  1.00 35.49     0.174 HD
ATOM     13  HE  ARG D 557     -29.944  -0.917 -17.649  1.00 35.49     0.178 HD
ENDBRANCH   4   5
ENDBRANCH   3   4
ENDBRANCH   2   3
ENDBRANCH   1   2
END_RES ARG D 557
BEGIN_RES GLU D 570
REMARK  3 active torsions:
REMARK  status: ('A' for Active; 'I' for Inactive)
REMARK    5  A    between atoms: CA   and  CB  
REMARK    6  A    between atoms: CB   and  CG  
REMARK    7  A    between atoms: CG   and  CD  
ROOT
ATOM     14  CA  GLU D 570     -18.033  -6.348 -13.375  1.00 32.92     0.160 C 
ENDROOT
BRANCH  14  15
ATOM     15  CB  GLU D 570     -19.500  -6.345 -13.794  1.00 32.92     0.043 C 
BRANCH  15  16
ATOM     16  CG  GLU D 570     -20.447  -5.555 -12.965  1.00 32.92     0.100 C 
BRANCH  16  17
ATOM     17  CD  GLU D 570     -21.704  -5.171 -13.711  1.00 32.92     0.185 C 
ATOM     18  OE1 GLU D 570     -21.653  -5.022 -14.947  1.00 32.92    -0.647 OA
ATOM     19  OE2 GLU D 570     -22.747  -5.000 -13.050  1.00 32.92    -0.647 OA
ENDBRANCH  16  17
ENDBRANCH  15  16
ENDBRANCH  14  15
END_RES GLU D 570
ENDMDL
MODEL 3
REMARK VINA RESULT:      -7.6      2.930      5.525
REMARK  8 active torsions:
REMARK  status: ('A' for Active; 'I' for Inactive)
REMARK    1  A    between atoms: N_2  and  C_4 
REMARK    2  A    between atoms: C_7  and  C_10 
REMARK    3  A    between atoms: C_10  and  C_20 
REMARK    4  A    between atoms: C_24  and  S_35 
REMARK    5  A    between atoms: C_28  and  S_31 
REMARK    6  A    between atoms: C_29  and  O_30 
REMARK    7  A    between atoms: S_31  and  O_34 
REMARK    8  A    between atoms: S_35  and  O_38 
ROOT
HETATM    1  C   UNL     1     -20.314  -9.917  -2.883  1.00  0.00     0.022 A 
HETATM    2  C   UNL     1     -20.593  -8.815  -3.758  1.00  0.00    -0.012 A 
HETATM    3  C   UNL     1     -20.363  -8.840  -5.159  1.00  0.00     0.015 A 
HETATM    4  C   UNL     1     -20.615  -7.735  -5.971  1.00  0.00     0.026 A 
HETATM    5  C   UNL     1     -21.119  -6.576  -5.395  1.00  0.00     0.073 A 
HETATM    6  C   UNL     1     -21.377  -6.512  -4.025  1.00  0.00     0.037 A 
HETATM    7  C   UNL     1     -21.133  -7.625  -3.208  1.00  0.00    -0.022 A 
HETATM    8  C   UNL     1     -21.467  -7.570  -1.854  1.00  0.00     0.040 A 
HETATM    9  C   UNL     1     -21.261  -8.680  -1.032  1.00  0.00     0.107 A 
HETATM   10  C   UNL     1     -20.622  -9.823  -1.512  1.00  0.00     0.101 A 
ENDROOT
BRANCH   1  11
HETATM   11  C   UNL     1     -19.784 -11.213  -3.456  1.00  0.00    -0.002 C 
HETATM   12  C   UNL     1     -20.730 -12.134  -3.834  1.00  0.00    -0.024 C 
HETATM   13  C   UNL     1     -22.165 -11.958  -3.564  1.00  0.00     0.014 C 
HETATM   14  C   UNL     1     -20.423 -13.324  -4.627  1.00  0.00     0.014 C 
HETATM   15  C   UNL     1     -22.998 -13.011  -3.511  1.00  0.00     0.030 C 
HETATM   16  C   UNL     1     -22.474 -14.393  -3.775  1.00  0.00     0.029 C 
HETATM   17  N   UNL     1     -23.075 -15.481  -3.378  1.00  0.00    -0.390 N 
HETATM   18  C   UNL     1     -21.214 -14.407  -4.596  1.00  0.00     0.030 C 
HETATM   19  C   UNL     1     -22.508 -16.860  -3.565  1.00  0.00     0.149 C 
HETATM   20  C   UNL     1     -24.388 -15.512  -2.652  1.00  0.00     0.149 C 
BRANCH  11  21
HETATM   21  C   UNL     1     -18.289 -11.402  -3.641  1.00  0.00    -0.024 A 
HETATM   22  C   UNL     1     -17.691 -11.229  -4.897  1.00  0.00     0.014 A 
HETATM   23  C   UNL     1     -16.318 -11.449  -5.106  1.00  0.00     0.030 A 
HETATM   24  C   UNL     1     -15.456 -11.844  -4.077  1.00  0.00     0.029 A 
HETATM   25  C   UNL     1     -16.047 -11.967  -2.815  1.00  0.00     0.030 A 
HETATM   26  C   UNL     1     -17.412 -11.705  -2.593  1.00  0.00     0.014 A 
BRANCH  24  27
HETATM   27  N   UNL     1     -14.108 -12.108  -4.308  1.00  0.00    -0.390 N 
HETATM   28  C   UNL     1     -13.357 -12.843  -3.290  1.00  0.00     0.149 C 
HETATM   29  C   UNL     1     -13.587 -12.167  -5.670  1.00  0.00     0.149 C 
ENDBRANCH  24  27
ENDBRANCH  11  21
ENDBRANCH   1  11
BRANCH  10  30
HETATM   30  O   UNL     1     -20.335 -10.892  -0.703  1.00  0.00    -0.358 OA
HETATM   31  H   UNL     1     -19.703 -10.620  -0.001  1.00  0.00     0.217 HD
ENDBRANCH  10  30
BRANCH   9  32
HETATM   32  S   UNL     1     -21.964  -8.679   0.586  1.00  0.00     0.132 S 
HETATM   33  O   UNL     1     -20.864  -8.815   1.515  1.00  0.00    -0.597 OA
HETATM   34  O   UNL     1     -22.880  -7.561   0.632  1.00  0.00    -0.597 OA
BRANCH  32  35
HETATM   35  O   UNL     1     -22.807 -10.048   0.700  1.00  0.00    -0.292 OA
HETATM   36  H   UNL     1     -23.463  -9.942   1.424  1.00  0.00     0.232 HD
ENDBRANCH  32  35
ENDBRANCH   9  32
BRANCH   5  37
HETATM   37  S   UNL     1     -21.407  -5.144  -6.394  1.00  0.00     0.129 S 
HETATM   38  O   UNL     1     -22.830  -4.874  -6.377  1.00  0.00    -0.598 OA
HETATM   39  O   UNL     1     -20.421  -4.163  -6.022  1.00  0.00    -0.598 OA
BRANCH  37  40
HETATM   40  O   UNL     1     -21.092  -5.654  -7.891  1.00  0.00    -0.292 OA
HETATM   41  H   UNL     1     -21.344  -6.602  -7.942  1.00  0.00     0.232 HD
ENDBRANCH  37  40
ENDBRANCH   5  37
TORSDOF 8
BEGIN_RES ARG D 557
REMARK  4 active torsions:
REMARK  status: ('A' for Active; 'I' for Inactive)
REMARK    1  A    between atoms: CA   and  CB  
REMARK    2  A    between atoms: CB   and  CG  
REMARK    3  A    between atoms: CG   and  CD  
REMARK    4  A    between atoms: CD   and  NE  
REMARK       I    between atoms: NE   and  CZ  
REMARK       I    between atoms: CZ   and  NH1 
REMARK       I    between atoms: CZ   and  NH2 
ROOT
ATOM      1  CA  ARG D 557     -26.217   2.705 -17.014  1.00 35.49     0.159 C 
ENDROOT
BRANCH   1   2
ATOM      2  CB  ARG D 557     -26.789   1.319 -17.183  1.00 35.49     0.034 C 
BRANCH   2   3
ATOM      3  CG  ARG D 557     -25.837   0.202 -17.148  1.00 35.49     0.027 C 
BRANCH   3   4
ATOM      4  CD  ARG D 557     -24.759   0.410 -16.154  1.00 35.49     0.116 C 
BRANCH   4   5
ATOM      5  NE  ARG D 557     -24.904  -0.450 -15.009  1.00 35.49    -0.212 N 
ATOM      6  CZ  ARG D 557     -24.082  -1.415 -14.665  1.00 35.49     0.666 C 
ATOM      7  NH1 ARG D 557     -23.006  -1.715 -15.368  1.00 35.49    -0.235 N 
ATOM      8  NH2 ARG D 557     -24.359  -2.082 -13.582  1.00 35.49    -0.235 N 
ATOM      9  HH  ARG D 557     -22.803  -1.288 -16.083  1.00 35.49     0.174 HD
ATOM     10  HH  ARG D 557     -22.505  -2.353 -15.094  1.00 35.49     0.174 HD
ATOM     11  HH  ARG D 557     -25.056  -1.861 -13.143  1.00 35.49     0.174 HD
ATOM     12  HH  ARG D 557     -23.849  -2.709 -13.325  1.00 35.49     0.174 HD
ATOM     13  HE  ARG D 557     -25.610  -0.374 -14.540  1.00 35.49     0.178 HD
ENDBRANCH   4   5
ENDBRANCH   3   4
ENDBRANCH   2   3
ENDBRANCH   1   2
END_RES ARG D 557
BEGIN_RES GLU D 570
REMARK  3 active torsions:
REMARK  status: ('A' for Active; 'I' for Inactive)
REMARK    5  A    between atoms: CA   and  CB  
REMARK    6  A    between atoms: CB   and  CG  
REMARK    7  A    between atoms: CG   and  CD  
ROOT
ATOM     14  CA  GLU D 570     -18.033  -6.348 -13.375  1.00 32.92     0.160 C 
ENDROOT
BRANCH  14  15
ATOM     15  CB  GLU D 570     -19.500  -6.345 -13.794  1.00 32.92     0.043 C 
BRANCH  15  16
ATOM     16  CG  GLU D 570     -20.440  -5.522 -12.990  1.00 32.92     0.100 C 
BRANCH  16  17
ATOM     17  CD  GLU D 570     -21.714  -5.189 -13.731  1.00 32.92     0.185 C 
ATOM     18  OE1 GLU D 570     -22.127  -5.972 -14.608  1.00 32.92    -0.647 OA
ATOM     19  OE2 GLU D 570     -22.296  -4.124 -13.443  1.00 32.92    -0.647 OA
ENDBRANCH  16  17
ENDBRANCH  15  16
ENDBRANCH  14  15
END_RES GLU D 570
ENDMDL
MODEL 4
REMARK VINA RESULT:      -7.5      2.814      6.354
REMARK  8 active torsions:
REMARK  status: ('A' for Active; 'I' for Inactive)
REMARK    1  A    between atoms: N_2  and  C_4 
REMARK    2  A    between atoms: C_7  and  C_10 
REMARK    3  A    between atoms: C_10  and  C_20 
REMARK    4  A    between atoms: C_24  and  S_35 
REMARK    5  A    between atoms: C_28  and  S_31 
REMARK    6  A    between atoms: C_29  and  O_30 
REMARK    7  A    between atoms: S_31  and  O_34 
REMARK    8  A    between atoms: S_35  and  O_38 
ROOT
HETATM    1  C   UNL     1     -20.871 -10.304  -2.955  1.00  0.00     0.022 A 
HETATM    2  C   UNL     1     -20.851  -9.166  -3.828  1.00  0.00    -0.012 A 
HETATM    3  C   UNL     1     -20.445  -9.220  -5.188  1.00  0.00     0.015 A 
HETATM    4  C   UNL     1     -20.406  -8.083  -5.995  1.00  0.00     0.026 A 
HETATM    5  C   UNL     1     -20.788  -6.862  -5.458  1.00  0.00     0.073 A 
HETATM    6  C   UNL     1     -21.210  -6.764  -4.131  1.00  0.00     0.037 A 
HETATM    7  C   UNL     1     -21.259  -7.907  -3.320  1.00  0.00    -0.022 A 
HETATM    8  C   UNL     1     -21.754  -7.806  -2.019  1.00  0.00     0.040 A 
HETATM    9  C   UNL     1     -21.841  -8.939  -1.208  1.00  0.00     0.107 A 
HETATM   10  C   UNL     1     -21.337 -10.168  -1.633  1.00  0.00     0.101 A 
ENDROOT
BRANCH   1  11
HETATM   11  C   UNL     1     -20.487 -11.666  -3.491  1.00  0.00    -0.002 C 
HETATM   12  C   UNL     1     -19.153 -11.985  -3.420  1.00  0.00    -0.024 C 
HETATM   13  C   UNL     1     -18.125 -11.021  -2.999  1.00  0.00     0.014 C 
HETATM   14  C   UNL     1     -18.634 -13.333  -3.652  1.00  0.00     0.014 C 
HETATM   15  C   UNL     1     -16.840 -11.173  -3.358  1.00  0.00     0.030 C 
HETATM   16  C   UNL     1     -16.425 -12.369  -4.166  1.00  0.00     0.029 C 
HETATM   17  N   UNL     1     -15.333 -12.416  -4.878  1.00  0.00    -0.390 N 
HETATM   18  C   UNL     1     -17.363 -13.536  -4.029  1.00  0.00     0.030 C 
HETATM   19  C   UNL     1     -14.961 -13.577  -5.755  1.00  0.00     0.149 C 
HETATM   20  C   UNL     1     -14.318 -11.313  -4.954  1.00  0.00     0.149 C 
BRANCH  11  21
HETATM   21  C   UNL     1     -21.563 -12.607  -4.002  1.00  0.00    -0.024 A 
HETATM   22  C   UNL     1     -22.127 -13.578  -3.164  1.00  0.00     0.014 A 
HETATM   23  C   UNL     1     -23.087 -14.496  -3.627  1.00  0.00     0.030 A 
HETATM   24  C   UNL     1     -23.549 -14.497  -4.948  1.00  0.00     0.029 A 
HETATM   25  C   UNL     1     -23.020 -13.494  -5.768  1.00  0.00     0.030 A 
HETATM   26  C   UNL     1     -22.092 -12.546  -5.297  1.00  0.00     0.014 A 
BRANCH  24  27
HETATM   27  N   UNL     1     -24.462 -15.444  -5.407  1.00  0.00    -0.390 N 
HETATM   28  C   UNL     1     -24.228 -16.062  -6.711  1.00  0.00     0.149 C 
HETATM   29  C   UNL     1     -25.280 -16.201  -4.465  1.00  0.00     0.149 C 
ENDBRANCH  24  27
ENDBRANCH  11  21
ENDBRANCH   1  11
BRANCH  10  30
HETATM   30  O   UNL     1     -21.336 -11.276  -0.823  1.00  0.00    -0.358 OA
HETATM   31  H   UNL     1     -20.594 -11.219  -0.181  1.00  0.00     0.217 HD
ENDBRANCH  10  30
BRANCH   9  32
HETATM   32  S   UNL     1     -22.740  -8.833   0.305  1.00  0.00     0.132 S 
HETATM   33  O   UNL     1     -23.765  -9.851   0.250  1.00  0.00    -0.597 OA
HETATM   34  O   UNL     1     -21.755  -8.785   1.363  1.00  0.00    -0.597 OA
BRANCH  32  35
HETATM   35  O   UNL     1     -23.519  -7.422   0.256  1.00  0.00    -0.292 OA
HETATM   36  H   UNL     1     -24.132  -7.386   1.023  1.00  0.00     0.232 HD
ENDBRANCH  32  35
ENDBRANCH   9  32
BRANCH   5  37
HETATM   37  S   UNL     1     -20.706  -5.395  -6.446  1.00  0.00     0.129 S 
HETATM   38  O   UNL     1     -22.065  -4.977  -6.725  1.00  0.00    -0.598 OA
HETATM   39  O   UNL     1     -19.731  -4.528  -5.837  1.00  0.00    -0.598 OA
BRANCH  37  40
HETATM   40  O   UNL     1     -20.126  -5.918  -7.856  1.00  0.00    -0.292 OA
HETATM   41  H   UNL     1     -20.069  -6.898  -7.810  1.00  0.00     0.232 HD
ENDBRANCH  37  40
ENDBRANCH   5  37
TORSDOF 8
BEGIN_RES ARG D 557
REMARK  4 active torsions:
REMARK  status: ('A' for Active; 'I' for Inactive)
REMARK    1  A    between atoms: CA   and  CB  
REMARK    2  A    between atoms: CB   and  CG  
REMARK    3  A    between atoms: CG   and  CD  
REMARK    4  A    between atoms: CD   and  NE  
REMARK       I    between atoms: NE   and  CZ  
REMARK       I    between atoms: CZ   and  NH1 
REMARK       I    between atoms: CZ   and  NH2 
ROOT
ATOM      1  CA  ARG D 557     -26.217   2.705 -17.014  1.00 35.49     0.159 C 
ENDROOT
BRANCH   1   2
ATOM      2  CB  ARG D 557     -26.789   1.319 -17.183  1.00 35.49     0.034 C 
BRANCH   2   3
ATOM      3  CG  ARG D 557     -25.837   0.202 -17.146  1.00 35.49     0.027 C 
BRANCH   3   4
ATOM      4  CD  ARG D 557     -24.754   0.417 -16.160  1.00 35.49     0.116 C 
BRANCH   4   5
ATOM      5  NE  ARG D 557     -24.891  -0.437 -15.009  1.00 35.49    -0.212 N 
ATOM      6  CZ  ARG D 557     -24.068  -1.403 -14.667  1.00 35.49     0.666 C 
ATOM      7  NH1 ARG D 557     -23.000  -1.710 -15.379  1.00 35.49    -0.235 N 
ATOM      8  NH2 ARG D 557     -24.337  -2.062 -13.578  1.00 35.49    -0.235 N 
ATOM      9  HH  ARG D 557     -22.802  -1.287 -16.098  1.00 35.49     0.174 HD
ATOM     10  HH  ARG D 557     -22.498  -2.348 -15.105  1.00 35.49     0.174 HD
ATOM     11  HH  ARG D 557     -25.030  -1.837 -13.134  1.00 35.49     0.174 HD
ATOM     12  HH  ARG D 557     -23.827  -2.690 -13.322  1.00 35.49     0.174 HD
ATOM     13  HE  ARG D 557     -25.591  -0.356 -14.534  1.00 35.49     0.178 HD
ENDBRANCH   4   5
ENDBRANCH   3   4
ENDBRANCH   2   3
ENDBRANCH   1   2
END_RES ARG D 557
BEGIN_RES GLU D 570
REMARK  3 active torsions:
REMARK  status: ('A' for Active; 'I' for Inactive)
REMARK    5  A    between atoms: CA   and  CB  
REMARK    6  A    between atoms: CB   and  CG  
REMARK    7  A    between atoms: CG   and  CD  
ROOT
ATOM     14  CA  GLU D 570     -18.033  -6.348 -13.375  1.00 32.92     0.160 C 
ENDROOT
BRANCH  14  15
ATOM     15  CB  GLU D 570     -19.500  -6.345 -13.794  1.00 32.92     0.043 C 
BRANCH  15  16
ATOM     16  CG  GLU D 570     -20.443  -5.538 -12.978  1.00 32.92     0.100 C 
BRANCH  16  17
ATOM     17  CD  GLU D 570     -21.726  -5.213 -13.708  1.00 32.92     0.185 C 
ATOM     18  OE1 GLU D 570     -22.289  -4.125 -13.486  1.00 32.92    -0.647 OA
ATOM     19  OE2 GLU D 570     -22.180  -6.064 -14.498  1.00 32.92    -0.647 OA
ENDBRANCH  16  17
ENDBRANCH  15  16
ENDBRANCH  14  15
END_RES GLU D 570
ENDMDL
MODEL 5
REMARK VINA RESULT:      -7.0      3.618      5.883
REMARK  8 active torsions:
REMARK  status: ('A' for Active; 'I' for Inactive)
REMARK    1  A    between atoms: N_2  and  C_4 
REMARK    2  A    between atoms: C_7  and  C_10 
REMARK    3  A    between atoms: C_10  and  C_20 
REMARK    4  A    between atoms: C_24  and  S_35 
REMARK    5  A    between atoms: C_28  and  S_31 
REMARK    6  A    between atoms: C_29  and  O_30 
REMARK    7  A    between atoms: S_31  and  O_34 
REMARK    8  A    between atoms: S_35  and  O_38 
ROOT
HETATM    1  C   UNL     1     -20.414  -9.858  -2.892  1.00  0.00     0.022 A 
HETATM    2  C   UNL     1     -20.635  -8.787  -3.820  1.00  0.00    -0.012 A 
HETATM    3  C   UNL     1     -20.338  -8.869  -5.206  1.00  0.00     0.015 A 
HETATM    4  C   UNL     1     -20.534  -7.792  -6.070  1.00  0.00     0.026 A 
HETATM    5  C   UNL     1     -21.049  -6.607  -5.564  1.00  0.00     0.073 A 
HETATM    6  C   UNL     1     -21.372  -6.486  -4.211  1.00  0.00     0.037 A 
HETATM    7  C   UNL     1     -21.183  -7.570  -3.342  1.00  0.00    -0.022 A 
HETATM    8  C   UNL     1     -21.581  -7.459  -2.008  1.00  0.00     0.040 A 
HETATM    9  C   UNL     1     -21.431  -8.539  -1.137  1.00  0.00     0.107 A 
HETATM   10  C   UNL     1     -20.786  -9.707  -1.542  1.00  0.00     0.101 A 
ENDROOT
BRANCH   1  11
HETATM   11  C   UNL     1     -19.875 -11.182  -3.389  1.00  0.00    -0.002 C 
HETATM   12  C   UNL     1     -20.816 -12.126  -3.722  1.00  0.00    -0.024 C 
HETATM   13  C   UNL     1     -22.254 -11.940  -3.473  1.00  0.00     0.014 C 
HETATM   14  C   UNL     1     -20.500 -13.356  -4.448  1.00  0.00     0.014 C 
HETATM   15  C   UNL     1     -23.083 -12.991  -3.368  1.00  0.00     0.030 C 
HETATM   16  C   UNL     1     -22.554 -14.383  -3.553  1.00  0.00     0.029 C 
HETATM   17  N   UNL     1     -23.154 -15.451  -3.102  1.00  0.00    -0.390 N 
HETATM   18  C   UNL     1     -21.288 -14.438  -4.363  1.00  0.00     0.030 C 
HETATM   19  C   UNL     1     -22.581 -16.835  -3.208  1.00  0.00     0.149 C 
HETATM   20  C   UNL     1     -24.472 -15.446  -2.384  1.00  0.00     0.149 C 
BRANCH  11  21
HETATM   21  C   UNL     1     -18.378 -11.375  -3.552  1.00  0.00    -0.024 A 
HETATM   22  C   UNL     1     -17.784 -11.352  -4.822  1.00  0.00     0.014 A 
HETATM   23  C   UNL     1     -16.409 -11.581  -5.005  1.00  0.00     0.030 A 
HETATM   24  C   UNL     1     -15.542 -11.837  -3.937  1.00  0.00     0.029 A 
HETATM   25  C   UNL     1     -16.130 -11.809  -2.668  1.00  0.00     0.030 A 
HETATM   26  C   UNL     1     -17.498 -11.537  -2.477  1.00  0.00     0.014 A 
BRANCH  24  27
HETATM   27  N   UNL     1     -14.190 -12.111  -4.137  1.00  0.00    -0.390 N 
HETATM   28  C   UNL     1     -13.511 -12.994  -3.188  1.00  0.00     0.149 C 
HETATM   29  C   UNL     1     -13.604 -12.014  -5.469  1.00  0.00     0.149 C 
ENDBRANCH  24  27
ENDBRANCH  11  21
ENDBRANCH   1  11
BRANCH  10  30
HETATM   30  O   UNL     1     -20.553 -10.749  -0.680  1.00  0.00    -0.358 OA
HETATM   31  H   UNL     1     -19.760 -11.252  -0.969  1.00  0.00     0.217 HD
ENDBRANCH  10  30
BRANCH   9  32
HETATM   32  S   UNL     1     -22.210  -8.468   0.444  1.00  0.00     0.132 S 
HETATM   33  O   UNL     1     -21.152  -8.497   1.429  1.00  0.00    -0.597 OA
HETATM   34  O   UNL     1     -23.172  -7.390   0.376  1.00  0.00    -0.597 OA
BRANCH  32  35
HETATM   35  O   UNL     1     -23.002  -9.862   0.608  1.00  0.00    -0.292 OA
HETATM   36  H   UNL     1     -22.553 -10.534   0.050  1.00  0.00     0.232 HD
ENDBRANCH  32  35
ENDBRANCH   9  32
BRANCH   5  37
HETATM   37  S   UNL     1     -21.268  -5.210  -6.629  1.00  0.00     0.129 S 
HETATM   38  O   UNL     1     -20.547  -4.096  -6.047  1.00  0.00    -0.598 OA
HETATM   39  O   UNL     1     -21.046  -5.665  -7.977  1.00  0.00    -0.598 OA
BRANCH  37  40
HETATM   40  O   UNL     1     -22.828  -4.840  -6.457  1.00  0.00    -0.292 OA
HETATM   41  H   UNL     1     -23.353  -5.572  -6.850  1.00  0.00     0.232 HD
ENDBRANCH  37  40
ENDBRANCH   5  37
TORSDOF 8
BEGIN_RES ARG D 557
REMARK  4 active torsions:
REMARK  status: ('A' for Active; 'I' for Inactive)
REMARK    1  A    between atoms: CA   and  CB  
REMARK    2  A    between atoms: CB   and  CG  
REMARK    3  A    between atoms: CG   and  CD  
REMARK    4  A    between atoms: CD   and  NE  
REMARK       I    between atoms: NE   and  CZ  
REMARK       I    between atoms: CZ   and  NH1 
REMARK       I    between atoms: CZ   and  NH2 
ROOT
ATOM      1  CA  ARG D 557     -26.217   2.705 -17.014  1.00 35.49     0.159 C 
ENDROOT
BRANCH   1   2
ATOM      2  CB  ARG D 557     -26.789   1.319 -17.183  1.00 35.49     0.034 C 
BRANCH   2   3
ATOM      3  CG  ARG D 557     -28.158   1.106 -16.698  1.00 35.49     0.027 C 
BRANCH   3   4
ATOM      4  CD  ARG D 557     -28.791  -0.089 -17.302  1.00 35.49     0.116 C 
BRANCH   4   5
ATOM      5  NE  ARG D 557     -28.176  -1.312 -16.857  1.00 35.49    -0.212 N 
ATOM      6  CZ  ARG D 557     -28.658  -2.522 -17.033  1.00 35.49     0.666 C 
ATOM      7  NH1 ARG D 557     -29.805  -2.746 -17.647  1.00 35.49    -0.235 N 
ATOM      8  NH2 ARG D 557     -27.955  -3.520 -16.581  1.00 35.49    -0.235 N 
ATOM      9  HH  ARG D 557     -30.283  -2.105 -17.954  1.00 35.49     0.174 HD
ATOM     10  HH  ARG D 557     -30.068  -3.557 -17.735  1.00 35.49     0.174 HD
ATOM     11  HH  ARG D 557     -27.214  -3.345 -16.195  1.00 35.49     0.174 HD
ATOM     12  HH  ARG D 557     -28.231  -4.315 -16.679  1.00 35.49     0.174 HD
ATOM     13  HE  ARG D 557     -27.469  -1.256 -16.388  1.00 35.49     0.178 HD
ENDBRANCH   4   5
ENDBRANCH   3   4
ENDBRANCH   2   3
ENDBRANCH   1   2
END_RES ARG D 557
BEGIN_RES GLU D 570
REMARK  3 active torsions:
REMARK  status: ('A' for Active; 'I' for Inactive)
REMARK    5  A    between atoms: CA   and  CB  
REMARK    6  A    between atoms: CB   and  CG  
REMARK    7  A    between atoms: CG   and  CD  
ROOT
ATOM     14  CA  GLU D 570     -18.033  -6.348 -13.375  1.00 32.92     0.160 C 
ENDROOT
BRANCH  14  15
ATOM     15  CB  GLU D 570     -19.500  -6.345 -13.794  1.00 32.92     0.043 C 
BRANCH  15  16
ATOM     16  CG  GLU D 570     -19.797  -6.420 -15.248  1.00 32.92     0.100 C 
BRANCH  16  17
ATOM     17  CD  GLU D 570     -20.917  -7.380 -15.572  1.00 32.92     0.185 C 
ATOM     18  OE1 GLU D 570     -20.649  -8.584 -15.751  1.00 32.92    -0.647 OA
ATOM     19  OE2 GLU D 570     -22.073  -6.921 -15.665  1.00 32.92    -0.647 OA
ENDBRANCH  16  17
ENDBRANCH  15  16
ENDBRANCH  14  15
END_RES GLU D 570
ENDMDL
MODEL 6
REMARK VINA RESULT:      -7.0      5.538      9.026
REMARK  8 active torsions:
REMARK  status: ('A' for Active; 'I' for Inactive)
REMARK    1  A    between atoms: N_2  and  C_4 
REMARK    2  A    between atoms: C_7  and  C_10 
REMARK    3  A    between atoms: C_10  and  C_20 
REMARK    4  A    between atoms: C_24  and  S_35 
REMARK    5  A    between atoms: C_28  and  S_31 
REMARK    6  A    between atoms: C_29  and  O_30 
REMARK    7  A    between atoms: S_31  and  O_34 
REMARK    8  A    between atoms: S_35  and  O_38 
ROOT
HETATM    1  C   UNL     1     -20.986 -13.805   0.398  1.00  0.00     0.022 A 
HETATM    2  C   UNL     1     -21.364 -12.423   0.327  1.00  0.00    -0.012 A 
HETATM    3  C   UNL     1     -22.707 -11.968   0.386  1.00  0.00     0.015 A 
HETATM    4  C   UNL     1     -23.037 -10.617   0.278  1.00  0.00     0.026 A 
HETATM    5  C   UNL     1     -22.020  -9.685   0.121  1.00  0.00     0.073 A 
HETATM    6  C   UNL     1     -20.683 -10.086   0.075  1.00  0.00     0.037 A 
HETATM    7  C   UNL     1     -20.349 -11.442   0.192  1.00  0.00    -0.022 A 
HETATM    8  C   UNL     1     -19.005 -11.820   0.220  1.00  0.00     0.040 A 
HETATM    9  C   UNL     1     -18.653 -13.163   0.369  1.00  0.00     0.107 A 
HETATM   10  C   UNL     1     -19.624 -14.164   0.384  1.00  0.00     0.101 A 
ENDROOT
BRANCH   1  11
HETATM   11  C   UNL     1     -22.049 -14.864   0.592  1.00  0.00    -0.002 C 
HETATM   12  C   UNL     1     -22.416 -15.560  -0.533  1.00  0.00    -0.024 C 
HETATM   13  C   UNL     1     -21.933 -15.211  -1.879  1.00  0.00     0.014 C 
HETATM   14  C   UNL     1     -23.233 -16.773  -0.499  1.00  0.00     0.014 C 
HETATM   15  C   UNL     1     -22.617 -15.569  -2.978  1.00  0.00     0.030 C 
HETATM   16  C   UNL     1     -23.873 -16.380  -2.847  1.00  0.00     0.029 C 
HETATM   17  N   UNL     1     -24.793 -16.443  -3.771  1.00  0.00    -0.390 N 
HETATM   18  C   UNL     1     -23.947 -17.164  -1.566  1.00  0.00     0.030 C 
HETATM   19  C   UNL     1     -26.090 -17.183  -3.605  1.00  0.00     0.149 C 
HETATM   20  C   UNL     1     -24.706 -15.762  -5.105  1.00  0.00     0.149 C 
BRANCH  11  21
HETATM   21  C   UNL     1     -22.594 -15.142   1.982  1.00  0.00    -0.024 A 
HETATM   22  C   UNL     1     -23.886 -14.736   2.342  1.00  0.00     0.014 A 
HETATM   23  C   UNL     1     -24.396 -14.934   3.638  1.00  0.00     0.030 A 
HETATM   24  C   UNL     1     -23.654 -15.555   4.649  1.00  0.00     0.029 A 
HETATM   25  C   UNL     1     -22.384 -16.003   4.271  1.00  0.00     0.030 A 
HETATM   26  C   UNL     1     -21.887 -15.847   2.963  1.00  0.00     0.014 A 
BRANCH  24  27
HETATM   27  N   UNL     1     -24.151 -15.700   5.942  1.00  0.00    -0.390 N 
HETATM   28  C   UNL     1     -23.250 -15.451   7.067  1.00  0.00     0.149 C 
HETATM   29  C   UNL     1     -25.579 -15.553   6.208  1.00  0.00     0.149 C 
ENDBRANCH  24  27
ENDBRANCH  11  21
ENDBRANCH   1  11
BRANCH  10  30
HETATM   30  O   UNL     1     -19.298 -15.495   0.445  1.00  0.00    -0.358 OA
HETATM   31  H   UNL     1     -18.924 -15.788  -0.415  1.00  0.00     0.217 HD
ENDBRANCH  10  30
BRANCH   9  32
HETATM   32  S   UNL     1     -16.968 -13.566   0.699  1.00  0.00     0.132 S 
HETATM   33  O   UNL     1     -16.979 -14.561   1.748  1.00  0.00    -0.597 OA
HETATM   34  O   UNL     1     -16.347 -13.805  -0.586  1.00  0.00    -0.597 OA
BRANCH  32  35
HETATM   35  O   UNL     1     -16.319 -12.244   1.352  1.00  0.00    -0.292 OA
HETATM   36  H   UNL     1     -16.144 -12.427   2.301  1.00  0.00     0.232 HD
ENDBRANCH  32  35
ENDBRANCH   9  32
BRANCH   5  37
HETATM   37  S   UNL     1     -22.411  -7.969  -0.064  1.00  0.00     0.129 S 
HETATM   38  O   UNL     1     -21.714  -7.245   0.980  1.00  0.00    -0.598 OA
HETATM   39  O   UNL     1     -22.274  -7.651  -1.461  1.00  0.00    -0.598 OA
BRANCH  37  40
HETATM   40  O   UNL     1     -23.971  -7.889   0.336  1.00  0.00    -0.292 OA
HETATM   41  H   UNL     1     -24.293  -8.809   0.464  1.00  0.00     0.232 HD
ENDBRANCH  37  40
ENDBRANCH   5  37
TORSDOF 8
BEGIN_RES ARG D 557
REMARK  4 active torsions:
REMARK  status: ('A' for Active; 'I' for Inactive)
REMARK    1  A    between atoms: CA   and  CB  
REMARK    2  A    between atoms: CB   and  CG  
REMARK    3  A    between atoms: CG   and  CD  
REMARK    4  A    between atoms: CD   and  NE  
REMARK       I    between atoms: NE   and  CZ  
REMARK       I    between atoms: CZ   and  NH1 
REMARK       I    between atoms: CZ   and  NH2 
ROOT
ATOM      1  CA  ARG D 557     -26.217   2.705 -17.014  1.00 35.49     0.159 C 
ENDROOT
BRANCH   1   2
ATOM      2  CB  ARG D 557     -26.789   1.319 -17.183  1.00 35.49     0.034 C 
BRANCH   2   3
ATOM      3  CG  ARG D 557     -25.838   0.202 -17.137  1.00 35.49     0.027 C 
BRANCH   3   4
ATOM      4  CD  ARG D 557     -24.771   0.410 -16.132  1.00 35.49     0.116 C 
BRANCH   4   5
ATOM      5  NE  ARG D 557     -24.925  -0.454 -14.991  1.00 35.49    -0.212 N 
ATOM      6  CZ  ARG D 557     -24.110  -1.426 -14.648  1.00 35.49     0.666 C 
ATOM      7  NH1 ARG D 557     -23.033  -1.730 -15.350  1.00 35.49    -0.235 N 
ATOM      8  NH2 ARG D 557     -24.394  -2.095 -13.569  1.00 35.49    -0.235 N 
ATOM      9  HH  ARG D 557     -22.826  -1.301 -16.062  1.00 35.49     0.174 HD
ATOM     10  HH  ARG D 557     -22.537  -2.372 -15.076  1.00 35.49     0.174 HD
ATOM     11  HH  ARG D 557     -25.091  -1.873 -13.132  1.00 35.49     0.174 HD
ATOM     12  HH  ARG D 557     -23.889  -2.727 -13.313  1.00 35.49     0.174 HD
ATOM     13  HE  ARG D 557     -25.631  -0.377 -14.524  1.00 35.49     0.178 HD
ENDBRANCH   4   5
ENDBRANCH   3   4
ENDBRANCH   2   3
ENDBRANCH   1   2
END_RES ARG D 557
BEGIN_RES GLU D 570
REMARK  3 active torsions:
REMARK  status: ('A' for Active; 'I' for Inactive)
REMARK    5  A    between atoms: CA   and  CB  
REMARK    6  A    between atoms: CB   and  CG  
REMARK    7  A    between atoms: CG   and  CD  
ROOT
ATOM     14  CA  GLU D 570     -18.033  -6.348 -13.375  1.00 32.92     0.160 C 
ENDROOT
BRANCH  14  15
ATOM     15  CB  GLU D 570     -19.500  -6.345 -13.794  1.00 32.92     0.043 C 
BRANCH  15  16
ATOM     16  CG  GLU D 570     -20.436  -5.506 -13.003  1.00 32.92     0.100 C 
BRANCH  16  17
ATOM     17  CD  GLU D 570     -21.658  -5.086 -13.786  1.00 32.92     0.185 C 
ATOM     18  OE1 GLU D 570     -22.381  -4.176 -13.338  1.00 32.92    -0.647 OA
ATOM     19  OE2 GLU D 570     -21.904  -5.686 -14.851  1.00 32.92    -0.647 OA
ENDBRANCH  16  17
ENDBRANCH  15  16
ENDBRANCH  14  15
END_RES GLU D 570
ENDMDL
MODEL 7
REMARK VINA RESULT:      -6.8      3.699      7.710
REMARK  8 active torsions:
REMARK  status: ('A' for Active; 'I' for Inactive)
REMARK    1  A    between atoms: N_2  and  C_4 
REMARK    2  A    between atoms: C_7  and  C_10 
REMARK    3  A    between atoms: C_10  and  C_20 
REMARK    4  A    between atoms: C_24  and  S_35 
REMARK    5  A    between atoms: C_28  and  S_31 
REMARK    6  A    between atoms: C_29  and  O_30 
REMARK    7  A    between atoms: S_31  and  O_34 
REMARK    8  A    between atoms: S_35  and  O_38 
ROOT
HETATM    1  C   UNL     1     -19.869 -12.032  -3.177  1.00  0.00     0.022 A 
HETATM    2  C   UNL     1     -20.248 -10.657  -3.326  1.00  0.00    -0.012 A 
HETATM    3  C   UNL     1     -20.095  -9.680  -2.308  1.00  0.00     0.015 A 
HETATM    4  C   UNL     1     -20.508  -8.359  -2.481  1.00  0.00     0.026 A 
HETATM    5  C   UNL     1     -21.076  -7.982  -3.690  1.00  0.00     0.073 A 
HETATM    6  C   UNL     1     -21.230  -8.905  -4.726  1.00  0.00     0.037 A 
HETATM    7  C   UNL     1     -20.807 -10.231  -4.558  1.00  0.00    -0.022 A 
HETATM    8  C   UNL     1     -20.900 -11.123  -5.628  1.00  0.00     0.040 A 
HETATM    9  C   UNL     1     -20.453 -12.439  -5.489  1.00  0.00     0.107 A 
HETATM   10  C   UNL     1     -20.009 -12.922  -4.259  1.00  0.00     0.101 A 
ENDROOT
BRANCH   1  11
HETATM   11  C   UNL     1     -19.225 -12.496  -1.888  1.00  0.00    -0.002 C 
HETATM   12  C   UNL     1     -17.863 -12.333  -1.805  1.00  0.00    -0.024 C 
HETATM   13  C   UNL     1     -17.044 -11.884  -2.942  1.00  0.00     0.014 C 
HETATM   14  C   UNL     1     -17.109 -12.488  -0.561  1.00  0.00     0.014 C 
HETATM   15  C   UNL     1     -15.731 -12.160  -3.004  1.00  0.00     0.030 C 
HETATM   16  C   UNL     1     -15.067 -12.899  -1.879  1.00  0.00     0.029 C 
HETATM   17  N   UNL     1     -13.939 -13.543  -2.003  1.00  0.00    -0.390 N 
HETATM   18  C   UNL     1     -15.800 -12.779  -0.571  1.00  0.00     0.030 C 
HETATM   19  C   UNL     1     -13.318 -14.355  -0.903  1.00  0.00     0.149 C 
HETATM   20  C   UNL     1     -13.123 -13.595  -3.262  1.00  0.00     0.149 C 
BRANCH  11  21
HETATM   21  C   UNL     1     -20.089 -13.039  -0.764  1.00  0.00    -0.024 A 
HETATM   22  C   UNL     1     -20.897 -12.185  -0.002  1.00  0.00     0.014 A 
HETATM   23  C   UNL     1     -21.667 -12.653   1.078  1.00  0.00     0.030 A 
HETATM   24  C   UNL     1     -21.685 -14.000   1.457  1.00  0.00     0.029 A 
HETATM   25  C   UNL     1     -20.916 -14.857   0.662  1.00  0.00     0.030 A 
HETATM   26  C   UNL     1     -20.179 -14.399  -0.446  1.00  0.00     0.014 A 
BRANCH  24  27
HETATM   27  N   UNL     1     -22.412 -14.444   2.560  1.00  0.00    -0.390 N 
HETATM   28  C   UNL     1     -23.857 -14.215   2.580  1.00  0.00     0.149 C 
HETATM   29  C   UNL     1     -21.917 -15.545   3.380  1.00  0.00     0.149 C 
ENDBRANCH  24  27
ENDBRANCH  11  21
ENDBRANCH   1  11
BRANCH  10  30
HETATM   30  O   UNL     1     -19.645 -14.232  -4.078  1.00  0.00    -0.358 OA
HETATM   31  H   UNL     1     -19.619 -14.695  -4.945  1.00  0.00     0.217 HD
ENDBRANCH  10  30
BRANCH   9  32
HETATM   32  S   UNL     1     -20.307 -13.442  -6.933  1.00  0.00     0.132 S 
HETATM   33  O   UNL     1     -20.972 -12.729  -8.001  1.00  0.00    -0.597 OA
HETATM   34  O   UNL     1     -18.919 -13.839  -7.015  1.00  0.00    -0.597 OA
BRANCH  32  35
HETATM   35  O   UNL     1     -21.206 -14.750  -6.652  1.00  0.00    -0.292 OA
HETATM   36  H   UNL     1     -22.131 -14.545  -6.911  1.00  0.00     0.232 HD
ENDBRANCH  32  35
ENDBRANCH   9  32
BRANCH   5  37
HETATM   37  S   UNL     1     -21.650  -6.324  -3.922  1.00  0.00     0.129 S 
HETATM   38  O   UNL     1     -22.230  -5.881  -2.670  1.00  0.00    -0.598 OA
HETATM   39  O   UNL     1     -20.602  -5.603  -4.596  1.00  0.00    -0.598 OA
BRANCH  37  40
HETATM   40  O   UNL     1     -22.897  -6.490  -4.930  1.00  0.00    -0.292 OA
HETATM   41  H   UNL     1     -23.588  -5.847  -4.658  1.00  0.00     0.232 HD
ENDBRANCH  37  40
ENDBRANCH   5  37
TORSDOF 8
BEGIN_RES ARG D 557
REMARK  4 active torsions:
REMARK  status: ('A' for Active; 'I' for Inactive)
REMARK    1  A    between atoms: CA   and  CB  
REMARK    2  A    between atoms: CB   and  CG  
REMARK    3  A    between atoms: CG   and  CD  
REMARK    4  A    between atoms: CD   and  NE  
REMARK       I    between atoms: NE   and  CZ  
REMARK       I    between atoms: CZ   and  NH1 
REMARK       I    between atoms: CZ   and  NH2 
ROOT
ATOM      1  CA  ARG D 557     -26.217   2.705 -17.014  1.00 35.49     0.159 C 
ENDROOT
BRANCH   1   2
ATOM      2  CB  ARG D 557     -26.789   1.319 -17.183  1.00 35.49     0.034 C 
BRANCH   2   3
ATOM      3  CG  ARG D 557     -28.231   1.167 -16.955  1.00 35.49     0.027 C 
BRANCH   3   4
ATOM      4  CD  ARG D 557     -28.626  -0.247 -16.760  1.00 35.49     0.116 C 
BRANCH   4   5
ATOM      5  NE  ARG D 557     -27.614  -1.002 -16.069  1.00 35.49    -0.212 N 
ATOM      6  CZ  ARG D 557     -27.457  -2.305 -16.123  1.00 35.49     0.666 C 
ATOM      7  NH1 ARG D 557     -28.251  -3.086 -16.834  1.00 35.49    -0.235 N 
ATOM      8  NH2 ARG D 557     -26.472  -2.820 -15.447  1.00 35.49    -0.235 N 
ATOM      9  HH  ARG D 557     -28.904  -2.769 -17.288  1.00 35.49     0.174 HD
ATOM     10  HH  ARG D 557     -28.098  -3.929 -16.833  1.00 35.49     0.174 HD
ATOM     11  HH  ARG D 557     -25.971  -2.291 -15.004  1.00 35.49     0.174 HD
ATOM     12  HH  ARG D 557     -26.336  -3.657 -15.461  1.00 35.49     0.174 HD
ATOM     13  HE  ARG D 557     -27.104  -0.586 -15.530  1.00 35.49     0.178 HD
ENDBRANCH   4   5
ENDBRANCH   3   4
ENDBRANCH   2   3
ENDBRANCH   1   2
END_RES ARG D 557
BEGIN_RES GLU D 570
REMARK  3 active torsions:
REMARK  status: ('A' for Active; 'I' for Inactive)
REMARK    5  A    between atoms: CA   and  CB  
REMARK    6  A    between atoms: CB   and  CG  
REMARK    7  A    between atoms: CG   and  CD  
ROOT
ATOM     14  CA  GLU D 570     -18.033  -6.348 -13.375  1.00 32.92     0.160 C 
ENDROOT
BRANCH  14  15
ATOM     15  CB  GLU D 570     -19.500  -6.345 -13.794  1.00 32.92     0.043 C 
BRANCH  15  16
ATOM     16  CG  GLU D 570     -20.443  -5.538 -12.977  1.00 32.92     0.100 C 
BRANCH  16  17
ATOM     17  CD  GLU D 570     -21.733  -5.229 -13.701  1.00 32.92     0.185 C 
ATOM     18  OE1 GLU D 570     -22.286  -4.129 -13.510  1.00 32.92    -0.647 OA
ATOM     19  OE2 GLU D 570     -22.206  -6.104 -14.454  1.00 32.92    -0.647 OA
ENDBRANCH  16  17
ENDBRANCH  15  16
ENDBRANCH  14  15
END_RES GLU D 570
ENDMDL
MODEL 8
REMARK VINA RESULT:      -6.8      3.272      6.208
REMARK  8 active torsions:
REMARK  status: ('A' for Active; 'I' for Inactive)
REMARK    1  A    between atoms: N_2  and  C_4 
REMARK    2  A    between atoms: C_7  and  C_10 
REMARK    3  A    between atoms: C_10  and  C_20 
REMARK    4  A    between atoms: C_24  and  S_35 
REMARK    5  A    between atoms: C_28  and  S_31 
REMARK    6  A    between atoms: C_29  and  O_30 
REMARK    7  A    between atoms: S_31  and  O_34 
REMARK    8  A    between atoms: S_35  and  O_38 
ROOT
HETATM    1  C   UNL     1     -20.576 -12.064  -3.113  1.00  0.00     0.022 A 
HETATM    2  C   UNL     1     -19.411 -12.212  -2.289  1.00  0.00    -0.012 A 
HETATM    3  C   UNL     1     -18.084 -12.019  -2.755  1.00  0.00     0.015 A 
HETATM    4  C   UNL     1     -16.975 -12.208  -1.930  1.00  0.00     0.026 A 
HETATM    5  C   UNL     1     -17.174 -12.585  -0.609  1.00  0.00     0.073 A 
HETATM    6  C   UNL     1     -18.461 -12.770  -0.104  1.00  0.00     0.037 A 
HETATM    7  C   UNL     1     -19.578 -12.572  -0.928  1.00  0.00    -0.022 A 
HETATM    8  C   UNL     1     -20.860 -12.688  -0.388  1.00  0.00     0.040 A 
HETATM    9  C   UNL     1     -21.983 -12.462  -1.186  1.00  0.00     0.107 A 
HETATM   10  C   UNL     1     -21.858 -12.226  -2.555  1.00  0.00     0.101 A 
ENDROOT
BRANCH   1  11
HETATM   11  C   UNL     1     -20.423 -11.633  -4.556  1.00  0.00    -0.002 C 
HETATM   12  C   UNL     1     -20.461 -12.638  -5.491  1.00  0.00    -0.024 C 
HETATM   13  C   UNL     1     -20.491 -14.063  -5.126  1.00  0.00     0.014 C 
HETATM   14  C   UNL     1     -20.581 -12.397  -6.928  1.00  0.00     0.014 C 
HETATM   15  C   UNL     1     -20.075 -15.009  -5.984  1.00  0.00     0.030 C 
HETATM   16  C   UNL     1     -19.612 -14.622  -7.359  1.00  0.00     0.029 C 
HETATM   17  N   UNL     1     -18.848 -15.373  -8.102  1.00  0.00    -0.390 N 
HETATM   18  C   UNL     1     -20.165 -13.303  -7.825  1.00  0.00     0.030 C 
HETATM   19  C   UNL     1     -18.312 -14.950  -9.440  1.00  0.00     0.149 C 
HETATM   20  C   UNL     1     -18.365 -16.741  -7.717  1.00  0.00     0.149 C 
BRANCH  11  21
HETATM   21  C   UNL     1     -20.304 -10.157  -4.895  1.00  0.00    -0.024 A 
HETATM   22  C   UNL     1     -21.436  -9.330  -4.913  1.00  0.00     0.014 A 
HETATM   23  C   UNL     1     -21.362  -7.973  -5.274  1.00  0.00     0.030 A 
HETATM   24  C   UNL     1     -20.157  -7.357  -5.630  1.00  0.00     0.029 A 
HETATM   25  C   UNL     1     -19.023  -8.173  -5.563  1.00  0.00     0.030 A 
HETATM   26  C   UNL     1     -19.087  -9.520  -5.159  1.00  0.00     0.014 A 
BRANCH  24  27
HETATM   27  N   UNL     1     -20.105  -6.024  -6.035  1.00  0.00    -0.390 N 
HETATM   28  C   UNL     1     -20.175  -5.728  -7.466  1.00  0.00     0.149 C 
HETATM   29  C   UNL     1     -20.518  -4.958  -5.129  1.00  0.00     0.149 C 
ENDBRANCH  24  27
ENDBRANCH  11  21
ENDBRANCH   1  11
BRANCH  10  30
HETATM   30  O   UNL     1     -22.950 -12.083  -3.373  1.00  0.00    -0.358 OA
HETATM   31  H   UNL     1     -22.668 -11.746  -4.252  1.00  0.00     0.217 HD
ENDBRANCH  10  30
BRANCH   9  32
HETATM   32  S   UNL     1     -23.561 -12.323  -0.410  1.00  0.00     0.132 S 
HETATM   33  O   UNL     1     -23.384 -12.735   0.965  1.00  0.00    -0.597 OA
HETATM   34  O   UNL     1     -24.077 -11.019  -0.765  1.00  0.00    -0.597 OA
BRANCH  32  35
HETATM   35  O   UNL     1     -24.488 -13.451  -1.092  1.00  0.00    -0.292 OA
HETATM   36  H   UNL     1     -23.901 -14.092  -1.550  1.00  0.00     0.232 HD
ENDBRANCH  32  35
ENDBRANCH   9  32
BRANCH   5  37
HETATM   37  S   UNL     1     -15.783 -12.875   0.448  1.00  0.00     0.129 S 
HETATM   38  O   UNL     1     -14.915 -13.824  -0.218  1.00  0.00    -0.598 OA
HETATM   39  O   UNL     1     -15.328 -11.590   0.910  1.00  0.00    -0.598 OA
BRANCH  37  40
HETATM   40  O   UNL     1     -16.414 -13.680   1.694  1.00  0.00    -0.292 OA
HETATM   41  H   UNL     1     -16.092 -13.254   2.518  1.00  0.00     0.232 HD
ENDBRANCH  37  40
ENDBRANCH   5  37
TORSDOF 8
BEGIN_RES ARG D 557
REMARK  4 active torsions:
REMARK  status: ('A' for Active; 'I' for Inactive)
REMARK    1  A    between atoms: CA   and  CB  
REMARK    2  A    between atoms: CB   and  CG  
REMARK    3  A    between atoms: CG   and  CD  
REMARK    4  A    between atoms: CD   and  NE  
REMARK       I    between atoms: NE   and  CZ  
REMARK       I    between atoms: CZ   and  NH1 
REMARK       I    between atoms: CZ   and  NH2 
ROOT
ATOM      1  CA  ARG D 557     -26.217   2.705 -17.014  1.00 35.49     0.159 C 
ENDROOT
BRANCH   1   2
ATOM      2  CB  ARG D 557     -26.789   1.319 -17.183  1.00 35.49     0.034 C 
BRANCH   2   3
ATOM      3  CG  ARG D 557     -25.839   0.201 -17.130  1.00 35.49     0.027 C 
BRANCH   3   4
ATOM      4  CD  ARG D 557     -24.755   0.428 -16.147  1.00 35.49     0.116 C 
BRANCH   4   5
ATOM      5  NE  ARG D 557     -24.864  -0.444 -15.008  1.00 35.49    -0.212 N 
ATOM      6  CZ  ARG D 557     -24.026  -1.406 -14.693  1.00 35.49     0.666 C 
ATOM      7  NH1 ARG D 557     -22.965  -1.689 -15.426  1.00 35.49    -0.235 N 
ATOM      8  NH2 ARG D 557     -24.270  -2.085 -13.610  1.00 35.49    -0.235 N 
ATOM      9  HH  ARG D 557     -22.783  -1.254 -16.141  1.00 35.49     0.174 HD
ATOM     10  HH  ARG D 557     -22.451  -2.326 -15.170  1.00 35.49     0.174 HD
ATOM     11  HH  ARG D 557     -24.958  -1.875 -13.153  1.00 35.49     0.174 HD
ATOM     12  HH  ARG D 557     -23.749  -2.711 -13.373  1.00 35.49     0.174 HD
ATOM     13  HE  ARG D 557     -25.558  -0.380 -14.521  1.00 35.49     0.178 HD
ENDBRANCH   4   5
ENDBRANCH   3   4
ENDBRANCH   2   3
ENDBRANCH   1   2
END_RES ARG D 557
BEGIN_RES GLU D 570
REMARK  3 active torsions:
REMARK  status: ('A' for Active; 'I' for Inactive)
REMARK    5  A    between atoms: CA   and  CB  
REMARK    6  A    between atoms: CB   and  CG  
REMARK    7  A    between atoms: CG   and  CD  
ROOT
ATOM     14  CA  GLU D 570     -18.033  -6.348 -13.375  1.00 32.92     0.160 C 
ENDROOT
BRANCH  14  15
ATOM     15  CB  GLU D 570     -19.500  -6.345 -13.794  1.00 32.92     0.043 C 
BRANCH  15  16
ATOM     16  CG  GLU D 570     -20.454  -5.588 -12.942  1.00 32.92     0.100 C 
BRANCH  16  17
ATOM     17  CD  GLU D 570     -21.665  -5.101 -13.703  1.00 32.92     0.185 C 
ATOM     18  OE1 GLU D 570     -21.735  -5.312 -14.929  1.00 32.92    -0.647 OA
ATOM     19  OE2 GLU D 570     -22.546  -4.488 -13.069  1.00 32.92    -0.647 OA
ENDBRANCH  16  17
ENDBRANCH  15  16
ENDBRANCH  14  15
END_RES GLU D 570
ENDMDL
MODEL 9
REMARK VINA RESULT:      -6.7      3.060      4.619
REMARK  8 active torsions:
REMARK  status: ('A' for Active; 'I' for Inactive)
REMARK    1  A    between atoms: N_2  and  C_4 
REMARK    2  A    between atoms: C_7  and  C_10 
REMARK    3  A    between atoms: C_10  and  C_20 
REMARK    4  A    between atoms: C_24  and  S_35 
REMARK    5  A    between atoms: C_28  and  S_31 
REMARK    6  A    between atoms: C_29  and  O_30 
REMARK    7  A    between atoms: S_31  and  O_34 
REMARK    8  A    between atoms: S_35  and  O_38 
ROOT
HETATM    1  C   UNL     1     -20.534 -11.424  -1.944  1.00  0.00     0.022 A 
HETATM    2  C   UNL     1     -21.477 -12.495  -1.800  1.00  0.00    -0.012 A 
HETATM    3  C   UNL     1     -21.204 -13.841  -2.159  1.00  0.00     0.015 A 
HETATM    4  C   UNL     1     -22.161 -14.849  -2.037  1.00  0.00     0.026 A 
HETATM    5  C   UNL     1     -23.415 -14.530  -1.537  1.00  0.00     0.073 A 
HETATM    6  C   UNL     1     -23.723 -13.223  -1.155  1.00  0.00     0.037 A 
HETATM    7  C   UNL     1     -22.760 -12.210  -1.268  1.00  0.00    -0.022 A 
HETATM    8  C   UNL     1     -23.058 -10.925  -0.813  1.00  0.00     0.040 A 
HETATM    9  C   UNL     1     -22.100  -9.912  -0.888  1.00  0.00     0.107 A 
HETATM   10  C   UNL     1     -20.872 -10.126  -1.514  1.00  0.00     0.101 A 
ENDROOT
BRANCH   1  11
HETATM   11  C   UNL     1     -19.142 -11.715  -2.463  1.00  0.00    -0.002 C 
HETATM   12  C   UNL     1     -18.957 -11.545  -3.813  1.00  0.00    -0.024 C 
HETATM   13  C   UNL     1     -20.063 -11.251  -4.738  1.00  0.00     0.014 C 
HETATM   14  C   UNL     1     -17.641 -11.534  -4.450  1.00  0.00     0.014 C 
HETATM   15  C   UNL     1     -19.969 -11.534  -6.047  1.00  0.00     0.030 C 
HETATM   16  C   UNL     1     -18.701 -12.119  -6.597  1.00  0.00     0.029 C 
HETATM   17  N   UNL     1     -18.636 -12.775  -7.723  1.00  0.00    -0.390 N 
HETATM   18  C   UNL     1     -17.492 -11.826  -5.751  1.00  0.00     0.030 C 
HETATM   19  C   UNL     1     -17.386 -13.436  -8.231  1.00  0.00     0.149 C 
HETATM   20  C   UNL     1     -19.797 -12.994  -8.648  1.00  0.00     0.149 C 
BRANCH  11  21
HETATM   21  C   UNL     1     -18.041 -12.103  -1.493  1.00  0.00    -0.024 A 
HETATM   22  C   UNL     1     -18.168 -13.235  -0.676  1.00  0.00     0.014 A 
HETATM   23  C   UNL     1     -17.186 -13.587   0.267  1.00  0.00     0.030 A 
HETATM   24  C   UNL     1     -16.016 -12.841   0.447  1.00  0.00     0.029 A 
HETATM   25  C   UNL     1     -15.870 -11.741  -0.405  1.00  0.00     0.030 A 
HETATM   26  C   UNL     1     -16.830 -11.411  -1.381  1.00  0.00     0.014 A 
BRANCH  24  27
HETATM   27  N   UNL     1     -15.075 -13.172   1.420  1.00  0.00    -0.390 N 
HETATM   28  C   UNL     1     -15.552 -13.685   2.704  1.00  0.00     0.149 C 
HETATM   29  C   UNL     1     -13.713 -13.531   1.041  1.00  0.00     0.149 C 
ENDBRANCH  24  27
ENDBRANCH  11  21
ENDBRANCH   1  11
BRANCH  10  30
HETATM   30  O   UNL     1     -19.949  -9.124  -1.673  1.00  0.00    -0.358 OA
HETATM   31  H   UNL     1     -19.329  -9.117  -0.911  1.00  0.00     0.217 HD
ENDBRANCH  10  30
BRANCH   9  32
HETATM   32  S   UNL     1     -22.401  -8.396  -0.038  1.00  0.00     0.132 S 
HETATM   33  O   UNL     1     -21.509  -8.375   1.100  1.00  0.00    -0.597 OA
HETATM   34  O   UNL     1     -22.394  -7.356  -1.043  1.00  0.00    -0.597 OA
BRANCH  32  35
HETATM   35  O   UNL     1     -23.888  -8.520   0.571  1.00  0.00    -0.292 OA
HETATM   36  H   UNL     1     -24.027  -7.772   1.192  1.00  0.00     0.232 HD
ENDBRANCH  32  35
ENDBRANCH   9  32
BRANCH   5  37
HETATM   37  S   UNL     1     -24.663 -15.780  -1.413  1.00  0.00     0.129 S 
HETATM   38  O   UNL     1     -24.031 -16.983  -0.913  1.00  0.00    -0.598 OA
HETATM   39  O   UNL     1     -25.806 -15.175  -0.779  1.00  0.00    -0.598 OA
BRANCH  37  40
HETATM   40  O   UNL     1     -25.033 -16.103  -2.948  1.00  0.00    -0.292 OA
HETATM   41  H   UNL     1     -25.249 -17.059  -3.008  1.00  0.00     0.232 HD
ENDBRANCH  37  40
ENDBRANCH   5  37
TORSDOF 8
BEGIN_RES ARG D 557
REMARK  4 active torsions:
REMARK  status: ('A' for Active; 'I' for Inactive)
REMARK    1  A    between atoms: CA   and  CB  
REMARK    2  A    between atoms: CB   and  CG  
REMARK    3  A    between atoms: CG   and  CD  
REMARK    4  A    between atoms: CD   and  NE  
REMARK       I    between atoms: NE   and  CZ  
REMARK       I    between atoms: CZ   and  NH1 
REMARK       I    between atoms: CZ   and  NH2 
ROOT
ATOM      1  CA  ARG D 557     -26.217   2.705 -17.014  1.00 35.49     0.159 C 
ENDROOT
BRANCH   1   2
ATOM      2  CB  ARG D 557     -26.789   1.319 -17.183  1.00 35.49     0.034 C 
BRANCH   2   3
ATOM      3  CG  ARG D 557     -25.837   0.202 -17.148  1.00 35.49     0.027 C 
BRANCH   3   4
ATOM      4  CD  ARG D 557     -24.767   0.404 -16.144  1.00 35.49     0.116 C 
BRANCH   4   5
ATOM      5  NE  ARG D 557     -24.926  -0.458 -15.002  1.00 35.49    -0.212 N 
ATOM      6  CZ  ARG D 557     -24.113  -1.429 -14.654  1.00 35.49     0.666 C 
ATOM      7  NH1 ARG D 557     -23.033  -1.734 -15.350  1.00 35.49    -0.235 N 
ATOM      8  NH2 ARG D 557     -24.401  -2.096 -13.574  1.00 35.49    -0.235 N 
ATOM      9  HH  ARG D 557     -22.823  -1.307 -16.062  1.00 35.49     0.174 HD
ATOM     10  HH  ARG D 557     -22.538  -2.376 -15.073  1.00 35.49     0.174 HD
ATOM     11  HH  ARG D 557     -25.101  -1.872 -13.140  1.00 35.49     0.174 HD
ATOM     12  HH  ARG D 557     -23.898  -2.727 -13.315  1.00 35.49     0.174 HD
ATOM     13  HE  ARG D 557     -25.635  -0.379 -14.538  1.00 35.49     0.178 HD
ENDBRANCH   4   5
ENDBRANCH   3   4
ENDBRANCH   2   3
ENDBRANCH   1   2
END_RES ARG D 557
BEGIN_RES GLU D 570
REMARK  3 active torsions:
REMARK  status: ('A' for Active; 'I' for Inactive)
REMARK    5  A    between atoms: CA   and  CB  
REMARK    6  A    between atoms: CB   and  CG  
REMARK    7  A    between atoms: CG   and  CD  
ROOT
ATOM     14  CA  GLU D 570     -18.033  -6.348 -13.375  1.00 32.92     0.160 C 
ENDROOT
BRANCH  14  15
ATOM     15  CB  GLU D 570     -19.500  -6.345 -13.794  1.00 32.92     0.043 C 
BRANCH  15  16
ATOM     16  CG  GLU D 570     -20.437  -5.507 -13.002  1.00 32.92     0.100 C 
BRANCH  16  17
ATOM     17  CD  GLU D 570     -21.642  -5.058 -13.795  1.00 32.92     0.185 C 
ATOM     18  OE1 GLU D 570     -22.406  -4.206 -13.305  1.00 32.92    -0.647 OA
ATOM     19  OE2 GLU D 570     -21.832  -5.578 -14.912  1.00 32.92    -0.647 OA
ENDBRANCH  16  17
ENDBRANCH  15  16
ENDBRANCH  14  15
END_RES GLU D 570
ENDMDL
