MODEL 1
REMARK VINA RESULT:      -7.6      0.000      0.000
REMARK  18 active torsions:
REMARK  status: ('A' for Active; 'I' for Inactive)
REMARK    1  A    between atoms: C_1  and  C_2 
REMARK    2  A    between atoms: C_1  and  O_34 
REMARK    3  A    between atoms: C_3  and  O_33 
REMARK    4  A    between atoms: C_4  and  O_32 
REMARK    5  A    between atoms: C_5  and  O_31 
REMARK    6  A    between atoms: C_6  and  O_8 
REMARK    7  A    between atoms: O_8  and  C_9 
REMARK    8  A    between atoms: C_10  and  C_29 
REMARK    9  A    between atoms: C_12  and  O_17 
REMARK   10  A    between atoms: C_13  and  O_16 
REMARK   11  A    between atoms: C_14  and  O_15 
REMARK   12  A    between atoms: O_17  and  C_18 
REMARK   13  A    between atoms: C_19  and  C_27 
REMARK   14  A    between atoms: C_21  and  O_26 
REMARK   15  A    between atoms: C_22  and  O_25 
REMARK   16  A    between atoms: C_23  and  O_24 
REMARK   17  A    between atoms: C_27  and  O_28 
REMARK   18  A    between atoms: C_29  and  O_30 
ROOT
HETATM    1  C   UNL     1     -22.769  -3.717 -13.760  1.00  0.00     0.187 C 
HETATM    2  C   UNL     1     -24.289  -3.587 -13.489  1.00  0.00     0.180 C 
HETATM    3  O   UNL     1     -24.964  -4.847 -13.595  1.00  0.00    -0.348 OA
HETATM    4  C   UNL     1     -24.787  -5.598 -14.799  1.00  0.00     0.292 C 
HETATM    5  C   UNL     1     -23.315  -5.646 -15.308  1.00  0.00     0.204 C 
HETATM    6  C   UNL     1     -22.573  -4.310 -15.161  1.00  0.00     0.183 C 
ENDROOT
BRANCH   1   7
HETATM    7  O   UNL     1     -22.219  -4.542 -12.711  1.00  0.00    -0.348 OA
BRANCH   7   8
HETATM    8  C   UNL     1     -22.273  -4.116 -11.343  1.00  0.00     0.292 C 
HETATM    9  C   UNL     1     -20.901  -3.988 -10.624  1.00  0.00     0.204 C 
HETATM   10  C   UNL     1     -21.124  -3.453  -9.200  1.00  0.00     0.183 C 
HETATM   11  C   UNL     1     -22.127  -4.342  -8.442  1.00  0.00     0.180 C 
HETATM   12  C   UNL     1     -23.441  -4.474  -9.235  1.00  0.00     0.179 C 
HETATM   13  O   UNL     1     -23.209  -4.906 -10.600  1.00  0.00    -0.348 OA
BRANCH   9  14
HETATM   14  O   UNL     1     -20.188  -5.237 -10.483  1.00  0.00    -0.388 OA
HETATM   15  H   UNL     1     -20.861  -5.958 -10.447  1.00  0.00     0.210 HD
ENDBRANCH   9  14
BRANCH  10  16
HETATM   16  O   UNL     1     -19.870  -3.419  -8.505  1.00  0.00    -0.390 OA
HETATM   17  H   UNL     1     -19.236  -3.947  -9.031  1.00  0.00     0.210 HD
ENDBRANCH  10  16
BRANCH  11  18
HETATM   18  O   UNL     1     -21.613  -5.676  -8.261  1.00  0.00    -0.390 OA
HETATM   19  H   UNL     1     -21.763  -5.934  -7.332  1.00  0.00     0.210 HD
ENDBRANCH  11  18
BRANCH  12  20
HETATM   20  C   UNL     1     -24.328  -3.223  -9.169  1.00  0.00     0.198 C 
BRANCH  20  21
HETATM   21  O   UNL     1     -25.582  -3.430  -9.806  1.00  0.00    -0.398 OA
HETATM   22  H   UNL     1     -25.889  -2.569 -10.148  1.00  0.00     0.209 HD
ENDBRANCH  20  21
ENDBRANCH  12  20
ENDBRANCH   7   8
ENDBRANCH   1   7
BRANCH   2  23
HETATM   23  C   UNL     1     -24.969  -2.451 -14.280  1.00  0.00     0.198 C 
BRANCH  23  24
HETATM   24  O   UNL     1     -26.375  -2.614 -14.412  1.00  0.00    -0.398 OA
HETATM   25  H   UNL     1     -26.547  -3.458 -14.869  1.00  0.00     0.209 HD
ENDBRANCH  23  24
ENDBRANCH   2  23
BRANCH   6  26
HETATM   26  O   UNL     1     -21.177  -4.440 -15.477  1.00  0.00    -0.390 OA
HETATM   27  H   UNL     1     -20.680  -4.310 -14.638  1.00  0.00     0.210 HD
ENDBRANCH   6  26
BRANCH   5  28
HETATM   28  O   UNL     1     -23.211  -6.169 -16.634  1.00  0.00    -0.388 OA
HETATM   29  H   UNL     1     -22.332  -5.927 -16.978  1.00  0.00     0.210 HD
ENDBRANCH   5  28
BRANCH   4  30
HETATM   30  O   UNL     1     -25.795  -5.301 -15.799  1.00  0.00    -0.348 OA
BRANCH  30  31
HETATM   31  C   UNL     1     -26.017  -6.421 -16.704  1.00  0.00     0.187 C 
HETATM   32  C   UNL     1     -26.119  -6.007 -18.190  1.00  0.00     0.180 C 
HETATM   33  O   UNL     1     -27.416  -5.535 -18.584  1.00  0.00    -0.349 OA
HETATM   34  C   UNL     1     -28.516  -6.367 -18.283  1.00  0.00     0.288 C 
HETATM   35  C   UNL     1     -28.601  -6.714 -16.790  1.00  0.00     0.204 C 
HETATM   36  C   UNL     1     -27.256  -7.250 -16.276  1.00  0.00     0.183 C 
BRANCH  32  37
HETATM   37  C   UNL     1     -25.600  -7.113 -19.126  1.00  0.00     0.198 C 
BRANCH  37  38
HETATM   38  O   UNL     1     -24.321  -7.559 -18.685  1.00  0.00    -0.398 OA
HETATM   39  H   UNL     1     -24.332  -8.531 -18.782  1.00  0.00     0.209 HD
ENDBRANCH  37  38
ENDBRANCH  32  37
BRANCH  34  40
HETATM   40  O   UNL     1     -28.528  -7.525 -19.111  1.00  0.00    -0.369 OA
HETATM   41  H   UNL     1     -28.899  -7.282 -19.978  1.00  0.00     0.212 HD
ENDBRANCH  34  40
BRANCH  35  42
HETATM   42  O   UNL     1     -29.615  -7.724 -16.592  1.00  0.00    -0.388 OA
HETATM   43  H   UNL     1     -30.301  -7.372 -15.999  1.00  0.00     0.210 HD
ENDBRANCH  35  42
BRANCH  36  44
HETATM   44  O   UNL     1     -27.294  -7.421 -14.854  1.00  0.00    -0.390 OA
HETATM   45  H   UNL     1     -26.398  -7.699 -14.584  1.00  0.00     0.210 HD
ENDBRANCH  36  44
ENDBRANCH  30  31
ENDBRANCH   4  30
TORSDOF 18
BEGIN_RES ARG D 557
REMARK  4 active torsions:
REMARK  status: ('A' for Active; 'I' for Inactive)
REMARK    1  A    between atoms: CA   and  CB  
REMARK    2  A    between atoms: CB   and  CG  
REMARK    3  A    between atoms: CG   and  CD  
REMARK    4  A    between atoms: CD   and  NE  
REMARK       I    between atoms: NE   and  CZ  
REMARK       I    between atoms: CZ   and  NH1 
REMARK       I    between atoms: CZ   and  NH2 
ROOT
ATOM      1  CA  ARG D 557     -26.217   2.705 -17.014  1.00 35.49     0.159 C 
ENDROOT
BRANCH   1   2
ATOM      2  CB  ARG D 557     -26.789   1.319 -17.183  1.00 35.49     0.034 C 
BRANCH   2   3
ATOM      3  CG  ARG D 557     -28.233   1.226 -17.429  1.00 35.49     0.027 C 
BRANCH   3   4
ATOM      4  CD  ARG D 557     -28.906   0.297 -16.492  1.00 35.49     0.116 C 
BRANCH   4   5
ATOM      5  NE  ARG D 557     -28.219  -0.963 -16.390  1.00 35.49    -0.212 N 
ATOM      6  CZ  ARG D 557     -28.629  -2.104 -16.897  1.00 35.49     0.666 C 
ATOM      7  NH1 ARG D 557     -29.762  -2.218 -17.564  1.00 35.49    -0.235 N 
ATOM      8  NH2 ARG D 557     -27.866  -3.145 -16.725  1.00 35.49    -0.235 N 
ATOM      9  HH  ARG D 557     -30.278  -1.546 -17.690  1.00 35.49     0.174 HD
ATOM     10  HH  ARG D 557     -29.977  -2.988 -17.873  1.00 35.49     0.174 HD
ATOM     11  HH  ARG D 557     -27.136  -3.040 -16.297  1.00 35.49     0.174 HD
ATOM     12  HH  ARG D 557     -28.095  -3.898 -17.041  1.00 35.49     0.174 HD
ATOM     13  HE  ARG D 557     -27.515  -0.997 -15.914  1.00 35.49     0.178 HD
ENDBRANCH   4   5
ENDBRANCH   3   4
ENDBRANCH   2   3
ENDBRANCH   1   2
END_RES ARG D 557
BEGIN_RES GLU D 570
REMARK  3 active torsions:
REMARK  status: ('A' for Active; 'I' for Inactive)
REMARK    5  A    between atoms: CA   and  CB  
REMARK    6  A    between atoms: CB   and  CG  
REMARK    7  A    between atoms: CG   and  CD  
ROOT
ATOM     14  CA  GLU D 570     -18.033  -6.348 -13.375  1.00 32.92     0.160 C 
ENDROOT
BRANCH  14  15
ATOM     15  CB  GLU D 570     -19.500  -6.345 -13.794  1.00 32.92     0.043 C 
BRANCH  15  16
ATOM     16  CG  GLU D 570     -20.127  -7.657 -14.101  1.00 32.92     0.100 C 
BRANCH  16  17
ATOM     17  CD  GLU D 570     -20.443  -7.829 -15.569  1.00 32.92     0.185 C 
ATOM     18  OE1 GLU D 570     -20.835  -8.940 -15.976  1.00 32.92    -0.647 OA
ATOM     19  OE2 GLU D 570     -20.281  -6.849 -16.321  1.00 32.92    -0.647 OA
ENDBRANCH  16  17
ENDBRANCH  15  16
ENDBRANCH  14  15
END_RES GLU D 570
ENDMDL
MODEL 2
REMARK VINA RESULT:      -7.3      2.697      5.548
REMARK  18 active torsions:
REMARK  status: ('A' for Active; 'I' for Inactive)
REMARK    1  A    between atoms: C_1  and  C_2 
REMARK    2  A    between atoms: C_1  and  O_34 
REMARK    3  A    between atoms: C_3  and  O_33 
REMARK    4  A    between atoms: C_4  and  O_32 
REMARK    5  A    between atoms: C_5  and  O_31 
REMARK    6  A    between atoms: C_6  and  O_8 
REMARK    7  A    between atoms: O_8  and  C_9 
REMARK    8  A    between atoms: C_10  and  C_29 
REMARK    9  A    between atoms: C_12  and  O_17 
REMARK   10  A    between atoms: C_13  and  O_16 
REMARK   11  A    between atoms: C_14  and  O_15 
REMARK   12  A    between atoms: O_17  and  C_18 
REMARK   13  A    between atoms: C_19  and  C_27 
REMARK   14  A    between atoms: C_21  and  O_26 
REMARK   15  A    between atoms: C_22  and  O_25 
REMARK   16  A    between atoms: C_23  and  O_24 
REMARK   17  A    between atoms: C_27  and  O_28 
REMARK   18  A    between atoms: C_29  and  O_30 
ROOT
HETATM    1  C   UNL     1     -21.007  -4.715  -7.779  1.00  0.00     0.187 C 
HETATM    2  C   UNL     1     -22.465  -4.783  -8.299  1.00  0.00     0.180 C 
HETATM    3  O   UNL     1     -22.551  -5.437  -9.572  1.00  0.00    -0.348 OA
HETATM    4  C   UNL     1     -21.720  -4.949 -10.629  1.00  0.00     0.292 C 
HETATM    5  C   UNL     1     -20.255  -4.641 -10.196  1.00  0.00     0.204 C 
HETATM    6  C   UNL     1     -20.152  -3.976  -8.816  1.00  0.00     0.183 C 
ENDROOT
BRANCH   1   7
HETATM    7  O   UNL     1     -20.575  -6.072  -7.547  1.00  0.00    -0.348 OA
BRANCH   7   8
HETATM    8  C   UNL     1     -21.042  -6.804  -6.406  1.00  0.00     0.292 C 
HETATM    9  C   UNL     1     -21.557  -5.942  -5.220  1.00  0.00     0.204 C 
HETATM   10  C   UNL     1     -22.088  -6.870  -4.114  1.00  0.00     0.183 C 
HETATM   11  C   UNL     1     -21.009  -7.888  -3.702  1.00  0.00     0.180 C 
HETATM   12  C   UNL     1     -20.500  -8.665  -4.931  1.00  0.00     0.179 C 
HETATM   13  O   UNL     1     -20.075  -7.778  -5.995  1.00  0.00    -0.348 OA
BRANCH   9  14
HETATM   14  O   UNL     1     -20.545  -5.113  -4.606  1.00  0.00    -0.388 OA
HETATM   15  H   UNL     1     -19.731  -5.184  -5.160  1.00  0.00     0.210 HD
ENDBRANCH   9  14
BRANCH  10  16
HETATM   16  O   UNL     1     -22.482  -6.081  -2.983  1.00  0.00    -0.390 OA
HETATM   17  H   UNL     1     -23.363  -6.400  -2.703  1.00  0.00     0.210 HD
ENDBRANCH  10  16
BRANCH  11  18
HETATM   18  O   UNL     1     -19.864  -7.233  -3.120  1.00  0.00    -0.390 OA
HETATM   19  H   UNL     1     -19.651  -6.455  -3.669  1.00  0.00     0.210 HD
ENDBRANCH  11  18
BRANCH  12  20
HETATM   20  C   UNL     1     -21.480  -9.737  -5.430  1.00  0.00     0.198 C 
BRANCH  20  21
HETATM   21  O   UNL     1     -20.891 -10.571  -6.419  1.00  0.00    -0.398 OA
HETATM   22  H   UNL     1     -21.348 -10.398  -7.265  1.00  0.00     0.209 HD
ENDBRANCH  20  21
ENDBRANCH  12  20
ENDBRANCH   7   8
ENDBRANCH   1   7
BRANCH   2  23
HETATM   23  C   UNL     1     -23.211  -3.433  -8.243  1.00  0.00     0.198 C 
BRANCH  23  24
HETATM   24  O   UNL     1     -24.607  -3.547  -8.483  1.00  0.00    -0.398 OA
HETATM   25  H   UNL     1     -25.084  -3.209  -7.701  1.00  0.00     0.209 HD
ENDBRANCH  23  24
ENDBRANCH   2  23
BRANCH   6  26
HETATM   26  O   UNL     1     -18.788  -3.867  -8.379  1.00  0.00    -0.390 OA
HETATM   27  H   UNL     1     -18.744  -4.253  -7.476  1.00  0.00     0.210 HD
ENDBRANCH   6  26
BRANCH   5  28
HETATM   28  O   UNL     1     -19.531  -3.915 -11.192  1.00  0.00    -0.388 OA
HETATM   29  H   UNL     1     -19.922  -4.131 -12.057  1.00  0.00     0.210 HD
ENDBRANCH   5  28
BRANCH   4  30
HETATM   30  O   UNL     1     -22.373  -3.932 -11.431  1.00  0.00    -0.348 OA
BRANCH  30  31
HETATM   31  C   UNL     1     -23.427  -4.487 -12.270  1.00  0.00     0.187 C 
HETATM   32  C   UNL     1     -22.944  -4.898 -13.680  1.00  0.00     0.180 C 
HETATM   33  O   UNL     1     -22.877  -3.815 -14.621  1.00  0.00    -0.349 OA
HETATM   34  C   UNL     1     -24.036  -3.024 -14.766  1.00  0.00     0.288 C 
HETATM   35  C   UNL     1     -24.515  -2.430 -13.434  1.00  0.00     0.204 C 
HETATM   36  C   UNL     1     -24.638  -3.523 -12.361  1.00  0.00     0.183 C 
BRANCH  32  37
HETATM   37  C   UNL     1     -23.747  -6.090 -14.232  1.00  0.00     0.198 C 
BRANCH  37  38
HETATM   38  O   UNL     1     -23.596  -6.162 -15.646  1.00  0.00    -0.398 OA
HETATM   39  H   UNL     1     -23.253  -5.288 -15.920  1.00  0.00     0.209 HD
ENDBRANCH  37  38
ENDBRANCH  32  37
BRANCH  34  40
HETATM   40  O   UNL     1     -25.066  -3.736 -15.443  1.00  0.00    -0.369 OA
HETATM   41  H   UNL     1     -24.660  -4.470 -15.937  1.00  0.00     0.212 HD
ENDBRANCH  34  40
BRANCH  35  42
HETATM   42  O   UNL     1     -25.807  -1.812 -13.623  1.00  0.00    -0.388 OA
HETATM   43  H   UNL     1     -25.785  -1.275 -14.435  1.00  0.00     0.210 HD
ENDBRANCH  35  42
BRANCH  36  44
HETATM   44  O   UNL     1     -24.929  -2.942 -11.083  1.00  0.00    -0.390 OA
HETATM   45  H   UNL     1     -25.205  -2.021 -11.253  1.00  0.00     0.210 HD
ENDBRANCH  36  44
ENDBRANCH  30  31
ENDBRANCH   4  30
TORSDOF 18
BEGIN_RES ARG D 557
REMARK  4 active torsions:
REMARK  status: ('A' for Active; 'I' for Inactive)
REMARK    1  A    between atoms: CA   and  CB  
REMARK    2  A    between atoms: CB   and  CG  
REMARK    3  A    between atoms: CG   and  CD  
REMARK    4  A    between atoms: CD   and  NE  
REMARK       I    between atoms: NE   and  CZ  
REMARK       I    between atoms: CZ   and  NH1 
REMARK       I    between atoms: CZ   and  NH2 
ROOT
ATOM      1  CA  ARG D 557     -26.217   2.705 -17.014  1.00 35.49     0.159 C 
ENDROOT
BRANCH   1   2
ATOM      2  CB  ARG D 557     -26.789   1.319 -17.183  1.00 35.49     0.034 C 
BRANCH   2   3
ATOM      3  CG  ARG D 557     -28.229   1.227 -17.451  1.00 35.49     0.027 C 
BRANCH   3   4
ATOM      4  CD  ARG D 557     -28.921   0.315 -16.511  1.00 35.49     0.116 C 
BRANCH   4   5
ATOM      5  NE  ARG D 557     -29.262  -0.941 -17.126  1.00 35.49    -0.212 N 
ATOM      6  CZ  ARG D 557     -28.595  -2.066 -16.998  1.00 35.49     0.666 C 
ATOM      7  NH1 ARG D 557     -27.494  -2.158 -16.275  1.00 35.49    -0.235 N 
ATOM      8  NH2 ARG D 557     -29.061  -3.114 -17.611  1.00 35.49    -0.235 N 
ATOM      9  HH  ARG D 557     -27.170  -1.481 -15.861  1.00 35.49     0.174 HD
ATOM     10  HH  ARG D 557     -27.102  -2.918 -16.225  1.00 35.49     0.174 HD
ATOM     11  HH  ARG D 557     -29.778  -3.027 -18.064  1.00 35.49     0.174 HD
ATOM     12  HH  ARG D 557     -28.660  -3.859 -17.548  1.00 35.49     0.174 HD
ATOM     13  HE  ARG D 557     -29.917  -0.955 -17.669  1.00 35.49     0.178 HD
ENDBRANCH   4   5
ENDBRANCH   3   4
ENDBRANCH   2   3
ENDBRANCH   1   2
END_RES ARG D 557
BEGIN_RES GLU D 570
REMARK  3 active torsions:
REMARK  status: ('A' for Active; 'I' for Inactive)
REMARK    5  A    between atoms: CA   and  CB  
REMARK    6  A    between atoms: CB   and  CG  
REMARK    7  A    between atoms: CG   and  CD  
ROOT
ATOM     14  CA  GLU D 570     -18.033  -6.348 -13.375  1.00 32.92     0.160 C 
ENDROOT
BRANCH  14  15
ATOM     15  CB  GLU D 570     -19.500  -6.345 -13.794  1.00 32.92     0.043 C 
BRANCH  15  16
ATOM     16  CG  GLU D 570     -20.092  -7.638 -14.223  1.00 32.92     0.100 C 
BRANCH  16  17
ATOM     17  CD  GLU D 570     -20.569  -7.621 -15.657  1.00 32.92     0.185 C 
ATOM     18  OE1 GLU D 570     -20.812  -8.702 -16.227  1.00 32.92    -0.647 OA
ATOM     19  OE2 GLU D 570     -20.686  -6.515 -16.221  1.00 32.92    -0.647 OA
ENDBRANCH  16  17
ENDBRANCH  15  16
ENDBRANCH  14  15
END_RES GLU D 570
ENDMDL
MODEL 3
REMARK VINA RESULT:      -6.8      2.897      8.868
REMARK  18 active torsions:
REMARK  status: ('A' for Active; 'I' for Inactive)
REMARK    1  A    between atoms: C_1  and  C_2 
REMARK    2  A    between atoms: C_1  and  O_34 
REMARK    3  A    between atoms: C_3  and  O_33 
REMARK    4  A    between atoms: C_4  and  O_32 
REMARK    5  A    between atoms: C_5  and  O_31 
REMARK    6  A    between atoms: C_6  and  O_8 
REMARK    7  A    between atoms: O_8  and  C_9 
REMARK    8  A    between atoms: C_10  and  C_29 
REMARK    9  A    between atoms: C_12  and  O_17 
REMARK   10  A    between atoms: C_13  and  O_16 
REMARK   11  A    between atoms: C_14  and  O_15 
REMARK   12  A    between atoms: O_17  and  C_18 
REMARK   13  A    between atoms: C_19  and  C_27 
REMARK   14  A    between atoms: C_21  and  O_26 
REMARK   15  A    between atoms: C_22  and  O_25 
REMARK   16  A    between atoms: C_23  and  O_24 
REMARK   17  A    between atoms: C_27  and  O_28 
REMARK   18  A    between atoms: C_29  and  O_30 
ROOT
HETATM    1  C   UNL     1     -22.042  -3.850  -9.796  1.00  0.00     0.187 C 
HETATM    2  C   UNL     1     -20.697  -4.391  -9.249  1.00  0.00     0.180 C 
HETATM    3  O   UNL     1     -20.879  -5.554  -8.430  1.00  0.00    -0.348 OA
HETATM    4  C   UNL     1     -21.802  -5.464  -7.341  1.00  0.00     0.292 C 
HETATM    5  C   UNL     1     -23.140  -4.750  -7.699  1.00  0.00     0.204 C 
HETATM    6  C   UNL     1     -22.957  -3.526  -8.608  1.00  0.00     0.183 C 
ENDROOT
BRANCH   1   7
HETATM    7  O   UNL     1     -22.582  -4.861 -10.673  1.00  0.00    -0.348 OA
BRANCH   7   8
HETATM    8  C   UNL     1     -22.884  -4.556 -12.041  1.00  0.00     0.292 C 
HETATM    9  C   UNL     1     -23.105  -3.052 -12.362  1.00  0.00     0.204 C 
HETATM   10  C   UNL     1     -23.342  -2.887 -13.872  1.00  0.00     0.183 C 
HETATM   11  C   UNL     1     -24.506  -3.785 -14.335  1.00  0.00     0.180 C 
HETATM   12  C   UNL     1     -24.252  -5.250 -13.934  1.00  0.00     0.179 C 
HETATM   13  O   UNL     1     -23.953  -5.381 -12.521  1.00  0.00    -0.348 OA
BRANCH   9  14
HETATM   14  O   UNL     1     -24.250  -2.467 -11.703  1.00  0.00    -0.388 OA
HETATM   15  H   UNL     1     -24.079  -1.498 -11.621  1.00  0.00     0.210 HD
ENDBRANCH   9  14
BRANCH  10  16
HETATM   16  O   UNL     1     -23.634  -1.513 -14.158  1.00  0.00    -0.390 OA
HETATM   17  H   UNL     1     -23.012  -0.971 -13.632  1.00  0.00     0.210 HD
ENDBRANCH  10  16
BRANCH  11  18
HETATM   18  O   UNL     1     -25.748  -3.393 -13.718  1.00  0.00    -0.390 OA
HETATM   19  H   UNL     1     -25.562  -3.154 -12.791  1.00  0.00     0.210 HD
ENDBRANCH  11  18
BRANCH  12  20
HETATM   20  C   UNL     1     -23.209  -5.956 -14.812  1.00  0.00     0.198 C 
BRANCH  20  21
HETATM   21  O   UNL     1     -23.744  -6.316 -16.080  1.00  0.00    -0.398 OA
HETATM   22  H   UNL     1     -23.839  -5.500 -16.606  1.00  0.00     0.209 HD
ENDBRANCH  20  21
ENDBRANCH  12  20
ENDBRANCH   7   8
ENDBRANCH   1   7
BRANCH   2  23
HETATM   23  C   UNL     1     -19.806  -3.311  -8.602  1.00  0.00     0.198 C 
BRANCH  23  24
HETATM   24  O   UNL     1     -18.842  -3.836  -7.699  1.00  0.00    -0.398 OA
HETATM   25  H   UNL     1     -18.873  -4.811  -7.745  1.00  0.00     0.209 HD
ENDBRANCH  23  24
ENDBRANCH   2  23
BRANCH   6  26
HETATM   26  O   UNL     1     -24.218  -3.002  -9.054  1.00  0.00    -0.390 OA
HETATM   27  H   UNL     1     -24.751  -3.767  -9.369  1.00  0.00     0.210 HD
ENDBRANCH   6  26
BRANCH   5  28
HETATM   28  O   UNL     1     -23.923  -4.441  -6.543  1.00  0.00    -0.388 OA
HETATM   29  H   UNL     1     -23.392  -3.853  -5.976  1.00  0.00     0.210 HD
ENDBRANCH   5  28
BRANCH   4  30
HETATM   30  O   UNL     1     -21.170  -5.046  -6.104  1.00  0.00    -0.348 OA
BRANCH  30  31
HETATM   31  C   UNL     1     -20.538  -6.159  -5.408  1.00  0.00     0.187 C 
HETATM   32  C   UNL     1     -21.143  -7.536  -5.764  1.00  0.00     0.180 C 
HETATM   33  O   UNL     1     -22.336  -7.864  -5.037  1.00  0.00    -0.349 OA
HETATM   34  C   UNL     1     -22.274  -7.762  -3.631  1.00  0.00     0.288 C 
HETATM   35  C   UNL     1     -21.832  -6.369  -3.160  1.00  0.00     0.204 C 
HETATM   36  C   UNL     1     -20.542  -5.936  -3.873  1.00  0.00     0.183 C 
BRANCH  32  37
HETATM   37  C   UNL     1     -20.091  -8.658  -5.681  1.00  0.00     0.198 C 
BRANCH  37  38
HETATM   38  O   UNL     1     -20.722  -9.924  -5.845  1.00  0.00    -0.398 OA
HETATM   39  H   UNL     1     -21.473  -9.929  -5.219  1.00  0.00     0.209 HD
ENDBRANCH  37  38
ENDBRANCH  32  37
BRANCH  34  40
HETATM   40  O   UNL     1     -21.478  -8.801  -3.073  1.00  0.00    -0.369 OA
HETATM   41  H   UNL     1     -20.628  -8.829  -3.548  1.00  0.00     0.212 HD
ENDBRANCH  34  40
BRANCH  35  42
HETATM   42  O   UNL     1     -21.592  -6.400  -1.736  1.00  0.00    -0.388 OA
HETATM   43  H   UNL     1     -20.814  -6.958  -1.559  1.00  0.00     0.210 HD
ENDBRANCH  35  42
BRANCH  36  44
HETATM   44  O   UNL     1     -20.222  -4.576  -3.552  1.00  0.00    -0.390 OA
HETATM   45  H   UNL     1     -20.094  -4.543  -2.584  1.00  0.00     0.210 HD
ENDBRANCH  36  44
ENDBRANCH  30  31
ENDBRANCH   4  30
TORSDOF 18
BEGIN_RES ARG D 557
REMARK  4 active torsions:
REMARK  status: ('A' for Active; 'I' for Inactive)
REMARK    1  A    between atoms: CA   and  CB  
REMARK    2  A    between atoms: CB   and  CG  
REMARK    3  A    between atoms: CG   and  CD  
REMARK    4  A    between atoms: CD   and  NE  
REMARK       I    between atoms: NE   and  CZ  
REMARK       I    between atoms: CZ   and  NH1 
REMARK       I    between atoms: CZ   and  NH2 
ROOT
ATOM      1  CA  ARG D 557     -26.217   2.705 -17.014  1.00 35.49     0.159 C 
ENDROOT
BRANCH   1   2
ATOM      2  CB  ARG D 557     -26.789   1.319 -17.183  1.00 35.49     0.034 C 
BRANCH   2   3
ATOM      3  CG  ARG D 557     -28.235   1.225 -17.417  1.00 35.49     0.027 C 
BRANCH   3   4
ATOM      4  CD  ARG D 557     -28.898   0.283 -16.486  1.00 35.49     0.116 C 
BRANCH   4   5
ATOM      5  NE  ARG D 557     -29.227  -0.965 -17.121  1.00 35.49    -0.212 N 
ATOM      6  CZ  ARG D 557     -28.567  -2.094 -16.986  1.00 35.49     0.666 C 
ATOM      7  NH1 ARG D 557     -27.485  -2.197 -16.237  1.00 35.49    -0.235 N 
ATOM      8  NH2 ARG D 557     -29.022  -3.135 -17.621  1.00 35.49    -0.235 N 
ATOM      9  HH  ARG D 557     -27.170  -1.525 -15.809  1.00 35.49     0.174 HD
ATOM     10  HH  ARG D 557     -27.098  -2.960 -16.184  1.00 35.49     0.174 HD
ATOM     11  HH  ARG D 557     -29.727  -3.040 -18.091  1.00 35.49     0.174 HD
ATOM     12  HH  ARG D 557     -28.626  -3.881 -17.555  1.00 35.49     0.174 HD
ATOM     13  HE  ARG D 557     -29.869  -0.972 -17.680  1.00 35.49     0.178 HD
ENDBRANCH   4   5
ENDBRANCH   3   4
ENDBRANCH   2   3
ENDBRANCH   1   2
END_RES ARG D 557
BEGIN_RES GLU D 570
REMARK  3 active torsions:
REMARK  status: ('A' for Active; 'I' for Inactive)
REMARK    5  A    between atoms: CA   and  CB  
REMARK    6  A    between atoms: CB   and  CG  
REMARK    7  A    between atoms: CG   and  CD  
ROOT
ATOM     14  CA  GLU D 570     -18.033  -6.348 -13.375  1.00 32.92     0.160 C 
ENDROOT
BRANCH  14  15
ATOM     15  CB  GLU D 570     -19.500  -6.345 -13.794  1.00 32.92     0.043 C 
BRANCH  15  16
ATOM     16  CG  GLU D 570     -19.796  -6.384 -15.249  1.00 32.92     0.100 C 
BRANCH  16  17
ATOM     17  CD  GLU D 570     -20.488  -7.658 -15.676  1.00 32.92     0.185 C 
ATOM     18  OE1 GLU D 570     -20.502  -8.630 -14.896  1.00 32.92    -0.647 OA
ATOM     19  OE2 GLU D 570     -21.008  -7.690 -16.809  1.00 32.92    -0.647 OA
ENDBRANCH  16  17
ENDBRANCH  15  16
ENDBRANCH  14  15
END_RES GLU D 570
ENDMDL
MODEL 4
REMARK VINA RESULT:      -6.6      3.866      9.310
REMARK  18 active torsions:
REMARK  status: ('A' for Active; 'I' for Inactive)
REMARK    1  A    between atoms: C_1  and  C_2 
REMARK    2  A    between atoms: C_1  and  O_34 
REMARK    3  A    between atoms: C_3  and  O_33 
REMARK    4  A    between atoms: C_4  and  O_32 
REMARK    5  A    between atoms: C_5  and  O_31 
REMARK    6  A    between atoms: C_6  and  O_8 
REMARK    7  A    between atoms: O_8  and  C_9 
REMARK    8  A    between atoms: C_10  and  C_29 
REMARK    9  A    between atoms: C_12  and  O_17 
REMARK   10  A    between atoms: C_13  and  O_16 
REMARK   11  A    between atoms: C_14  and  O_15 
REMARK   12  A    between atoms: O_17  and  C_18 
REMARK   13  A    between atoms: C_19  and  C_27 
REMARK   14  A    between atoms: C_21  and  O_26 
REMARK   15  A    between atoms: C_22  and  O_25 
REMARK   16  A    between atoms: C_23  and  O_24 
REMARK   17  A    between atoms: C_27  and  O_28 
REMARK   18  A    between atoms: C_29  and  O_30 
ROOT
HETATM    1  C   UNL     1     -21.290  -4.752  -7.927  1.00  0.00     0.187 C 
HETATM    2  C   UNL     1     -19.902  -5.353  -7.590  1.00  0.00     0.180 C 
HETATM    3  O   UNL     1     -20.001  -6.708  -7.132  1.00  0.00    -0.348 OA
HETATM    4  C   UNL     1     -20.883  -6.979  -6.040  1.00  0.00     0.292 C 
HETATM    5  C   UNL     1     -22.264  -6.266  -6.145  1.00  0.00     0.204 C 
HETATM    6  C   UNL     1     -22.171  -4.827  -6.673  1.00  0.00     0.183 C 
ENDROOT
BRANCH   1   7
HETATM    7  O   UNL     1     -21.819  -5.501  -9.041  1.00  0.00    -0.348 OA
BRANCH   7   8
HETATM    8  C   UNL     1     -22.474  -4.831 -10.126  1.00  0.00     0.292 C 
HETATM    9  C   UNL     1     -21.684  -4.785 -11.463  1.00  0.00     0.204 C 
HETATM   10  C   UNL     1     -22.549  -4.106 -12.538  1.00  0.00     0.183 C 
HETATM   11  C   UNL     1     -23.011  -2.718 -12.058  1.00  0.00     0.180 C 
HETATM   12  C   UNL     1     -23.734  -2.827 -10.702  1.00  0.00     0.179 C 
HETATM   13  O   UNL     1     -22.939  -3.538  -9.720  1.00  0.00    -0.348 OA
BRANCH   9  14
HETATM   14  O   UNL     1     -20.451  -4.036 -11.398  1.00  0.00    -0.388 OA
HETATM   15  H   UNL     1     -20.099  -3.967 -12.318  1.00  0.00     0.210 HD
ENDBRANCH   9  14
BRANCH  10  16
HETATM   16  O   UNL     1     -21.789  -3.982 -13.749  1.00  0.00    -0.390 OA
HETATM   17  H   UNL     1     -22.295  -4.436 -14.453  1.00  0.00     0.210 HD
ENDBRANCH  10  16
BRANCH  11  18
HETATM   18  O   UNL     1     -21.893  -1.830 -11.864  1.00  0.00    -0.390 OA
HETATM   19  H   UNL     1     -21.247  -2.280 -11.288  1.00  0.00     0.210 HD
ENDBRANCH  11  18
BRANCH  12  20
HETATM   20  C   UNL     1     -25.158  -3.390 -10.808  1.00  0.00     0.198 C 
BRANCH  20  21
HETATM   21  O   UNL     1     -25.894  -3.194  -9.606  1.00  0.00    -0.398 OA
HETATM   22  H   UNL     1     -26.455  -3.980  -9.469  1.00  0.00     0.209 HD
ENDBRANCH  20  21
ENDBRANCH  12  20
ENDBRANCH   7   8
ENDBRANCH   1   7
BRANCH   2  23
HETATM   23  C   UNL     1     -19.035  -4.454  -6.686  1.00  0.00     0.198 C 
BRANCH  23  24
HETATM   24  O   UNL     1     -17.781  -4.110  -7.262  1.00  0.00    -0.398 OA
HETATM   25  H   UNL     1     -17.615  -4.704  -8.018  1.00  0.00     0.209 HD
ENDBRANCH  23  24
ENDBRANCH   2  23
BRANCH   6  26
HETATM   26  O   UNL     1     -23.471  -4.266  -6.920  1.00  0.00    -0.390 OA
HETATM   27  H   UNL     1     -23.371  -3.288  -6.891  1.00  0.00     0.210 HD
ENDBRANCH   6  26
BRANCH   5  28
HETATM   28  O   UNL     1     -23.013  -6.339  -4.930  1.00  0.00    -0.388 OA
HETATM   29  H   UNL     1     -23.939  -6.120  -5.141  1.00  0.00     0.210 HD
ENDBRANCH   5  28
BRANCH   4  30
HETATM   30  O   UNL     1     -20.222  -6.895  -4.751  1.00  0.00    -0.348 OA
BRANCH  30  31
HETATM   31  C   UNL     1     -19.753  -8.196  -4.290  1.00  0.00     0.187 C 
HETATM   32  C   UNL     1     -19.949  -9.327  -5.325  1.00  0.00     0.180 C 
HETATM   33  O   UNL     1     -21.267  -9.896  -5.336  1.00  0.00    -0.349 OA
HETATM   34  C   UNL     1     -21.781 -10.338  -4.099  1.00  0.00     0.288 C 
HETATM   35  C   UNL     1     -21.780  -9.234  -3.032  1.00  0.00     0.204 C 
HETATM   36  C   UNL     1     -20.397  -8.574  -2.931  1.00  0.00     0.183 C 
BRANCH  32  37
HETATM   37  C   UNL     1     -18.857 -10.406  -5.202  1.00  0.00     0.198 C 
BRANCH  37  38
HETATM   38  O   UNL     1     -17.571  -9.796  -5.222  1.00  0.00    -0.398 OA
HETATM   39  H   UNL     1     -17.095 -10.206  -5.971  1.00  0.00     0.209 HD
ENDBRANCH  37  38
ENDBRANCH  32  37
BRANCH  34  40
HETATM   40  O   UNL     1     -21.120 -11.520  -3.658  1.00  0.00    -0.369 OA
HETATM   41  H   UNL     1     -20.161 -11.358  -3.665  1.00  0.00     0.212 HD
ENDBRANCH  34  40
BRANCH  35  42
HETATM   42  O   UNL     1     -22.120  -9.809  -1.751  1.00  0.00    -0.388 OA
HETATM   43  H   UNL     1     -22.786  -9.246  -1.318  1.00  0.00     0.210 HD
ENDBRANCH  35  42
BRANCH  36  44
HETATM   44  O   UNL     1     -20.443  -7.443  -2.051  1.00  0.00    -0.390 OA
HETATM   45  H   UNL     1     -19.837  -7.642  -1.312  1.00  0.00     0.210 HD
ENDBRANCH  36  44
ENDBRANCH  30  31
ENDBRANCH   4  30
TORSDOF 18
BEGIN_RES ARG D 557
REMARK  4 active torsions:
REMARK  status: ('A' for Active; 'I' for Inactive)
REMARK    1  A    between atoms: CA   and  CB  
REMARK    2  A    between atoms: CB   and  CG  
REMARK    3  A    between atoms: CG   and  CD  
REMARK    4  A    between atoms: CD   and  NE  
REMARK       I    between atoms: NE   and  CZ  
REMARK       I    between atoms: CZ   and  NH1 
REMARK       I    between atoms: CZ   and  NH2 
ROOT
ATOM      1  CA  ARG D 557     -26.217   2.705 -17.014  1.00 35.49     0.159 C 
ENDROOT
BRANCH   1   2
ATOM      2  CB  ARG D 557     -26.789   1.319 -17.183  1.00 35.49     0.034 C 
BRANCH   2   3
ATOM      3  CG  ARG D 557     -28.225   1.161 -16.925  1.00 35.49     0.027 C 
BRANCH   3   4
ATOM      4  CD  ARG D 557     -28.611  -0.255 -16.729  1.00 35.49     0.116 C 
BRANCH   4   5
ATOM      5  NE  ARG D 557     -27.603  -0.999 -16.022  1.00 35.49    -0.212 N 
ATOM      6  CZ  ARG D 557     -27.420  -2.299 -16.087  1.00 35.49     0.666 C 
ATOM      7  NH1 ARG D 557     -28.181  -3.086 -16.826  1.00 35.49    -0.235 N 
ATOM      8  NH2 ARG D 557     -26.441  -2.803 -15.394  1.00 35.49    -0.235 N 
ATOM      9  HH  ARG D 557     -28.829  -2.775 -17.292  1.00 35.49     0.174 HD
ATOM     10  HH  ARG D 557     -28.012  -3.926 -16.831  1.00 35.49     0.174 HD
ATOM     11  HH  ARG D 557     -25.961  -2.270 -14.932  1.00 35.49     0.174 HD
ATOM     12  HH  ARG D 557     -26.289  -3.637 -15.414  1.00 35.49     0.174 HD
ATOM     13  HE  ARG D 557     -27.114  -0.581 -15.466  1.00 35.49     0.178 HD
ENDBRANCH   4   5
ENDBRANCH   3   4
ENDBRANCH   2   3
ENDBRANCH   1   2
END_RES ARG D 557
BEGIN_RES GLU D 570
REMARK  3 active torsions:
REMARK  status: ('A' for Active; 'I' for Inactive)
REMARK    5  A    between atoms: CA   and  CB  
REMARK    6  A    between atoms: CB   and  CG  
REMARK    7  A    between atoms: CG   and  CD  
ROOT
ATOM     14  CA  GLU D 570     -18.033  -6.348 -13.375  1.00 32.92     0.160 C 
ENDROOT
BRANCH  14  15
ATOM     15  CB  GLU D 570     -19.500  -6.345 -13.794  1.00 32.92     0.043 C 
BRANCH  15  16
ATOM     16  CG  GLU D 570     -20.080  -7.629 -14.266  1.00 32.92     0.100 C 
BRANCH  16  17
ATOM     17  CD  GLU D 570     -21.154  -7.442 -15.311  1.00 32.92     0.185 C 
ATOM     18  OE1 GLU D 570     -21.993  -6.533 -15.161  1.00 32.92    -0.647 OA
ATOM     19  OE2 GLU D 570     -21.167  -8.223 -16.283  1.00 32.92    -0.647 OA
ENDBRANCH  16  17
ENDBRANCH  15  16
ENDBRANCH  14  15
END_RES GLU D 570
ENDMDL
MODEL 5
REMARK VINA RESULT:      -6.5      4.042      9.825
REMARK  18 active torsions:
REMARK  status: ('A' for Active; 'I' for Inactive)
REMARK    1  A    between atoms: C_1  and  C_2 
REMARK    2  A    between atoms: C_1  and  O_34 
REMARK    3  A    between atoms: C_3  and  O_33 
REMARK    4  A    between atoms: C_4  and  O_32 
REMARK    5  A    between atoms: C_5  and  O_31 
REMARK    6  A    between atoms: C_6  and  O_8 
REMARK    7  A    between atoms: O_8  and  C_9 
REMARK    8  A    between atoms: C_10  and  C_29 
REMARK    9  A    between atoms: C_12  and  O_17 
REMARK   10  A    between atoms: C_13  and  O_16 
REMARK   11  A    between atoms: C_14  and  O_15 
REMARK   12  A    between atoms: O_17  and  C_18 
REMARK   13  A    between atoms: C_19  and  C_27 
REMARK   14  A    between atoms: C_21  and  O_26 
REMARK   15  A    between atoms: C_22  and  O_25 
REMARK   16  A    between atoms: C_23  and  O_24 
REMARK   17  A    between atoms: C_27  and  O_28 
REMARK   18  A    between atoms: C_29  and  O_30 
ROOT
HETATM    1  C   UNL     1     -21.448  -4.695  -8.017  1.00  0.00     0.187 C 
HETATM    2  C   UNL     1     -20.116  -5.354  -7.577  1.00  0.00     0.180 C 
HETATM    3  O   UNL     1     -20.314  -6.683  -7.077  1.00  0.00    -0.348 OA
HETATM    4  C   UNL     1     -21.272  -6.866  -6.030  1.00  0.00     0.292 C 
HETATM    5  C   UNL     1     -22.604  -6.086  -6.244  1.00  0.00     0.204 C 
HETATM    6  C   UNL     1     -22.402  -4.676  -6.816  1.00  0.00     0.183 C 
ENDROOT
BRANCH   1   7
HETATM    7  O   UNL     1     -21.951  -5.458  -9.133  1.00  0.00    -0.348 OA
BRANCH   7   8
HETATM    8  C   UNL     1     -22.597  -4.804 -10.234  1.00  0.00     0.292 C 
HETATM    9  C   UNL     1     -21.800  -4.789 -11.568  1.00  0.00     0.204 C 
HETATM   10  C   UNL     1     -22.655  -4.123 -12.659  1.00  0.00     0.183 C 
HETATM   11  C   UNL     1     -23.110  -2.723 -12.207  1.00  0.00     0.180 C 
HETATM   12  C   UNL     1     -23.839  -2.801 -10.852  1.00  0.00     0.179 C 
HETATM   13  O   UNL     1     -23.053  -3.500  -9.854  1.00  0.00    -0.348 OA
BRANCH   9  14
HETATM   14  O   UNL     1     -20.562  -4.047 -11.511  1.00  0.00    -0.388 OA
HETATM   15  H   UNL     1     -20.628  -3.423 -10.749  1.00  0.00     0.210 HD
ENDBRANCH   9  14
BRANCH  10  16
HETATM   16  O   UNL     1     -21.889  -4.028 -13.868  1.00  0.00    -0.390 OA
HETATM   17  H   UNL     1     -22.309  -4.623 -14.521  1.00  0.00     0.210 HD
ENDBRANCH  10  16
BRANCH  11  18
HETATM   18  O   UNL     1     -21.985  -1.840 -12.024  1.00  0.00    -0.390 OA
HETATM   19  H   UNL     1     -22.188  -1.243 -11.279  1.00  0.00     0.210 HD
ENDBRANCH  11  18
BRANCH  12  20
HETATM   20  C   UNL     1     -25.267  -3.356 -10.954  1.00  0.00     0.198 C 
BRANCH  20  21
HETATM   21  O   UNL     1     -25.942  -3.308  -9.703  1.00  0.00    -0.398 OA
HETATM   22  H   UNL     1     -25.724  -4.125  -9.216  1.00  0.00     0.209 HD
ENDBRANCH  20  21
ENDBRANCH  12  20
ENDBRANCH   7   8
ENDBRANCH   1   7
BRANCH   2  23
HETATM   23  C   UNL     1     -19.255  -4.467  -6.655  1.00  0.00     0.198 C 
BRANCH  23  24
HETATM   24  O   UNL     1     -18.020  -4.073  -7.238  1.00  0.00    -0.398 OA
HETATM   25  H   UNL     1     -17.376  -4.797  -7.119  1.00  0.00     0.209 HD
ENDBRANCH  23  24
ENDBRANCH   2  23
BRANCH   6  26
HETATM   26  O   UNL     1     -23.653  -4.058  -7.160  1.00  0.00    -0.390 OA
HETATM   27  H   UNL     1     -24.274  -4.782  -7.402  1.00  0.00     0.210 HD
ENDBRANCH   6  26
BRANCH   5  28
HETATM   28  O   UNL     1     -23.425  -6.073  -5.074  1.00  0.00    -0.388 OA
HETATM   29  H   UNL     1     -24.016  -6.845  -5.120  1.00  0.00     0.210 HD
ENDBRANCH   5  28
BRANCH   4  30
HETATM   30  O   UNL     1     -20.683  -6.766  -4.708  1.00  0.00    -0.348 OA
BRANCH  30  31
HETATM   31  C   UNL     1     -21.200  -7.782  -3.800  1.00  0.00     0.187 C 
HETATM   32  C   UNL     1     -20.860  -7.517  -2.316  1.00  0.00     0.180 C 
HETATM   33  O   UNL     1     -19.548  -7.948  -1.924  1.00  0.00    -0.349 OA
HETATM   34  C   UNL     1     -19.199  -9.283  -2.223  1.00  0.00     0.288 C 
HETATM   35  C   UNL     1     -19.350  -9.611  -3.715  1.00  0.00     0.204 C 
HETATM   36  C   UNL     1     -20.740  -9.201  -4.227  1.00  0.00     0.183 C 
BRANCH  32  37
HETATM   37  C   UNL     1     -21.950  -8.064  -1.376  1.00  0.00     0.198 C 
BRANCH  37  38
HETATM   38  O   UNL     1     -21.521  -7.952  -0.023  1.00  0.00    -0.398 OA
HETATM   39  H   UNL     1     -21.393  -6.996   0.136  1.00  0.00     0.209 HD
ENDBRANCH  37  38
ENDBRANCH  32  37
BRANCH  34  40
HETATM   40  O   UNL     1     -19.904 -10.199  -1.392  1.00  0.00    -0.369 OA
HETATM   41  H   UNL     1     -20.110 -10.995  -1.914  1.00  0.00     0.212 HD
ENDBRANCH  34  40
BRANCH  35  42
HETATM   42  O   UNL     1     -19.180 -11.032  -3.911  1.00  0.00    -0.388 OA
HETATM   43  H   UNL     1     -19.288 -11.485  -3.056  1.00  0.00     0.210 HD
ENDBRANCH  35  42
BRANCH  36  44
HETATM   44  O   UNL     1     -20.819  -9.361  -5.649  1.00  0.00    -0.390 OA
HETATM   45  H   UNL     1     -21.603  -9.917  -5.822  1.00  0.00     0.210 HD
ENDBRANCH  36  44
ENDBRANCH  30  31
ENDBRANCH   4  30
TORSDOF 18
BEGIN_RES ARG D 557
REMARK  4 active torsions:
REMARK  status: ('A' for Active; 'I' for Inactive)
REMARK    1  A    between atoms: CA   and  CB  
REMARK    2  A    between atoms: CB   and  CG  
REMARK    3  A    between atoms: CG   and  CD  
REMARK    4  A    between atoms: CD   and  NE  
REMARK       I    between atoms: NE   and  CZ  
REMARK       I    between atoms: CZ   and  NH1 
REMARK       I    between atoms: CZ   and  NH2 
ROOT
ATOM      1  CA  ARG D 557     -26.217   2.705 -17.014  1.00 35.49     0.159 C 
ENDROOT
BRANCH   1   2
ATOM      2  CB  ARG D 557     -26.789   1.319 -17.183  1.00 35.49     0.034 C 
BRANCH   2   3
ATOM      3  CG  ARG D 557     -28.242   1.180 -17.026  1.00 35.49     0.027 C 
BRANCH   3   4
ATOM      4  CD  ARG D 557     -28.659  -0.230 -16.857  1.00 35.49     0.116 C 
BRANCH   4   5
ATOM      5  NE  ARG D 557     -27.692  -0.997 -16.117  1.00 35.49    -0.212 N 
ATOM      6  CZ  ARG D 557     -27.553  -2.303 -16.158  1.00 35.49     0.666 C 
ATOM      7  NH1 ARG D 557     -28.325  -3.076 -16.899  1.00 35.49    -0.235 N 
ATOM      8  NH2 ARG D 557     -26.606  -2.829 -15.436  1.00 35.49    -0.235 N 
ATOM      9  HH  ARG D 557     -28.953  -2.751 -17.384  1.00 35.49     0.174 HD
ATOM     10  HH  ARG D 557     -28.186  -3.921 -16.888  1.00 35.49     0.174 HD
ATOM     11  HH  ARG D 557     -26.118  -2.305 -14.972  1.00 35.49     0.174 HD
ATOM     12  HH  ARG D 557     -26.483  -3.668 -15.439  1.00 35.49     0.174 HD
ATOM     13  HE  ARG D 557     -27.200  -0.586 -15.558  1.00 35.49     0.178 HD
ENDBRANCH   4   5
ENDBRANCH   3   4
ENDBRANCH   2   3
ENDBRANCH   1   2
END_RES ARG D 557
BEGIN_RES GLU D 570
REMARK  3 active torsions:
REMARK  status: ('A' for Active; 'I' for Inactive)
REMARK    5  A    between atoms: CA   and  CB  
REMARK    6  A    between atoms: CB   and  CG  
REMARK    7  A    between atoms: CG   and  CD  
ROOT
ATOM     14  CA  GLU D 570     -18.033  -6.348 -13.375  1.00 32.92     0.160 C 
ENDROOT
BRANCH  14  15
ATOM     15  CB  GLU D 570     -19.500  -6.345 -13.794  1.00 32.92     0.043 C 
BRANCH  15  16
ATOM     16  CG  GLU D 570     -19.801  -6.541 -15.236  1.00 32.92     0.100 C 
BRANCH  16  17
ATOM     17  CD  GLU D 570     -21.117  -7.244 -15.474  1.00 32.92     0.185 C 
ATOM     18  OE1 GLU D 570     -21.119  -8.341 -16.064  1.00 32.92    -0.647 OA
ATOM     19  OE2 GLU D 570     -22.158  -6.683 -15.080  1.00 32.92    -0.647 OA
ENDBRANCH  16  17
ENDBRANCH  15  16
ENDBRANCH  14  15
END_RES GLU D 570
ENDMDL
MODEL 6
REMARK VINA RESULT:      -6.2      8.018     12.822
REMARK  18 active torsions:
REMARK  status: ('A' for Active; 'I' for Inactive)
REMARK    1  A    between atoms: C_1  and  C_2 
REMARK    2  A    between atoms: C_1  and  O_34 
REMARK    3  A    between atoms: C_3  and  O_33 
REMARK    4  A    between atoms: C_4  and  O_32 
REMARK    5  A    between atoms: C_5  and  O_31 
REMARK    6  A    between atoms: C_6  and  O_8 
REMARK    7  A    between atoms: O_8  and  C_9 
REMARK    8  A    between atoms: C_10  and  C_29 
REMARK    9  A    between atoms: C_12  and  O_17 
REMARK   10  A    between atoms: C_13  and  O_16 
REMARK   11  A    between atoms: C_14  and  O_15 
REMARK   12  A    between atoms: O_17  and  C_18 
REMARK   13  A    between atoms: C_19  and  C_27 
REMARK   14  A    between atoms: C_21  and  O_26 
REMARK   15  A    between atoms: C_22  and  O_25 
REMARK   16  A    between atoms: C_23  and  O_24 
REMARK   17  A    between atoms: C_27  and  O_28 
REMARK   18  A    between atoms: C_29  and  O_30 
ROOT
HETATM    1  C   UNL     1     -19.522 -10.096  -4.955  1.00  0.00     0.187 C 
HETATM    2  C   UNL     1     -18.403 -10.169  -3.886  1.00  0.00     0.180 C 
HETATM    3  O   UNL     1     -17.114 -10.385  -4.471  1.00  0.00    -0.348 OA
HETATM    4  C   UNL     1     -16.961 -11.499  -5.355  1.00  0.00     0.292 C 
HETATM    5  C   UNL     1     -18.132 -11.671  -6.369  1.00  0.00     0.204 C 
HETATM    6  C   UNL     1     -19.514 -11.402  -5.759  1.00  0.00     0.183 C 
ENDROOT
BRANCH   1   7
HETATM    7  O   UNL     1     -19.262  -8.928  -5.763  1.00  0.00    -0.348 OA
BRANCH   7   8
HETATM    8  C   UNL     1     -19.822  -7.657  -5.410  1.00  0.00     0.292 C 
HETATM    9  C   UNL     1     -20.746  -7.651  -4.160  1.00  0.00     0.204 C 
HETATM   10  C   UNL     1     -21.200  -6.210  -3.874  1.00  0.00     0.183 C 
HETATM   11  C   UNL     1     -21.863  -5.597  -5.121  1.00  0.00     0.180 C 
HETATM   12  C   UNL     1     -20.919  -5.688  -6.336  1.00  0.00     0.179 C 
HETATM   13  O   UNL     1     -20.437  -7.038  -6.548  1.00  0.00    -0.348 OA
BRANCH   9  14
HETATM   14  O   UNL     1     -21.949  -8.437  -4.309  1.00  0.00    -0.388 OA
HETATM   15  H   UNL     1     -21.726  -9.367  -4.065  1.00  0.00     0.210 HD
ENDBRANCH   9  14
BRANCH  10  16
HETATM   16  O   UNL     1     -22.123  -6.215  -2.776  1.00  0.00    -0.390 OA
HETATM   17  H   UNL     1     -22.862  -6.805  -3.024  1.00  0.00     0.210 HD
ENDBRANCH  10  16
BRANCH  11  18
HETATM   18  O   UNL     1     -23.068  -6.304  -5.477  1.00  0.00    -0.390 OA
HETATM   19  H   UNL     1     -23.792  -5.964  -4.919  1.00  0.00     0.210 HD
ENDBRANCH  11  18
BRANCH  12  20
HETATM   20  C   UNL     1     -19.774  -4.665  -6.302  1.00  0.00     0.198 C 
BRANCH  20  21
HETATM   21  O   UNL     1     -19.133  -4.549  -7.566  1.00  0.00    -0.398 OA
HETATM   22  H   UNL     1     -19.085  -3.600  -7.790  1.00  0.00     0.209 HD
ENDBRANCH  20  21
ENDBRANCH  12  20
ENDBRANCH   7   8
ENDBRANCH   1   7
BRANCH   2  23
HETATM   23  C   UNL     1     -18.721 -11.122  -2.715  1.00  0.00     0.198 C 
BRANCH  23  24
HETATM   24  O   UNL     1     -17.584 -11.449  -1.925  1.00  0.00    -0.398 OA
HETATM   25  H   UNL     1     -17.417 -10.715  -1.304  1.00  0.00     0.209 HD
ENDBRANCH  23  24
ENDBRANCH   2  23
BRANCH   6  26
HETATM   26  O   UNL     1     -20.546 -11.400  -6.760  1.00  0.00    -0.390 OA
HETATM   27  H   UNL     1     -20.141 -11.055  -7.587  1.00  0.00     0.210 HD
ENDBRANCH   6  26
BRANCH   5  28
HETATM   28  O   UNL     1     -18.086 -12.926  -7.052  1.00  0.00    -0.388 OA
HETATM   29  H   UNL     1     -17.530 -13.527  -6.525  1.00  0.00     0.210 HD
ENDBRANCH   5  28
BRANCH   4  30
HETATM   30  O   UNL     1     -16.533 -12.704  -4.670  1.00  0.00    -0.348 OA
BRANCH  30  31
HETATM   31  C   UNL     1     -15.092 -12.902  -4.760  1.00  0.00     0.187 C 
HETATM   32  C   UNL     1     -14.690 -14.220  -5.461  1.00  0.00     0.180 C 
HETATM   33  O   UNL     1     -14.716 -15.375  -4.609  1.00  0.00    -0.349 OA
HETATM   34  C   UNL     1     -14.001 -15.287  -3.395  1.00  0.00     0.288 C 
HETATM   35  C   UNL     1     -14.438 -14.090  -2.539  1.00  0.00     0.204 C 
HETATM   36  C   UNL     1     -14.423 -12.795  -3.364  1.00  0.00     0.183 C 
BRANCH  32  37
HETATM   37  C   UNL     1     -13.349 -14.083  -6.205  1.00  0.00     0.198 C 
BRANCH  37  38
HETATM   38  O   UNL     1     -13.186 -12.745  -6.664  1.00  0.00    -0.398 OA
HETATM   39  H   UNL     1     -12.224 -12.625  -6.794  1.00  0.00     0.209 HD
ENDBRANCH  37  38
ENDBRANCH  32  37
BRANCH  34  40
HETATM   40  O   UNL     1     -12.596 -15.309  -3.621  1.00  0.00    -0.369 OA
HETATM   41  H   UNL     1     -12.437 -15.464  -4.569  1.00  0.00     0.212 HD
ENDBRANCH  34  40
BRANCH  35  42
HETATM   42  O   UNL     1     -13.531 -13.945  -1.424  1.00  0.00    -0.388 OA
HETATM   43  H   UNL     1     -13.427 -12.998  -1.222  1.00  0.00     0.210 HD
ENDBRANCH  35  42
BRANCH  36  44
HETATM   44  O   UNL     1     -14.983 -11.712  -2.609  1.00  0.00    -0.390 OA
HETATM   45  H   UNL     1     -15.037 -10.949  -3.217  1.00  0.00     0.210 HD
ENDBRANCH  36  44
ENDBRANCH  30  31
ENDBRANCH   4  30
TORSDOF 18
BEGIN_RES ARG D 557
REMARK  4 active torsions:
REMARK  status: ('A' for Active; 'I' for Inactive)
REMARK    1  A    between atoms: CA   and  CB  
REMARK    2  A    between atoms: CB   and  CG  
REMARK    3  A    between atoms: CG   and  CD  
REMARK    4  A    between atoms: CD   and  NE  
REMARK       I    between atoms: NE   and  CZ  
REMARK       I    between atoms: CZ   and  NH1 
REMARK       I    between atoms: CZ   and  NH2 
ROOT
ATOM      1  CA  ARG D 557     -26.217   2.705 -17.014  1.00 35.49     0.159 C 
ENDROOT
BRANCH   1   2
ATOM      2  CB  ARG D 557     -26.789   1.319 -17.183  1.00 35.49     0.034 C 
BRANCH   2   3
ATOM      3  CG  ARG D 557     -25.834   0.204 -17.169  1.00 35.49     0.027 C 
BRANCH   3   4
ATOM      4  CD  ARG D 557     -24.756   0.397 -16.172  1.00 35.49     0.116 C 
BRANCH   4   5
ATOM      5  NE  ARG D 557     -24.923  -0.453 -15.022  1.00 35.49    -0.212 N 
ATOM      6  CZ  ARG D 557     -24.112  -1.422 -14.660  1.00 35.49     0.666 C 
ATOM      7  NH1 ARG D 557     -23.029  -1.735 -15.347  1.00 35.49    -0.235 N 
ATOM      8  NH2 ARG D 557     -24.407  -2.077 -13.575  1.00 35.49    -0.235 N 
ATOM      9  HH  ARG D 557     -22.814  -1.316 -16.063  1.00 35.49     0.174 HD
ATOM     10  HH  ARG D 557     -22.536  -2.375 -15.061  1.00 35.49     0.174 HD
ATOM     11  HH  ARG D 557     -25.109  -1.848 -13.147  1.00 35.49     0.174 HD
ATOM     12  HH  ARG D 557     -23.906  -2.707 -13.307  1.00 35.49     0.174 HD
ATOM     13  HE  ARG D 557     -25.633  -0.369 -14.563  1.00 35.49     0.178 HD
ENDBRANCH   4   5
ENDBRANCH   3   4
ENDBRANCH   2   3
ENDBRANCH   1   2
END_RES ARG D 557
BEGIN_RES GLU D 570
REMARK  3 active torsions:
REMARK  status: ('A' for Active; 'I' for Inactive)
REMARK    5  A    between atoms: CA   and  CB  
REMARK    6  A    between atoms: CB   and  CG  
REMARK    7  A    between atoms: CG   and  CD  
ROOT
ATOM     14  CA  GLU D 570     -18.033  -6.348 -13.375  1.00 32.92     0.160 C 
ENDROOT
BRANCH  14  15
ATOM     15  CB  GLU D 570     -19.500  -6.345 -13.794  1.00 32.92     0.043 C 
BRANCH  15  16
ATOM     16  CG  GLU D 570     -20.442  -5.532 -12.982  1.00 32.92     0.100 C 
BRANCH  16  17
ATOM     17  CD  GLU D 570     -21.615  -5.016 -13.782  1.00 32.92     0.185 C 
ATOM     18  OE1 GLU D 570     -22.404  -4.212 -13.250  1.00 32.92    -0.647 OA
ATOM     19  OE2 GLU D 570     -21.756  -5.433 -14.949  1.00 32.92    -0.647 OA
ENDBRANCH  16  17
ENDBRANCH  15  16
ENDBRANCH  14  15
END_RES GLU D 570
ENDMDL
MODEL 7
REMARK VINA RESULT:      -6.1      9.065     13.574
REMARK  18 active torsions:
REMARK  status: ('A' for Active; 'I' for Inactive)
REMARK    1  A    between atoms: C_1  and  C_2 
REMARK    2  A    between atoms: C_1  and  O_34 
REMARK    3  A    between atoms: C_3  and  O_33 
REMARK    4  A    between atoms: C_4  and  O_32 
REMARK    5  A    between atoms: C_5  and  O_31 
REMARK    6  A    between atoms: C_6  and  O_8 
REMARK    7  A    between atoms: O_8  and  C_9 
REMARK    8  A    between atoms: C_10  and  C_29 
REMARK    9  A    between atoms: C_12  and  O_17 
REMARK   10  A    between atoms: C_13  and  O_16 
REMARK   11  A    between atoms: C_14  and  O_15 
REMARK   12  A    between atoms: O_17  and  C_18 
REMARK   13  A    between atoms: C_19  and  C_27 
REMARK   14  A    between atoms: C_21  and  O_26 
REMARK   15  A    between atoms: C_22  and  O_25 
REMARK   16  A    between atoms: C_23  and  O_24 
REMARK   17  A    between atoms: C_27  and  O_28 
REMARK   18  A    between atoms: C_29  and  O_30 
ROOT
HETATM    1  C   UNL     1     -18.909 -10.472  -2.215  1.00  0.00     0.187 C 
HETATM    2  C   UNL     1     -18.068 -10.097  -3.461  1.00  0.00     0.180 C 
HETATM    3  O   UNL     1     -18.088 -11.130  -4.454  1.00  0.00    -0.348 OA
HETATM    4  C   UNL     1     -17.721 -12.452  -4.047  1.00  0.00     0.292 C 
HETATM    5  C   UNL     1     -18.342 -12.894  -2.688  1.00  0.00     0.204 C 
HETATM    6  C   UNL     1     -18.360 -11.780  -1.632  1.00  0.00     0.183 C 
ENDROOT
BRANCH   1   7
HETATM    7  O   UNL     1     -20.284 -10.572  -2.644  1.00  0.00    -0.348 OA
BRANCH   7   8
HETATM    8  C   UNL     1     -21.330  -9.938  -1.897  1.00  0.00     0.292 C 
HETATM    9  C   UNL     1     -21.306  -8.384  -1.891  1.00  0.00     0.204 C 
HETATM   10  C   UNL     1     -22.528  -7.862  -1.115  1.00  0.00     0.183 C 
HETATM   11  C   UNL     1     -22.570  -8.475   0.297  1.00  0.00     0.180 C 
HETATM   12  C   UNL     1     -22.531 -10.013   0.222  1.00  0.00     0.179 C 
HETATM   13  O   UNL     1     -21.419 -10.489  -0.577  1.00  0.00    -0.348 OA
BRANCH   9  14
HETATM   14  O   UNL     1     -20.143  -7.812  -1.252  1.00  0.00    -0.388 OA
HETATM   15  H   UNL     1     -20.274  -6.834  -1.225  1.00  0.00     0.210 HD
ENDBRANCH   9  14
BRANCH  10  16
HETATM   16  O   UNL     1     -22.460  -6.432  -1.032  1.00  0.00    -0.390 OA
HETATM   17  H   UNL     1     -22.713  -6.185  -0.120  1.00  0.00     0.210 HD
ENDBRANCH  10  16
BRANCH  11  18
HETATM   18  O   UNL     1     -21.430  -8.068   1.080  1.00  0.00    -0.390 OA
HETATM   19  H   UNL     1     -20.642  -8.104   0.507  1.00  0.00     0.210 HD
ENDBRANCH  11  18
BRANCH  12  20
HETATM   20  C   UNL     1     -23.864 -10.641  -0.213  1.00  0.00     0.198 C 
BRANCH  20  21
HETATM   21  O   UNL     1     -23.779 -12.058  -0.287  1.00  0.00    -0.398 OA
HETATM   22  H   UNL     1     -24.000 -12.322  -1.201  1.00  0.00     0.209 HD
ENDBRANCH  20  21
ENDBRANCH  12  20
ENDBRANCH   7   8
ENDBRANCH   1   7
BRANCH   2  23
HETATM   23  C   UNL     1     -16.652  -9.584  -3.127  1.00  0.00     0.198 C 
BRANCH  23  24
HETATM   24  O   UNL     1     -15.743  -9.679  -4.216  1.00  0.00    -0.398 OA
HETATM   25  H   UNL     1     -16.256  -9.811  -5.037  1.00  0.00     0.209 HD
ENDBRANCH  23  24
ENDBRANCH   2  23
BRANCH   6  26
HETATM   26  O   UNL     1     -19.092 -12.172  -0.460  1.00  0.00    -0.390 OA
HETATM   27  H   UNL     1     -19.662 -11.410  -0.209  1.00  0.00     0.210 HD
ENDBRANCH   6  26
BRANCH   5  28
HETATM   28  O   UNL     1     -17.755 -14.096  -2.184  1.00  0.00    -0.388 OA
HETATM   29  H   UNL     1     -17.360 -13.890  -1.318  1.00  0.00     0.210 HD
ENDBRANCH   5  28
BRANCH   4  30
HETATM   30  O   UNL     1     -16.305 -12.716  -4.215  1.00  0.00    -0.348 OA
BRANCH  30  31
HETATM   31  C   UNL     1     -16.039 -13.572  -5.364  1.00  0.00     0.187 C 
HETATM   32  C   UNL     1     -15.662 -15.022  -4.984  1.00  0.00     0.180 C 
HETATM   33  O   UNL     1     -14.282 -15.201  -4.632  1.00  0.00    -0.349 OA
HETATM   34  C   UNL     1     -13.323 -14.724  -5.551  1.00  0.00     0.288 C 
HETATM   35  C   UNL     1     -13.511 -13.237  -5.881  1.00  0.00     0.204 C 
HETATM   36  C   UNL     1     -14.963 -12.947  -6.290  1.00  0.00     0.183 C 
BRANCH  32  37
HETATM   37  C   UNL     1     -16.119 -16.028  -6.056  1.00  0.00     0.198 C 
BRANCH  37  38
HETATM   38  O   UNL     1     -17.297 -15.551  -6.696  1.00  0.00    -0.398 OA
HETATM   39  H   UNL     1     -17.019 -15.281  -7.594  1.00  0.00     0.209 HD
ENDBRANCH  37  38
ENDBRANCH  32  37
BRANCH  34  40
HETATM   40  O   UNL     1     -13.279 -15.537  -6.719  1.00  0.00    -0.369 OA
HETATM   41  H   UNL     1     -14.087 -15.379  -7.237  1.00  0.00     0.212 HD
ENDBRANCH  34  40
BRANCH  35  42
HETATM   42  O   UNL     1     -12.636 -12.875  -6.972  1.00  0.00    -0.388 OA
HETATM   43  H   UNL     1     -13.150 -12.396  -7.645  1.00  0.00     0.210 HD
ENDBRANCH  35  42
BRANCH  36  44
HETATM   44  O   UNL     1     -15.171 -11.537  -6.441  1.00  0.00    -0.390 OA
HETATM   45  H   UNL     1     -14.996 -11.330  -7.379  1.00  0.00     0.210 HD
ENDBRANCH  36  44
ENDBRANCH  30  31
ENDBRANCH   4  30
TORSDOF 18
BEGIN_RES ARG D 557
REMARK  4 active torsions:
REMARK  status: ('A' for Active; 'I' for Inactive)
REMARK    1  A    between atoms: CA   and  CB  
REMARK    2  A    between atoms: CB   and  CG  
REMARK    3  A    between atoms: CG   and  CD  
REMARK    4  A    between atoms: CD   and  NE  
REMARK       I    between atoms: NE   and  CZ  
REMARK       I    between atoms: CZ   and  NH1 
REMARK       I    between atoms: CZ   and  NH2 
ROOT
ATOM      1  CA  ARG D 557     -26.217   2.705 -17.014  1.00 35.49     0.159 C 
ENDROOT
BRANCH   1   2
ATOM      2  CB  ARG D 557     -26.789   1.319 -17.183  1.00 35.49     0.034 C 
BRANCH   2   3
ATOM      3  CG  ARG D 557     -25.835   0.203 -17.161  1.00 35.49     0.027 C 
BRANCH   3   4
ATOM      4  CD  ARG D 557     -24.748   0.410 -16.177  1.00 35.49     0.116 C 
BRANCH   4   5
ATOM      5  NE  ARG D 557     -24.894  -0.435 -15.021  1.00 35.49    -0.212 N 
ATOM      6  CZ  ARG D 557     -24.080  -1.404 -14.670  1.00 35.49     0.666 C 
ATOM      7  NH1 ARG D 557     -23.011  -1.723 -15.377  1.00 35.49    -0.235 N 
ATOM      8  NH2 ARG D 557     -24.356  -2.055 -13.578  1.00 35.49    -0.235 N 
ATOM      9  HH  ARG D 557     -22.809  -1.307 -16.098  1.00 35.49     0.174 HD
ATOM     10  HH  ARG D 557     -22.515  -2.363 -15.098  1.00 35.49     0.174 HD
ATOM     11  HH  ARG D 557     -25.049  -1.822 -13.138  1.00 35.49     0.174 HD
ATOM     12  HH  ARG D 557     -23.851  -2.684 -13.317  1.00 35.49     0.174 HD
ATOM     13  HE  ARG D 557     -25.596  -0.347 -14.548  1.00 35.49     0.178 HD
ENDBRANCH   4   5
ENDBRANCH   3   4
ENDBRANCH   2   3
ENDBRANCH   1   2
END_RES ARG D 557
BEGIN_RES GLU D 570
REMARK  3 active torsions:
REMARK  status: ('A' for Active; 'I' for Inactive)
REMARK    5  A    between atoms: CA   and  CB  
REMARK    6  A    between atoms: CB   and  CG  
REMARK    7  A    between atoms: CG   and  CD  
ROOT
ATOM     14  CA  GLU D 570     -18.033  -6.348 -13.375  1.00 32.92     0.160 C 
ENDROOT
BRANCH  14  15
ATOM     15  CB  GLU D 570     -19.500  -6.345 -13.794  1.00 32.92     0.043 C 
BRANCH  15  16
ATOM     16  CG  GLU D 570     -20.441  -5.526 -12.986  1.00 32.92     0.100 C 
BRANCH  16  17
ATOM     17  CD  GLU D 570     -21.744  -5.252 -13.699  1.00 32.92     0.185 C 
ATOM     18  OE1 GLU D 570     -22.229  -6.132 -14.436  1.00 32.92    -0.647 OA
ATOM     19  OE2 GLU D 570     -22.279  -4.138 -13.532  1.00 32.92    -0.647 OA
ENDBRANCH  16  17
ENDBRANCH  15  16
ENDBRANCH  14  15
END_RES GLU D 570
ENDMDL
MODEL 8
REMARK VINA RESULT:      -6.1      6.603     11.834
REMARK  18 active torsions:
REMARK  status: ('A' for Active; 'I' for Inactive)
REMARK    1  A    between atoms: C_1  and  C_2 
REMARK    2  A    between atoms: C_1  and  O_34 
REMARK    3  A    between atoms: C_3  and  O_33 
REMARK    4  A    between atoms: C_4  and  O_32 
REMARK    5  A    between atoms: C_5  and  O_31 
REMARK    6  A    between atoms: C_6  and  O_8 
REMARK    7  A    between atoms: O_8  and  C_9 
REMARK    8  A    between atoms: C_10  and  C_29 
REMARK    9  A    between atoms: C_12  and  O_17 
REMARK   10  A    between atoms: C_13  and  O_16 
REMARK   11  A    between atoms: C_14  and  O_15 
REMARK   12  A    between atoms: O_17  and  C_18 
REMARK   13  A    between atoms: C_19  and  C_27 
REMARK   14  A    between atoms: C_21  and  O_26 
REMARK   15  A    between atoms: C_22  and  O_25 
REMARK   16  A    between atoms: C_23  and  O_24 
REMARK   17  A    between atoms: C_27  and  O_28 
REMARK   18  A    between atoms: C_29  and  O_30 
ROOT
HETATM    1  C   UNL     1     -20.579  -7.308  -4.768  1.00  0.00     0.187 C 
HETATM    2  C   UNL     1     -20.204  -8.806  -4.893  1.00  0.00     0.180 C 
HETATM    3  O   UNL     1     -21.241  -9.663  -4.399  1.00  0.00    -0.348 OA
HETATM    4  C   UNL     1     -21.721  -9.431  -3.071  1.00  0.00     0.292 C 
HETATM    5  C   UNL     1     -21.953  -7.928  -2.732  1.00  0.00     0.204 C 
HETATM    6  C   UNL     1     -20.866  -6.999  -3.293  1.00  0.00     0.183 C 
ENDROOT
BRANCH   1   7
HETATM    7  O   UNL     1     -21.714  -7.080  -5.629  1.00  0.00    -0.348 OA
BRANCH   7   8
HETATM    8  C   UNL     1     -21.640  -6.128  -6.699  1.00  0.00     0.292 C 
HETATM    9  C   UNL     1     -20.284  -5.385  -6.845  1.00  0.00     0.204 C 
HETATM   10  C   UNL     1     -20.343  -4.462  -8.074  1.00  0.00     0.183 C 
HETATM   11  C   UNL     1     -21.550  -3.511  -7.975  1.00  0.00     0.180 C 
HETATM   12  C   UNL     1     -22.853  -4.308  -7.772  1.00  0.00     0.179 C 
HETATM   13  O   UNL     1     -22.756  -5.230  -6.658  1.00  0.00    -0.348 OA
BRANCH   9  14
HETATM   14  O   UNL     1     -19.945  -4.544  -5.720  1.00  0.00    -0.388 OA
HETATM   15  H   UNL     1     -20.784  -4.342  -5.240  1.00  0.00     0.210 HD
ENDBRANCH   9  14
BRANCH  10  16
HETATM   16  O   UNL     1     -19.125  -3.709  -8.160  1.00  0.00    -0.390 OA
HETATM   17  H   UNL     1     -18.961  -3.329  -7.274  1.00  0.00     0.210 HD
ENDBRANCH  10  16
BRANCH  11  18
HETATM   18  O   UNL     1     -21.426  -2.621  -6.849  1.00  0.00    -0.390 OA
HETATM   19  H   UNL     1     -20.879  -3.064  -6.174  1.00  0.00     0.210 HD
ENDBRANCH  11  18
BRANCH  12  20
HETATM   20  C   UNL     1     -23.357  -4.998  -9.049  1.00  0.00     0.198 C 
BRANCH  20  21
HETATM   21  O   UNL     1     -24.663  -4.562  -9.402  1.00  0.00    -0.398 OA
HETATM   22  H   UNL     1     -24.572  -3.763  -9.955  1.00  0.00     0.209 HD
ENDBRANCH  20  21
ENDBRANCH  12  20
ENDBRANCH   7   8
ENDBRANCH   1   7
BRANCH   2  23
HETATM   23  C   UNL     1     -18.803  -9.148  -4.344  1.00  0.00     0.198 C 
BRANCH  23  24
HETATM   24  O   UNL     1     -18.649 -10.517  -3.996  1.00  0.00    -0.398 OA
HETATM   25  H   UNL     1     -18.182 -10.971  -4.723  1.00  0.00     0.209 HD
ENDBRANCH  23  24
ENDBRANCH   2  23
BRANCH   6  26
HETATM   26  O   UNL     1     -21.205  -5.615  -3.111  1.00  0.00    -0.390 OA
HETATM   27  H   UNL     1     -20.989  -5.154  -3.952  1.00  0.00     0.210 HD
ENDBRANCH   6  26
BRANCH   5  28
HETATM   28  O   UNL     1     -22.172  -7.708  -1.337  1.00  0.00    -0.388 OA
HETATM   29  H   UNL     1     -23.125  -7.548  -1.210  1.00  0.00     0.210 HD
ENDBRANCH   5  28
BRANCH   4  30
HETATM   30  O   UNL     1     -21.004 -10.203  -2.073  1.00  0.00    -0.348 OA
BRANCH  30  31
HETATM   31  C   UNL     1     -21.756 -11.375  -1.644  1.00  0.00     0.187 C 
HETATM   32  C   UNL     1     -22.067 -11.391  -0.130  1.00  0.00     0.180 C 
HETATM   33  O   UNL     1     -20.993 -11.879   0.689  1.00  0.00    -0.349 OA
HETATM   34  C   UNL     1     -20.443 -13.130   0.341  1.00  0.00     0.288 C 
HETATM   35  C   UNL     1     -19.951 -13.173  -1.113  1.00  0.00     0.204 C 
HETATM   36  C   UNL     1     -21.046 -12.685  -2.074  1.00  0.00     0.183 C 
BRANCH  32  37
HETATM   37  C   UNL     1     -23.393 -12.112   0.171  1.00  0.00     0.198 C 
BRANCH  37  38
HETATM   38  O   UNL     1     -24.277 -11.981  -0.938  1.00  0.00    -0.398 OA
HETATM   39  H   UNL     1     -25.090 -12.463  -0.686  1.00  0.00     0.209 HD
ENDBRANCH  37  38
ENDBRANCH  32  37
BRANCH  34  40
HETATM   40  O   UNL     1     -21.343 -14.192   0.641  1.00  0.00    -0.369 OA
HETATM   41  H   UNL     1     -21.915 -14.340  -0.133  1.00  0.00     0.212 HD
ENDBRANCH  34  40
BRANCH  35  42
HETATM   42  O   UNL     1     -19.597 -14.531  -1.457  1.00  0.00    -0.388 OA
HETATM   43  H   UNL     1     -19.259 -14.981  -0.663  1.00  0.00     0.210 HD
ENDBRANCH  35  42
BRANCH  36  44
HETATM   44  O   UNL     1     -20.531 -12.576  -3.408  1.00  0.00    -0.390 OA
HETATM   45  H   UNL     1     -21.254 -12.844  -4.007  1.00  0.00     0.210 HD
ENDBRANCH  36  44
ENDBRANCH  30  31
ENDBRANCH   4  30
TORSDOF 18
BEGIN_RES ARG D 557
REMARK  4 active torsions:
REMARK  status: ('A' for Active; 'I' for Inactive)
REMARK    1  A    between atoms: CA   and  CB  
REMARK    2  A    between atoms: CB   and  CG  
REMARK    3  A    between atoms: CG   and  CD  
REMARK    4  A    between atoms: CD   and  NE  
REMARK       I    between atoms: NE   and  CZ  
REMARK       I    between atoms: CZ   and  NH1 
REMARK       I    between atoms: CZ   and  NH2 
ROOT
ATOM      1  CA  ARG D 557     -26.217   2.705 -17.014  1.00 35.49     0.159 C 
ENDROOT
BRANCH   1   2
ATOM      2  CB  ARG D 557     -26.789   1.319 -17.183  1.00 35.49     0.034 C 
BRANCH   2   3
ATOM      3  CG  ARG D 557     -25.862   0.195 -17.002  1.00 35.49     0.027 C 
BRANCH   3   4
ATOM      4  CD  ARG D 557     -26.263  -0.693 -15.887  1.00 35.49     0.116 C 
BRANCH   4   5
ATOM      5  NE  ARG D 557     -25.196  -0.889 -14.940  1.00 35.49    -0.212 N 
ATOM      6  CZ  ARG D 557     -24.884  -2.027 -14.361  1.00 35.49     0.666 C 
ATOM      7  NH1 ARG D 557     -25.550  -3.144 -14.586  1.00 35.49    -0.235 N 
ATOM      8  NH2 ARG D 557     -23.871  -2.026 -13.544  1.00 35.49    -0.235 N 
ATOM      9  HH  ARG D 557     -26.219  -3.168 -15.121  1.00 35.49     0.174 HD
ATOM     10  HH  ARG D 557     -25.299  -3.856 -14.181  1.00 35.49     0.174 HD
ATOM     11  HH  ARG D 557     -23.454  -1.292 -13.424  1.00 35.49     0.174 HD
ATOM     12  HH  ARG D 557     -23.636  -2.742 -13.154  1.00 35.49     0.174 HD
ATOM     13  HE  ARG D 557     -24.760  -0.207 -14.682  1.00 35.49     0.178 HD
ENDBRANCH   4   5
ENDBRANCH   3   4
ENDBRANCH   2   3
ENDBRANCH   1   2
END_RES ARG D 557
BEGIN_RES GLU D 570
REMARK  3 active torsions:
REMARK  status: ('A' for Active; 'I' for Inactive)
REMARK    5  A    between atoms: CA   and  CB  
REMARK    6  A    between atoms: CB   and  CG  
REMARK    7  A    between atoms: CG   and  CD  
ROOT
ATOM     14  CA  GLU D 570     -18.033  -6.348 -13.375  1.00 32.92     0.160 C 
ENDROOT
BRANCH  14  15
ATOM     15  CB  GLU D 570     -19.500  -6.345 -13.794  1.00 32.92     0.043 C 
BRANCH  15  16
ATOM     16  CG  GLU D 570     -20.449  -5.566 -12.958  1.00 32.92     0.100 C 
BRANCH  16  17
ATOM     17  CD  GLU D 570     -21.691  -5.147 -13.710  1.00 32.92     0.185 C 
ATOM     18  OE1 GLU D 570     -21.663  -5.118 -14.955  1.00 32.92    -0.647 OA
ATOM     19  OE2 GLU D 570     -22.696  -4.827 -13.046  1.00 32.92    -0.647 OA
ENDBRANCH  16  17
ENDBRANCH  15  16
ENDBRANCH  14  15
END_RES GLU D 570
ENDMDL
MODEL 9
REMARK VINA RESULT:      -6.1      7.586     12.510
REMARK  18 active torsions:
REMARK  status: ('A' for Active; 'I' for Inactive)
REMARK    1  A    between atoms: C_1  and  C_2 
REMARK    2  A    between atoms: C_1  and  O_34 
REMARK    3  A    between atoms: C_3  and  O_33 
REMARK    4  A    between atoms: C_4  and  O_32 
REMARK    5  A    between atoms: C_5  and  O_31 
REMARK    6  A    between atoms: C_6  and  O_8 
REMARK    7  A    between atoms: O_8  and  C_9 
REMARK    8  A    between atoms: C_10  and  C_29 
REMARK    9  A    between atoms: C_12  and  O_17 
REMARK   10  A    between atoms: C_13  and  O_16 
REMARK   11  A    between atoms: C_14  and  O_15 
REMARK   12  A    between atoms: O_17  and  C_18 
REMARK   13  A    between atoms: C_19  and  C_27 
REMARK   14  A    between atoms: C_21  and  O_26 
REMARK   15  A    between atoms: C_22  and  O_25 
REMARK   16  A    between atoms: C_23  and  O_24 
REMARK   17  A    between atoms: C_27  and  O_28 
REMARK   18  A    between atoms: C_29  and  O_30 
ROOT
HETATM    1  C   UNL     1     -17.458 -12.706  -3.307  1.00  0.00     0.187 C 
HETATM    2  C   UNL     1     -19.003 -12.587  -3.272  1.00  0.00     0.180 C 
HETATM    3  O   UNL     1     -19.465 -11.394  -3.918  1.00  0.00    -0.348 OA
HETATM    4  C   UNL     1     -18.911 -10.147  -3.490  1.00  0.00     0.292 C 
HETATM    5  C   UNL     1     -17.366 -10.175  -3.285  1.00  0.00     0.204 C 
HETATM    6  C   UNL     1     -16.859 -11.467  -2.629  1.00  0.00     0.183 C 
ENDROOT
BRANCH   1   7
HETATM    7  O   UNL     1     -17.074 -12.840  -4.691  1.00  0.00    -0.348 OA
BRANCH   7   8
HETATM    8  C   UNL     1     -18.033 -13.233  -5.682  1.00  0.00     0.292 C 
HETATM    9  C   UNL     1     -17.797 -14.624  -6.332  1.00  0.00     0.204 C 
HETATM   10  C   UNL     1     -18.946 -14.927  -7.309  1.00  0.00     0.183 C 
HETATM   11  C   UNL     1     -19.089 -13.791  -8.339  1.00  0.00     0.180 C 
HETATM   12  C   UNL     1     -19.260 -12.434  -7.629  1.00  0.00     0.179 C 
HETATM   13  O   UNL     1     -18.213 -12.197  -6.655  1.00  0.00    -0.348 OA
BRANCH   9  14
HETATM   14  O   UNL     1     -16.575 -14.722  -7.097  1.00  0.00    -0.388 OA
HETATM   15  H   UNL     1     -16.301 -13.803  -7.332  1.00  0.00     0.210 HD
ENDBRANCH   9  14
BRANCH  10  16
HETATM   16  O   UNL     1     -18.685 -16.169  -7.976  1.00  0.00    -0.390 OA
HETATM   17  H   UNL     1     -17.721 -16.209  -8.142  1.00  0.00     0.210 HD
ENDBRANCH  10  16
BRANCH  11  18
HETATM   18  O   UNL     1     -17.915 -13.682  -9.167  1.00  0.00    -0.390 OA
HETATM   19  H   UNL     1     -17.662 -12.741  -9.211  1.00  0.00     0.210 HD
ENDBRANCH  11  18
BRANCH  12  20
HETATM   20  C   UNL     1     -20.660 -12.224  -7.034  1.00  0.00     0.198 C 
BRANCH  20  21
HETATM   21  O   UNL     1     -20.811 -10.919  -6.490  1.00  0.00    -0.398 OA
HETATM   22  H   UNL     1     -21.748 -10.808  -6.236  1.00  0.00     0.209 HD
ENDBRANCH  20  21
ENDBRANCH  12  20
ENDBRANCH   7   8
ENDBRANCH   1   7
BRANCH   2  23
HETATM   23  C   UNL     1     -19.615 -12.813  -1.874  1.00  0.00     0.198 C 
BRANCH  23  24
HETATM   24  O   UNL     1     -20.960 -12.367  -1.765  1.00  0.00    -0.398 OA
HETATM   25  H   UNL     1     -21.532 -13.142  -1.611  1.00  0.00     0.209 HD
ENDBRANCH  23  24
ENDBRANCH   2  23
BRANCH   6  26
HETATM   26  O   UNL     1     -15.423 -11.528  -2.616  1.00  0.00    -0.390 OA
HETATM   27  H   UNL     1     -15.171 -12.206  -1.949  1.00  0.00     0.210 HD
ENDBRANCH   6  26
BRANCH   5  28
HETATM   28  O   UNL     1     -16.882  -9.011  -2.611  1.00  0.00    -0.388 OA
HETATM   29  H   UNL     1     -16.086  -8.707  -3.083  1.00  0.00     0.210 HD
ENDBRANCH   5  28
BRANCH   4  30
HETATM   30  O   UNL     1     -19.681  -9.526  -2.429  1.00  0.00    -0.348 OA
BRANCH  30  31
HETATM   31  C   UNL     1     -20.946  -8.988  -2.912  1.00  0.00     0.187 C 
HETATM   32  C   UNL     1     -20.794  -7.677  -3.718  1.00  0.00     0.180 C 
HETATM   33  O   UNL     1     -20.692  -6.495  -2.910  1.00  0.00    -0.349 OA
HETATM   34  C   UNL     1     -21.695  -6.300  -1.937  1.00  0.00     0.288 C 
HETATM   35  C   UNL     1     -21.823  -7.489  -0.975  1.00  0.00     0.204 C 
HETATM   36  C   UNL     1     -21.958  -8.808  -1.751  1.00  0.00     0.183 C 
BRANCH  32  37
HETATM   37  C   UNL     1     -21.883  -7.544  -4.798  1.00  0.00     0.198 C 
BRANCH  37  38
HETATM   38  O   UNL     1     -21.371  -7.972  -6.056  1.00  0.00    -0.398 OA
HETATM   39  H   UNL     1     -20.798  -7.245  -6.370  1.00  0.00     0.209 HD
ENDBRANCH  37  38
ENDBRANCH  32  37
BRANCH  34  40
HETATM   40  O   UNL     1     -22.938  -5.953  -2.539  1.00  0.00    -0.369 OA
HETATM   41  H   UNL     1     -23.145  -5.030  -2.311  1.00  0.00     0.212 HD
ENDBRANCH  34  40
BRANCH  35  42
HETATM   42  O   UNL     1     -22.994  -7.311  -0.148  1.00  0.00    -0.388 OA
HETATM   43  H   UNL     1     -22.972  -7.959   0.577  1.00  0.00     0.210 HD
ENDBRANCH  35  42
BRANCH  36  44
HETATM   44  O   UNL     1     -21.916  -9.926  -0.855  1.00  0.00    -0.390 OA
HETATM   45  H   UNL     1     -20.984 -10.212  -0.813  1.00  0.00     0.210 HD
ENDBRANCH  36  44
ENDBRANCH  30  31
ENDBRANCH   4  30
TORSDOF 18
BEGIN_RES ARG D 557
REMARK  4 active torsions:
REMARK  status: ('A' for Active; 'I' for Inactive)
REMARK    1  A    between atoms: CA   and  CB  
REMARK    2  A    between atoms: CB   and  CG  
REMARK    3  A    between atoms: CG   and  CD  
REMARK    4  A    between atoms: CD   and  NE  
REMARK       I    between atoms: NE   and  CZ  
REMARK       I    between atoms: CZ   and  NH1 
REMARK       I    between atoms: CZ   and  NH2 
ROOT
ATOM      1  CA  ARG D 557     -26.217   2.705 -17.014  1.00 35.49     0.159 C 
ENDROOT
BRANCH   1   2
ATOM      2  CB  ARG D 557     -26.789   1.319 -17.183  1.00 35.49     0.034 C 
BRANCH   2   3
ATOM      3  CG  ARG D 557     -25.930   0.197 -16.787  1.00 35.49     0.027 C 
BRANCH   3   4
ATOM      4  CD  ARG D 557     -26.686  -0.883 -16.112  1.00 35.49     0.116 C 
BRANCH   4   5
ATOM      5  NE  ARG D 557     -25.907  -1.536 -15.093  1.00 35.49    -0.212 N 
ATOM      6  CZ  ARG D 557     -25.932  -2.819 -14.812  1.00 35.49     0.666 C 
ATOM      7  NH1 ARG D 557     -26.713  -3.670 -15.451  1.00 35.49    -0.235 N 
ATOM      8  NH2 ARG D 557     -25.141  -3.242 -13.869  1.00 35.49    -0.235 N 
ATOM      9  HH  ARG D 557     -27.240  -3.414 -16.076  1.00 35.49     0.174 HD
ATOM     10  HH  ARG D 557     -26.685  -4.496 -15.226  1.00 35.49     0.174 HD
ATOM     11  HH  ARG D 557     -24.642  -2.671 -13.479  1.00 35.49     0.174 HD
ATOM     12  HH  ARG D 557     -25.126  -4.064 -13.662  1.00 35.49     0.174 HD
ATOM     13  HE  ARG D 557     -25.429  -1.051 -14.584  1.00 35.49     0.178 HD
ENDBRANCH   4   5
ENDBRANCH   3   4
ENDBRANCH   2   3
ENDBRANCH   1   2
END_RES ARG D 557
BEGIN_RES GLU D 570
REMARK  3 active torsions:
REMARK  status: ('A' for Active; 'I' for Inactive)
REMARK    5  A    between atoms: CA   and  CB  
REMARK    6  A    between atoms: CB   and  CG  
REMARK    7  A    between atoms: CG   and  CD  
ROOT
ATOM     14  CA  GLU D 570     -18.033  -6.348 -13.375  1.00 32.92     0.160 C 
ENDROOT
BRANCH  14  15
ATOM     15  CB  GLU D 570     -19.500  -6.345 -13.794  1.00 32.92     0.043 C 
BRANCH  15  16
ATOM     16  CG  GLU D 570     -20.447  -5.557 -12.964  1.00 32.92     0.100 C 
BRANCH  16  17
ATOM     17  CD  GLU D 570     -21.707  -5.178 -13.707  1.00 32.92     0.185 C 
ATOM     18  OE1 GLU D 570     -21.804  -5.457 -14.917  1.00 32.92    -0.647 OA
ATOM     19  OE2 GLU D 570     -22.601  -4.581 -13.075  1.00 32.92    -0.647 OA
ENDBRANCH  16  17
ENDBRANCH  15  16
ENDBRANCH  14  15
END_RES GLU D 570
ENDMDL
