MODEL 1
REMARK VINA RESULT:      -7.6      0.000      0.000
REMARK  19 active torsions:
REMARK  status: ('A' for Active; 'I' for Inactive)
REMARK    1  A    between atoms: C_2  and  C_3 
REMARK    2  A    between atoms: C_3  and  C_4 
REMARK    3  A    between atoms: C_4  and  C_5 
REMARK    4  A    between atoms: C_5  and  C_6 
REMARK    5  A    between atoms: C_6  and  C_7 
REMARK    6  A    between atoms: C_7  and  C_8 
REMARK    7  A    between atoms: C_8  and  C_9 
REMARK    8  A    between atoms: C_9  and  C_10 
REMARK    9  A    between atoms: C_10  and  C_11 
REMARK   10  A    between atoms: C_11  and  C_12 
REMARK       I    between atoms: C_12  and  N_14 
REMARK   11  A    between atoms: N_14  and  C_15 
REMARK   12  A    between atoms: C_15  and  C_16 
REMARK   13  A    between atoms: C_16  and  C_17 
REMARK   14  A    between atoms: C_17  and  N_18 
REMARK   15  A    between atoms: N_18  and  C_21 
REMARK   16  A    between atoms: C_21  and  C_22 
REMARK   17  A    between atoms: C_22  and  C_23 
REMARK   18  A    between atoms: C_22  and  O_28 
REMARK   19  A    between atoms: C_23  and  S_24 
ROOT
HETATM    1  C   UNL     1     -20.160  -5.837  -5.990  1.00  0.00     0.217 C 
HETATM    2  O   UNL     1     -20.342  -4.861  -5.264  1.00  0.00    -0.274 OA
HETATM    3  N   UNL     1     -19.816  -5.722  -7.319  1.00  0.00    -0.361 N 
HETATM    4  H   UNL     1     -19.714  -6.553  -7.896  1.00  0.00     0.162 HD
ENDROOT
BRANCH   3   5
HETATM    5  C   UNL     1     -19.802  -4.415  -7.934  1.00  0.00     0.124 C 
BRANCH   5   6
HETATM    6  C   UNL     1     -20.602  -4.423  -9.231  1.00  0.00     0.047 C 
BRANCH   6   7
HETATM    7  C   UNL     1     -22.054  -4.785  -8.925  1.00  0.00     0.238 C 
BRANCH   7   8
HETATM    8  N   UNL     1     -23.059  -4.198  -9.934  1.00  0.00    -0.072 N 
HETATM    9  C   UNL     1     -23.774  -5.385 -10.582  1.00  0.00     0.272 C 
HETATM   10  C   UNL     1     -24.032  -3.265  -9.233  1.00  0.00     0.272 C 
BRANCH   8  11
HETATM   11  C   UNL     1     -22.323  -3.450 -11.098  1.00  0.00     0.269 C 
BRANCH  11  12
HETATM   12  C   UNL     1     -22.956  -3.457 -12.514  1.00  0.00     0.160 C 
BRANCH  12  13
HETATM   13  C   UNL     1     -23.741  -2.251 -13.005  1.00  0.00     0.198 C 
BRANCH  13  14
HETATM   14  S   UNL     1     -24.167  -2.352 -14.720  1.00  0.00     0.104 S 
HETATM   15  O   UNL     1     -25.181  -1.323 -14.866  1.00  0.00    -0.595 OA
HETATM   16  O   UNL     1     -22.902  -2.051 -15.374  1.00  0.00    -0.595 OA
HETATM   17  O   UNL     1     -24.606  -3.744 -14.816  1.00  0.00    -0.595 OA
ENDBRANCH  13  14
ENDBRANCH  12  13
BRANCH  12  18
HETATM   18  O   UNL     1     -21.914  -3.791 -13.459  1.00  0.00    -0.393 OA
HETATM   19  H   UNL     1     -21.047  -3.619 -13.005  1.00  0.00     0.210 HD
ENDBRANCH  12  18
ENDBRANCH  11  12
ENDBRANCH   8  11
ENDBRANCH   7   8
ENDBRANCH   6   7
ENDBRANCH   5   6
ENDBRANCH   3   5
BRANCH   1  20
HETATM   20  C   UNL     1     -20.218  -7.256  -5.474  1.00  0.00     0.103 C 
BRANCH  20  21
HETATM   21  C   UNL     1     -21.613  -7.558  -4.939  1.00  0.00     0.009 C 
BRANCH  21  22
HETATM   22  C   UNL     1     -21.559  -8.290  -3.604  1.00  0.00     0.000 C 
BRANCH  22  23
HETATM   23  C   UNL     1     -20.923  -7.392  -2.546  1.00  0.00     0.000 C 
BRANCH  23  24
HETATM   24  C   UNL     1     -21.148  -7.944  -1.145  1.00  0.00     0.000 C 
BRANCH  24  25
HETATM   25  C   UNL     1     -22.326  -7.243  -0.478  1.00  0.00     0.000 C 
BRANCH  25  26
HETATM   26  C   UNL     1     -23.216  -8.250   0.241  1.00  0.00     0.000 C 
BRANCH  26  27
HETATM   27  C   UNL     1     -22.806  -9.681  -0.096  1.00  0.00     0.000 C 
BRANCH  27  28
HETATM   28  C   UNL     1     -23.986 -10.632   0.074  1.00  0.00    -0.000 C 
BRANCH  28  29
HETATM   29  C   UNL     1     -24.018 -11.679  -1.036  1.00  0.00    -0.005 C 
HETATM   30  C   UNL     1     -23.193 -11.234  -2.231  1.00  0.00     0.005 C 
ENDBRANCH  28  29
ENDBRANCH  27  28
ENDBRANCH  26  27
ENDBRANCH  25  26
ENDBRANCH  24  25
ENDBRANCH  23  24
ENDBRANCH  22  23
ENDBRANCH  21  22
ENDBRANCH  20  21
ENDBRANCH   1  20
TORSDOF 19
BEGIN_RES ARG D 557
REMARK  4 active torsions:
REMARK  status: ('A' for Active; 'I' for Inactive)
REMARK    1  A    between atoms: CA   and  CB  
REMARK    2  A    between atoms: CB   and  CG  
REMARK    3  A    between atoms: CG   and  CD  
REMARK    4  A    between atoms: CD   and  NE  
REMARK       I    between atoms: NE   and  CZ  
REMARK       I    between atoms: CZ   and  NH1 
REMARK       I    between atoms: CZ   and  NH2 
ROOT
ATOM      1  CA  ARG D 557     -26.217   2.705 -17.014  1.00 35.49     0.159 C 
ENDROOT
BRANCH   1   2
ATOM      2  CB  ARG D 557     -26.789   1.319 -17.183  1.00 35.49     0.034 C 
BRANCH   2   3
ATOM      3  CG  ARG D 557     -28.233   1.226 -17.433  1.00 35.49     0.027 C 
BRANCH   3   4
ATOM      4  CD  ARG D 557     -28.904   0.278 -16.514  1.00 35.49     0.116 C 
BRANCH   4   5
ATOM      5  NE  ARG D 557     -28.081  -0.863 -16.215  1.00 35.49    -0.212 N 
ATOM      6  CZ  ARG D 557     -28.274  -2.087 -16.655  1.00 35.49     0.666 C 
ATOM      7  NH1 ARG D 557     -29.291  -2.408 -17.433  1.00 35.49    -0.235 N 
ATOM      8  NH2 ARG D 557     -27.413  -2.996 -16.299  1.00 35.49    -0.235 N 
ATOM      9  HH  ARG D 557     -29.869  -1.825 -17.681  1.00 35.49     0.174 HD
ATOM     10  HH  ARG D 557     -29.365  -3.221 -17.691  1.00 35.49     0.174 HD
ATOM     11  HH  ARG D 557     -26.763  -2.758 -15.802  1.00 35.49     0.174 HD
ATOM     12  HH  ARG D 557     -27.503  -3.795 -16.566  1.00 35.49     0.174 HD
ATOM     13  HE  ARG D 557     -27.443  -0.762 -15.661  1.00 35.49     0.178 HD
ENDBRANCH   4   5
ENDBRANCH   3   4
ENDBRANCH   2   3
ENDBRANCH   1   2
END_RES ARG D 557
BEGIN_RES GLU D 570
REMARK  3 active torsions:
REMARK  status: ('A' for Active; 'I' for Inactive)
REMARK    5  A    between atoms: CA   and  CB  
REMARK    6  A    between atoms: CB   and  CG  
REMARK    7  A    between atoms: CG   and  CD  
ROOT
ATOM     14  CA  GLU D 570     -18.033  -6.348 -13.375  1.00 32.92     0.160 C 
ENDROOT
BRANCH  14  15
ATOM     15  CB  GLU D 570     -19.500  -6.345 -13.794  1.00 32.92     0.043 C 
BRANCH  15  16
ATOM     16  CG  GLU D 570     -20.024  -7.565 -14.460  1.00 32.92     0.100 C 
BRANCH  16  17
ATOM     17  CD  GLU D 570     -21.214  -7.287 -15.348  1.00 32.92     0.185 C 
ATOM     18  OE1 GLU D 570     -21.277  -7.835 -16.465  1.00 32.92    -0.647 OA
ATOM     19  OE2 GLU D 570     -22.085  -6.499 -14.929  1.00 32.92    -0.647 OA
ENDBRANCH  16  17
ENDBRANCH  15  16
ENDBRANCH  14  15
END_RES GLU D 570
ENDMDL
MODEL 2
REMARK VINA RESULT:      -7.5      7.301     12.422
REMARK  19 active torsions:
REMARK  status: ('A' for Active; 'I' for Inactive)
REMARK    1  A    between atoms: C_2  and  C_3 
REMARK    2  A    between atoms: C_3  and  C_4 
REMARK    3  A    between atoms: C_4  and  C_5 
REMARK    4  A    between atoms: C_5  and  C_6 
REMARK    5  A    between atoms: C_6  and  C_7 
REMARK    6  A    between atoms: C_7  and  C_8 
REMARK    7  A    between atoms: C_8  and  C_9 
REMARK    8  A    between atoms: C_9  and  C_10 
REMARK    9  A    between atoms: C_10  and  C_11 
REMARK   10  A    between atoms: C_11  and  C_12 
REMARK       I    between atoms: C_12  and  N_14 
REMARK   11  A    between atoms: N_14  and  C_15 
REMARK   12  A    between atoms: C_15  and  C_16 
REMARK   13  A    between atoms: C_16  and  C_17 
REMARK   14  A    between atoms: C_17  and  N_18 
REMARK   15  A    between atoms: N_18  and  C_21 
REMARK   16  A    between atoms: C_21  and  C_22 
REMARK   17  A    between atoms: C_22  and  C_23 
REMARK   18  A    between atoms: C_22  and  O_28 
REMARK   19  A    between atoms: C_23  and  S_24 
ROOT
HETATM    1  C   UNL     1     -34.449  -2.746 -16.086  1.00  0.00     0.217 C 
HETATM    2  O   UNL     1     -34.691  -3.050 -14.919  1.00  0.00    -0.274 OA
HETATM    3  N   UNL     1     -33.640  -3.507 -16.901  1.00  0.00    -0.361 N 
HETATM    4  H   UNL     1     -33.432  -3.201 -17.848  1.00  0.00     0.162 HD
ENDROOT
BRANCH   3   5
HETATM    5  C   UNL     1     -32.928  -4.630 -16.337  1.00  0.00     0.124 C 
BRANCH   5   6
HETATM    6  C   UNL     1     -31.798  -5.070 -17.261  1.00  0.00     0.047 C 
BRANCH   6   7
HETATM    7  C   UNL     1     -30.786  -3.934 -17.393  1.00  0.00     0.238 C 
BRANCH   7   8
HETATM    8  N   UNL     1     -29.322  -4.401 -17.294  1.00  0.00    -0.072 N 
HETATM    9  C   UNL     1     -28.959  -5.001 -18.653  1.00  0.00     0.272 C 
HETATM   10  C   UNL     1     -28.416  -3.237 -16.929  1.00  0.00     0.272 C 
BRANCH   8  11
HETATM   11  C   UNL     1     -29.167  -5.563 -16.254  1.00  0.00     0.269 C 
BRANCH  11  12
HETATM   12  C   UNL     1     -28.198  -6.732 -16.572  1.00  0.00     0.160 C 
BRANCH  12  13
HETATM   13  C   UNL     1     -27.096  -7.099 -15.591  1.00  0.00     0.198 C 
BRANCH  13  14
HETATM   14  S   UNL     1     -25.476  -6.717 -16.194  1.00  0.00     0.104 S 
HETATM   15  O   UNL     1     -25.045  -5.644 -15.317  1.00  0.00    -0.595 OA
HETATM   16  O   UNL     1     -24.768  -7.975 -16.002  1.00  0.00    -0.595 OA
HETATM   17  O   UNL     1     -25.770  -6.370 -17.584  1.00  0.00    -0.595 OA
ENDBRANCH  13  14
ENDBRANCH  12  13
BRANCH  12  18
HETATM   18  O   UNL     1     -29.000  -7.895 -16.877  1.00  0.00    -0.393 OA
HETATM   19  H   UNL     1     -28.445  -8.487 -17.450  1.00  0.00     0.210 HD
ENDBRANCH  12  18
ENDBRANCH  11  12
ENDBRANCH   8  11
ENDBRANCH   7   8
ENDBRANCH   6   7
ENDBRANCH   5   6
ENDBRANCH   3   5
BRANCH   1  20
HETATM   20  C   UNL     1     -35.081  -1.552 -16.763  1.00  0.00     0.103 C 
BRANCH  20  21
HETATM   21  C   UNL     1     -35.958  -0.796 -15.772  1.00  0.00     0.009 C 
BRANCH  21  22
HETATM   22  C   UNL     1     -35.275   0.467 -15.263  1.00  0.00     0.000 C 
BRANCH  22  23
HETATM   23  C   UNL     1     -35.603   0.674 -13.787  1.00  0.00     0.000 C 
BRANCH  23  24
HETATM   24  C   UNL     1     -34.784  -0.256 -12.903  1.00  0.00     0.000 C 
BRANCH  24  25
HETATM   25  C   UNL     1     -35.639  -0.795 -11.760  1.00  0.00     0.000 C 
BRANCH  25  26
HETATM   26  C   UNL     1     -35.188  -2.196 -11.364  1.00  0.00     0.000 C 
BRANCH  26  27
HETATM   27  C   UNL     1     -33.717  -2.202 -10.959  1.00  0.00     0.000 C 
BRANCH  27  28
HETATM   28  C   UNL     1     -33.030  -3.474 -11.448  1.00  0.00    -0.000 C 
BRANCH  28  29
HETATM   29  C   UNL     1     -34.046  -4.570 -11.754  1.00  0.00    -0.005 C 
HETATM   30  C   UNL     1     -33.968  -5.689 -10.730  1.00  0.00     0.005 C 
ENDBRANCH  28  29
ENDBRANCH  27  28
ENDBRANCH  26  27
ENDBRANCH  25  26
ENDBRANCH  24  25
ENDBRANCH  23  24
ENDBRANCH  22  23
ENDBRANCH  21  22
ENDBRANCH  20  21
ENDBRANCH   1  20
TORSDOF 19
BEGIN_RES ARG D 557
REMARK  4 active torsions:
REMARK  status: ('A' for Active; 'I' for Inactive)
REMARK    1  A    between atoms: CA   and  CB  
REMARK    2  A    between atoms: CB   and  CG  
REMARK    3  A    between atoms: CG   and  CD  
REMARK    4  A    between atoms: CD   and  NE  
REMARK       I    between atoms: NE   and  CZ  
REMARK       I    between atoms: CZ   and  NH1 
REMARK       I    between atoms: CZ   and  NH2 
ROOT
ATOM      1  CA  ARG D 557     -26.217   2.705 -17.014  1.00 35.49     0.159 C 
ENDROOT
BRANCH   1   2
ATOM      2  CB  ARG D 557     -26.789   1.319 -17.183  1.00 35.49     0.034 C 
BRANCH   2   3
ATOM      3  CG  ARG D 557     -25.863   0.195 -16.998  1.00 35.49     0.027 C 
BRANCH   3   4
ATOM      4  CD  ARG D 557     -26.226  -0.649 -15.836  1.00 35.49     0.116 C 
BRANCH   4   5
ATOM      5  NE  ARG D 557     -25.100  -0.901 -14.976  1.00 35.49    -0.212 N 
ATOM      6  CZ  ARG D 557     -24.902  -1.990 -14.268  1.00 35.49     0.666 C 
ATOM      7  NH1 ARG D 557     -25.757  -2.997 -14.263  1.00 35.49    -0.235 N 
ATOM      8  NH2 ARG D 557     -23.813  -2.057 -13.560  1.00 35.49    -0.235 N 
ATOM      9  HH  ARG D 557     -26.479  -2.976 -14.724  1.00 35.49     0.174 HD
ATOM     10  HH  ARG D 557     -25.574  -3.683 -13.784  1.00 35.49     0.174 HD
ATOM     11  HH  ARG D 557     -23.276  -1.395 -13.588  1.00 35.49     0.174 HD
ATOM     12  HH  ARG D 557     -23.649  -2.745 -13.093  1.00 35.49     0.174 HD
ATOM     13  HE  ARG D 557     -24.535  -0.275 -14.864  1.00 35.49     0.178 HD
ENDBRANCH   4   5
ENDBRANCH   3   4
ENDBRANCH   2   3
ENDBRANCH   1   2
END_RES ARG D 557
BEGIN_RES GLU D 570
REMARK  3 active torsions:
REMARK  status: ('A' for Active; 'I' for Inactive)
REMARK    5  A    between atoms: CA   and  CB  
REMARK    6  A    between atoms: CB   and  CG  
REMARK    7  A    between atoms: CG   and  CD  
ROOT
ATOM     14  CA  GLU D 570     -18.033  -6.348 -13.375  1.00 32.92     0.160 C 
ENDROOT
BRANCH  14  15
ATOM     15  CB  GLU D 570     -19.500  -6.345 -13.794  1.00 32.92     0.043 C 
BRANCH  15  16
ATOM     16  CG  GLU D 570     -20.447  -5.556 -12.965  1.00 32.92     0.100 C 
BRANCH  16  17
ATOM     17  CD  GLU D 570     -21.702  -5.168 -13.711  1.00 32.92     0.185 C 
ATOM     18  OE1 GLU D 570     -21.699  -5.199 -14.957  1.00 32.92    -0.647 OA
ATOM     19  OE2 GLU D 570     -22.694  -4.815 -13.043  1.00 32.92    -0.647 OA
ENDBRANCH  16  17
ENDBRANCH  15  16
ENDBRANCH  14  15
END_RES GLU D 570
ENDMDL
MODEL 3
REMARK VINA RESULT:      -7.1      2.155      3.486
REMARK  19 active torsions:
REMARK  status: ('A' for Active; 'I' for Inactive)
REMARK    1  A    between atoms: C_2  and  C_3 
REMARK    2  A    between atoms: C_3  and  C_4 
REMARK    3  A    between atoms: C_4  and  C_5 
REMARK    4  A    between atoms: C_5  and  C_6 
REMARK    5  A    between atoms: C_6  and  C_7 
REMARK    6  A    between atoms: C_7  and  C_8 
REMARK    7  A    between atoms: C_8  and  C_9 
REMARK    8  A    between atoms: C_9  and  C_10 
REMARK    9  A    between atoms: C_10  and  C_11 
REMARK   10  A    between atoms: C_11  and  C_12 
REMARK       I    between atoms: C_12  and  N_14 
REMARK   11  A    between atoms: N_14  and  C_15 
REMARK   12  A    between atoms: C_15  and  C_16 
REMARK   13  A    between atoms: C_16  and  C_17 
REMARK   14  A    between atoms: C_17  and  N_18 
REMARK   15  A    between atoms: N_18  and  C_21 
REMARK   16  A    between atoms: C_21  and  C_22 
REMARK   17  A    between atoms: C_22  and  C_23 
REMARK   18  A    between atoms: C_22  and  O_28 
REMARK   19  A    between atoms: C_23  and  S_24 
ROOT
HETATM    1  C   UNL     1     -22.513  -4.487  -7.905  1.00  0.00     0.217 C 
HETATM    2  O   UNL     1     -23.170  -4.455  -6.866  1.00  0.00    -0.274 OA
HETATM    3  N   UNL     1     -22.974  -3.966  -9.094  1.00  0.00    -0.361 N 
HETATM    4  H   UNL     1     -22.417  -4.048  -9.941  1.00  0.00     0.162 HD
ENDROOT
BRANCH   3   5
HETATM    5  C   UNL     1     -24.334  -3.486  -9.174  1.00  0.00     0.124 C 
BRANCH   5   6
HETATM    6  C   UNL     1     -24.765  -3.330 -10.628  1.00  0.00     0.047 C 
BRANCH   6   7
HETATM    7  C   UNL     1     -23.900  -4.230 -11.508  1.00  0.00     0.238 C 
BRANCH   7   8
HETATM    8  N   UNL     1     -23.365  -3.524 -12.768  1.00  0.00    -0.072 N 
HETATM    9  C   UNL     1     -24.509  -2.668 -13.312  1.00  0.00     0.272 C 
HETATM   10  C   UNL     1     -22.144  -2.686 -12.428  1.00  0.00     0.272 C 
BRANCH   8  11
HETATM   11  C   UNL     1     -23.025  -4.557 -13.896  1.00  0.00     0.269 C 
BRANCH  11  12
HETATM   12  C   UNL     1     -24.140  -5.507 -14.406  1.00  0.00     0.160 C 
BRANCH  12  13
HETATM   13  C   UNL     1     -24.469  -5.569 -15.890  1.00  0.00     0.198 C 
BRANCH  13  14
HETATM   14  S   UNL     1     -26.112  -6.142 -16.212  1.00  0.00     0.104 S 
HETATM   15  O   UNL     1     -26.198  -7.353 -15.416  1.00  0.00    -0.595 OA
HETATM   16  O   UNL     1     -26.928  -5.040 -15.724  1.00  0.00    -0.595 OA
HETATM   17  O   UNL     1     -26.073  -6.297 -17.666  1.00  0.00    -0.595 OA
ENDBRANCH  13  14
ENDBRANCH  12  13
BRANCH  12  18
HETATM   18  O   UNL     1     -23.853  -6.831 -13.904  1.00  0.00    -0.393 OA
HETATM   19  H   UNL     1     -24.320  -7.474 -14.500  1.00  0.00     0.210 HD
ENDBRANCH  12  18
ENDBRANCH  11  12
ENDBRANCH   8  11
ENDBRANCH   7   8
ENDBRANCH   6   7
ENDBRANCH   5   6
ENDBRANCH   3   5
BRANCH   1  20
HETATM   20  C   UNL     1     -21.104  -5.031  -7.960  1.00  0.00     0.103 C 
BRANCH  20  21
HETATM   21  C   UNL     1     -20.211  -4.258  -6.996  1.00  0.00     0.009 C 
BRANCH  21  22
HETATM   22  C   UNL     1     -20.112  -4.950  -5.642  1.00  0.00     0.000 C 
BRANCH  22  23
HETATM   23  C   UNL     1     -20.339  -6.449  -5.808  1.00  0.00     0.000 C 
BRANCH  23  24
HETATM   24  C   UNL     1     -21.579  -6.907  -5.052  1.00  0.00     0.000 C 
BRANCH  24  25
HETATM   25  C   UNL     1     -21.218  -7.298  -3.622  1.00  0.00     0.000 C 
BRANCH  25  26
HETATM   26  C   UNL     1     -21.599  -6.190  -2.647  1.00  0.00     0.000 C 
BRANCH  26  27
HETATM   27  C   UNL     1     -22.220  -6.767  -1.379  1.00  0.00     0.000 C 
BRANCH  27  28
HETATM   28  C   UNL     1     -21.325  -7.852  -0.788  1.00  0.00    -0.000 C 
BRANCH  28  29
HETATM   29  C   UNL     1     -21.792  -8.256   0.608  1.00  0.00    -0.005 C 
HETATM   30  C   UNL     1     -23.306  -8.194   0.717  1.00  0.00     0.005 C 
ENDBRANCH  28  29
ENDBRANCH  27  28
ENDBRANCH  26  27
ENDBRANCH  25  26
ENDBRANCH  24  25
ENDBRANCH  23  24
ENDBRANCH  22  23
ENDBRANCH  21  22
ENDBRANCH  20  21
ENDBRANCH   1  20
TORSDOF 19
BEGIN_RES ARG D 557
REMARK  4 active torsions:
REMARK  status: ('A' for Active; 'I' for Inactive)
REMARK    1  A    between atoms: CA   and  CB  
REMARK    2  A    between atoms: CB   and  CG  
REMARK    3  A    between atoms: CG   and  CD  
REMARK    4  A    between atoms: CD   and  NE  
REMARK       I    between atoms: NE   and  CZ  
REMARK       I    between atoms: CZ   and  NH1 
REMARK       I    between atoms: CZ   and  NH2 
ROOT
ATOM      1  CA  ARG D 557     -26.217   2.705 -17.014  1.00 35.49     0.159 C 
ENDROOT
BRANCH   1   2
ATOM      2  CB  ARG D 557     -26.789   1.319 -17.183  1.00 35.49     0.034 C 
BRANCH   2   3
ATOM      3  CG  ARG D 557     -28.230   1.227 -17.446  1.00 35.49     0.027 C 
BRANCH   3   4
ATOM      4  CD  ARG D 557     -28.915   0.298 -16.517  1.00 35.49     0.116 C 
BRANCH   4   5
ATOM      5  NE  ARG D 557     -29.215  -0.965 -17.137  1.00 35.49    -0.212 N 
ATOM      6  CZ  ARG D 557     -28.533  -2.078 -16.981  1.00 35.49     0.666 C 
ATOM      7  NH1 ARG D 557     -27.455  -2.149 -16.222  1.00 35.49    -0.235 N 
ATOM      8  NH2 ARG D 557     -28.962  -3.137 -17.603  1.00 35.49    -0.235 N 
ATOM      9  HH  ARG D 557     -27.156  -1.465 -15.802  1.00 35.49     0.174 HD
ATOM     10  HH  ARG D 557     -27.053  -2.903 -16.156  1.00 35.49     0.174 HD
ATOM     11  HH  ARG D 557     -29.666  -3.064 -18.080  1.00 35.49     0.174 HD
ATOM     12  HH  ARG D 557     -28.551  -3.875 -17.524  1.00 35.49     0.174 HD
ATOM     13  HE  ARG D 557     -29.852  -0.993 -17.699  1.00 35.49     0.178 HD
ENDBRANCH   4   5
ENDBRANCH   3   4
ENDBRANCH   2   3
ENDBRANCH   1   2
END_RES ARG D 557
BEGIN_RES GLU D 570
REMARK  3 active torsions:
REMARK  status: ('A' for Active; 'I' for Inactive)
REMARK    5  A    between atoms: CA   and  CB  
REMARK    6  A    between atoms: CB   and  CG  
REMARK    7  A    between atoms: CG   and  CD  
ROOT
ATOM     14  CA  GLU D 570     -18.033  -6.348 -13.375  1.00 32.92     0.160 C 
ENDROOT
BRANCH  14  15
ATOM     15  CB  GLU D 570     -19.500  -6.345 -13.794  1.00 32.92     0.043 C 
BRANCH  15  16
ATOM     16  CG  GLU D 570     -20.020  -7.559 -14.476  1.00 32.92     0.100 C 
BRANCH  16  17
ATOM     17  CD  GLU D 570     -20.936  -7.238 -15.633  1.00 32.92     0.185 C 
ATOM     18  OE1 GLU D 570     -21.806  -8.066 -15.964  1.00 32.92    -0.647 OA
ATOM     19  OE2 GLU D 570     -20.771  -6.153 -16.226  1.00 32.92    -0.647 OA
ENDBRANCH  16  17
ENDBRANCH  15  16
ENDBRANCH  14  15
END_RES GLU D 570
ENDMDL
MODEL 4
REMARK VINA RESULT:      -7.1      7.324     12.148
REMARK  19 active torsions:
REMARK  status: ('A' for Active; 'I' for Inactive)
REMARK    1  A    between atoms: C_2  and  C_3 
REMARK    2  A    between atoms: C_3  and  C_4 
REMARK    3  A    between atoms: C_4  and  C_5 
REMARK    4  A    between atoms: C_5  and  C_6 
REMARK    5  A    between atoms: C_6  and  C_7 
REMARK    6  A    between atoms: C_7  and  C_8 
REMARK    7  A    between atoms: C_8  and  C_9 
REMARK    8  A    between atoms: C_9  and  C_10 
REMARK    9  A    between atoms: C_10  and  C_11 
REMARK   10  A    between atoms: C_11  and  C_12 
REMARK       I    between atoms: C_12  and  N_14 
REMARK   11  A    between atoms: N_14  and  C_15 
REMARK   12  A    between atoms: C_15  and  C_16 
REMARK   13  A    between atoms: C_16  and  C_17 
REMARK   14  A    between atoms: C_17  and  N_18 
REMARK   15  A    between atoms: N_18  and  C_21 
REMARK   16  A    between atoms: C_21  and  C_22 
REMARK   17  A    between atoms: C_22  and  C_23 
REMARK   18  A    between atoms: C_22  and  O_28 
REMARK   19  A    between atoms: C_23  and  S_24 
ROOT
HETATM    1  C   UNL     1     -34.254  -3.729 -14.085  1.00  0.00     0.217 C 
HETATM    2  O   UNL     1     -34.694  -2.585 -14.181  1.00  0.00    -0.274 OA
HETATM    3  N   UNL     1     -33.679  -4.397 -15.145  1.00  0.00    -0.361 N 
HETATM    4  H   UNL     1     -33.363  -5.357 -15.035  1.00  0.00     0.162 HD
ENDROOT
BRANCH   3   5
HETATM    5  C   UNL     1     -33.714  -3.798 -16.458  1.00  0.00     0.124 C 
BRANCH   5   6
HETATM    6  C   UNL     1     -32.394  -4.021 -17.187  1.00  0.00     0.047 C 
BRANCH   6   7
HETATM    7  C   UNL     1     -31.496  -4.916 -16.336  1.00  0.00     0.238 C 
BRANCH   7   8
HETATM    8  N   UNL     1     -30.173  -5.293 -17.028  1.00  0.00    -0.072 N 
HETATM    9  C   UNL     1     -30.419  -6.615 -17.757  1.00  0.00     0.272 C 
HETATM   10  C   UNL     1     -29.741  -4.193 -17.983  1.00  0.00     0.272 C 
BRANCH   8  11
HETATM   11  C   UNL     1     -29.045  -5.583 -15.979  1.00  0.00     0.269 C 
BRANCH  11  12
HETATM   12  C   UNL     1     -27.963  -6.644 -16.312  1.00  0.00     0.160 C 
BRANCH  12  13
HETATM   13  C   UNL     1     -26.750  -6.260 -17.144  1.00  0.00     0.198 C 
BRANCH  13  14
HETATM   14  S   UNL     1     -25.216  -6.587 -16.325  1.00  0.00     0.104 S 
HETATM   15  O   UNL     1     -24.253  -6.559 -17.410  1.00  0.00    -0.595 OA
HETATM   16  O   UNL     1     -25.113  -5.469 -15.398  1.00  0.00    -0.595 OA
HETATM   17  O   UNL     1     -25.498  -7.884 -15.711  1.00  0.00    -0.595 OA
ENDBRANCH  13  14
ENDBRANCH  12  13
BRANCH  12  18
HETATM   18  O   UNL     1     -27.543  -7.246 -15.067  1.00  0.00    -0.393 OA
HETATM   19  H   UNL     1     -27.038  -6.553 -14.566  1.00  0.00     0.210 HD
ENDBRANCH  12  18
ENDBRANCH  11  12
ENDBRANCH   8  11
ENDBRANCH   7   8
ENDBRANCH   6   7
ENDBRANCH   5   6
ENDBRANCH   3   5
BRANCH   1  20
HETATM   20  C   UNL     1     -34.229  -4.484 -12.776  1.00  0.00     0.103 C 
BRANCH  20  21
HETATM   21  C   UNL     1     -33.210  -3.856 -11.833  1.00  0.00     0.009 C 
BRANCH  21  22
HETATM   22  C   UNL     1     -33.848  -3.429 -10.516  1.00  0.00     0.000 C 
BRANCH  22  23
HETATM   23  C   UNL     1     -34.178  -1.940 -10.559  1.00  0.00     0.000 C 
BRANCH  23  24
HETATM   24  C   UNL     1     -35.638  -1.708 -10.921  1.00  0.00     0.000 C 
BRANCH  24  25
HETATM   25  C   UNL     1     -36.376  -1.044  -9.762  1.00  0.00     0.000 C 
BRANCH  25  26
HETATM   26  C   UNL     1     -36.901   0.326 -10.171  1.00  0.00     0.000 C 
BRANCH  26  27
HETATM   27  C   UNL     1     -37.202   1.185  -8.946  1.00  0.00     0.000 C 
BRANCH  27  28
HETATM   28  C   UNL     1     -37.178   0.339  -7.677  1.00  0.00    -0.000 C 
BRANCH  28  29
HETATM   29  C   UNL     1     -37.463   1.186  -6.441  1.00  0.00    -0.005 C 
HETATM   30  C   UNL     1     -37.014   0.474  -5.175  1.00  0.00     0.005 C 
ENDBRANCH  28  29
ENDBRANCH  27  28
ENDBRANCH  26  27
ENDBRANCH  25  26
ENDBRANCH  24  25
ENDBRANCH  23  24
ENDBRANCH  22  23
ENDBRANCH  21  22
ENDBRANCH  20  21
ENDBRANCH   1  20
TORSDOF 19
BEGIN_RES ARG D 557
REMARK  4 active torsions:
REMARK  status: ('A' for Active; 'I' for Inactive)
REMARK    1  A    between atoms: CA   and  CB  
REMARK    2  A    between atoms: CB   and  CG  
REMARK    3  A    between atoms: CG   and  CD  
REMARK    4  A    between atoms: CD   and  NE  
REMARK       I    between atoms: NE   and  CZ  
REMARK       I    between atoms: CZ   and  NH1 
REMARK       I    between atoms: CZ   and  NH2 
ROOT
ATOM      1  CA  ARG D 557     -26.217   2.705 -17.014  1.00 35.49     0.159 C 
ENDROOT
BRANCH   1   2
ATOM      2  CB  ARG D 557     -26.789   1.319 -17.183  1.00 35.49     0.034 C 
BRANCH   2   3
ATOM      3  CG  ARG D 557     -25.875   0.194 -16.951  1.00 35.49     0.027 C 
BRANCH   3   4
ATOM      4  CD  ARG D 557     -26.265  -0.618 -15.776  1.00 35.49     0.116 C 
BRANCH   4   5
ATOM      5  NE  ARG D 557     -25.140  -0.932 -14.936  1.00 35.49    -0.212 N 
ATOM      6  CZ  ARG D 557     -24.998  -2.024 -14.219  1.00 35.49     0.666 C 
ATOM      7  NH1 ARG D 557     -25.915  -2.974 -14.184  1.00 35.49    -0.235 N 
ATOM      8  NH2 ARG D 557     -23.901  -2.153 -13.531  1.00 35.49    -0.235 N 
ATOM      9  HH  ARG D 557     -26.644  -2.911 -14.630  1.00 35.49     0.174 HD
ATOM     10  HH  ARG D 557     -25.767  -3.665 -13.700  1.00 35.49     0.174 HD
ATOM     11  HH  ARG D 557     -23.323  -1.527 -13.579  1.00 35.49     0.174 HD
ATOM     12  HH  ARG D 557     -23.772  -2.845 -13.059  1.00 35.49     0.174 HD
ATOM     13  HE  ARG D 557     -24.535  -0.342 -14.842  1.00 35.49     0.178 HD
ENDBRANCH   4   5
ENDBRANCH   3   4
ENDBRANCH   2   3
ENDBRANCH   1   2
END_RES ARG D 557
BEGIN_RES GLU D 570
REMARK  3 active torsions:
REMARK  status: ('A' for Active; 'I' for Inactive)
REMARK    5  A    between atoms: CA   and  CB  
REMARK    6  A    between atoms: CB   and  CG  
REMARK    7  A    between atoms: CG   and  CD  
ROOT
ATOM     14  CA  GLU D 570     -18.033  -6.348 -13.375  1.00 32.92     0.160 C 
ENDROOT
BRANCH  14  15
ATOM     15  CB  GLU D 570     -19.500  -6.345 -13.794  1.00 32.92     0.043 C 
BRANCH  15  16
ATOM     16  CG  GLU D 570     -20.445  -5.547 -12.971  1.00 32.92     0.100 C 
BRANCH  16  17
ATOM     17  CD  GLU D 570     -21.685  -5.136 -13.730  1.00 32.92     0.185 C 
ATOM     18  OE1 GLU D 570     -21.579  -4.795 -14.924  1.00 32.92    -0.647 OA
ATOM     19  OE2 GLU D 570     -22.772  -5.139 -13.120  1.00 32.92    -0.647 OA
ENDBRANCH  16  17
ENDBRANCH  15  16
ENDBRANCH  14  15
END_RES GLU D 570
ENDMDL
MODEL 5
REMARK VINA RESULT:      -7.0      7.442     12.783
REMARK  19 active torsions:
REMARK  status: ('A' for Active; 'I' for Inactive)
REMARK    1  A    between atoms: C_2  and  C_3 
REMARK    2  A    between atoms: C_3  and  C_4 
REMARK    3  A    between atoms: C_4  and  C_5 
REMARK    4  A    between atoms: C_5  and  C_6 
REMARK    5  A    between atoms: C_6  and  C_7 
REMARK    6  A    between atoms: C_7  and  C_8 
REMARK    7  A    between atoms: C_8  and  C_9 
REMARK    8  A    between atoms: C_9  and  C_10 
REMARK    9  A    between atoms: C_10  and  C_11 
REMARK   10  A    between atoms: C_11  and  C_12 
REMARK       I    between atoms: C_12  and  N_14 
REMARK   11  A    between atoms: N_14  and  C_15 
REMARK   12  A    between atoms: C_15  and  C_16 
REMARK   13  A    between atoms: C_16  and  C_17 
REMARK   14  A    between atoms: C_17  and  N_18 
REMARK   15  A    between atoms: N_18  and  C_21 
REMARK   16  A    between atoms: C_21  and  C_22 
REMARK   17  A    between atoms: C_22  and  C_23 
REMARK   18  A    between atoms: C_22  and  O_28 
REMARK   19  A    between atoms: C_23  and  S_24 
ROOT
HETATM    1  C   UNL     1     -33.759  -4.421 -13.199  1.00  0.00     0.217 C 
HETATM    2  O   UNL     1     -34.950  -4.701 -13.075  1.00  0.00    -0.274 OA
HETATM    3  N   UNL     1     -33.185  -4.132 -14.418  1.00  0.00    -0.361 N 
HETATM    4  H   UNL     1     -32.188  -3.945 -14.484  1.00  0.00     0.162 HD
ENDROOT
BRANCH   3   5
HETATM    5  C   UNL     1     -33.966  -4.297 -15.622  1.00  0.00     0.124 C 
BRANCH   5   6
HETATM    6  C   UNL     1     -33.098  -4.830 -16.756  1.00  0.00     0.047 C 
BRANCH   6   7
HETATM    7  C   UNL     1     -31.642  -4.453 -16.495  1.00  0.00     0.238 C 
BRANCH   7   8
HETATM    8  N   UNL     1     -30.633  -5.454 -17.088  1.00  0.00    -0.072 N 
HETATM    9  C   UNL     1     -31.442  -6.656 -17.578  1.00  0.00     0.272 C 
HETATM   10  C   UNL     1     -29.843  -4.808 -18.214  1.00  0.00     0.272 C 
BRANCH   8  11
HETATM   11  C   UNL     1     -29.666  -6.006 -15.985  1.00  0.00     0.269 C 
BRANCH  11  12
HETATM   12  C   UNL     1     -28.381  -6.758 -16.420  1.00  0.00     0.160 C 
BRANCH  12  13
HETATM   13  C   UNL     1     -27.224  -6.919 -15.446  1.00  0.00     0.198 C 
BRANCH  13  14
HETATM   14  S   UNL     1     -25.648  -6.596 -16.183  1.00  0.00     0.104 S 
HETATM   15  O   UNL     1     -25.138  -5.490 -15.394  1.00  0.00    -0.595 OA
HETATM   16  O   UNL     1     -24.946  -7.856 -15.981  1.00  0.00    -0.595 OA
HETATM   17  O   UNL     1     -26.038  -6.312 -17.564  1.00  0.00    -0.595 OA
ENDBRANCH  13  14
ENDBRANCH  12  13
BRANCH  12  18
HETATM   18  O   UNL     1     -28.781  -8.048 -16.934  1.00  0.00    -0.393 OA
HETATM   19  H   UNL     1     -27.950  -8.528 -17.191  1.00  0.00     0.210 HD
ENDBRANCH  12  18
ENDBRANCH  11  12
ENDBRANCH   8  11
ENDBRANCH   7   8
ENDBRANCH   6   7
ENDBRANCH   5   6
ENDBRANCH   3   5
BRANCH   1  20
HETATM   20  C   UNL     1     -32.827  -4.289 -12.017  1.00  0.00     0.103 C 
BRANCH  20  21
HETATM   21  C   UNL     1     -33.590  -3.756 -10.810  1.00  0.00     0.009 C 
BRANCH  21  22
HETATM   22  C   UNL     1     -33.732  -2.240 -10.856  1.00  0.00     0.000 C 
BRANCH  22  23
HETATM   23  C   UNL     1     -35.127  -1.836 -10.390  1.00  0.00     0.000 C 
BRANCH  23  24
HETATM   24  C   UNL     1     -35.941  -1.243 -11.533  1.00  0.00     0.000 C 
BRANCH  24  25
HETATM   25  C   UNL     1     -35.043  -0.948 -12.730  1.00  0.00     0.000 C 
BRANCH  25  26
HETATM   26  C   UNL     1     -35.052   0.540 -13.057  1.00  0.00     0.000 C 
BRANCH  26  27
HETATM   27  C   UNL     1     -34.614   0.787 -14.497  1.00  0.00     0.000 C 
BRANCH  27  28
HETATM   28  C   UNL     1     -35.827   0.955 -15.407  1.00  0.00    -0.000 C 
BRANCH  28  29
HETATM   29  C   UNL     1     -36.189  -0.358 -16.095  1.00  0.00    -0.005 C 
HETATM   30  C   UNL     1     -37.693  -0.577 -16.098  1.00  0.00     0.005 C 
ENDBRANCH  28  29
ENDBRANCH  27  28
ENDBRANCH  26  27
ENDBRANCH  25  26
ENDBRANCH  24  25
ENDBRANCH  23  24
ENDBRANCH  22  23
ENDBRANCH  21  22
ENDBRANCH  20  21
ENDBRANCH   1  20
TORSDOF 19
BEGIN_RES ARG D 557
REMARK  4 active torsions:
REMARK  status: ('A' for Active; 'I' for Inactive)
REMARK    1  A    between atoms: CA   and  CB  
REMARK    2  A    between atoms: CB   and  CG  
REMARK    3  A    between atoms: CG   and  CD  
REMARK    4  A    between atoms: CD   and  NE  
REMARK       I    between atoms: NE   and  CZ  
REMARK       I    between atoms: CZ   and  NH1 
REMARK       I    between atoms: CZ   and  NH2 
ROOT
ATOM      1  CA  ARG D 557     -26.217   2.705 -17.014  1.00 35.49     0.159 C 
ENDROOT
BRANCH   1   2
ATOM      2  CB  ARG D 557     -26.789   1.319 -17.183  1.00 35.49     0.034 C 
BRANCH   2   3
ATOM      3  CG  ARG D 557     -25.863   0.195 -17.000  1.00 35.49     0.027 C 
BRANCH   3   4
ATOM      4  CD  ARG D 557     -26.245  -0.671 -15.861  1.00 35.49     0.116 C 
BRANCH   4   5
ATOM      5  NE  ARG D 557     -25.136  -0.934 -14.983  1.00 35.49    -0.212 N 
ATOM      6  CZ  ARG D 557     -24.978  -2.010 -14.245  1.00 35.49     0.666 C 
ATOM      7  NH1 ARG D 557     -25.861  -2.990 -14.223  1.00 35.49    -0.235 N 
ATOM      8  NH2 ARG D 557     -23.898  -2.089 -13.523  1.00 35.49    -0.235 N 
ATOM      9  HH  ARG D 557     -26.578  -2.960 -14.692  1.00 35.49     0.174 HD
ATOM     10  HH  ARG D 557     -25.704  -3.669 -13.724  1.00 35.49     0.174 HD
ATOM     11  HH  ARG D 557     -23.342  -1.444 -13.562  1.00 35.49     0.174 HD
ATOM     12  HH  ARG D 557     -23.760  -2.770 -13.037  1.00 35.49     0.174 HD
ATOM     13  HE  ARG D 557     -24.554  -0.321 -14.880  1.00 35.49     0.178 HD
ENDBRANCH   4   5
ENDBRANCH   3   4
ENDBRANCH   2   3
ENDBRANCH   1   2
END_RES ARG D 557
BEGIN_RES GLU D 570
REMARK  3 active torsions:
REMARK  status: ('A' for Active; 'I' for Inactive)
REMARK    5  A    between atoms: CA   and  CB  
REMARK    6  A    between atoms: CB   and  CG  
REMARK    7  A    between atoms: CG   and  CD  
ROOT
ATOM     14  CA  GLU D 570     -18.033  -6.348 -13.375  1.00 32.92     0.160 C 
ENDROOT
BRANCH  14  15
ATOM     15  CB  GLU D 570     -19.500  -6.345 -13.794  1.00 32.92     0.043 C 
BRANCH  15  16
ATOM     16  CG  GLU D 570     -20.391  -5.339 -13.160  1.00 32.92     0.100 C 
BRANCH  16  17
ATOM     17  CD  GLU D 570     -21.830  -5.465 -13.602  1.00 32.92     0.185 C 
ATOM     18  OE1 GLU D 570     -22.104  -6.201 -14.570  1.00 32.92    -0.647 OA
ATOM     19  OE2 GLU D 570     -22.691  -4.807 -12.985  1.00 32.92    -0.647 OA
ENDBRANCH  16  17
ENDBRANCH  15  16
ENDBRANCH  14  15
END_RES GLU D 570
ENDMDL
MODEL 6
REMARK VINA RESULT:      -6.9      1.846      2.923
REMARK  19 active torsions:
REMARK  status: ('A' for Active; 'I' for Inactive)
REMARK    1  A    between atoms: C_2  and  C_3 
REMARK    2  A    between atoms: C_3  and  C_4 
REMARK    3  A    between atoms: C_4  and  C_5 
REMARK    4  A    between atoms: C_5  and  C_6 
REMARK    5  A    between atoms: C_6  and  C_7 
REMARK    6  A    between atoms: C_7  and  C_8 
REMARK    7  A    between atoms: C_8  and  C_9 
REMARK    8  A    between atoms: C_9  and  C_10 
REMARK    9  A    between atoms: C_10  and  C_11 
REMARK   10  A    between atoms: C_11  and  C_12 
REMARK       I    between atoms: C_12  and  N_14 
REMARK   11  A    between atoms: N_14  and  C_15 
REMARK   12  A    between atoms: C_15  and  C_16 
REMARK   13  A    between atoms: C_16  and  C_17 
REMARK   14  A    between atoms: C_17  and  N_18 
REMARK   15  A    between atoms: N_18  and  C_21 
REMARK   16  A    between atoms: C_21  and  C_22 
REMARK   17  A    between atoms: C_22  and  C_23 
REMARK   18  A    between atoms: C_22  and  O_28 
REMARK   19  A    between atoms: C_23  and  S_24 
ROOT
HETATM    1  C   UNL     1     -21.433  -4.639  -7.605  1.00  0.00     0.217 C 
HETATM    2  O   UNL     1     -20.737  -3.994  -8.387  1.00  0.00    -0.274 OA
HETATM    3  N   UNL     1     -22.811  -4.628  -7.652  1.00  0.00    -0.361 N 
HETATM    4  H   UNL     1     -23.351  -5.143  -6.962  1.00  0.00     0.162 HD
ENDROOT
BRANCH   3   5
HETATM    5  C   UNL     1     -23.478  -3.722  -8.557  1.00  0.00     0.124 C 
BRANCH   5   6
HETATM    6  C   UNL     1     -24.016  -4.473  -9.770  1.00  0.00     0.047 C 
BRANCH   6   7
HETATM    7  C   UNL     1     -24.168  -3.500 -10.937  1.00  0.00     0.238 C 
BRANCH   7   8
HETATM    8  N   UNL     1     -23.034  -3.603 -11.974  1.00  0.00    -0.072 N 
HETATM    9  C   UNL     1     -22.399  -2.216 -12.071  1.00  0.00     0.272 C 
HETATM   10  C   UNL     1     -22.025  -4.659 -11.554  1.00  0.00     0.272 C 
BRANCH   8  11
HETATM   11  C   UNL     1     -23.598  -3.920 -13.401  1.00  0.00     0.269 C 
BRANCH  11  12
HETATM   12  C   UNL     1     -23.011  -5.119 -14.192  1.00  0.00     0.160 C 
BRANCH  12  13
HETATM   13  C   UNL     1     -23.805  -6.410 -14.322  1.00  0.00     0.198 C 
BRANCH  13  14
HETATM   14  S   UNL     1     -24.864  -6.433 -15.739  1.00  0.00     0.104 S 
HETATM   15  O   UNL     1     -25.459  -5.108 -15.725  1.00  0.00    -0.595 OA
HETATM   16  O   UNL     1     -23.923  -6.660 -16.827  1.00  0.00    -0.595 OA
HETATM   17  O   UNL     1     -25.735  -7.563 -15.419  1.00  0.00    -0.595 OA
ENDBRANCH  13  14
ENDBRANCH  12  13
BRANCH  12  18
HETATM   18  O   UNL     1     -22.628  -4.637 -15.499  1.00  0.00    -0.393 OA
HETATM   19  H   UNL     1     -23.057  -3.748 -15.617  1.00  0.00     0.210 HD
ENDBRANCH  12  18
ENDBRANCH  11  12
ENDBRANCH   8  11
ENDBRANCH   7   8
ENDBRANCH   6   7
ENDBRANCH   5   6
ENDBRANCH   3   5
BRANCH   1  20
HETATM   20  C   UNL     1     -20.845  -5.567  -6.567  1.00  0.00     0.103 C 
BRANCH  20  21
HETATM   21  C   UNL     1     -21.935  -6.033  -5.609  1.00  0.00     0.009 C 
BRANCH  21  22
HETATM   22  C   UNL     1     -21.378  -6.939  -4.518  1.00  0.00     0.000 C 
BRANCH  22  23
HETATM   23  C   UNL     1     -20.229  -7.773  -5.075  1.00  0.00     0.000 C 
BRANCH  23  24
HETATM   24  C   UNL     1     -20.068  -9.077  -4.305  1.00  0.00     0.000 C 
BRANCH  24  25
HETATM   25  C   UNL     1     -19.483  -8.810  -2.921  1.00  0.00     0.000 C 
BRANCH  25  26
HETATM   26  C   UNL     1     -20.184  -9.657  -1.867  1.00  0.00     0.000 C 
BRANCH  26  27
HETATM   27  C   UNL     1     -21.585  -9.125  -1.580  1.00  0.00     0.000 C 
BRANCH  27  28
HETATM   28  C   UNL     1     -21.513  -7.747  -0.929  1.00  0.00    -0.000 C 
BRANCH  28  29
HETATM   29  C   UNL     1     -22.307  -7.706   0.373  1.00  0.00    -0.005 C 
HETATM   30  C   UNL     1     -23.396  -8.766   0.382  1.00  0.00     0.005 C 
ENDBRANCH  28  29
ENDBRANCH  27  28
ENDBRANCH  26  27
ENDBRANCH  25  26
ENDBRANCH  24  25
ENDBRANCH  23  24
ENDBRANCH  22  23
ENDBRANCH  21  22
ENDBRANCH  20  21
ENDBRANCH   1  20
TORSDOF 19
BEGIN_RES ARG D 557
REMARK  4 active torsions:
REMARK  status: ('A' for Active; 'I' for Inactive)
REMARK    1  A    between atoms: CA   and  CB  
REMARK    2  A    between atoms: CB   and  CG  
REMARK    3  A    between atoms: CG   and  CD  
REMARK    4  A    between atoms: CD   and  NE  
REMARK       I    between atoms: NE   and  CZ  
REMARK       I    between atoms: CZ   and  NH1 
REMARK       I    between atoms: CZ   and  NH2 
ROOT
ATOM      1  CA  ARG D 557     -26.217   2.705 -17.014  1.00 35.49     0.159 C 
ENDROOT
BRANCH   1   2
ATOM      2  CB  ARG D 557     -26.789   1.319 -17.183  1.00 35.49     0.034 C 
BRANCH   2   3
ATOM      3  CG  ARG D 557     -28.227   1.227 -17.464  1.00 35.49     0.027 C 
BRANCH   3   4
ATOM      4  CD  ARG D 557     -28.911   0.245 -16.592  1.00 35.49     0.116 C 
BRANCH   4   5
ATOM      5  NE  ARG D 557     -28.038  -0.829 -16.197  1.00 35.49    -0.212 N 
ATOM      6  CZ  ARG D 557     -28.136  -2.081 -16.587  1.00 35.49     0.666 C 
ATOM      7  NH1 ARG D 557     -29.089  -2.498 -17.399  1.00 35.49    -0.235 N 
ATOM      8  NH2 ARG D 557     -27.243  -2.918 -16.145  1.00 35.49    -0.235 N 
ATOM      9  HH  ARG D 557     -29.685  -1.964 -17.704  1.00 35.49     0.174 HD
ATOM     10  HH  ARG D 557     -29.101  -3.326 -17.621  1.00 35.49     0.174 HD
ATOM     11  HH  ARG D 557     -26.634  -2.619 -15.628  1.00 35.49     0.174 HD
ATOM     12  HH  ARG D 557     -27.271  -3.733 -16.378  1.00 35.49     0.174 HD
ATOM     13  HE  ARG D 557     -27.439  -0.664 -15.617  1.00 35.49     0.178 HD
ENDBRANCH   4   5
ENDBRANCH   3   4
ENDBRANCH   2   3
ENDBRANCH   1   2
END_RES ARG D 557
BEGIN_RES GLU D 570
REMARK  3 active torsions:
REMARK  status: ('A' for Active; 'I' for Inactive)
REMARK    5  A    between atoms: CA   and  CB  
REMARK    6  A    between atoms: CB   and  CG  
REMARK    7  A    between atoms: CG   and  CD  
ROOT
ATOM     14  CA  GLU D 570     -18.033  -6.348 -13.375  1.00 32.92     0.160 C 
ENDROOT
BRANCH  14  15
ATOM     15  CB  GLU D 570     -19.500  -6.345 -13.794  1.00 32.92     0.043 C 
BRANCH  15  16
ATOM     16  CG  GLU D 570     -20.089  -7.636 -14.233  1.00 32.92     0.100 C 
BRANCH  16  17
ATOM     17  CD  GLU D 570     -20.619  -7.592 -15.647  1.00 32.92     0.185 C 
ATOM     18  OE1 GLU D 570     -21.084  -8.632 -16.152  1.00 32.92    -0.647 OA
ATOM     19  OE2 GLU D 570     -20.552  -6.510 -16.263  1.00 32.92    -0.647 OA
ENDBRANCH  16  17
ENDBRANCH  15  16
ENDBRANCH  14  15
END_RES GLU D 570
ENDMDL
MODEL 7
REMARK VINA RESULT:      -6.9      2.156      3.069
REMARK  19 active torsions:
REMARK  status: ('A' for Active; 'I' for Inactive)
REMARK    1  A    between atoms: C_2  and  C_3 
REMARK    2  A    between atoms: C_3  and  C_4 
REMARK    3  A    between atoms: C_4  and  C_5 
REMARK    4  A    between atoms: C_5  and  C_6 
REMARK    5  A    between atoms: C_6  and  C_7 
REMARK    6  A    between atoms: C_7  and  C_8 
REMARK    7  A    between atoms: C_8  and  C_9 
REMARK    8  A    between atoms: C_9  and  C_10 
REMARK    9  A    between atoms: C_10  and  C_11 
REMARK   10  A    between atoms: C_11  and  C_12 
REMARK       I    between atoms: C_12  and  N_14 
REMARK   11  A    between atoms: N_14  and  C_15 
REMARK   12  A    between atoms: C_15  and  C_16 
REMARK   13  A    between atoms: C_16  and  C_17 
REMARK   14  A    between atoms: C_17  and  N_18 
REMARK   15  A    between atoms: N_18  and  C_21 
REMARK   16  A    between atoms: C_21  and  C_22 
REMARK   17  A    between atoms: C_22  and  C_23 
REMARK   18  A    between atoms: C_22  and  O_28 
REMARK   19  A    between atoms: C_23  and  S_24 
ROOT
HETATM    1  C   UNL     1     -21.051  -4.712  -8.096  1.00  0.00     0.217 C 
HETATM    2  O   UNL     1     -21.871  -3.824  -7.868  1.00  0.00    -0.274 OA
HETATM    3  N   UNL     1     -20.249  -4.716  -9.217  1.00  0.00    -0.361 N 
HETATM    4  H   UNL     1     -19.612  -5.489  -9.389  1.00  0.00     0.162 HD
ENDROOT
BRANCH   3   5
HETATM    5  C   UNL     1     -20.467  -3.722 -10.242  1.00  0.00     0.124 C 
BRANCH   5   6
HETATM    6  C   UNL     1     -21.340  -4.284 -11.358  1.00  0.00     0.047 C 
BRANCH   6   7
HETATM    7  C   UNL     1     -22.025  -3.132 -12.089  1.00  0.00     0.238 C 
BRANCH   7   8
HETATM    8  N   UNL     1     -23.361  -3.529 -12.745  1.00  0.00    -0.072 N 
HETATM    9  C   UNL     1     -24.463  -3.177 -11.744  1.00  0.00     0.272 C 
HETATM   10  C   UNL     1     -23.542  -2.799 -14.065  1.00  0.00     0.272 C 
BRANCH   8  11
HETATM   11  C   UNL     1     -23.450  -5.078 -12.958  1.00  0.00     0.269 C 
BRANCH  11  12
HETATM   12  C   UNL     1     -23.674  -5.629 -14.391  1.00  0.00     0.160 C 
BRANCH  12  13
HETATM   13  C   UNL     1     -25.026  -5.469 -15.067  1.00  0.00     0.198 C 
BRANCH  13  14
HETATM   14  S   UNL     1     -25.486  -6.874 -16.040  1.00  0.00     0.104 S 
HETATM   15  O   UNL     1     -26.597  -7.438 -15.295  1.00  0.00    -0.595 OA
HETATM   16  O   UNL     1     -25.857  -6.266 -17.309  1.00  0.00    -0.595 OA
HETATM   17  O   UNL     1     -24.233  -7.628 -16.049  1.00  0.00    -0.595 OA
ENDBRANCH  13  14
ENDBRANCH  12  13
BRANCH  12  18
HETATM   18  O   UNL     1     -22.629  -5.093 -15.234  1.00  0.00    -0.393 OA
HETATM   19  H   UNL     1     -23.067  -4.758 -16.060  1.00  0.00     0.210 HD
ENDBRANCH  12  18
ENDBRANCH  11  12
ENDBRANCH   8  11
ENDBRANCH   7   8
ENDBRANCH   6   7
ENDBRANCH   5   6
ENDBRANCH   3   5
BRANCH   1  20
HETATM   20  C   UNL     1     -20.788  -5.843  -7.128  1.00  0.00     0.103 C 
BRANCH  20  21
HETATM   21  C   UNL     1     -20.139  -5.301  -5.860  1.00  0.00     0.009 C 
BRANCH  21  22
HETATM   22  C   UNL     1     -20.996  -5.571  -4.629  1.00  0.00     0.000 C 
BRANCH  22  23
HETATM   23  C   UNL     1     -21.125  -7.075  -4.407  1.00  0.00     0.000 C 
BRANCH  23  24
HETATM   24  C   UNL     1     -21.133  -7.416  -2.923  1.00  0.00     0.000 C 
BRANCH  24  25
HETATM   25  C   UNL     1     -21.946  -6.386  -2.144  1.00  0.00     0.000 C 
BRANCH  25  26
HETATM   26  C   UNL     1     -22.346  -6.936  -0.780  1.00  0.00     0.000 C 
BRANCH  26  27
HETATM   27  C   UNL     1     -21.441  -8.094  -0.369  1.00  0.00     0.000 C 
BRANCH  27  28
HETATM   28  C   UNL     1     -21.457  -8.277   1.145  1.00  0.00    -0.000 C 
BRANCH  28  29
HETATM   29  C   UNL     1     -20.713  -9.544   1.558  1.00  0.00    -0.005 C 
HETATM   30  C   UNL     1     -20.953 -10.667   0.563  1.00  0.00     0.005 C 
ENDBRANCH  28  29
ENDBRANCH  27  28
ENDBRANCH  26  27
ENDBRANCH  25  26
ENDBRANCH  24  25
ENDBRANCH  23  24
ENDBRANCH  22  23
ENDBRANCH  21  22
ENDBRANCH  20  21
ENDBRANCH   1  20
TORSDOF 19
BEGIN_RES ARG D 557
REMARK  4 active torsions:
REMARK  status: ('A' for Active; 'I' for Inactive)
REMARK    1  A    between atoms: CA   and  CB  
REMARK    2  A    between atoms: CB   and  CG  
REMARK    3  A    between atoms: CG   and  CD  
REMARK    4  A    between atoms: CD   and  NE  
REMARK       I    between atoms: NE   and  CZ  
REMARK       I    between atoms: CZ   and  NH1 
REMARK       I    between atoms: CZ   and  NH2 
ROOT
ATOM      1  CA  ARG D 557     -26.217   2.705 -17.014  1.00 35.49     0.159 C 
ENDROOT
BRANCH   1   2
ATOM      2  CB  ARG D 557     -26.789   1.319 -17.183  1.00 35.49     0.034 C 
BRANCH   2   3
ATOM      3  CG  ARG D 557     -25.960   0.201 -16.717  1.00 35.49     0.027 C 
BRANCH   3   4
ATOM      4  CD  ARG D 557     -26.708  -0.731 -15.843  1.00 35.49     0.116 C 
BRANCH   4   5
ATOM      5  NE  ARG D 557     -27.558  -1.616 -16.596  1.00 35.49    -0.212 N 
ATOM      6  CZ  ARG D 557     -28.821  -1.403 -16.889  1.00 35.49     0.666 C 
ATOM      7  NH1 ARG D 557     -29.468  -0.321 -16.496  1.00 35.49    -0.235 N 
ATOM      8  NH2 ARG D 557     -29.433  -2.306 -17.600  1.00 35.49    -0.235 N 
ATOM      9  HH  ARG D 557     -29.084   0.286 -16.029  1.00 35.49     0.174 HD
ATOM     10  HH  ARG D 557     -30.291  -0.235 -16.719  1.00 35.49     0.174 HD
ATOM     11  HH  ARG D 557     -28.988  -2.991 -17.845  1.00 35.49     0.174 HD
ATOM     12  HH  ARG D 557     -30.247  -2.202 -17.812  1.00 35.49     0.174 HD
ATOM     13  HE  ARG D 557     -27.243  -2.372 -16.826  1.00 35.49     0.178 HD
ENDBRANCH   4   5
ENDBRANCH   3   4
ENDBRANCH   2   3
ENDBRANCH   1   2
END_RES ARG D 557
BEGIN_RES GLU D 570
REMARK  3 active torsions:
REMARK  status: ('A' for Active; 'I' for Inactive)
REMARK    5  A    between atoms: CA   and  CB  
REMARK    6  A    between atoms: CB   and  CG  
REMARK    7  A    between atoms: CG   and  CD  
ROOT
ATOM     14  CA  GLU D 570     -18.033  -6.348 -13.375  1.00 32.92     0.160 C 
ENDROOT
BRANCH  14  15
ATOM     15  CB  GLU D 570     -19.500  -6.345 -13.794  1.00 32.92     0.043 C 
BRANCH  15  16
ATOM     16  CG  GLU D 570     -20.112  -7.651 -14.152  1.00 32.92     0.100 C 
BRANCH  16  17
ATOM     17  CD  GLU D 570     -20.637  -7.687 -15.569  1.00 32.92     0.185 C 
ATOM     18  OE1 GLU D 570     -20.590  -6.650 -16.258  1.00 32.92    -0.647 OA
ATOM     19  OE2 GLU D 570     -21.115  -8.759 -15.988  1.00 32.92    -0.647 OA
ENDBRANCH  16  17
ENDBRANCH  15  16
ENDBRANCH  14  15
END_RES GLU D 570
ENDMDL
MODEL 8
REMARK VINA RESULT:      -6.9      4.635     10.344
REMARK  19 active torsions:
REMARK  status: ('A' for Active; 'I' for Inactive)
REMARK    1  A    between atoms: C_2  and  C_3 
REMARK    2  A    between atoms: C_3  and  C_4 
REMARK    3  A    between atoms: C_4  and  C_5 
REMARK    4  A    between atoms: C_5  and  C_6 
REMARK    5  A    between atoms: C_6  and  C_7 
REMARK    6  A    between atoms: C_7  and  C_8 
REMARK    7  A    between atoms: C_8  and  C_9 
REMARK    8  A    between atoms: C_9  and  C_10 
REMARK    9  A    between atoms: C_10  and  C_11 
REMARK   10  A    between atoms: C_11  and  C_12 
REMARK       I    between atoms: C_12  and  N_14 
REMARK   11  A    between atoms: N_14  and  C_15 
REMARK   12  A    between atoms: C_15  and  C_16 
REMARK   13  A    between atoms: C_16  and  C_17 
REMARK   14  A    between atoms: C_17  and  N_18 
REMARK   15  A    between atoms: N_18  and  C_21 
REMARK   16  A    between atoms: C_21  and  C_22 
REMARK   17  A    between atoms: C_22  and  C_23 
REMARK   18  A    between atoms: C_22  and  O_28 
REMARK   19  A    between atoms: C_23  and  S_24 
ROOT
HETATM    1  C   UNL     1     -24.179  -5.146 -14.763  1.00  0.00     0.217 C 
HETATM    2  O   UNL     1     -25.221  -4.547 -15.028  1.00  0.00    -0.274 OA
HETATM    3  N   UNL     1     -23.083  -4.522 -14.208  1.00  0.00    -0.361 N 
HETATM    4  H   UNL     1     -22.226  -5.044 -14.042  1.00  0.00     0.162 HD
ENDROOT
BRANCH   3   5
HETATM    5  C   UNL     1     -23.090  -3.086 -14.056  1.00  0.00     0.124 C 
BRANCH   5   6
HETATM    6  C   UNL     1     -22.584  -2.689 -12.674  1.00  0.00     0.047 C 
BRANCH   6   7
HETATM    7  C   UNL     1     -23.603  -3.122 -11.622  1.00  0.00     0.238 C 
BRANCH   7   8
HETATM    8  N   UNL     1     -23.013  -4.048 -10.542  1.00  0.00    -0.072 N 
HETATM    9  C   UNL     1     -23.813  -5.351 -10.595  1.00  0.00     0.272 C 
HETATM   10  C   UNL     1     -21.533  -4.283 -10.794  1.00  0.00     0.272 C 
BRANCH   8  11
HETATM   11  C   UNL     1     -23.239  -3.462  -9.107  1.00  0.00     0.269 C 
BRANCH  11  12
HETATM   12  C   UNL     1     -22.871  -4.328  -7.874  1.00  0.00     0.160 C 
BRANCH  12  13
HETATM   13  C   UNL     1     -21.584  -4.059  -7.109  1.00  0.00     0.198 C 
BRANCH  13  14
HETATM   14  S   UNL     1     -21.077  -5.423  -6.103  1.00  0.00     0.104 S 
HETATM   15  O   UNL     1     -22.290  -5.769  -5.385  1.00  0.00    -0.595 OA
HETATM   16  O   UNL     1     -20.663  -6.405  -7.095  1.00  0.00    -0.595 OA
HETATM   17  O   UNL     1     -19.992  -4.815  -5.333  1.00  0.00    -0.595 OA
ENDBRANCH  13  14
ENDBRANCH  12  13
BRANCH  12  18
HETATM   18  O   UNL     1     -23.999  -4.309  -6.971  1.00  0.00    -0.393 OA
HETATM   19  H   UNL     1     -23.769  -4.901  -6.208  1.00  0.00     0.210 HD
ENDBRANCH  12  18
ENDBRANCH  11  12
ENDBRANCH   8  11
ENDBRANCH   7   8
ENDBRANCH   6   7
ENDBRANCH   5   6
ENDBRANCH   3   5
BRANCH   1  20
HETATM   20  C   UNL     1     -24.029  -6.638 -14.948  1.00  0.00     0.103 C 
BRANCH  20  21
HETATM   21  C   UNL     1     -24.727  -7.076 -16.230  1.00  0.00     0.009 C 
BRANCH  21  22
HETATM   22  C   UNL     1     -23.735  -7.295 -17.366  1.00  0.00     0.000 C 
BRANCH  22  23
HETATM   23  C   UNL     1     -24.422  -7.053 -18.706  1.00  0.00     0.000 C 
BRANCH  23  24
HETATM   24  C   UNL     1     -25.863  -6.598 -18.515  1.00  0.00     0.000 C 
BRANCH  24  25
HETATM   25  C   UNL     1     -26.584  -6.531 -19.858  1.00  0.00     0.000 C 
BRANCH  25  26
HETATM   26  C   UNL     1     -28.023  -6.067 -19.674  1.00  0.00     0.000 C 
BRANCH  26  27
HETATM   27  C   UNL     1     -28.336  -5.822 -18.201  1.00  0.00     0.000 C 
BRANCH  27  28
HETATM   28  C   UNL     1     -29.840  -5.880 -17.954  1.00  0.00    -0.000 C 
BRANCH  28  29
HETATM   29  C   UNL     1     -30.157  -5.874 -16.461  1.00  0.00    -0.005 C 
HETATM   30  C   UNL     1     -28.892  -6.025 -15.633  1.00  0.00     0.005 C 
ENDBRANCH  28  29
ENDBRANCH  27  28
ENDBRANCH  26  27
ENDBRANCH  25  26
ENDBRANCH  24  25
ENDBRANCH  23  24
ENDBRANCH  22  23
ENDBRANCH  21  22
ENDBRANCH  20  21
ENDBRANCH   1  20
TORSDOF 19
BEGIN_RES ARG D 557
REMARK  4 active torsions:
REMARK  status: ('A' for Active; 'I' for Inactive)
REMARK    1  A    between atoms: CA   and  CB  
REMARK    2  A    between atoms: CB   and  CG  
REMARK    3  A    between atoms: CG   and  CD  
REMARK    4  A    between atoms: CD   and  NE  
REMARK       I    between atoms: NE   and  CZ  
REMARK       I    between atoms: CZ   and  NH1 
REMARK       I    between atoms: CZ   and  NH2 
ROOT
ATOM      1  CA  ARG D 557     -26.217   2.705 -17.014  1.00 35.49     0.159 C 
ENDROOT
BRANCH   1   2
ATOM      2  CB  ARG D 557     -26.789   1.319 -17.183  1.00 35.49     0.034 C 
BRANCH   2   3
ATOM      3  CG  ARG D 557     -28.228   1.227 -17.458  1.00 35.49     0.027 C 
BRANCH   3   4
ATOM      4  CD  ARG D 557     -28.916   0.277 -16.554  1.00 35.49     0.116 C 
BRANCH   4   5
ATOM      5  NE  ARG D 557     -28.083  -0.845 -16.212  1.00 35.49    -0.212 N 
ATOM      6  CZ  ARG D 557     -28.237  -2.076 -16.646  1.00 35.49     0.666 C 
ATOM      7  NH1 ARG D 557     -29.217  -2.424 -17.459  1.00 35.49    -0.235 N 
ATOM      8  NH2 ARG D 557     -27.374  -2.965 -16.248  1.00 35.49    -0.235 N 
ATOM      9  HH  ARG D 557     -29.795  -1.855 -17.735  1.00 35.49     0.174 HD
ATOM     10  HH  ARG D 557     -29.266  -3.241 -17.711  1.00 35.49     0.174 HD
ATOM     11  HH  ARG D 557     -26.747  -2.711 -15.729  1.00 35.49     0.174 HD
ATOM     12  HH  ARG D 557     -27.438  -3.769 -16.510  1.00 35.49     0.174 HD
ATOM     13  HE  ARG D 557     -27.470  -0.727 -15.634  1.00 35.49     0.178 HD
ENDBRANCH   4   5
ENDBRANCH   3   4
ENDBRANCH   2   3
ENDBRANCH   1   2
END_RES ARG D 557
BEGIN_RES GLU D 570
REMARK  3 active torsions:
REMARK  status: ('A' for Active; 'I' for Inactive)
REMARK    5  A    between atoms: CA   and  CB  
REMARK    6  A    between atoms: CB   and  CG  
REMARK    7  A    between atoms: CG   and  CD  
ROOT
ATOM     14  CA  GLU D 570     -18.033  -6.348 -13.375  1.00 32.92     0.160 C 
ENDROOT
BRANCH  14  15
ATOM     15  CB  GLU D 570     -19.500  -6.345 -13.794  1.00 32.92     0.043 C 
BRANCH  15  16
ATOM     16  CG  GLU D 570     -20.112  -7.650 -14.154  1.00 32.92     0.100 C 
BRANCH  16  17
ATOM     17  CD  GLU D 570     -20.564  -7.712 -15.594  1.00 32.92     0.185 C 
ATOM     18  OE1 GLU D 570     -20.570  -6.666 -16.272  1.00 32.92    -0.647 OA
ATOM     19  OE2 GLU D 570     -20.932  -8.814 -16.045  1.00 32.92    -0.647 OA
ENDBRANCH  16  17
ENDBRANCH  15  16
ENDBRANCH  14  15
END_RES GLU D 570
ENDMDL
MODEL 9
REMARK VINA RESULT:      -6.8      1.026      2.117
REMARK  19 active torsions:
REMARK  status: ('A' for Active; 'I' for Inactive)
REMARK    1  A    between atoms: C_2  and  C_3 
REMARK    2  A    between atoms: C_3  and  C_4 
REMARK    3  A    between atoms: C_4  and  C_5 
REMARK    4  A    between atoms: C_5  and  C_6 
REMARK    5  A    between atoms: C_6  and  C_7 
REMARK    6  A    between atoms: C_7  and  C_8 
REMARK    7  A    between atoms: C_8  and  C_9 
REMARK    8  A    between atoms: C_9  and  C_10 
REMARK    9  A    between atoms: C_10  and  C_11 
REMARK   10  A    between atoms: C_11  and  C_12 
REMARK       I    between atoms: C_12  and  N_14 
REMARK   11  A    between atoms: N_14  and  C_15 
REMARK   12  A    between atoms: C_15  and  C_16 
REMARK   13  A    between atoms: C_16  and  C_17 
REMARK   14  A    between atoms: C_17  and  N_18 
REMARK   15  A    between atoms: N_18  and  C_21 
REMARK   16  A    between atoms: C_21  and  C_22 
REMARK   17  A    between atoms: C_22  and  C_23 
REMARK   18  A    between atoms: C_22  and  O_28 
REMARK   19  A    between atoms: C_23  and  S_24 
ROOT
HETATM    1  C   UNL     1     -20.787  -6.442  -5.321  1.00  0.00     0.217 C 
HETATM    2  O   UNL     1     -21.260  -5.857  -4.348  1.00  0.00    -0.274 OA
HETATM    3  N   UNL     1     -20.430  -5.789  -6.481  1.00  0.00    -0.361 N 
HETATM    4  H   UNL     1     -20.079  -6.314  -7.278  1.00  0.00     0.162 HD
ENDROOT
BRANCH   3   5
HETATM    5  C   UNL     1     -20.747  -4.388  -6.627  1.00  0.00     0.124 C 
BRANCH   5   6
HETATM    6  C   UNL     1     -21.966  -4.204  -7.524  1.00  0.00     0.047 C 
BRANCH   6   7
HETATM    7  C   UNL     1     -21.580  -3.348  -8.728  1.00  0.00     0.238 C 
BRANCH   7   8
HETATM    8  N   UNL     1     -21.750  -4.073 -10.076  1.00  0.00    -0.072 N 
HETATM    9  C   UNL     1     -20.468  -4.873 -10.310  1.00  0.00     0.272 C 
HETATM   10  C   UNL     1     -22.977  -4.968 -10.047  1.00  0.00     0.272 C 
BRANCH   8  11
HETATM   11  C   UNL     1     -21.843  -3.053 -11.262  1.00  0.00     0.269 C 
BRANCH  11  12
HETATM   12  C   UNL     1     -22.774  -3.376 -12.460  1.00  0.00     0.160 C 
BRANCH  12  13
HETATM   13  C   UNL     1     -23.810  -2.361 -12.918  1.00  0.00     0.198 C 
BRANCH  13  14
HETATM   14  S   UNL     1     -24.203  -2.499 -14.637  1.00  0.00     0.104 S 
HETATM   15  O   UNL     1     -22.984  -2.055 -15.289  1.00  0.00    -0.595 OA
HETATM   16  O   UNL     1     -24.481  -3.921 -14.780  1.00  0.00    -0.595 OA
HETATM   17  O   UNL     1     -25.370  -1.621 -14.728  1.00  0.00    -0.595 OA
ENDBRANCH  13  14
ENDBRANCH  12  13
BRANCH  12  18
HETATM   18  O   UNL     1     -21.938  -3.769 -13.571  1.00  0.00    -0.393 OA
HETATM   19  H   UNL     1     -21.217  -3.089 -13.645  1.00  0.00     0.210 HD
ENDBRANCH  12  18
ENDBRANCH  11  12
ENDBRANCH   8  11
ENDBRANCH   7   8
ENDBRANCH   6   7
ENDBRANCH   5   6
ENDBRANCH   3   5
BRANCH   1  20
HETATM   20  C   UNL     1     -20.478  -7.921  -5.310  1.00  0.00     0.103 C 
BRANCH  20  21
HETATM   21  C   UNL     1     -20.684  -8.485  -3.908  1.00  0.00     0.009 C 
BRANCH  21  22
HETATM   22  C   UNL     1     -21.941  -9.341  -3.823  1.00  0.00     0.000 C 
BRANCH  22  23
HETATM   23  C   UNL     1     -21.620 -10.666  -3.140  1.00  0.00     0.000 C 
BRANCH  23  24
HETATM   24  C   UNL     1     -22.880 -11.330  -2.602  1.00  0.00     0.000 C 
BRANCH  24  25
HETATM   25  C   UNL     1     -23.053 -11.024  -1.118  1.00  0.00     0.000 C 
BRANCH  25  26
HETATM   26  C   UNL     1     -21.719 -11.128  -0.388  1.00  0.00     0.000 C 
BRANCH  26  27
HETATM   27  C   UNL     1     -21.532  -9.963   0.580  1.00  0.00     0.000 C 
BRANCH  27  28
HETATM   28  C   UNL     1     -21.242  -8.673  -0.182  1.00  0.00    -0.000 C 
BRANCH  28  29
HETATM   29  C   UNL     1     -22.385  -7.673  -0.032  1.00  0.00    -0.005 C 
HETATM   30  C   UNL     1     -22.374  -6.658  -1.162  1.00  0.00     0.005 C 
ENDBRANCH  28  29
ENDBRANCH  27  28
ENDBRANCH  26  27
ENDBRANCH  25  26
ENDBRANCH  24  25
ENDBRANCH  23  24
ENDBRANCH  22  23
ENDBRANCH  21  22
ENDBRANCH  20  21
ENDBRANCH   1  20
TORSDOF 19
BEGIN_RES ARG D 557
REMARK  4 active torsions:
REMARK  status: ('A' for Active; 'I' for Inactive)
REMARK    1  A    between atoms: CA   and  CB  
REMARK    2  A    between atoms: CB   and  CG  
REMARK    3  A    between atoms: CG   and  CD  
REMARK    4  A    between atoms: CD   and  NE  
REMARK       I    between atoms: NE   and  CZ  
REMARK       I    between atoms: CZ   and  NH1 
REMARK       I    between atoms: CZ   and  NH2 
ROOT
ATOM      1  CA  ARG D 557     -26.217   2.705 -17.014  1.00 35.49     0.159 C 
ENDROOT
BRANCH   1   2
ATOM      2  CB  ARG D 557     -26.789   1.319 -17.183  1.00 35.49     0.034 C 
BRANCH   2   3
ATOM      3  CG  ARG D 557     -28.109   1.072 -16.590  1.00 35.49     0.027 C 
BRANCH   3   4
ATOM      4  CD  ARG D 557     -28.684  -0.225 -17.014  1.00 35.49     0.116 C 
BRANCH   4   5
ATOM      5  NE  ARG D 557     -27.940  -1.343 -16.496  1.00 35.49    -0.212 N 
ATOM      6  CZ  ARG D 557     -28.194  -2.610 -16.732  1.00 35.49     0.666 C 
ATOM      7  NH1 ARG D 557     -29.204  -3.002 -17.487  1.00 35.49    -0.235 N 
ATOM      8  NH2 ARG D 557     -27.401  -3.492 -16.196  1.00 35.49    -0.235 N 
ATOM      9  HH  ARG D 557     -29.738  -2.440 -17.851  1.00 35.49     0.174 HD
ATOM     10  HH  ARG D 557     -29.319  -3.843 -17.608  1.00 35.49     0.174 HD
ATOM     11  HH  ARG D 557     -26.753  -3.209 -15.719  1.00 35.49     0.174 HD
ATOM     12  HH  ARG D 557     -27.531  -4.319 -16.329  1.00 35.49     0.174 HD
ATOM     13  HE  ARG D 557     -27.316  -1.184 -15.941  1.00 35.49     0.178 HD
ENDBRANCH   4   5
ENDBRANCH   3   4
ENDBRANCH   2   3
ENDBRANCH   1   2
END_RES ARG D 557
BEGIN_RES GLU D 570
REMARK  3 active torsions:
REMARK  status: ('A' for Active; 'I' for Inactive)
REMARK    5  A    between atoms: CA   and  CB  
REMARK    6  A    between atoms: CB   and  CG  
REMARK    7  A    between atoms: CG   and  CD  
ROOT
ATOM     14  CA  GLU D 570     -18.033  -6.348 -13.375  1.00 32.92     0.160 C 
ENDROOT
BRANCH  14  15
ATOM     15  CB  GLU D 570     -19.500  -6.345 -13.794  1.00 32.92     0.043 C 
BRANCH  15  16
ATOM     16  CG  GLU D 570     -19.796  -6.399 -15.249  1.00 32.92     0.100 C 
BRANCH  16  17
ATOM     17  CD  GLU D 570     -21.239  -6.739 -15.544  1.00 32.92     0.185 C 
ATOM     18  OE1 GLU D 570     -21.521  -7.291 -16.625  1.00 32.92    -0.647 OA
ATOM     19  OE2 GLU D 570     -22.097  -6.434 -14.693  1.00 32.92    -0.647 OA
ENDBRANCH  16  17
ENDBRANCH  15  16
ENDBRANCH  14  15
END_RES GLU D 570
ENDMDL
