MODEL 1
REMARK VINA RESULT:      -7.5      0.000      0.000
REMARK  1 active torsions:
REMARK  status: ('A' for Active; 'I' for Inactive)
REMARK    1  A    between atoms: C_5  and  C_8 
ROOT
HETATM    1  C   UNL     1     -20.766  -8.823  -1.003  1.00  0.00     0.022 C 
HETATM    2  C   UNL     1     -21.272 -10.049  -0.831  1.00  0.00    -0.006 C 
HETATM    3  C   UNL     1     -22.108 -10.947  -1.720  1.00  0.00     0.031 C 
HETATM    4  C   UNL     1     -21.163 -12.091  -2.160  1.00  0.00     0.011 C 
HETATM    5  C   UNL     1     -20.993 -12.937  -0.872  1.00  0.00     0.018 C 
HETATM    6  C   UNL     1     -21.874 -12.189   0.160  1.00  0.00     0.029 C 
HETATM    7  C   UNL     1     -21.117 -10.883   0.414  1.00  0.00     0.165 C 
HETATM    8  O   UNL     1     -20.475 -10.571   1.402  1.00  0.00    -0.292 OA
HETATM    9  C   UNL     1     -23.055 -11.645  -0.698  1.00  0.00    -0.025 C 
HETATM   10  C   UNL     1     -23.949 -12.728  -1.335  1.00  0.00     0.016 C 
HETATM   11  C   UNL     1     -24.002 -10.686   0.057  1.00  0.00     0.016 C 
HETATM   12  C   UNL     1     -22.214 -12.997   1.392  1.00  0.00     0.025 C 
ENDROOT
BRANCH   1  13
HETATM   13  C   UNL     1     -20.913  -8.047  -2.237  1.00  0.00    -0.036 A 
HETATM   14  C   UNL     1     -20.260  -8.443  -3.407  1.00  0.00     0.012 A 
HETATM   15  C   UNL     1     -20.440  -7.729  -4.598  1.00  0.00     0.007 A 
HETATM   16  C   UNL     1     -21.274  -6.605  -4.634  1.00  0.00    -0.062 A 
HETATM   17  C   UNL     1     -21.472  -5.833  -5.907  1.00  0.00     0.048 C 
HETATM   18  C   UNL     1     -21.911  -6.197  -3.456  1.00  0.00     0.007 A 
HETATM   19  C   UNL     1     -21.734  -6.915  -2.267  1.00  0.00     0.012 A 
ENDBRANCH   1  13
TORSDOF 1
BEGIN_RES ARG D 557
REMARK  4 active torsions:
REMARK  status: ('A' for Active; 'I' for Inactive)
REMARK    1  A    between atoms: CA   and  CB  
REMARK    2  A    between atoms: CB   and  CG  
REMARK    3  A    between atoms: CG   and  CD  
REMARK    4  A    between atoms: CD   and  NE  
REMARK       I    between atoms: NE   and  CZ  
REMARK       I    between atoms: CZ   and  NH1 
REMARK       I    between atoms: CZ   and  NH2 
ROOT
ATOM      1  CA  ARG D 557     -26.217   2.705 -17.014  1.00 35.49     0.159 C 
ENDROOT
BRANCH   1   2
ATOM      2  CB  ARG D 557     -26.789   1.319 -17.183  1.00 35.49     0.034 C 
BRANCH   2   3
ATOM      3  CG  ARG D 557     -25.836   0.203 -17.156  1.00 35.49     0.027 C 
BRANCH   3   4
ATOM      4  CD  ARG D 557     -24.752   0.410 -16.168  1.00 35.49     0.116 C 
BRANCH   4   5
ATOM      5  NE  ARG D 557     -24.900  -0.439 -15.016  1.00 35.49    -0.212 N 
ATOM      6  CZ  ARG D 557     -24.085  -1.410 -14.667  1.00 35.49     0.666 C 
ATOM      7  NH1 ARG D 557     -23.015  -1.725 -15.374  1.00 35.49    -0.235 N 
ATOM      8  NH2 ARG D 557     -24.362  -2.065 -13.577  1.00 35.49    -0.235 N 
ATOM      9  HH  ARG D 557     -22.812  -1.306 -16.093  1.00 35.49     0.174 HD
ATOM     10  HH  ARG D 557     -22.519  -2.366 -15.097  1.00 35.49     0.174 HD
ATOM     11  HH  ARG D 557     -25.055  -1.834 -13.138  1.00 35.49     0.174 HD
ATOM     12  HH  ARG D 557     -23.857  -2.695 -13.319  1.00 35.49     0.174 HD
ATOM     13  HE  ARG D 557     -25.602  -0.353 -14.543  1.00 35.49     0.178 HD
ENDBRANCH   4   5
ENDBRANCH   3   4
ENDBRANCH   2   3
ENDBRANCH   1   2
END_RES ARG D 557
BEGIN_RES GLU D 570
REMARK  3 active torsions:
REMARK  status: ('A' for Active; 'I' for Inactive)
REMARK    5  A    between atoms: CA   and  CB  
REMARK    6  A    between atoms: CB   and  CG  
REMARK    7  A    between atoms: CG   and  CD  
ROOT
ATOM     14  CA  GLU D 570     -18.033  -6.348 -13.375  1.00 32.92     0.160 C 
ENDROOT
BRANCH  14  15
ATOM     15  CB  GLU D 570     -19.500  -6.345 -13.794  1.00 32.92     0.043 C 
BRANCH  15  16
ATOM     16  CG  GLU D 570     -20.442  -5.530 -12.983  1.00 32.92     0.100 C 
BRANCH  16  17
ATOM     17  CD  GLU D 570     -21.742  -5.246 -13.699  1.00 32.92     0.185 C 
ATOM     18  OE1 GLU D 570     -22.214  -6.110 -14.463  1.00 32.92    -0.647 OA
ATOM     19  OE2 GLU D 570     -22.285  -4.141 -13.507  1.00 32.92    -0.647 OA
ENDBRANCH  16  17
ENDBRANCH  15  16
ENDBRANCH  14  15
END_RES GLU D 570
ENDMDL
MODEL 2
REMARK VINA RESULT:      -7.3      0.979      1.596
REMARK  1 active torsions:
REMARK  status: ('A' for Active; 'I' for Inactive)
REMARK    1  A    between atoms: C_5  and  C_8 
ROOT
HETATM    1  C   UNL     1     -19.879  -9.179  -2.514  1.00  0.00     0.022 C 
HETATM    2  C   UNL     1     -20.740  -9.973  -1.869  1.00  0.00    -0.006 C 
HETATM    3  C   UNL     1     -22.252 -10.070  -1.881  1.00  0.00     0.031 C 
HETATM    4  C   UNL     1     -22.578 -11.389  -2.623  1.00  0.00     0.011 C 
HETATM    5  C   UNL     1     -22.167 -12.487  -1.610  1.00  0.00     0.018 C 
HETATM    6  C   UNL     1     -21.665 -11.673  -0.391  1.00  0.00     0.029 C 
HETATM    7  C   UNL     1     -20.357 -11.045  -0.881  1.00  0.00     0.165 C 
HETATM    8  O   UNL     1     -19.219 -11.356  -0.577  1.00  0.00    -0.292 OA
HETATM    9  C   UNL     1     -22.580 -10.412  -0.396  1.00  0.00    -0.025 C 
HETATM   10  C   UNL     1     -24.075 -10.693  -0.150  1.00  0.00     0.016 C 
HETATM   11  C   UNL     1     -22.167  -9.322   0.618  1.00  0.00     0.016 C 
HETATM   12  C   UNL     1     -21.568 -12.466   0.892  1.00  0.00     0.025 C 
ENDROOT
BRANCH   1  13
HETATM   13  C   UNL     1     -20.282  -8.163  -3.489  1.00  0.00    -0.036 A 
HETATM   14  C   UNL     1     -21.070  -7.076  -3.097  1.00  0.00     0.012 A 
HETATM   15  C   UNL     1     -21.413  -6.080  -4.018  1.00  0.00     0.007 A 
HETATM   16  C   UNL     1     -20.977  -6.158  -5.347  1.00  0.00    -0.062 A 
HETATM   17  C   UNL     1     -21.342  -5.093  -6.341  1.00  0.00     0.048 C 
HETATM   18  C   UNL     1     -20.207  -7.257  -5.742  1.00  0.00     0.007 A 
HETATM   19  C   UNL     1     -19.860  -8.251  -4.819  1.00  0.00     0.012 A 
ENDBRANCH   1  13
TORSDOF 1
BEGIN_RES ARG D 557
REMARK  4 active torsions:
REMARK  status: ('A' for Active; 'I' for Inactive)
REMARK    1  A    between atoms: CA   and  CB  
REMARK    2  A    between atoms: CB   and  CG  
REMARK    3  A    between atoms: CG   and  CD  
REMARK    4  A    between atoms: CD   and  NE  
REMARK       I    between atoms: NE   and  CZ  
REMARK       I    between atoms: CZ   and  NH1 
REMARK       I    between atoms: CZ   and  NH2 
ROOT
ATOM      1  CA  ARG D 557     -26.217   2.705 -17.014  1.00 35.49     0.159 C 
ENDROOT
BRANCH   1   2
ATOM      2  CB  ARG D 557     -26.789   1.319 -17.183  1.00 35.49     0.034 C 
BRANCH   2   3
ATOM      3  CG  ARG D 557     -25.836   0.203 -17.153  1.00 35.49     0.027 C 
BRANCH   3   4
ATOM      4  CD  ARG D 557     -24.750   0.415 -16.169  1.00 35.49     0.116 C 
BRANCH   4   5
ATOM      5  NE  ARG D 557     -24.891  -0.433 -15.015  1.00 35.49    -0.212 N 
ATOM      6  CZ  ARG D 557     -24.074  -1.403 -14.670  1.00 35.49     0.666 C 
ATOM      7  NH1 ARG D 557     -23.010  -1.721 -15.383  1.00 35.49    -0.235 N 
ATOM      8  NH2 ARG D 557     -24.346  -2.056 -13.577  1.00 35.49    -0.235 N 
ATOM      9  HH  ARG D 557     -22.811  -1.304 -16.104  1.00 35.49     0.174 HD
ATOM     10  HH  ARG D 557     -22.512  -2.362 -15.107  1.00 35.49     0.174 HD
ATOM     11  HH  ARG D 557     -25.036  -1.824 -13.133  1.00 35.49     0.174 HD
ATOM     12  HH  ARG D 557     -23.840  -2.686 -13.320  1.00 35.49     0.174 HD
ATOM     13  HE  ARG D 557     -25.590  -0.345 -14.538  1.00 35.49     0.178 HD
ENDBRANCH   4   5
ENDBRANCH   3   4
ENDBRANCH   2   3
ENDBRANCH   1   2
END_RES ARG D 557
BEGIN_RES GLU D 570
REMARK  3 active torsions:
REMARK  status: ('A' for Active; 'I' for Inactive)
REMARK    5  A    between atoms: CA   and  CB  
REMARK    6  A    between atoms: CB   and  CG  
REMARK    7  A    between atoms: CG   and  CD  
ROOT
ATOM     14  CA  GLU D 570     -18.033  -6.348 -13.375  1.00 32.92     0.160 C 
ENDROOT
BRANCH  14  15
ATOM     15  CB  GLU D 570     -19.500  -6.345 -13.794  1.00 32.92     0.043 C 
BRANCH  15  16
ATOM     16  CG  GLU D 570     -20.445  -5.546 -12.972  1.00 32.92     0.100 C 
BRANCH  16  17
ATOM     17  CD  GLU D 570     -21.739  -5.241 -13.690  1.00 32.92     0.185 C 
ATOM     18  OE1 GLU D 570     -22.271  -4.126 -13.531  1.00 32.92    -0.647 OA
ATOM     19  OE2 GLU D 570     -22.234  -6.133 -14.407  1.00 32.92    -0.647 OA
ENDBRANCH  16  17
ENDBRANCH  15  16
ENDBRANCH  14  15
END_RES GLU D 570
ENDMDL
MODEL 3
REMARK VINA RESULT:      -7.2     10.237     14.960
REMARK  1 active torsions:
REMARK  status: ('A' for Active; 'I' for Inactive)
REMARK    1  A    between atoms: C_5  and  C_8 
ROOT
HETATM    1  C   UNL     1     -27.147  -6.031 -19.856  1.00  0.00     0.022 C 
HETATM    2  C   UNL     1     -27.636  -5.953 -18.613  1.00  0.00    -0.006 C 
HETATM    3  C   UNL     1     -27.190  -6.557 -17.297  1.00  0.00     0.031 C 
HETATM    4  C   UNL     1     -26.629  -5.376 -16.467  1.00  0.00     0.011 C 
HETATM    5  C   UNL     1     -27.897  -4.576 -16.071  1.00  0.00     0.018 C 
HETATM    6  C   UNL     1     -29.045  -5.399 -16.708  1.00  0.00     0.029 C 
HETATM    7  C   UNL     1     -28.866  -5.181 -18.213  1.00  0.00     0.165 C 
HETATM    8  O   UNL     1     -29.546  -4.495 -18.955  1.00  0.00    -0.292 OA
HETATM    9  C   UNL     1     -28.545  -6.869 -16.593  1.00  0.00    -0.025 C 
HETATM   10  C   UNL     1     -28.379  -7.390 -15.152  1.00  0.00     0.016 C 
HETATM   11  C   UNL     1     -29.426  -7.901 -17.332  1.00  0.00     0.016 C 
HETATM   12  C   UNL     1     -30.419  -5.080 -16.161  1.00  0.00     0.025 C 
ENDROOT
BRANCH   1  13
HETATM   13  C   UNL     1     -25.932  -6.770 -20.209  1.00  0.00    -0.036 A 
HETATM   14  C   UNL     1     -25.848  -7.456 -21.423  1.00  0.00     0.012 A 
HETATM   15  C   UNL     1     -24.669  -8.121 -21.782  1.00  0.00     0.007 A 
HETATM   16  C   UNL     1     -23.559  -8.113 -20.928  1.00  0.00    -0.062 A 
HETATM   17  C   UNL     1     -22.291  -8.824 -21.306  1.00  0.00     0.048 C 
HETATM   18  C   UNL     1     -23.653  -7.442 -19.704  1.00  0.00     0.007 A 
HETATM   19  C   UNL     1     -24.831  -6.774 -19.348  1.00  0.00     0.012 A 
ENDBRANCH   1  13
TORSDOF 1
BEGIN_RES ARG D 557
REMARK  4 active torsions:
REMARK  status: ('A' for Active; 'I' for Inactive)
REMARK    1  A    between atoms: CA   and  CB  
REMARK    2  A    between atoms: CB   and  CG  
REMARK    3  A    between atoms: CG   and  CD  
REMARK    4  A    between atoms: CD   and  NE  
REMARK       I    between atoms: NE   and  CZ  
REMARK       I    between atoms: CZ   and  NH1 
REMARK       I    between atoms: CZ   and  NH2 
ROOT
ATOM      1  CA  ARG D 557     -26.217   2.705 -17.014  1.00 35.49     0.159 C 
ENDROOT
BRANCH   1   2
ATOM      2  CB  ARG D 557     -26.789   1.319 -17.183  1.00 35.49     0.034 C 
BRANCH   2   3
ATOM      3  CG  ARG D 557     -25.835   0.203 -17.159  1.00 35.49     0.027 C 
BRANCH   3   4
ATOM      4  CD  ARG D 557     -24.754   0.407 -16.168  1.00 35.49     0.116 C 
BRANCH   4   5
ATOM      5  NE  ARG D 557     -24.906  -0.442 -15.016  1.00 35.49    -0.212 N 
ATOM      6  CZ  ARG D 557     -24.096  -1.416 -14.666  1.00 35.49     0.666 C 
ATOM      7  NH1 ARG D 557     -23.026  -1.735 -15.371  1.00 35.49    -0.235 N 
ATOM      8  NH2 ARG D 557     -24.378  -2.069 -13.577  1.00 35.49    -0.235 N 
ATOM      9  HH  ARG D 557     -22.821  -1.317 -16.090  1.00 35.49     0.174 HD
ATOM     10  HH  ARG D 557     -22.533  -2.378 -15.093  1.00 35.49     0.174 HD
ATOM     11  HH  ARG D 557     -25.071  -1.836 -13.138  1.00 35.49     0.174 HD
ATOM     12  HH  ARG D 557     -23.876  -2.701 -13.317  1.00 35.49     0.174 HD
ATOM     13  HE  ARG D 557     -25.609  -0.353 -14.545  1.00 35.49     0.178 HD
ENDBRANCH   4   5
ENDBRANCH   3   4
ENDBRANCH   2   3
ENDBRANCH   1   2
END_RES ARG D 557
BEGIN_RES GLU D 570
REMARK  3 active torsions:
REMARK  status: ('A' for Active; 'I' for Inactive)
REMARK    5  A    between atoms: CA   and  CB  
REMARK    6  A    between atoms: CB   and  CG  
REMARK    7  A    between atoms: CG   and  CD  
ROOT
ATOM     14  CA  GLU D 570     -18.033  -6.348 -13.375  1.00 32.92     0.160 C 
ENDROOT
BRANCH  14  15
ATOM     15  CB  GLU D 570     -19.500  -6.345 -13.794  1.00 32.92     0.043 C 
BRANCH  15  16
ATOM     16  CG  GLU D 570     -20.443  -5.535 -12.980  1.00 32.92     0.100 C 
BRANCH  16  17
ATOM     17  CD  GLU D 570     -21.732  -5.226 -13.705  1.00 32.92     0.185 C 
ATOM     18  OE1 GLU D 570     -22.302  -4.139 -13.491  1.00 32.92    -0.647 OA
ATOM     19  OE2 GLU D 570     -22.186  -6.089 -14.483  1.00 32.92    -0.647 OA
ENDBRANCH  16  17
ENDBRANCH  15  16
ENDBRANCH  14  15
END_RES GLU D 570
ENDMDL
MODEL 4
REMARK VINA RESULT:      -7.2      1.825      3.023
REMARK  1 active torsions:
REMARK  status: ('A' for Active; 'I' for Inactive)
REMARK    1  A    between atoms: C_5  and  C_8 
ROOT
HETATM    1  C   UNL     1     -21.137  -6.630  -3.380  1.00  0.00     0.022 C 
HETATM    2  C   UNL     1     -20.686  -7.885  -3.282  1.00  0.00    -0.006 C 
HETATM    3  C   UNL     1     -20.276  -8.911  -4.319  1.00  0.00     0.031 C 
HETATM    4  C   UNL     1     -18.737  -9.024  -4.205  1.00  0.00     0.011 C 
HETATM    5  C   UNL     1     -18.526  -9.779  -2.868  1.00  0.00     0.018 C 
HETATM    6  C   UNL     1     -19.973 -10.027  -2.371  1.00  0.00     0.029 C 
HETATM    7  C   UNL     1     -20.476  -8.632  -1.990  1.00  0.00     0.165 C 
HETATM    8  O   UNL     1     -20.646  -8.178  -0.872  1.00  0.00    -0.292 OA
HETATM    9  C   UNL     1     -20.775 -10.245  -3.688  1.00  0.00    -0.025 C 
HETATM   10  C   UNL     1     -20.370 -11.493  -4.498  1.00  0.00     0.016 C 
HETATM   11  C   UNL     1     -22.306 -10.329  -3.495  1.00  0.00     0.016 C 
HETATM   12  C   UNL     1     -20.091 -11.081  -1.293  1.00  0.00     0.025 C 
ENDROOT
BRANCH   1  13
HETATM   13  C   UNL     1     -21.306  -5.921  -4.651  1.00  0.00    -0.036 A 
HETATM   14  C   UNL     1     -20.286  -5.105  -5.149  1.00  0.00     0.012 A 
HETATM   15  C   UNL     1     -20.428  -4.467  -6.387  1.00  0.00     0.007 A 
HETATM   16  C   UNL     1     -21.595  -4.634  -7.143  1.00  0.00    -0.062 A 
HETATM   17  C   UNL     1     -21.755  -3.952  -8.473  1.00  0.00     0.048 C 
HETATM   18  C   UNL     1     -22.623  -5.434  -6.633  1.00  0.00     0.007 A 
HETATM   19  C   UNL     1     -22.478  -6.076  -5.397  1.00  0.00     0.012 A 
ENDBRANCH   1  13
TORSDOF 1
BEGIN_RES ARG D 557
REMARK  4 active torsions:
REMARK  status: ('A' for Active; 'I' for Inactive)
REMARK    1  A    between atoms: CA   and  CB  
REMARK    2  A    between atoms: CB   and  CG  
REMARK    3  A    between atoms: CG   and  CD  
REMARK    4  A    between atoms: CD   and  NE  
REMARK       I    between atoms: NE   and  CZ  
REMARK       I    between atoms: CZ   and  NH1 
REMARK       I    between atoms: CZ   and  NH2 
ROOT
ATOM      1  CA  ARG D 557     -26.217   2.705 -17.014  1.00 35.49     0.159 C 
ENDROOT
BRANCH   1   2
ATOM      2  CB  ARG D 557     -26.789   1.319 -17.183  1.00 35.49     0.034 C 
BRANCH   2   3
ATOM      3  CG  ARG D 557     -25.834   0.204 -17.168  1.00 35.49     0.027 C 
BRANCH   3   4
ATOM      4  CD  ARG D 557     -24.760   0.395 -16.167  1.00 35.49     0.116 C 
BRANCH   4   5
ATOM      5  NE  ARG D 557     -24.927  -0.461 -15.022  1.00 35.49    -0.212 N 
ATOM      6  CZ  ARG D 557     -24.115  -1.429 -14.661  1.00 35.49     0.666 C 
ATOM      7  NH1 ARG D 557     -23.029  -1.736 -15.347  1.00 35.49    -0.235 N 
ATOM      8  NH2 ARG D 557     -24.412  -2.091 -13.581  1.00 35.49    -0.235 N 
ATOM      9  HH  ARG D 557     -22.813  -1.312 -16.060  1.00 35.49     0.174 HD
ATOM     10  HH  ARG D 557     -22.535  -2.376 -15.062  1.00 35.49     0.174 HD
ATOM     11  HH  ARG D 557     -25.115  -1.866 -13.154  1.00 35.49     0.174 HD
ATOM     12  HH  ARG D 557     -23.909  -2.720 -13.314  1.00 35.49     0.174 HD
ATOM     13  HE  ARG D 557     -25.639  -0.381 -14.564  1.00 35.49     0.178 HD
ENDBRANCH   4   5
ENDBRANCH   3   4
ENDBRANCH   2   3
ENDBRANCH   1   2
END_RES ARG D 557
BEGIN_RES GLU D 570
REMARK  3 active torsions:
REMARK  status: ('A' for Active; 'I' for Inactive)
REMARK    5  A    between atoms: CA   and  CB  
REMARK    6  A    between atoms: CB   and  CG  
REMARK    7  A    between atoms: CG   and  CD  
ROOT
ATOM     14  CA  GLU D 570     -18.033  -6.348 -13.375  1.00 32.92     0.160 C 
ENDROOT
BRANCH  14  15
ATOM     15  CB  GLU D 570     -19.500  -6.345 -13.794  1.00 32.92     0.043 C 
BRANCH  15  16
ATOM     16  CG  GLU D 570     -20.441  -5.526 -12.987  1.00 32.92     0.100 C 
BRANCH  16  17
ATOM     17  CD  GLU D 570     -21.744  -5.251 -13.700  1.00 32.92     0.185 C 
ATOM     18  OE1 GLU D 570     -22.225  -6.129 -14.442  1.00 32.92    -0.647 OA
ATOM     19  OE2 GLU D 570     -22.282  -4.140 -13.528  1.00 32.92    -0.647 OA
ENDBRANCH  16  17
ENDBRANCH  15  16
ENDBRANCH  14  15
END_RES GLU D 570
ENDMDL
MODEL 5
REMARK VINA RESULT:      -7.2      2.951      4.656
REMARK  1 active torsions:
REMARK  status: ('A' for Active; 'I' for Inactive)
REMARK    1  A    between atoms: C_5  and  C_8 
ROOT
HETATM    1  C   UNL     1     -19.779  -8.791  -3.994  1.00  0.00     0.022 C 
HETATM    2  C   UNL     1     -18.757  -9.654  -4.015  1.00  0.00    -0.006 C 
HETATM    3  C   UNL     1     -18.211 -10.620  -2.983  1.00  0.00     0.031 C 
HETATM    4  C   UNL     1     -18.581 -12.031  -3.499  1.00  0.00     0.011 C 
HETATM    5  C   UNL     1     -17.632 -12.238  -4.706  1.00  0.00     0.018 C 
HETATM    6  C   UNL     1     -16.811 -10.924  -4.738  1.00  0.00     0.029 C 
HETATM    7  C   UNL     1     -17.825  -9.865  -5.179  1.00  0.00     0.165 C 
HETATM    8  O   UNL     1     -17.908  -9.316  -6.264  1.00  0.00    -0.292 OA
HETATM    9  C   UNL     1     -16.674 -10.546  -3.233  1.00  0.00    -0.025 C 
HETATM   10  C   UNL     1     -15.868 -11.546  -2.382  1.00  0.00     0.016 C 
HETATM   11  C   UNL     1     -16.051  -9.155  -2.980  1.00  0.00     0.016 C 
HETATM   12  C   UNL     1     -15.545 -10.999  -5.561  1.00  0.00     0.025 C 
ENDROOT
BRANCH   1  13
HETATM   13  C   UNL     1     -20.684  -8.627  -2.854  1.00  0.00    -0.036 A 
HETATM   14  C   UNL     1     -21.338  -9.733  -2.302  1.00  0.00     0.012 A 
HETATM   15  C   UNL     1     -22.164  -9.582  -1.182  1.00  0.00     0.007 A 
HETATM   16  C   UNL     1     -22.352  -8.322  -0.601  1.00  0.00    -0.062 A 
HETATM   17  C   UNL     1     -23.237  -8.153   0.601  1.00  0.00     0.048 C 
HETATM   18  C   UNL     1     -21.714  -7.213  -1.168  1.00  0.00     0.007 A 
HETATM   19  C   UNL     1     -20.883  -7.366  -2.285  1.00  0.00     0.012 A 
ENDBRANCH   1  13
TORSDOF 1
BEGIN_RES ARG D 557
REMARK  4 active torsions:
REMARK  status: ('A' for Active; 'I' for Inactive)
REMARK    1  A    between atoms: CA   and  CB  
REMARK    2  A    between atoms: CB   and  CG  
REMARK    3  A    between atoms: CG   and  CD  
REMARK    4  A    between atoms: CD   and  NE  
REMARK       I    between atoms: NE   and  CZ  
REMARK       I    between atoms: CZ   and  NH1 
REMARK       I    between atoms: CZ   and  NH2 
ROOT
ATOM      1  CA  ARG D 557     -26.217   2.705 -17.014  1.00 35.49     0.159 C 
ENDROOT
BRANCH   1   2
ATOM      2  CB  ARG D 557     -26.789   1.319 -17.183  1.00 35.49     0.034 C 
BRANCH   2   3
ATOM      3  CG  ARG D 557     -25.836   0.203 -17.155  1.00 35.49     0.027 C 
BRANCH   3   4
ATOM      4  CD  ARG D 557     -24.751   0.412 -16.168  1.00 35.49     0.116 C 
BRANCH   4   5
ATOM      5  NE  ARG D 557     -24.897  -0.435 -15.014  1.00 35.49    -0.212 N 
ATOM      6  CZ  ARG D 557     -24.084  -1.408 -14.668  1.00 35.49     0.666 C 
ATOM      7  NH1 ARG D 557     -23.020  -1.730 -15.379  1.00 35.49    -0.235 N 
ATOM      8  NH2 ARG D 557     -24.359  -2.060 -13.576  1.00 35.49    -0.235 N 
ATOM      9  HH  ARG D 557     -22.818  -1.313 -16.100  1.00 35.49     0.174 HD
ATOM     10  HH  ARG D 557     -22.525  -2.372 -15.103  1.00 35.49     0.174 HD
ATOM     11  HH  ARG D 557     -25.049  -1.826 -13.133  1.00 35.49     0.174 HD
ATOM     12  HH  ARG D 557     -23.856  -2.692 -13.318  1.00 35.49     0.174 HD
ATOM     13  HE  ARG D 557     -25.596  -0.345 -14.538  1.00 35.49     0.178 HD
ENDBRANCH   4   5
ENDBRANCH   3   4
ENDBRANCH   2   3
ENDBRANCH   1   2
END_RES ARG D 557
BEGIN_RES GLU D 570
REMARK  3 active torsions:
REMARK  status: ('A' for Active; 'I' for Inactive)
REMARK    5  A    between atoms: CA   and  CB  
REMARK    6  A    between atoms: CB   and  CG  
REMARK    7  A    between atoms: CG   and  CD  
ROOT
ATOM     14  CA  GLU D 570     -18.033  -6.348 -13.375  1.00 32.92     0.160 C 
ENDROOT
BRANCH  14  15
ATOM     15  CB  GLU D 570     -19.500  -6.345 -13.794  1.00 32.92     0.043 C 
BRANCH  15  16
ATOM     16  CG  GLU D 570     -20.443  -5.534 -12.981  1.00 32.92     0.100 C 
BRANCH  16  17
ATOM     17  CD  GLU D 570     -21.740  -5.243 -13.698  1.00 32.92     0.185 C 
ATOM     18  OE1 GLU D 570     -22.213  -6.102 -14.466  1.00 32.92    -0.647 OA
ATOM     19  OE2 GLU D 570     -22.280  -4.136 -13.503  1.00 32.92    -0.647 OA
ENDBRANCH  16  17
ENDBRANCH  15  16
ENDBRANCH  14  15
END_RES GLU D 570
ENDMDL
MODEL 6
REMARK VINA RESULT:      -7.2      1.469      2.456
REMARK  1 active torsions:
REMARK  status: ('A' for Active; 'I' for Inactive)
REMARK    1  A    between atoms: C_5  and  C_8 
ROOT
HETATM    1  C   UNL     1     -21.964  -9.709  -3.609  1.00  0.00     0.022 C 
HETATM    2  C   UNL     1     -22.015  -9.970  -2.298  1.00  0.00    -0.006 C 
HETATM    3  C   UNL     1     -21.555  -9.195  -1.081  1.00  0.00     0.031 C 
HETATM    4  C   UNL     1     -22.849  -8.705  -0.386  1.00  0.00     0.011 C 
HETATM    5  C   UNL     1     -23.443  -9.998   0.229  1.00  0.00     0.018 C 
HETATM    6  C   UNL     1     -22.412 -11.084  -0.171  1.00  0.00     0.029 C 
HETATM    7  C   UNL     1     -22.589 -11.221  -1.685  1.00  0.00     0.165 C 
HETATM    8  O   UNL     1     -23.118 -12.133  -2.297  1.00  0.00    -0.292 OA
HETATM    9  C   UNL     1     -21.053 -10.325  -0.132  1.00  0.00    -0.025 C 
HETATM   10  C   UNL     1     -20.633  -9.813   1.260  1.00  0.00     0.016 C 
HETATM   11  C   UNL     1     -19.856 -11.135  -0.679  1.00  0.00     0.016 C 
HETATM   12  C   UNL     1     -22.522 -12.369   0.618  1.00  0.00     0.025 C 
ENDROOT
BRANCH   1  13
HETATM   13  C   UNL     1     -21.423  -8.470  -4.173  1.00  0.00    -0.036 A 
HETATM   14  C   UNL     1     -20.360  -8.509  -5.079  1.00  0.00     0.012 A 
HETATM   15  C   UNL     1     -19.875  -7.328  -5.655  1.00  0.00     0.007 A 
HETATM   16  C   UNL     1     -20.446  -6.091  -5.330  1.00  0.00    -0.062 A 
HETATM   17  C   UNL     1     -19.931  -4.820  -5.943  1.00  0.00     0.048 C 
HETATM   18  C   UNL     1     -21.497  -6.053  -4.406  1.00  0.00     0.007 A 
HETATM   19  C   UNL     1     -21.984  -7.235  -3.835  1.00  0.00     0.012 A 
ENDBRANCH   1  13
TORSDOF 1
BEGIN_RES ARG D 557
REMARK  4 active torsions:
REMARK  status: ('A' for Active; 'I' for Inactive)
REMARK    1  A    between atoms: CA   and  CB  
REMARK    2  A    between atoms: CB   and  CG  
REMARK    3  A    between atoms: CG   and  CD  
REMARK    4  A    between atoms: CD   and  NE  
REMARK       I    between atoms: NE   and  CZ  
REMARK       I    between atoms: CZ   and  NH1 
REMARK       I    between atoms: CZ   and  NH2 
ROOT
ATOM      1  CA  ARG D 557     -26.217   2.705 -17.014  1.00 35.49     0.159 C 
ENDROOT
BRANCH   1   2
ATOM      2  CB  ARG D 557     -26.789   1.319 -17.183  1.00 35.49     0.034 C 
BRANCH   2   3
ATOM      3  CG  ARG D 557     -25.873   0.194 -16.957  1.00 35.49     0.027 C 
BRANCH   3   4
ATOM      4  CD  ARG D 557     -26.368  -0.735 -15.916  1.00 35.49     0.116 C 
BRANCH   4   5
ATOM      5  NE  ARG D 557     -25.399  -0.946 -14.872  1.00 35.49    -0.212 N 
ATOM      6  CZ  ARG D 557     -25.131  -2.094 -14.292  1.00 35.49     0.666 C 
ATOM      7  NH1 ARG D 557     -25.758  -3.212 -14.611  1.00 35.49    -0.235 N 
ATOM      8  NH2 ARG D 557     -24.205  -2.104 -13.378  1.00 35.49    -0.235 N 
ATOM      9  HH  ARG D 557     -26.369  -3.229 -15.211  1.00 35.49     0.174 HD
ATOM     10  HH  ARG D 557     -25.539  -3.932 -14.201  1.00 35.49     0.174 HD
ATOM     11  HH  ARG D 557     -23.813  -1.369 -13.198  1.00 35.49     0.174 HD
ATOM     12  HH  ARG D 557     -24.002  -2.827 -12.985  1.00 35.49     0.174 HD
ATOM     13  HE  ARG D 557     -25.000  -0.265 -14.554  1.00 35.49     0.178 HD
ENDBRANCH   4   5
ENDBRANCH   3   4
ENDBRANCH   2   3
ENDBRANCH   1   2
END_RES ARG D 557
BEGIN_RES GLU D 570
REMARK  3 active torsions:
REMARK  status: ('A' for Active; 'I' for Inactive)
REMARK    5  A    between atoms: CA   and  CB  
REMARK    6  A    between atoms: CB   and  CG  
REMARK    7  A    between atoms: CG   and  CD  
ROOT
ATOM     14  CA  GLU D 570     -18.033  -6.348 -13.375  1.00 32.92     0.160 C 
ENDROOT
BRANCH  14  15
ATOM     15  CB  GLU D 570     -19.500  -6.345 -13.794  1.00 32.92     0.043 C 
BRANCH  15  16
ATOM     16  CG  GLU D 570     -20.442  -5.531 -12.983  1.00 32.92     0.100 C 
BRANCH  16  17
ATOM     17  CD  GLU D 570     -21.766  -5.300 -13.673  1.00 32.92     0.185 C 
ATOM     18  OE1 GLU D 570     -22.443  -4.301 -13.364  1.00 32.92    -0.647 OA
ATOM     19  OE2 GLU D 570     -22.138  -6.136 -14.519  1.00 32.92    -0.647 OA
ENDBRANCH  16  17
ENDBRANCH  15  16
ENDBRANCH  14  15
END_RES GLU D 570
ENDMDL
MODEL 7
REMARK VINA RESULT:      -7.1      2.312      3.280
REMARK  1 active torsions:
REMARK  status: ('A' for Active; 'I' for Inactive)
REMARK    1  A    between atoms: C_5  and  C_8 
ROOT
HETATM    1  C   UNL     1     -19.334  -8.758  -2.658  1.00  0.00     0.022 C 
HETATM    2  C   UNL     1     -20.202  -9.478  -1.938  1.00  0.00    -0.006 C 
HETATM    3  C   UNL     1     -20.341 -10.966  -1.690  1.00  0.00     0.031 C 
HETATM    4  C   UNL     1     -19.917 -11.183  -0.217  1.00  0.00     0.011 C 
HETATM    5  C   UNL     1     -21.095 -10.584   0.593  1.00  0.00     0.018 C 
HETATM    6  C   UNL     1     -22.072 -10.102  -0.510  1.00  0.00     0.029 C 
HETATM    7  C   UNL     1     -21.352  -8.910  -1.146  1.00  0.00     0.165 C 
HETATM    8  O   UNL     1     -21.612  -7.727  -1.023  1.00  0.00    -0.292 OA
HETATM    9  C   UNL     1     -21.887 -11.156  -1.642  1.00  0.00    -0.025 C 
HETATM   10  C   UNL     1     -22.316 -12.590  -1.273  1.00  0.00     0.016 C 
HETATM   11  C   UNL     1     -22.616 -10.808  -2.960  1.00  0.00     0.016 C 
HETATM   12  C   UNL     1     -23.477  -9.832  -0.024  1.00  0.00     0.025 C 
ENDROOT
BRANCH   1  13
HETATM   13  C   UNL     1     -18.210  -9.338  -3.396  1.00  0.00    -0.036 A 
HETATM   14  C   UNL     1     -17.007  -9.627  -2.745  1.00  0.00     0.012 A 
HETATM   15  C   UNL     1     -15.950 -10.226  -3.441  1.00  0.00     0.007 A 
HETATM   16  C   UNL     1     -16.080 -10.541  -4.799  1.00  0.00    -0.062 A 
HETATM   17  C   UNL     1     -14.950 -11.184  -5.552  1.00  0.00     0.048 C 
HETATM   18  C   UNL     1     -17.277 -10.231  -5.454  1.00  0.00     0.007 A 
HETATM   19  C   UNL     1     -18.336  -9.637  -4.756  1.00  0.00     0.012 A 
ENDBRANCH   1  13
TORSDOF 1
BEGIN_RES ARG D 557
REMARK  4 active torsions:
REMARK  status: ('A' for Active; 'I' for Inactive)
REMARK    1  A    between atoms: CA   and  CB  
REMARK    2  A    between atoms: CB   and  CG  
REMARK    3  A    between atoms: CG   and  CD  
REMARK    4  A    between atoms: CD   and  NE  
REMARK       I    between atoms: NE   and  CZ  
REMARK       I    between atoms: CZ   and  NH1 
REMARK       I    between atoms: CZ   and  NH2 
ROOT
ATOM      1  CA  ARG D 557     -26.217   2.705 -17.014  1.00 35.49     0.159 C 
ENDROOT
BRANCH   1   2
ATOM      2  CB  ARG D 557     -26.789   1.319 -17.183  1.00 35.49     0.034 C 
BRANCH   2   3
ATOM      3  CG  ARG D 557     -25.837   0.202 -17.142  1.00 35.49     0.027 C 
BRANCH   3   4
ATOM      4  CD  ARG D 557     -24.760   0.414 -16.149  1.00 35.49     0.116 C 
BRANCH   4   5
ATOM      5  NE  ARG D 557     -24.910  -0.435 -14.997  1.00 35.49    -0.212 N 
ATOM      6  CZ  ARG D 557     -24.119  -1.432 -14.669  1.00 35.49     0.666 C 
ATOM      7  NH1 ARG D 557     -23.075  -1.778 -15.399  1.00 35.49    -0.235 N 
ATOM      8  NH2 ARG D 557     -24.394  -2.083 -13.576  1.00 35.49    -0.235 N 
ATOM      9  HH  ARG D 557     -22.874  -1.363 -16.121  1.00 35.49     0.174 HD
ATOM     10  HH  ARG D 557     -22.593  -2.436 -15.134  1.00 35.49     0.174 HD
ATOM     11  HH  ARG D 557     -25.071  -1.832 -13.121  1.00 35.49     0.174 HD
ATOM     12  HH  ARG D 557     -23.905  -2.730 -13.330  1.00 35.49     0.174 HD
ATOM     13  HE  ARG D 557     -25.599  -0.329 -14.509  1.00 35.49     0.178 HD
ENDBRANCH   4   5
ENDBRANCH   3   4
ENDBRANCH   2   3
ENDBRANCH   1   2
END_RES ARG D 557
BEGIN_RES GLU D 570
REMARK  3 active torsions:
REMARK  status: ('A' for Active; 'I' for Inactive)
REMARK    5  A    between atoms: CA   and  CB  
REMARK    6  A    between atoms: CB   and  CG  
REMARK    7  A    between atoms: CG   and  CD  
ROOT
ATOM     14  CA  GLU D 570     -18.033  -6.348 -13.375  1.00 32.92     0.160 C 
ENDROOT
BRANCH  14  15
ATOM     15  CB  GLU D 570     -19.500  -6.345 -13.794  1.00 32.92     0.043 C 
BRANCH  15  16
ATOM     16  CG  GLU D 570     -20.448  -5.558 -12.964  1.00 32.92     0.100 C 
BRANCH  16  17
ATOM     17  CD  GLU D 570     -21.731  -5.226 -13.688  1.00 32.92     0.185 C 
ATOM     18  OE1 GLU D 570     -22.191  -6.043 -14.509  1.00 32.92    -0.647 OA
ATOM     19  OE2 GLU D 570     -22.273  -4.130 -13.445  1.00 32.92    -0.647 OA
ENDBRANCH  16  17
ENDBRANCH  15  16
ENDBRANCH  14  15
END_RES GLU D 570
ENDMDL
MODEL 8
REMARK VINA RESULT:      -6.9      2.183      2.607
REMARK  1 active torsions:
REMARK  status: ('A' for Active; 'I' for Inactive)
REMARK    1  A    between atoms: C_5  and  C_8 
ROOT
HETATM    1  C   UNL     1     -19.913  -9.184  -2.499  1.00  0.00     0.022 C 
HETATM    2  C   UNL     1     -20.768  -9.982  -1.852  1.00  0.00    -0.006 C 
HETATM    3  C   UNL     1     -22.280 -10.086  -1.860  1.00  0.00     0.031 C 
HETATM    4  C   UNL     1     -22.601 -11.406  -2.602  1.00  0.00     0.011 C 
HETATM    5  C   UNL     1     -22.183 -12.503  -1.589  1.00  0.00     0.018 C 
HETATM    6  C   UNL     1     -21.681 -11.686  -0.372  1.00  0.00     0.029 C 
HETATM    7  C   UNL     1     -20.377 -11.052  -0.865  1.00  0.00     0.165 C 
HETATM    8  O   UNL     1     -19.237 -11.358  -0.565  1.00  0.00    -0.292 OA
HETATM    9  C   UNL     1     -22.602 -10.430  -0.374  1.00  0.00    -0.025 C 
HETATM   10  C   UNL     1     -24.095 -10.718  -0.123  1.00  0.00     0.016 C 
HETATM   11  C   UNL     1     -22.191  -9.338   0.639  1.00  0.00     0.016 C 
HETATM   12  C   UNL     1     -21.576 -12.479   0.911  1.00  0.00     0.025 C 
ENDROOT
BRANCH   1  13
HETATM   13  C   UNL     1     -20.323  -8.169  -3.473  1.00  0.00    -0.036 A 
HETATM   14  C   UNL     1     -19.994  -8.309  -4.824  1.00  0.00     0.012 A 
HETATM   15  C   UNL     1     -20.429  -7.364  -5.762  1.00  0.00     0.007 A 
HETATM   16  C   UNL     1     -21.196  -6.264  -5.360  1.00  0.00    -0.062 A 
HETATM   17  C   UNL     1     -21.665  -5.246  -6.361  1.00  0.00     0.048 C 
HETATM   18  C   UNL     1     -21.506  -6.115  -4.004  1.00  0.00     0.007 A 
HETATM   19  C   UNL     1     -21.076  -7.063  -3.068  1.00  0.00     0.012 A 
ENDBRANCH   1  13
TORSDOF 1
BEGIN_RES ARG D 557
REMARK  4 active torsions:
REMARK  status: ('A' for Active; 'I' for Inactive)
REMARK    1  A    between atoms: CA   and  CB  
REMARK    2  A    between atoms: CB   and  CG  
REMARK    3  A    between atoms: CG   and  CD  
REMARK    4  A    between atoms: CD   and  NE  
REMARK       I    between atoms: NE   and  CZ  
REMARK       I    between atoms: CZ   and  NH1 
REMARK       I    between atoms: CZ   and  NH2 
ROOT
ATOM      1  CA  ARG D 557     -26.217   2.705 -17.014  1.00 35.49     0.159 C 
ENDROOT
BRANCH   1   2
ATOM      2  CB  ARG D 557     -26.789   1.319 -17.183  1.00 35.49     0.034 C 
BRANCH   2   3
ATOM      3  CG  ARG D 557     -28.232   1.226 -17.438  1.00 35.49     0.027 C 
BRANCH   3   4
ATOM      4  CD  ARG D 557     -28.912   0.301 -16.502  1.00 35.49     0.116 C 
BRANCH   4   5
ATOM      5  NE  ARG D 557     -29.272  -0.941 -17.134  1.00 35.49    -0.212 N 
ATOM      6  CZ  ARG D 557     -28.622  -2.077 -17.018  1.00 35.49     0.666 C 
ATOM      7  NH1 ARG D 557     -27.523  -2.196 -16.296  1.00 35.49    -0.235 N 
ATOM      8  NH2 ARG D 557     -29.104  -3.111 -17.645  1.00 35.49    -0.235 N 
ATOM      9  HH  ARG D 557     -27.189  -1.530 -15.874  1.00 35.49     0.174 HD
ATOM     10  HH  ARG D 557     -27.143  -2.963 -16.256  1.00 35.49     0.174 HD
ATOM     11  HH  ARG D 557     -29.819  -3.006 -18.098  1.00 35.49     0.174 HD
ATOM     12  HH  ARG D 557     -28.715  -3.862 -17.592  1.00 35.49     0.174 HD
ATOM     13  HE  ARG D 557     -29.926  -0.938 -17.676  1.00 35.49     0.178 HD
ENDBRANCH   4   5
ENDBRANCH   3   4
ENDBRANCH   2   3
ENDBRANCH   1   2
END_RES ARG D 557
BEGIN_RES GLU D 570
REMARK  3 active torsions:
REMARK  status: ('A' for Active; 'I' for Inactive)
REMARK    5  A    between atoms: CA   and  CB  
REMARK    6  A    between atoms: CB   and  CG  
REMARK    7  A    between atoms: CG   and  CD  
ROOT
ATOM     14  CA  GLU D 570     -18.033  -6.348 -13.375  1.00 32.92     0.160 C 
ENDROOT
BRANCH  14  15
ATOM     15  CB  GLU D 570     -19.500  -6.345 -13.794  1.00 32.92     0.043 C 
BRANCH  15  16
ATOM     16  CG  GLU D 570     -19.806  -6.030 -15.213  1.00 32.92     0.100 C 
BRANCH  16  17
ATOM     17  CD  GLU D 570     -21.174  -5.417 -15.399  1.00 32.92     0.185 C 
ATOM     18  OE1 GLU D 570     -21.942  -5.343 -14.421  1.00 32.92    -0.647 OA
ATOM     19  OE2 GLU D 570     -21.488  -5.022 -16.539  1.00 32.92    -0.647 OA
ENDBRANCH  16  17
ENDBRANCH  15  16
ENDBRANCH  14  15
END_RES GLU D 570
ENDMDL
MODEL 9
REMARK VINA RESULT:      -6.9      2.821      3.730
REMARK  1 active torsions:
REMARK  status: ('A' for Active; 'I' for Inactive)
REMARK    1  A    between atoms: C_5  and  C_8 
ROOT
HETATM    1  C   UNL     1     -19.861  -8.773  -2.606  1.00  0.00     0.022 C 
HETATM    2  C   UNL     1     -20.642  -9.617  -1.925  1.00  0.00    -0.006 C 
HETATM    3  C   UNL     1     -20.613 -11.122  -1.746  1.00  0.00     0.031 C 
HETATM    4  C   UNL     1     -20.167 -11.358  -0.283  1.00  0.00     0.011 C 
HETATM    5  C   UNL     1     -21.405 -10.932   0.548  1.00  0.00     0.018 C 
HETATM    6  C   UNL     1     -22.430 -10.513  -0.537  1.00  0.00     0.029 C 
HETATM    7  C   UNL     1     -21.848  -9.220  -1.114  1.00  0.00     0.165 C 
HETATM    8  O   UNL     1     -22.240  -8.080  -0.938  1.00  0.00    -0.292 OA
HETATM    9  C   UNL     1     -22.128 -11.486  -1.715  1.00  0.00    -0.025 C 
HETATM   10  C   UNL     1     -22.393 -12.974  -1.414  1.00  0.00     0.016 C 
HETATM   11  C   UNL     1     -22.891 -11.162  -3.019  1.00  0.00     0.016 C 
HETATM   12  C   UNL     1     -23.857 -10.425  -0.046  1.00  0.00     0.025 C 
ENDROOT
BRANCH   1  13
HETATM   13  C   UNL     1     -18.679  -9.188  -3.365  1.00  0.00    -0.036 A 
HETATM   14  C   UNL     1     -17.456  -9.391  -2.718  1.00  0.00     0.012 A 
HETATM   15  C   UNL     1     -16.339  -9.835  -3.436  1.00  0.00     0.007 A 
HETATM   16  C   UNL     1     -16.427 -10.078  -4.812  1.00  0.00    -0.062 A 
HETATM   17  C   UNL     1     -15.233 -10.555  -5.589  1.00  0.00     0.048 C 
HETATM   18  C   UNL     1     -17.647  -9.855  -5.461  1.00  0.00     0.007 A 
HETATM   19  C   UNL     1     -18.765  -9.415  -4.742  1.00  0.00     0.012 A 
ENDBRANCH   1  13
TORSDOF 1
BEGIN_RES ARG D 557
REMARK  4 active torsions:
REMARK  status: ('A' for Active; 'I' for Inactive)
REMARK    1  A    between atoms: CA   and  CB  
REMARK    2  A    between atoms: CB   and  CG  
REMARK    3  A    between atoms: CG   and  CD  
REMARK    4  A    between atoms: CD   and  NE  
REMARK       I    between atoms: NE   and  CZ  
REMARK       I    between atoms: CZ   and  NH1 
REMARK       I    between atoms: CZ   and  NH2 
ROOT
ATOM      1  CA  ARG D 557     -26.217   2.705 -17.014  1.00 35.49     0.159 C 
ENDROOT
BRANCH   1   2
ATOM      2  CB  ARG D 557     -26.789   1.319 -17.183  1.00 35.49     0.034 C 
BRANCH   2   3
ATOM      3  CG  ARG D 557     -28.231   1.226 -17.439  1.00 35.49     0.027 C 
BRANCH   3   4
ATOM      4  CD  ARG D 557     -28.914   0.307 -16.500  1.00 35.49     0.116 C 
BRANCH   4   5
ATOM      5  NE  ARG D 557     -29.298  -0.927 -17.131  1.00 35.49    -0.212 N 
ATOM      6  CZ  ARG D 557     -28.660  -2.072 -17.032  1.00 35.49     0.666 C 
ATOM      7  NH1 ARG D 557     -27.552  -2.207 -16.327  1.00 35.49    -0.235 N 
ATOM      8  NH2 ARG D 557     -29.165  -3.096 -17.656  1.00 35.49    -0.235 N 
ATOM      9  HH  ARG D 557     -27.204  -1.547 -15.907  1.00 35.49     0.174 HD
ATOM     10  HH  ARG D 557     -27.181  -2.979 -16.296  1.00 35.49     0.174 HD
ATOM     11  HH  ARG D 557     -29.885  -2.981 -18.097  1.00 35.49     0.174 HD
ATOM     12  HH  ARG D 557     -28.784  -3.852 -17.612  1.00 35.49     0.174 HD
ATOM     13  HE  ARG D 557     -29.961  -0.914 -17.664  1.00 35.49     0.178 HD
ENDBRANCH   4   5
ENDBRANCH   3   4
ENDBRANCH   2   3
ENDBRANCH   1   2
END_RES ARG D 557
BEGIN_RES GLU D 570
REMARK  3 active torsions:
REMARK  status: ('A' for Active; 'I' for Inactive)
REMARK    5  A    between atoms: CA   and  CB  
REMARK    6  A    between atoms: CB   and  CG  
REMARK    7  A    between atoms: CG   and  CD  
ROOT
ATOM     14  CA  GLU D 570     -18.033  -6.348 -13.375  1.00 32.92     0.160 C 
ENDROOT
BRANCH  14  15
ATOM     15  CB  GLU D 570     -19.500  -6.345 -13.794  1.00 32.92     0.043 C 
BRANCH  15  16
ATOM     16  CG  GLU D 570     -20.441  -5.529 -12.985  1.00 32.92     0.100 C 
BRANCH  16  17
ATOM     17  CD  GLU D 570     -21.708  -5.178 -13.730  1.00 32.92     0.185 C 
ATOM     18  OE1 GLU D 570     -21.649  -4.964 -14.956  1.00 32.92    -0.647 OA
ATOM     19  OE2 GLU D 570     -22.768  -5.100 -13.078  1.00 32.92    -0.647 OA
ENDBRANCH  16  17
ENDBRANCH  15  16
ENDBRANCH  14  15
END_RES GLU D 570
ENDMDL
