MODEL 1
REMARK VINA RESULT:      -6.7      0.000      0.000
REMARK  3 active torsions:
REMARK  status: ('A' for Active; 'I' for Inactive)
REMARK    1  A    between atoms: C_4  and  O_10 
REMARK    2  A    between atoms: C_5  and  C_7 
REMARK    3  A    between atoms: C_7  and  O_9 
ROOT
HETATM    1  C   UNL     1     -20.600  -4.077  -9.586  1.00  0.00     0.001 A 
HETATM    2  C   UNL     1     -20.482  -4.452  -8.249  1.00  0.00     0.003 A 
HETATM    3  C   UNL     1     -21.616  -4.513  -7.438  1.00  0.00     0.037 A 
HETATM    4  C   UNL     1     -22.870  -4.197  -7.970  1.00  0.00     0.082 A 
HETATM    5  C   UNL     1     -23.005  -3.823  -9.314  1.00  0.00     0.070 A 
HETATM    6  C   UNL     1     -21.853  -3.765 -10.116  1.00  0.00     0.021 A 
ENDROOT
BRANCH   5   7
HETATM    7  C   UNL     1     -24.305  -3.480  -9.962  1.00  0.00     0.178 C 
HETATM    8  O   UNL     1     -24.571  -3.802 -11.111  1.00  0.00    -0.646 OA
BRANCH   7   9
HETATM    9  O   UNL     1     -25.171  -2.789  -9.193  1.00  0.00    -0.773 OA
HETATM   10  H   UNL     1     -26.076  -3.170  -9.218  1.00  0.00     0.167 HD
ENDBRANCH   7   9
ENDBRANCH   5   7
BRANCH   4  11
HETATM   11  O   UNL     1     -23.973  -4.254  -7.156  1.00  0.00    -0.360 OA
HETATM   12  H   UNL     1     -23.878  -5.021  -6.558  1.00  0.00     0.217 HD
ENDBRANCH   4  11
TORSDOF 3
BEGIN_RES ARG D 557
REMARK  4 active torsions:
REMARK  status: ('A' for Active; 'I' for Inactive)
REMARK    1  A    between atoms: CA   and  CB  
REMARK    2  A    between atoms: CB   and  CG  
REMARK    3  A    between atoms: CG   and  CD  
REMARK    4  A    between atoms: CD   and  NE  
REMARK       I    between atoms: NE   and  CZ  
REMARK       I    between atoms: CZ   and  NH1 
REMARK       I    between atoms: CZ   and  NH2 
ROOT
ATOM      1  CA  ARG D 557     -26.217   2.705 -17.014  1.00 35.49     0.159 C 
ENDROOT
BRANCH   1   2
ATOM      2  CB  ARG D 557     -26.789   1.319 -17.183  1.00 35.49     0.034 C 
BRANCH   2   3
ATOM      3  CG  ARG D 557     -25.837   0.203 -17.149  1.00 35.49     0.027 C 
BRANCH   3   4
ATOM      4  CD  ARG D 557     -24.750   0.417 -16.166  1.00 35.49     0.116 C 
BRANCH   4   5
ATOM      5  NE  ARG D 557     -24.889  -0.430 -15.011  1.00 35.49    -0.212 N 
ATOM      6  CZ  ARG D 557     -24.072  -1.400 -14.667  1.00 35.49     0.666 C 
ATOM      7  NH1 ARG D 557     -23.008  -1.717 -15.382  1.00 35.49    -0.235 N 
ATOM      8  NH2 ARG D 557     -24.340  -2.053 -13.574  1.00 35.49    -0.235 N 
ATOM      9  HH  ARG D 557     -22.810  -1.300 -16.104  1.00 35.49     0.174 HD
ATOM     10  HH  ARG D 557     -22.509  -2.358 -15.107  1.00 35.49     0.174 HD
ATOM     11  HH  ARG D 557     -25.030  -1.821 -13.129  1.00 35.49     0.174 HD
ATOM     12  HH  ARG D 557     -23.834  -2.683 -13.318  1.00 35.49     0.174 HD
ATOM     13  HE  ARG D 557     -25.587  -0.343 -14.533  1.00 35.49     0.178 HD
ENDBRANCH   4   5
ENDBRANCH   3   4
ENDBRANCH   2   3
ENDBRANCH   1   2
END_RES ARG D 557
BEGIN_RES GLU D 570
REMARK  3 active torsions:
REMARK  status: ('A' for Active; 'I' for Inactive)
REMARK    5  A    between atoms: CA   and  CB  
REMARK    6  A    between atoms: CB   and  CG  
REMARK    7  A    between atoms: CG   and  CD  
ROOT
ATOM     14  CA  GLU D 570     -18.033  -6.348 -13.375  1.00 32.92     0.160 C 
ENDROOT
BRANCH  14  15
ATOM     15  CB  GLU D 570     -19.500  -6.345 -13.794  1.00 32.92     0.043 C 
BRANCH  15  16
ATOM     16  CG  GLU D 570     -20.441  -5.528 -12.985  1.00 32.92     0.100 C 
BRANCH  16  17
ATOM     17  CD  GLU D 570     -21.742  -5.247 -13.701  1.00 32.92     0.185 C 
ATOM     18  OE1 GLU D 570     -22.267  -4.123 -13.583  1.00 32.92    -0.647 OA
ATOM     19  OE2 GLU D 570     -22.250  -6.166 -14.372  1.00 32.92    -0.647 OA
ENDBRANCH  16  17
ENDBRANCH  15  16
ENDBRANCH  14  15
END_RES GLU D 570
ENDMDL
MODEL 2
REMARK VINA RESULT:      -6.3      1.223      2.116
REMARK  3 active torsions:
REMARK  status: ('A' for Active; 'I' for Inactive)
REMARK    1  A    between atoms: C_4  and  O_10 
REMARK    2  A    between atoms: C_5  and  C_7 
REMARK    3  A    between atoms: C_7  and  O_9 
ROOT
HETATM    1  C   UNL     1     -21.106  -4.096  -8.468  1.00  0.00     0.001 A 
HETATM    2  C   UNL     1     -20.276  -4.476  -9.520  1.00  0.00     0.003 A 
HETATM    3  C   UNL     1     -20.766  -4.489 -10.827  1.00  0.00     0.037 A 
HETATM    4  C   UNL     1     -22.090  -4.119 -11.077  1.00  0.00     0.082 A 
HETATM    5  C   UNL     1     -22.936  -3.728 -10.029  1.00  0.00     0.070 A 
HETATM    6  C   UNL     1     -22.428  -3.722  -8.720  1.00  0.00     0.021 A 
ENDROOT
BRANCH   5   7
HETATM    7  C   UNL     1     -24.357  -3.309 -10.211  1.00  0.00     0.178 C 
HETATM    8  O   UNL     1     -24.910  -3.323 -11.301  1.00  0.00    -0.646 OA
BRANCH   7   9
HETATM    9  O   UNL     1     -24.993  -2.915  -9.089  1.00  0.00    -0.773 OA
HETATM   10  H   UNL     1     -24.984  -1.938  -8.981  1.00  0.00     0.167 HD
ENDBRANCH   7   9
ENDBRANCH   5   7
BRANCH   4  11
HETATM   11  O   UNL     1     -22.558  -4.144 -12.367  1.00  0.00    -0.360 OA
HETATM   12  H   UNL     1     -23.432  -3.710 -12.389  1.00  0.00     0.217 HD
ENDBRANCH   4  11
TORSDOF 3
BEGIN_RES ARG D 557
REMARK  4 active torsions:
REMARK  status: ('A' for Active; 'I' for Inactive)
REMARK    1  A    between atoms: CA   and  CB  
REMARK    2  A    between atoms: CB   and  CG  
REMARK    3  A    between atoms: CG   and  CD  
REMARK    4  A    between atoms: CD   and  NE  
REMARK       I    between atoms: NE   and  CZ  
REMARK       I    between atoms: CZ   and  NH1 
REMARK       I    between atoms: CZ   and  NH2 
ROOT
ATOM      1  CA  ARG D 557     -26.217   2.705 -17.014  1.00 35.49     0.159 C 
ENDROOT
BRANCH   1   2
ATOM      2  CB  ARG D 557     -26.789   1.319 -17.183  1.00 35.49     0.034 C 
BRANCH   2   3
ATOM      3  CG  ARG D 557     -25.854   0.196 -17.040  1.00 35.49     0.027 C 
BRANCH   3   4
ATOM      4  CD  ARG D 557     -26.199  -0.683 -15.900  1.00 35.49     0.116 C 
BRANCH   4   5
ATOM      5  NE  ARG D 557     -25.102  -0.837 -14.981  1.00 35.49    -0.212 N 
ATOM      6  CZ  ARG D 557     -24.795  -1.934 -14.327  1.00 35.49     0.666 C 
ATOM      7  NH1 ARG D 557     -25.498  -3.046 -14.439  1.00 35.49    -0.235 N 
ATOM      8  NH2 ARG D 557     -23.751  -1.899 -13.551  1.00 35.49    -0.235 N 
ATOM      9  HH  ARG D 557     -26.188  -3.093 -14.945  1.00 35.49     0.174 HD
ATOM     10  HH  ARG D 557     -25.249  -3.732 -13.989  1.00 35.49     0.174 HD
ATOM     11  HH  ARG D 557     -23.312  -1.169 -13.504  1.00 35.49     0.174 HD
ATOM     12  HH  ARG D 557     -23.520  -2.589 -13.115  1.00 35.49     0.174 HD
ATOM     13  HE  ARG D 557     -24.639  -0.148 -14.794  1.00 35.49     0.178 HD
ENDBRANCH   4   5
ENDBRANCH   3   4
ENDBRANCH   2   3
ENDBRANCH   1   2
END_RES ARG D 557
BEGIN_RES GLU D 570
REMARK  3 active torsions:
REMARK  status: ('A' for Active; 'I' for Inactive)
REMARK    5  A    between atoms: CA   and  CB  
REMARK    6  A    between atoms: CB   and  CG  
REMARK    7  A    between atoms: CG   and  CD  
ROOT
ATOM     14  CA  GLU D 570     -18.033  -6.348 -13.375  1.00 32.92     0.160 C 
ENDROOT
BRANCH  14  15
ATOM     15  CB  GLU D 570     -19.500  -6.345 -13.794  1.00 32.92     0.043 C 
BRANCH  15  16
ATOM     16  CG  GLU D 570     -19.811  -5.964 -15.196  1.00 32.92     0.100 C 
BRANCH  16  17
ATOM     17  CD  GLU D 570     -21.260  -5.589 -15.398  1.00 32.92     0.185 C 
ATOM     18  OE1 GLU D 570     -21.573  -4.887 -16.378  1.00 32.92    -0.647 OA
ATOM     19  OE2 GLU D 570     -22.090  -5.987 -14.556  1.00 32.92    -0.647 OA
ENDBRANCH  16  17
ENDBRANCH  15  16
ENDBRANCH  14  15
END_RES GLU D 570
ENDMDL
MODEL 3
REMARK VINA RESULT:      -6.3      1.497      1.885
REMARK  3 active torsions:
REMARK  status: ('A' for Active; 'I' for Inactive)
REMARK    1  A    between atoms: C_4  and  O_10 
REMARK    2  A    between atoms: C_5  and  C_7 
REMARK    3  A    between atoms: C_7  and  O_9 
ROOT
HETATM    1  C   UNL     1     -20.855  -4.029 -10.618  1.00  0.00     0.001 A 
HETATM    2  C   UNL     1     -20.478  -4.497  -9.361  1.00  0.00     0.003 A 
HETATM    3  C   UNL     1     -21.416  -4.566  -8.330  1.00  0.00     0.037 A 
HETATM    4  C   UNL     1     -22.734  -4.165  -8.561  1.00  0.00     0.082 A 
HETATM    5  C   UNL     1     -23.131  -3.697  -9.823  1.00  0.00     0.070 A 
HETATM    6  C   UNL     1     -22.174  -3.632 -10.848  1.00  0.00     0.021 A 
ENDROOT
BRANCH   5   7
HETATM    7  C   UNL     1     -24.518  -3.259 -10.156  1.00  0.00     0.178 C 
HETATM    8  O   UNL     1     -24.982  -3.350 -11.283  1.00  0.00    -0.646 OA
BRANCH   7   9
HETATM    9  O   UNL     1     -25.229  -2.755  -9.126  1.00  0.00    -0.773 OA
HETATM   10  H   UNL     1     -25.557  -3.458  -8.522  1.00  0.00     0.167 HD
ENDBRANCH   7   9
ENDBRANCH   5   7
BRANCH   4  11
HETATM   11  O   UNL     1     -23.642  -4.232  -7.535  1.00  0.00    -0.360 OA
HETATM   12  H   UNL     1     -23.312  -3.690  -6.792  1.00  0.00     0.217 HD
ENDBRANCH   4  11
TORSDOF 3
BEGIN_RES ARG D 557
REMARK  4 active torsions:
REMARK  status: ('A' for Active; 'I' for Inactive)
REMARK    1  A    between atoms: CA   and  CB  
REMARK    2  A    between atoms: CB   and  CG  
REMARK    3  A    between atoms: CG   and  CD  
REMARK    4  A    between atoms: CD   and  NE  
REMARK       I    between atoms: NE   and  CZ  
REMARK       I    between atoms: CZ   and  NH1 
REMARK       I    between atoms: CZ   and  NH2 
ROOT
ATOM      1  CA  ARG D 557     -26.217   2.705 -17.014  1.00 35.49     0.159 C 
ENDROOT
BRANCH   1   2
ATOM      2  CB  ARG D 557     -26.789   1.319 -17.183  1.00 35.49     0.034 C 
BRANCH   2   3
ATOM      3  CG  ARG D 557     -25.857   0.196 -17.027  1.00 35.49     0.027 C 
BRANCH   3   4
ATOM      4  CD  ARG D 557     -26.212  -0.678 -15.886  1.00 35.49     0.116 C 
BRANCH   4   5
ATOM      5  NE  ARG D 557     -25.109  -0.864 -14.981  1.00 35.49    -0.212 N 
ATOM      6  CZ  ARG D 557     -24.828  -1.969 -14.328  1.00 35.49     0.666 C 
ATOM      7  NH1 ARG D 557     -25.566  -3.059 -14.429  1.00 35.49    -0.235 N 
ATOM      8  NH2 ARG D 557     -23.774  -1.965 -13.564  1.00 35.49    -0.235 N 
ATOM      9  HH  ARG D 557     -26.263  -3.085 -14.927  1.00 35.49     0.174 HD
ATOM     10  HH  ARG D 557     -25.333  -3.752 -13.981  1.00 35.49     0.174 HD
ATOM     11  HH  ARG D 557     -23.312  -1.249 -13.524  1.00 35.49     0.174 HD
ATOM     12  HH  ARG D 557     -23.559  -2.660 -13.130  1.00 35.49     0.174 HD
ATOM     13  HE  ARG D 557     -24.623  -0.190 -14.800  1.00 35.49     0.178 HD
ENDBRANCH   4   5
ENDBRANCH   3   4
ENDBRANCH   2   3
ENDBRANCH   1   2
END_RES ARG D 557
BEGIN_RES GLU D 570
REMARK  3 active torsions:
REMARK  status: ('A' for Active; 'I' for Inactive)
REMARK    5  A    between atoms: CA   and  CB  
REMARK    6  A    between atoms: CB   and  CG  
REMARK    7  A    between atoms: CG   and  CD  
ROOT
ATOM     14  CA  GLU D 570     -18.033  -6.348 -13.375  1.00 32.92     0.160 C 
ENDROOT
BRANCH  14  15
ATOM     15  CB  GLU D 570     -19.500  -6.345 -13.794  1.00 32.92     0.043 C 
BRANCH  15  16
ATOM     16  CG  GLU D 570     -20.116  -7.652 -14.139  1.00 32.92     0.100 C 
BRANCH  16  17
ATOM     17  CD  GLU D 570     -20.675  -7.688 -15.543  1.00 32.92     0.185 C 
ATOM     18  OE1 GLU D 570     -20.656  -8.761 -16.175  1.00 32.92    -0.647 OA
ATOM     19  OE2 GLU D 570     -21.122  -6.627 -16.021  1.00 32.92    -0.647 OA
ENDBRANCH  16  17
ENDBRANCH  15  16
ENDBRANCH  14  15
END_RES GLU D 570
ENDMDL
MODEL 4
REMARK VINA RESULT:      -6.0      2.224      3.083
REMARK  3 active torsions:
REMARK  status: ('A' for Active; 'I' for Inactive)
REMARK    1  A    between atoms: C_4  and  O_10 
REMARK    2  A    between atoms: C_5  and  C_7 
REMARK    3  A    between atoms: C_7  and  O_9 
ROOT
HETATM    1  C   UNL     1     -21.634  -4.306  -8.969  1.00  0.00     0.001 A 
HETATM    2  C   UNL     1     -20.492  -4.244  -9.764  1.00  0.00     0.003 A 
HETATM    3  C   UNL     1     -20.591  -3.861 -11.102  1.00  0.00     0.037 A 
HETATM    4  C   UNL     1     -21.840  -3.538 -11.642  1.00  0.00     0.082 A 
HETATM    5  C   UNL     1     -22.998  -3.590 -10.853  1.00  0.00     0.070 A 
HETATM    6  C   UNL     1     -22.880  -3.980  -9.509  1.00  0.00     0.021 A 
ENDROOT
BRANCH   5   7
HETATM    7  C   UNL     1     -24.365  -3.254 -11.348  1.00  0.00     0.178 C 
HETATM    8  O   UNL     1     -24.595  -3.011 -12.524  1.00  0.00    -0.646 OA
BRANCH   7   9
HETATM    9  O   UNL     1     -25.333  -3.236 -10.410  1.00  0.00    -0.773 OA
HETATM   10  H   UNL     1     -25.707  -2.336 -10.278  1.00  0.00     0.167 HD
ENDBRANCH   7   9
ENDBRANCH   5   7
BRANCH   4  11
HETATM   11  O   UNL     1     -21.921  -3.170 -12.961  1.00  0.00    -0.360 OA
HETATM   12  H   UNL     1     -21.627  -3.922 -13.512  1.00  0.00     0.217 HD
ENDBRANCH   4  11
TORSDOF 3
BEGIN_RES ARG D 557
REMARK  4 active torsions:
REMARK  status: ('A' for Active; 'I' for Inactive)
REMARK    1  A    between atoms: CA   and  CB  
REMARK    2  A    between atoms: CB   and  CG  
REMARK    3  A    between atoms: CG   and  CD  
REMARK    4  A    between atoms: CD   and  NE  
REMARK       I    between atoms: NE   and  CZ  
REMARK       I    between atoms: CZ   and  NH1 
REMARK       I    between atoms: CZ   and  NH2 
ROOT
ATOM      1  CA  ARG D 557     -26.217   2.705 -17.014  1.00 35.49     0.159 C 
ENDROOT
BRANCH   1   2
ATOM      2  CB  ARG D 557     -26.789   1.319 -17.183  1.00 35.49     0.034 C 
BRANCH   2   3
ATOM      3  CG  ARG D 557     -28.204   1.141 -16.835  1.00 35.49     0.027 C 
BRANCH   3   4
ATOM      4  CD  ARG D 557     -28.541  -0.272 -16.546  1.00 35.49     0.116 C 
BRANCH   4   5
ATOM      5  NE  ARG D 557     -27.489  -0.944 -15.829  1.00 35.49    -0.212 N 
ATOM      6  CZ  ARG D 557     -27.223  -2.230 -15.884  1.00 35.49     0.666 C 
ATOM      7  NH1 ARG D 557     -27.927  -3.069 -16.619  1.00 35.49    -0.235 N 
ATOM      8  NH2 ARG D 557     -26.216  -2.664 -15.182  1.00 35.49    -0.235 N 
ATOM      9  HH  ARG D 557     -28.592  -2.805 -17.090  1.00 35.49     0.174 HD
ATOM     10  HH  ARG D 557     -27.705  -3.897 -16.618  1.00 35.49     0.174 HD
ATOM     11  HH  ARG D 557     -25.775  -2.098 -14.722  1.00 35.49     0.174 HD
ATOM     12  HH  ARG D 557     -26.011  -3.487 -15.195  1.00 35.49     0.174 HD
ATOM     13  HE  ARG D 557     -27.031  -0.490 -15.274  1.00 35.49     0.178 HD
ENDBRANCH   4   5
ENDBRANCH   3   4
ENDBRANCH   2   3
ENDBRANCH   1   2
END_RES ARG D 557
BEGIN_RES GLU D 570
REMARK  3 active torsions:
REMARK  status: ('A' for Active; 'I' for Inactive)
REMARK    5  A    between atoms: CA   and  CB  
REMARK    6  A    between atoms: CB   and  CG  
REMARK    7  A    between atoms: CG   and  CD  
ROOT
ATOM     14  CA  GLU D 570     -18.033  -6.348 -13.375  1.00 32.92     0.160 C 
ENDROOT
BRANCH  14  15
ATOM     15  CB  GLU D 570     -19.500  -6.345 -13.794  1.00 32.92     0.043 C 
BRANCH  15  16
ATOM     16  CG  GLU D 570     -19.809  -6.679 -15.209  1.00 32.92     0.100 C 
BRANCH  16  17
ATOM     17  CD  GLU D 570     -20.762  -5.698 -15.851  1.00 32.92     0.185 C 
ATOM     18  OE1 GLU D 570     -20.790  -5.607 -17.093  1.00 32.92    -0.647 OA
ATOM     19  OE2 GLU D 570     -21.475  -5.001 -15.103  1.00 32.92    -0.647 OA
ENDBRANCH  16  17
ENDBRANCH  15  16
ENDBRANCH  14  15
END_RES GLU D 570
ENDMDL
MODEL 5
REMARK VINA RESULT:      -5.7      2.111      2.411
REMARK  3 active torsions:
REMARK  status: ('A' for Active; 'I' for Inactive)
REMARK    1  A    between atoms: C_4  and  O_10 
REMARK    2  A    between atoms: C_5  and  C_7 
REMARK    3  A    between atoms: C_7  and  O_9 
ROOT
HETATM    1  C   UNL     1     -20.578  -4.069 -10.101  1.00  0.00     0.001 A 
HETATM    2  C   UNL     1     -20.325  -4.319  -8.754  1.00  0.00     0.003 A 
HETATM    3  C   UNL     1     -21.380  -4.377  -7.843  1.00  0.00     0.037 A 
HETATM    4  C   UNL     1     -22.691  -4.183  -8.284  1.00  0.00     0.082 A 
HETATM    5  C   UNL     1     -22.964  -3.936  -9.638  1.00  0.00     0.070 A 
HETATM    6  C   UNL     1     -21.890  -3.880 -10.541  1.00  0.00     0.021 A 
ENDROOT
BRANCH   5   7
HETATM    7  C   UNL     1     -24.334  -3.729 -10.193  1.00  0.00     0.178 C 
HETATM    8  O   UNL     1     -24.552  -2.988 -11.140  1.00  0.00    -0.646 OA
BRANCH   7   9
HETATM    9  O   UNL     1     -25.318  -4.416  -9.578  1.00  0.00    -0.773 OA
HETATM   10  H   UNL     1     -25.574  -5.224 -10.076  1.00  0.00     0.167 HD
ENDBRANCH   7   9
ENDBRANCH   5   7
BRANCH   4  11
HETATM   11  O   UNL     1     -23.717  -4.235  -7.374  1.00  0.00    -0.360 OA
HETATM   12  H   UNL     1     -23.397  -3.872  -6.526  1.00  0.00     0.217 HD
ENDBRANCH   4  11
TORSDOF 3
BEGIN_RES ARG D 557
REMARK  4 active torsions:
REMARK  status: ('A' for Active; 'I' for Inactive)
REMARK    1  A    between atoms: CA   and  CB  
REMARK    2  A    between atoms: CB   and  CG  
REMARK    3  A    between atoms: CG   and  CD  
REMARK    4  A    between atoms: CD   and  NE  
REMARK       I    between atoms: NE   and  CZ  
REMARK       I    between atoms: CZ   and  NH1 
REMARK       I    between atoms: CZ   and  NH2 
ROOT
ATOM      1  CA  ARG D 557     -26.217   2.705 -17.014  1.00 35.49     0.159 C 
ENDROOT
BRANCH   1   2
ATOM      2  CB  ARG D 557     -26.789   1.319 -17.183  1.00 35.49     0.034 C 
BRANCH   2   3
ATOM      3  CG  ARG D 557     -28.231   1.167 -16.952  1.00 35.49     0.027 C 
BRANCH   3   4
ATOM      4  CD  ARG D 557     -28.613  -0.238 -16.681  1.00 35.49     0.116 C 
BRANCH   4   5
ATOM      5  NE  ARG D 557     -27.583  -0.954 -15.976  1.00 35.49    -0.212 N 
ATOM      6  CZ  ARG D 557     -27.368  -2.249 -16.037  1.00 35.49     0.666 C 
ATOM      7  NH1 ARG D 557     -28.114  -3.058 -16.768  1.00 35.49    -0.235 N 
ATOM      8  NH2 ARG D 557     -26.374  -2.726 -15.347  1.00 35.49    -0.235 N 
ATOM      9  HH  ARG D 557     -28.772  -2.765 -17.232  1.00 35.49     0.174 HD
ATOM     10  HH  ARG D 557     -27.925  -3.894 -16.771  1.00 35.49     0.174 HD
ATOM     11  HH  ARG D 557     -25.905  -2.180 -14.890  1.00 35.49     0.174 HD
ATOM     12  HH  ARG D 557     -26.202  -3.557 -15.365  1.00 35.49     0.174 HD
ATOM     13  HE  ARG D 557     -27.101  -0.521 -15.425  1.00 35.49     0.178 HD
ENDBRANCH   4   5
ENDBRANCH   3   4
ENDBRANCH   2   3
ENDBRANCH   1   2
END_RES ARG D 557
BEGIN_RES GLU D 570
REMARK  3 active torsions:
REMARK  status: ('A' for Active; 'I' for Inactive)
REMARK    5  A    between atoms: CA   and  CB  
REMARK    6  A    between atoms: CB   and  CG  
REMARK    7  A    between atoms: CG   and  CD  
ROOT
ATOM     14  CA  GLU D 570     -18.033  -6.348 -13.375  1.00 32.92     0.160 C 
ENDROOT
BRANCH  14  15
ATOM     15  CB  GLU D 570     -19.500  -6.345 -13.794  1.00 32.92     0.043 C 
BRANCH  15  16
ATOM     16  CG  GLU D 570     -19.802  -6.581 -15.229  1.00 32.92     0.100 C 
BRANCH  16  17
ATOM     17  CD  GLU D 570     -20.829  -5.619 -15.781  1.00 32.92     0.185 C 
ATOM     18  OE1 GLU D 570     -20.933  -5.487 -17.016  1.00 32.92    -0.647 OA
ATOM     19  OE2 GLU D 570     -21.524  -4.977 -14.970  1.00 32.92    -0.647 OA
ENDBRANCH  16  17
ENDBRANCH  15  16
ENDBRANCH  14  15
END_RES GLU D 570
ENDMDL
MODEL 6
REMARK VINA RESULT:      -5.6      7.310      8.864
REMARK  3 active torsions:
REMARK  status: ('A' for Active; 'I' for Inactive)
REMARK    1  A    between atoms: C_4  and  O_10 
REMARK    2  A    between atoms: C_5  and  C_7 
REMARK    3  A    between atoms: C_7  and  O_9 
ROOT
HETATM    1  C   UNL     1     -33.682  -2.908 -10.375  1.00  0.00     0.001 A 
HETATM    2  C   UNL     1     -33.319  -4.045 -11.092  1.00  0.00     0.003 A 
HETATM    3  C   UNL     1     -33.634  -4.148 -12.448  1.00  0.00     0.037 A 
HETATM    4  C   UNL     1     -34.314  -3.106 -13.084  1.00  0.00     0.082 A 
HETATM    5  C   UNL     1     -34.682  -1.952 -12.377  1.00  0.00     0.070 A 
HETATM    6  C   UNL     1     -34.359  -1.866 -11.013  1.00  0.00     0.021 A 
ENDROOT
BRANCH   5   7
HETATM    7  C   UNL     1     -35.401  -0.792 -12.982  1.00  0.00     0.178 C 
HETATM    8  O   UNL     1     -34.946   0.342 -12.966  1.00  0.00    -0.646 OA
BRANCH   7   9
HETATM    9  O   UNL     1     -36.589  -1.080 -13.551  1.00  0.00    -0.773 OA
HETATM   10  H   UNL     1     -36.538  -1.865 -14.142  1.00  0.00     0.167 HD
ENDBRANCH   7   9
ENDBRANCH   5   7
BRANCH   4  11
HETATM   11  O   UNL     1     -34.623  -3.226 -14.416  1.00  0.00    -0.360 OA
HETATM   12  H   UNL     1     -34.882  -2.347 -14.755  1.00  0.00     0.217 HD
ENDBRANCH   4  11
TORSDOF 3
BEGIN_RES ARG D 557
REMARK  4 active torsions:
REMARK  status: ('A' for Active; 'I' for Inactive)
REMARK    1  A    between atoms: CA   and  CB  
REMARK    2  A    between atoms: CB   and  CG  
REMARK    3  A    between atoms: CG   and  CD  
REMARK    4  A    between atoms: CD   and  NE  
REMARK       I    between atoms: NE   and  CZ  
REMARK       I    between atoms: CZ   and  NH1 
REMARK       I    between atoms: CZ   and  NH2 
ROOT
ATOM      1  CA  ARG D 557     -26.217   2.705 -17.014  1.00 35.49     0.159 C 
ENDROOT
BRANCH   1   2
ATOM      2  CB  ARG D 557     -26.789   1.319 -17.183  1.00 35.49     0.034 C 
BRANCH   2   3
ATOM      3  CG  ARG D 557     -25.835   0.203 -17.160  1.00 35.49     0.027 C 
BRANCH   3   4
ATOM      4  CD  ARG D 557     -24.749   0.410 -16.175  1.00 35.49     0.116 C 
BRANCH   4   5
ATOM      5  NE  ARG D 557     -24.897  -0.433 -15.018  1.00 35.49    -0.212 N 
ATOM      6  CZ  ARG D 557     -24.088  -1.408 -14.669  1.00 35.49     0.666 C 
ATOM      7  NH1 ARG D 557     -23.025  -1.735 -15.380  1.00 35.49    -0.235 N 
ATOM      8  NH2 ARG D 557     -24.366  -2.056 -13.575  1.00 35.49    -0.235 N 
ATOM      9  HH  ARG D 557     -22.822  -1.321 -16.102  1.00 35.49     0.174 HD
ATOM     10  HH  ARG D 557     -22.532  -2.379 -15.102  1.00 35.49     0.174 HD
ATOM     11  HH  ARG D 557     -25.055  -1.817 -13.133  1.00 35.49     0.174 HD
ATOM     12  HH  ARG D 557     -23.865  -2.689 -13.316  1.00 35.49     0.174 HD
ATOM     13  HE  ARG D 557     -25.596  -0.339 -14.543  1.00 35.49     0.178 HD
ENDBRANCH   4   5
ENDBRANCH   3   4
ENDBRANCH   2   3
ENDBRANCH   1   2
END_RES ARG D 557
BEGIN_RES GLU D 570
REMARK  3 active torsions:
REMARK  status: ('A' for Active; 'I' for Inactive)
REMARK    5  A    between atoms: CA   and  CB  
REMARK    6  A    between atoms: CB   and  CG  
REMARK    7  A    between atoms: CG   and  CD  
ROOT
ATOM     14  CA  GLU D 570     -18.033  -6.348 -13.375  1.00 32.92     0.160 C 
ENDROOT
BRANCH  14  15
ATOM     15  CB  GLU D 570     -19.500  -6.345 -13.794  1.00 32.92     0.043 C 
BRANCH  15  16
ATOM     16  CG  GLU D 570     -20.439  -5.516 -12.994  1.00 32.92     0.100 C 
BRANCH  16  17
ATOM     17  CD  GLU D 570     -21.741  -5.245 -13.710  1.00 32.92     0.185 C 
ATOM     18  OE1 GLU D 570     -22.308  -4.148 -13.539  1.00 32.92    -0.647 OA
ATOM     19  OE2 GLU D 570     -22.208  -6.145 -14.435  1.00 32.92    -0.647 OA
ENDBRANCH  16  17
ENDBRANCH  15  16
ENDBRANCH  14  15
END_RES GLU D 570
ENDMDL
MODEL 7
REMARK VINA RESULT:      -5.5      7.275      8.612
REMARK  3 active torsions:
REMARK  status: ('A' for Active; 'I' for Inactive)
REMARK    1  A    between atoms: C_4  and  O_10 
REMARK    2  A    between atoms: C_5  and  C_7 
REMARK    3  A    between atoms: C_7  and  O_9 
ROOT
HETATM    1  C   UNL     1     -32.742  -4.947 -11.725  1.00  0.00     0.001 A 
HETATM    2  C   UNL     1     -33.605  -5.705 -10.936  1.00  0.00     0.003 A 
HETATM    3  C   UNL     1     -34.855  -5.197 -10.580  1.00  0.00     0.037 A 
HETATM    4  C   UNL     1     -35.239  -3.926 -11.017  1.00  0.00     0.082 A 
HETATM    5  C   UNL     1     -34.384  -3.154 -11.817  1.00  0.00     0.070 A 
HETATM    6  C   UNL     1     -33.129  -3.680 -12.164  1.00  0.00     0.021 A 
ENDROOT
BRANCH   5   7
HETATM    7  C   UNL     1     -34.721  -1.794 -12.333  1.00  0.00     0.178 C 
HETATM    8  O   UNL     1     -34.768  -0.811 -11.608  1.00  0.00    -0.646 OA
BRANCH   7   9
HETATM    9  O   UNL     1     -34.968  -1.722 -13.657  1.00  0.00    -0.773 OA
HETATM   10  H   UNL     1     -34.163  -1.498 -14.174  1.00  0.00     0.167 HD
ENDBRANCH   7   9
ENDBRANCH   5   7
BRANCH   4  11
HETATM   11  O   UNL     1     -36.469  -3.438 -10.653  1.00  0.00    -0.360 OA
HETATM   12  H   UNL     1     -36.689  -2.685 -11.234  1.00  0.00     0.217 HD
ENDBRANCH   4  11
TORSDOF 3
BEGIN_RES ARG D 557
REMARK  4 active torsions:
REMARK  status: ('A' for Active; 'I' for Inactive)
REMARK    1  A    between atoms: CA   and  CB  
REMARK    2  A    between atoms: CB   and  CG  
REMARK    3  A    between atoms: CG   and  CD  
REMARK    4  A    between atoms: CD   and  NE  
REMARK       I    between atoms: NE   and  CZ  
REMARK       I    between atoms: CZ   and  NH1 
REMARK       I    between atoms: CZ   and  NH2 
ROOT
ATOM      1  CA  ARG D 557     -26.217   2.705 -17.014  1.00 35.49     0.159 C 
ENDROOT
BRANCH   1   2
ATOM      2  CB  ARG D 557     -26.789   1.319 -17.183  1.00 35.49     0.034 C 
BRANCH   2   3
ATOM      3  CG  ARG D 557     -25.863   0.195 -16.999  1.00 35.49     0.027 C 
BRANCH   3   4
ATOM      4  CD  ARG D 557     -26.283  -0.709 -15.903  1.00 35.49     0.116 C 
BRANCH   4   5
ATOM      5  NE  ARG D 557     -25.236  -0.915 -14.938  1.00 35.49    -0.212 N 
ATOM      6  CZ  ARG D 557     -24.945  -2.055 -14.352  1.00 35.49     0.666 C 
ATOM      7  NH1 ARG D 557     -25.618  -3.165 -14.588  1.00 35.49    -0.235 N 
ATOM      8  NH2 ARG D 557     -23.946  -2.063 -13.517  1.00 35.49    -0.235 N 
ATOM      9  HH  ARG D 557     -26.277  -3.184 -15.135  1.00 35.49     0.174 HD
ATOM     10  HH  ARG D 557     -25.381  -3.880 -14.178  1.00 35.49     0.174 HD
ATOM     11  HH  ARG D 557     -23.525  -1.332 -13.390  1.00 35.49     0.174 HD
ATOM     12  HH  ARG D 557     -23.726  -2.780 -13.123  1.00 35.49     0.174 HD
ATOM     13  HE  ARG D 557     -24.798  -0.236 -14.673  1.00 35.49     0.178 HD
ENDBRANCH   4   5
ENDBRANCH   3   4
ENDBRANCH   2   3
ENDBRANCH   1   2
END_RES ARG D 557
BEGIN_RES GLU D 570
REMARK  3 active torsions:
REMARK  status: ('A' for Active; 'I' for Inactive)
REMARK    5  A    between atoms: CA   and  CB  
REMARK    6  A    between atoms: CB   and  CG  
REMARK    7  A    between atoms: CG   and  CD  
ROOT
ATOM     14  CA  GLU D 570     -18.033  -6.348 -13.375  1.00 32.92     0.160 C 
ENDROOT
BRANCH  14  15
ATOM     15  CB  GLU D 570     -19.500  -6.345 -13.794  1.00 32.92     0.043 C 
BRANCH  15  16
ATOM     16  CG  GLU D 570     -20.449  -5.567 -12.957  1.00 32.92     0.100 C 
BRANCH  16  17
ATOM     17  CD  GLU D 570     -21.678  -5.124 -13.716  1.00 32.92     0.185 C 
ATOM     18  OE1 GLU D 570     -22.705  -4.816 -13.080  1.00 32.92    -0.647 OA
ATOM     19  OE2 GLU D 570     -21.619  -5.100 -14.961  1.00 32.92    -0.647 OA
ENDBRANCH  16  17
ENDBRANCH  15  16
ENDBRANCH  14  15
END_RES GLU D 570
ENDMDL
MODEL 8
REMARK VINA RESULT:      -5.4      7.662      9.273
REMARK  3 active torsions:
REMARK  status: ('A' for Active; 'I' for Inactive)
REMARK    1  A    between atoms: C_4  and  O_10 
REMARK    2  A    between atoms: C_5  and  C_7 
REMARK    3  A    between atoms: C_7  and  O_9 
ROOT
HETATM    1  C   UNL     1     -33.622  -2.946 -10.445  1.00  0.00     0.001 A 
HETATM    2  C   UNL     1     -33.236  -4.028 -11.232  1.00  0.00     0.003 A 
HETATM    3  C   UNL     1     -33.582  -4.068 -12.583  1.00  0.00     0.037 A 
HETATM    4  C   UNL     1     -34.316  -3.019 -13.145  1.00  0.00     0.082 A 
HETATM    5  C   UNL     1     -34.707  -1.920 -12.366  1.00  0.00     0.070 A 
HETATM    6  C   UNL     1     -34.352  -1.897 -11.008  1.00  0.00     0.021 A 
ENDROOT
BRANCH   5   7
HETATM    7  C   UNL     1     -35.482  -0.756 -12.889  1.00  0.00     0.178 C 
HETATM    8  O   UNL     1     -35.110   0.398 -12.742  1.00  0.00    -0.646 OA
BRANCH   7   9
HETATM    9  O   UNL     1     -36.624  -1.066 -13.537  1.00  0.00    -0.773 OA
HETATM   10  H   UNL     1     -37.049  -1.875 -13.175  1.00  0.00     0.167 HD
ENDBRANCH   7   9
ENDBRANCH   5   7
BRANCH   4  11
HETATM   11  O   UNL     1     -34.654  -3.078 -14.473  1.00  0.00    -0.360 OA
HETATM   12  H   UNL     1     -33.850  -2.922 -15.005  1.00  0.00     0.217 HD
ENDBRANCH   4  11
TORSDOF 3
BEGIN_RES ARG D 557
REMARK  4 active torsions:
REMARK  status: ('A' for Active; 'I' for Inactive)
REMARK    1  A    between atoms: CA   and  CB  
REMARK    2  A    between atoms: CB   and  CG  
REMARK    3  A    between atoms: CG   and  CD  
REMARK    4  A    between atoms: CD   and  NE  
REMARK       I    between atoms: NE   and  CZ  
REMARK       I    between atoms: CZ   and  NH1 
REMARK       I    between atoms: CZ   and  NH2 
ROOT
ATOM      1  CA  ARG D 557     -26.217   2.705 -17.014  1.00 35.49     0.159 C 
ENDROOT
BRANCH   1   2
ATOM      2  CB  ARG D 557     -26.789   1.319 -17.183  1.00 35.49     0.034 C 
BRANCH   2   3
ATOM      3  CG  ARG D 557     -28.235   1.225 -17.420  1.00 35.49     0.027 C 
BRANCH   3   4
ATOM      4  CD  ARG D 557     -28.901   0.294 -16.480  1.00 35.49     0.116 C 
BRANCH   4   5
ATOM      5  NE  ARG D 557     -29.304  -0.929 -17.123  1.00 35.49    -0.212 N 
ATOM      6  CZ  ARG D 557     -28.680  -2.082 -17.038  1.00 35.49     0.666 C 
ATOM      7  NH1 ARG D 557     -27.571  -2.239 -16.339  1.00 35.49    -0.235 N 
ATOM      8  NH2 ARG D 557     -29.200  -3.094 -17.670  1.00 35.49    -0.235 N 
ATOM      9  HH  ARG D 557     -27.212  -1.588 -15.913  1.00 35.49     0.174 HD
ATOM     10  HH  ARG D 557     -27.210  -3.016 -16.318  1.00 35.49     0.174 HD
ATOM     11  HH  ARG D 557     -29.921  -2.965 -18.107  1.00 35.49     0.174 HD
ATOM     12  HH  ARG D 557     -28.828  -3.855 -17.636  1.00 35.49     0.174 HD
ATOM     13  HE  ARG D 557     -29.969  -0.902 -17.652  1.00 35.49     0.178 HD
ENDBRANCH   4   5
ENDBRANCH   3   4
ENDBRANCH   2   3
ENDBRANCH   1   2
END_RES ARG D 557
BEGIN_RES GLU D 570
REMARK  3 active torsions:
REMARK  status: ('A' for Active; 'I' for Inactive)
REMARK    5  A    between atoms: CA   and  CB  
REMARK    6  A    between atoms: CB   and  CG  
REMARK    7  A    between atoms: CG   and  CD  
ROOT
ATOM     14  CA  GLU D 570     -18.033  -6.348 -13.375  1.00 32.92     0.160 C 
ENDROOT
BRANCH  14  15
ATOM     15  CB  GLU D 570     -19.500  -6.345 -13.794  1.00 32.92     0.043 C 
BRANCH  15  16
ATOM     16  CG  GLU D 570     -20.444  -5.539 -12.977  1.00 32.92     0.100 C 
BRANCH  16  17
ATOM     17  CD  GLU D 570     -21.703  -5.169 -13.725  1.00 32.92     0.185 C 
ATOM     18  OE1 GLU D 570     -22.775  -5.074 -13.096  1.00 32.92    -0.647 OA
ATOM     19  OE2 GLU D 570     -21.620  -4.988 -14.956  1.00 32.92    -0.647 OA
ENDBRANCH  16  17
ENDBRANCH  15  16
ENDBRANCH  14  15
END_RES GLU D 570
ENDMDL
MODEL 9
REMARK VINA RESULT:      -5.3     10.724     13.119
REMARK  3 active torsions:
REMARK  status: ('A' for Active; 'I' for Inactive)
REMARK    1  A    between atoms: C_4  and  O_10 
REMARK    2  A    between atoms: C_5  and  C_7 
REMARK    3  A    between atoms: C_7  and  O_9 
ROOT
HETATM    1  C   UNL     1     -11.777   2.836 -20.869  1.00  0.00     0.001 A 
HETATM    2  C   UNL     1     -13.054   3.388 -20.929  1.00  0.00     0.003 A 
HETATM    3  C   UNL     1     -13.279   4.685 -20.464  1.00  0.00     0.037 A 
HETATM    4  C   UNL     1     -12.219   5.427 -19.937  1.00  0.00     0.082 A 
HETATM    5  C   UNL     1     -10.926   4.888 -19.874  1.00  0.00     0.070 A 
HETATM    6  C   UNL     1     -10.718   3.581 -20.345  1.00  0.00     0.021 A 
ENDROOT
BRANCH   5   7
HETATM    7  C   UNL     1      -9.739   5.616 -19.336  1.00  0.00     0.178 C 
HETATM    8  O   UNL     1      -8.863   6.066 -20.059  1.00  0.00    -0.646 OA
BRANCH   7   9
HETATM    9  O   UNL     1      -9.699   5.745 -17.994  1.00  0.00    -0.773 OA
HETATM   10  H   UNL     1     -10.550   5.495 -17.571  1.00  0.00     0.167 HD
ENDBRANCH   7   9
ENDBRANCH   5   7
BRANCH   4  11
HETATM   11  O   UNL     1     -12.458   6.697 -19.476  1.00  0.00    -0.360 OA
HETATM   12  H   UNL     1     -13.058   6.641 -18.707  1.00  0.00     0.217 HD
ENDBRANCH   4  11
TORSDOF 3
BEGIN_RES ARG D 557
REMARK  4 active torsions:
REMARK  status: ('A' for Active; 'I' for Inactive)
REMARK    1  A    between atoms: CA   and  CB  
REMARK    2  A    between atoms: CB   and  CG  
REMARK    3  A    between atoms: CG   and  CD  
REMARK    4  A    between atoms: CD   and  NE  
REMARK       I    between atoms: NE   and  CZ  
REMARK       I    between atoms: CZ   and  NH1 
REMARK       I    between atoms: CZ   and  NH2 
ROOT
ATOM      1  CA  ARG D 557     -26.217   2.705 -17.014  1.00 35.49     0.159 C 
ENDROOT
BRANCH   1   2
ATOM      2  CB  ARG D 557     -26.789   1.319 -17.183  1.00 35.49     0.034 C 
BRANCH   2   3
ATOM      3  CG  ARG D 557     -25.866   0.195 -16.987  1.00 35.49     0.027 C 
BRANCH   3   4
ATOM      4  CD  ARG D 557     -26.288  -0.696 -15.881  1.00 35.49     0.116 C 
BRANCH   4   5
ATOM      5  NE  ARG D 557     -25.233  -0.914 -14.927  1.00 35.49    -0.212 N 
ATOM      6  CZ  ARG D 557     -24.936  -2.061 -14.360  1.00 35.49     0.666 C 
ATOM      7  NH1 ARG D 557     -25.609  -3.170 -14.606  1.00 35.49    -0.235 N 
ATOM      8  NH2 ARG D 557     -23.931  -2.079 -13.532  1.00 35.49    -0.235 N 
ATOM      9  HH  ARG D 557     -26.272  -3.181 -15.149  1.00 35.49     0.174 HD
ATOM     10  HH  ARG D 557     -25.367  -3.889 -14.209  1.00 35.49     0.174 HD
ATOM     11  HH  ARG D 557     -23.510  -1.350 -13.398  1.00 35.49     0.174 HD
ATOM     12  HH  ARG D 557     -23.707  -2.802 -13.150  1.00 35.49     0.174 HD
ATOM     13  HE  ARG D 557     -24.794  -0.238 -14.655  1.00 35.49     0.178 HD
ENDBRANCH   4   5
ENDBRANCH   3   4
ENDBRANCH   2   3
ENDBRANCH   1   2
END_RES ARG D 557
BEGIN_RES GLU D 570
REMARK  3 active torsions:
REMARK  status: ('A' for Active; 'I' for Inactive)
REMARK    5  A    between atoms: CA   and  CB  
REMARK    6  A    between atoms: CB   and  CG  
REMARK    7  A    between atoms: CG   and  CD  
ROOT
ATOM     14  CA  GLU D 570     -18.033  -6.348 -13.375  1.00 32.92     0.160 C 
ENDROOT
BRANCH  14  15
ATOM     15  CB  GLU D 570     -19.500  -6.345 -13.794  1.00 32.92     0.043 C 
BRANCH  15  16
ATOM     16  CG  GLU D 570     -20.448  -5.559 -12.962  1.00 32.92     0.100 C 
BRANCH  16  17
ATOM     17  CD  GLU D 570     -21.696  -5.156 -13.713  1.00 32.92     0.185 C 
ATOM     18  OE1 GLU D 570     -21.677  -5.150 -14.959  1.00 32.92    -0.647 OA
ATOM     19  OE2 GLU D 570     -22.697  -4.825 -13.047  1.00 32.92    -0.647 OA
ENDBRANCH  16  17
ENDBRANCH  15  16
ENDBRANCH  14  15
END_RES GLU D 570
ENDMDL
