MODEL 1
REMARK VINA RESULT:      -8.6      0.000      0.000
REMARK  22 active torsions:
REMARK  status: ('A' for Active; 'I' for Inactive)
REMARK    1  A    between atoms: C_2  and  C_4 
REMARK    2  A    between atoms: C_4  and  C_5 
REMARK    3  A    between atoms: C_5  and  C_6 
REMARK    4  A    between atoms: C_6  and  C_7 
REMARK    5  A    between atoms: C_7  and  C_8 
REMARK    6  A    between atoms: C_8  and  C_9 
REMARK    7  A    between atoms: C_9  and  C_10 
REMARK    8  A    between atoms: C_10  and  C_11 
REMARK    9  A    between atoms: C_11  and  C_12 
REMARK   10  A    between atoms: C_12  and  C_13 
REMARK   11  A    between atoms: C_13  and  C_14 
REMARK   12  A    between atoms: C_14  and  C_15 
REMARK   13  A    between atoms: C_15  and  C_16 
REMARK   14  A    between atoms: C_16  and  C_17 
REMARK   15  A    between atoms: C_17  and  C_18 
REMARK   16  A    between atoms: C_18  and  O_20 
REMARK   17  A    between atoms: O_20  and  C_21 
REMARK   18  A    between atoms: C_21  and  C_22 
REMARK   19  A    between atoms: C_22  and  C_23 
REMARK   20  A    between atoms: C_22  and  O_31 
REMARK   21  A    between atoms: C_24  and  O_30 
REMARK   22  A    between atoms: C_25  and  O_29 
ROOT
HETATM    1  C   UNL     1     -21.328  -4.491  -8.135  1.00  0.00     0.111 C 
ENDROOT
BRANCH   1   2
HETATM    2  C   UNL     1     -20.141  -4.177  -7.229  1.00  0.00     0.010 C 
BRANCH   2   3
HETATM    3  C   UNL     1     -20.203  -4.911  -5.904  1.00  0.00     0.000 C 
BRANCH   3   4
HETATM    4  C   UNL     1     -20.954  -6.224  -6.093  1.00  0.00     0.000 C 
BRANCH   4   5
HETATM    5  C   UNL     1     -21.976  -6.412  -4.988  1.00  0.00     0.000 C 
BRANCH   5   6
HETATM    6  C   UNL     1     -21.579  -7.575  -4.095  1.00  0.00     0.000 C 
BRANCH   6   7
HETATM    7  C   UNL     1     -21.076  -7.053  -2.762  1.00  0.00     0.000 C 
BRANCH   7   8
HETATM    8  C   UNL     1     -22.204  -6.375  -2.008  1.00  0.00     0.000 C 
BRANCH   8   9
HETATM    9  C   UNL     1     -22.411  -7.054  -0.665  1.00  0.00     0.000 C 
BRANCH   9  10
HETATM   10  C   UNL     1     -21.278  -8.028  -0.404  1.00  0.00     0.000 C 
BRANCH  10  11
HETATM   11  C   UNL     1     -21.833  -9.346   0.097  1.00  0.00     0.000 C 
BRANCH  11  12
HETATM   12  C   UNL     1     -22.894  -9.862  -0.862  1.00  0.00     0.000 C 
BRANCH  12  13
HETATM   13  C   UNL     1     -23.794 -10.844  -0.134  1.00  0.00     0.000 C 
BRANCH  13  14
HETATM   14  C   UNL     1     -24.052 -12.085  -0.978  1.00  0.00     0.004 C 
BRANCH  14  15
HETATM   15  C   UNL     1     -23.453 -13.350  -0.346  1.00  0.00    -0.023 C 
HETATM   16  C   UNL     1     -23.313 -13.154   1.162  1.00  0.00     0.009 C 
HETATM   17  C   UNL     1     -24.299 -14.593  -0.634  1.00  0.00     0.009 C 
ENDBRANCH  14  15
ENDBRANCH  13  14
ENDBRANCH  12  13
ENDBRANCH  11  12
ENDBRANCH  10  11
ENDBRANCH   9  10
ENDBRANCH   8   9
ENDBRANCH   7   8
ENDBRANCH   6   7
ENDBRANCH   5   6
ENDBRANCH   4   5
ENDBRANCH   3   4
ENDBRANCH   2   3
ENDBRANCH   1   2
BRANCH   1  18
HETATM   18  C   UNL     1     -20.929  -4.375  -9.587  1.00  0.00     0.258 C 
HETATM   19  O   UNL     1     -19.935  -4.901 -10.070  1.00  0.00    -0.265 OA
BRANCH  18  20
HETATM   20  O   UNL     1     -21.769  -3.557 -10.281  1.00  0.00    -0.319 OA
BRANCH  20  21
HETATM   21  C   UNL     1     -23.154  -3.877 -10.091  1.00  0.00     0.213 C 
BRANCH  21  22
HETATM   22  C   UNL     1     -24.075  -3.106 -11.047  1.00  0.00     0.178 C 
BRANCH  22  23
HETATM   23  C   UNL     1     -24.044  -3.794 -12.430  1.00  0.00     0.222 C 
HETATM   24  C   UNL     1     -22.981  -3.347 -13.368  1.00  0.00     0.114 C 
HETATM   25  C   UNL     1     -23.493  -2.613 -14.347  1.00  0.00     0.173 C 
HETATM   26  C   UNL     1     -24.925  -2.518 -14.083  1.00  0.00     0.320 C 
HETATM   27  O   UNL     1     -25.696  -1.761 -14.624  1.00  0.00    -0.257 OA
HETATM   28  O   UNL     1     -25.248  -3.420 -13.117  1.00  0.00    -0.301 OA
BRANCH  24  29
HETATM   29  O   UNL     1     -21.671  -3.733 -13.274  1.00  0.00    -0.359 OA
HETATM   30  H   UNL     1     -21.662  -4.534 -12.722  1.00  0.00     0.217 HD
ENDBRANCH  24  29
BRANCH  25  31
HETATM   31  O   UNL     1     -22.859  -2.069 -15.414  1.00  0.00    -0.353 OA
HETATM   32  H   UNL     1     -21.955  -1.888 -15.096  1.00  0.00     0.218 HD
ENDBRANCH  25  31
ENDBRANCH  22  23
BRANCH  22  33
HETATM   33  O   UNL     1     -25.415  -3.099 -10.540  1.00  0.00    -0.390 OA
HETATM   34  H   UNL     1     -25.725  -2.180 -10.687  1.00  0.00     0.210 HD
ENDBRANCH  22  33
ENDBRANCH  21  22
ENDBRANCH  20  21
ENDBRANCH  18  20
ENDBRANCH   1  18
TORSDOF 22
BEGIN_RES ARG D 557
REMARK  4 active torsions:
REMARK  status: ('A' for Active; 'I' for Inactive)
REMARK    1  A    between atoms: CA   and  CB  
REMARK    2  A    between atoms: CB   and  CG  
REMARK    3  A    between atoms: CG   and  CD  
REMARK    4  A    between atoms: CD   and  NE  
REMARK       I    between atoms: NE   and  CZ  
REMARK       I    between atoms: CZ   and  NH1 
REMARK       I    between atoms: CZ   and  NH2 
ROOT
ATOM      1  CA  ARG D 557     -26.217   2.705 -17.014  1.00 35.49     0.159 C 
ENDROOT
BRANCH   1   2
ATOM      2  CB  ARG D 557     -26.789   1.319 -17.183  1.00 35.49     0.034 C 
BRANCH   2   3
ATOM      3  CG  ARG D 557     -28.227   1.227 -17.462  1.00 35.49     0.027 C 
BRANCH   3   4
ATOM      4  CD  ARG D 557     -28.918   0.282 -16.555  1.00 35.49     0.116 C 
BRANCH   4   5
ATOM      5  NE  ARG D 557     -28.146  -0.910 -16.323  1.00 35.49    -0.212 N 
ATOM      6  CZ  ARG D 557     -28.443  -2.115 -16.757  1.00 35.49     0.666 C 
ATOM      7  NH1 ARG D 557     -29.528  -2.366 -17.464  1.00 35.49    -0.235 N 
ATOM      8  NH2 ARG D 557     -27.615  -3.077 -16.470  1.00 35.49    -0.235 N 
ATOM      9  HH  ARG D 557     -30.086  -1.747 -17.667  1.00 35.49     0.174 HD
ATOM     10  HH  ARG D 557     -29.669  -3.171 -17.722  1.00 35.49     0.174 HD
ATOM     11  HH  ARG D 557     -26.918  -2.884 -16.017  1.00 35.49     0.174 HD
ATOM     12  HH  ARG D 557     -27.771  -3.867 -16.735  1.00 35.49     0.174 HD
ATOM     13  HE  ARG D 557     -27.467  -0.853 -15.814  1.00 35.49     0.178 HD
ENDBRANCH   4   5
ENDBRANCH   3   4
ENDBRANCH   2   3
ENDBRANCH   1   2
END_RES ARG D 557
BEGIN_RES GLU D 570
REMARK  3 active torsions:
REMARK  status: ('A' for Active; 'I' for Inactive)
REMARK    5  A    between atoms: CA   and  CB  
REMARK    6  A    between atoms: CB   and  CG  
REMARK    7  A    between atoms: CG   and  CD  
ROOT
ATOM     14  CA  GLU D 570     -18.033  -6.348 -13.375  1.00 32.92     0.160 C 
ENDROOT
BRANCH  14  15
ATOM     15  CB  GLU D 570     -19.500  -6.345 -13.794  1.00 32.92     0.043 C 
BRANCH  15  16
ATOM     16  CG  GLU D 570     -19.804  -6.054 -15.219  1.00 32.92     0.100 C 
BRANCH  16  17
ATOM     17  CD  GLU D 570     -21.264  -5.746 -15.459  1.00 32.92     0.185 C 
ATOM     18  OE1 GLU D 570     -22.130  -6.418 -14.865  1.00 32.92    -0.647 OA
ATOM     19  OE2 GLU D 570     -21.545  -4.834 -16.261  1.00 32.92    -0.647 OA
ENDBRANCH  16  17
ENDBRANCH  15  16
ENDBRANCH  14  15
END_RES GLU D 570
ENDMDL
MODEL 2
REMARK VINA RESULT:      -8.5      1.122      1.679
REMARK  22 active torsions:
REMARK  status: ('A' for Active; 'I' for Inactive)
REMARK    1  A    between atoms: C_2  and  C_4 
REMARK    2  A    between atoms: C_4  and  C_5 
REMARK    3  A    between atoms: C_5  and  C_6 
REMARK    4  A    between atoms: C_6  and  C_7 
REMARK    5  A    between atoms: C_7  and  C_8 
REMARK    6  A    between atoms: C_8  and  C_9 
REMARK    7  A    between atoms: C_9  and  C_10 
REMARK    8  A    between atoms: C_10  and  C_11 
REMARK    9  A    between atoms: C_11  and  C_12 
REMARK   10  A    between atoms: C_12  and  C_13 
REMARK   11  A    between atoms: C_13  and  C_14 
REMARK   12  A    between atoms: C_14  and  C_15 
REMARK   13  A    between atoms: C_15  and  C_16 
REMARK   14  A    between atoms: C_16  and  C_17 
REMARK   15  A    between atoms: C_17  and  C_18 
REMARK   16  A    between atoms: C_18  and  O_20 
REMARK   17  A    between atoms: O_20  and  C_21 
REMARK   18  A    between atoms: C_21  and  C_22 
REMARK   19  A    between atoms: C_22  and  C_23 
REMARK   20  A    between atoms: C_22  and  O_31 
REMARK   21  A    between atoms: C_24  and  O_30 
REMARK   22  A    between atoms: C_25  and  O_29 
ROOT
HETATM    1  C   UNL     1     -20.117  -4.523  -8.817  1.00  0.00     0.111 C 
ENDROOT
BRANCH   1   2
HETATM    2  C   UNL     1     -20.844  -3.886  -7.636  1.00  0.00     0.010 C 
BRANCH   2   3
HETATM    3  C   UNL     1     -21.576  -4.901  -6.779  1.00  0.00     0.000 C 
BRANCH   3   4
HETATM    4  C   UNL     1     -20.628  -6.045  -6.440  1.00  0.00     0.000 C 
BRANCH   4   5
HETATM    5  C   UNL     1     -21.330  -7.073  -5.571  1.00  0.00     0.000 C 
BRANCH   5   6
HETATM    6  C   UNL     1     -20.340  -8.120  -5.090  1.00  0.00     0.000 C 
BRANCH   6   7
HETATM    7  C   UNL     1     -20.481  -8.311  -3.590  1.00  0.00     0.000 C 
BRANCH   7   8
HETATM    8  C   UNL     1     -21.516  -7.349  -3.037  1.00  0.00     0.000 C 
BRANCH   8   9
HETATM    9  C   UNL     1     -21.242  -7.085  -1.567  1.00  0.00     0.000 C 
BRANCH   9  10
HETATM   10  C   UNL     1     -22.537  -7.168  -0.781  1.00  0.00     0.000 C 
BRANCH  10  11
HETATM   11  C   UNL     1     -22.307  -7.907   0.522  1.00  0.00     0.000 C 
BRANCH  11  12
HETATM   12  C   UNL     1     -21.103  -8.828   0.392  1.00  0.00     0.000 C 
BRANCH  12  13
HETATM   13  C   UNL     1     -21.573 -10.271   0.393  1.00  0.00     0.000 C 
BRANCH  13  14
HETATM   14  C   UNL     1     -21.537 -10.862  -1.010  1.00  0.00     0.004 C 
BRANCH  14  15
HETATM   15  C   UNL     1     -22.878 -10.700  -1.741  1.00  0.00    -0.023 C 
HETATM   16  C   UNL     1     -22.763 -11.263  -3.156  1.00  0.00     0.009 C 
HETATM   17  C   UNL     1     -24.025 -11.388  -0.997  1.00  0.00     0.009 C 
ENDBRANCH  14  15
ENDBRANCH  13  14
ENDBRANCH  12  13
ENDBRANCH  11  12
ENDBRANCH  10  11
ENDBRANCH   9  10
ENDBRANCH   8   9
ENDBRANCH   7   8
ENDBRANCH   6   7
ENDBRANCH   5   6
ENDBRANCH   4   5
ENDBRANCH   3   4
ENDBRANCH   2   3
ENDBRANCH   1   2
BRANCH   1  18
HETATM   18  C   UNL     1     -20.755  -4.105 -10.118  1.00  0.00     0.258 C 
HETATM   19  O   UNL     1     -20.225  -4.227 -11.215  1.00  0.00    -0.265 OA
BRANCH  18  20
HETATM   20  O   UNL     1     -21.966  -3.509  -9.923  1.00  0.00    -0.319 OA
BRANCH  20  21
HETATM   21  C   UNL     1     -23.040  -4.180 -10.595  1.00  0.00     0.213 C 
BRANCH  21  22
HETATM   22  C   UNL     1     -23.929  -3.218 -11.395  1.00  0.00     0.178 C 
BRANCH  22  23
HETATM   23  C   UNL     1     -24.047  -3.740 -12.844  1.00  0.00     0.222 C 
HETATM   24  C   UNL     1     -22.930  -3.399 -13.763  1.00  0.00     0.114 C 
HETATM   25  C   UNL     1     -23.303  -2.477 -14.640  1.00  0.00     0.173 C 
HETATM   26  C   UNL     1     -24.687  -2.142 -14.319  1.00  0.00     0.320 C 
HETATM   27  O   UNL     1     -25.305  -1.197 -14.749  1.00  0.00    -0.257 OA
HETATM   28  O   UNL     1     -25.165  -3.069 -13.446  1.00  0.00    -0.301 OA
BRANCH  24  29
HETATM   29  O   UNL     1     -21.717  -4.035 -13.756  1.00  0.00    -0.359 OA
HETATM   30  H   UNL     1     -21.155  -3.541 -13.133  1.00  0.00     0.217 HD
ENDBRANCH  24  29
BRANCH  25  31
HETATM   31  O   UNL     1     -22.589  -1.946 -15.663  1.00  0.00    -0.353 OA
HETATM   32  H   UNL     1     -23.212  -1.927 -16.412  1.00  0.00     0.218 HD
ENDBRANCH  25  31
ENDBRANCH  22  23
BRANCH  22  33
HETATM   33  O   UNL     1     -25.230  -3.141 -10.800  1.00  0.00    -0.390 OA
HETATM   34  H   UNL     1     -25.667  -3.979 -11.064  1.00  0.00     0.210 HD
ENDBRANCH  22  33
ENDBRANCH  21  22
ENDBRANCH  20  21
ENDBRANCH  18  20
ENDBRANCH   1  18
TORSDOF 22
BEGIN_RES ARG D 557
REMARK  4 active torsions:
REMARK  status: ('A' for Active; 'I' for Inactive)
REMARK    1  A    between atoms: CA   and  CB  
REMARK    2  A    between atoms: CB   and  CG  
REMARK    3  A    between atoms: CG   and  CD  
REMARK    4  A    between atoms: CD   and  NE  
REMARK       I    between atoms: NE   and  CZ  
REMARK       I    between atoms: CZ   and  NH1 
REMARK       I    between atoms: CZ   and  NH2 
ROOT
ATOM      1  CA  ARG D 557     -26.217   2.705 -17.014  1.00 35.49     0.159 C 
ENDROOT
BRANCH   1   2
ATOM      2  CB  ARG D 557     -26.789   1.319 -17.183  1.00 35.49     0.034 C 
BRANCH   2   3
ATOM      3  CG  ARG D 557     -28.239   1.224 -17.394  1.00 35.49     0.027 C 
BRANCH   3   4
ATOM      4  CD  ARG D 557     -28.884   0.277 -16.455  1.00 35.49     0.116 C 
BRANCH   4   5
ATOM      5  NE  ARG D 557     -29.317  -0.928 -17.113  1.00 35.49    -0.212 N 
ATOM      6  CZ  ARG D 557     -28.713  -2.093 -17.055  1.00 35.49     0.666 C 
ATOM      7  NH1 ARG D 557     -27.598  -2.281 -16.374  1.00 35.49    -0.235 N 
ATOM      8  NH2 ARG D 557     -29.259  -3.085 -17.697  1.00 35.49    -0.235 N 
ATOM      9  HH  ARG D 557     -27.222  -1.644 -15.942  1.00 35.49     0.174 HD
ATOM     10  HH  ARG D 557     -27.250  -3.065 -16.371  1.00 35.49     0.174 HD
ATOM     11  HH  ARG D 557     -29.983  -2.936 -18.122  1.00 35.49     0.174 HD
ATOM     12  HH  ARG D 557     -28.901  -3.853 -17.680  1.00 35.49     0.174 HD
ATOM     13  HE  ARG D 557     -29.988  -0.880 -17.633  1.00 35.49     0.178 HD
ENDBRANCH   4   5
ENDBRANCH   3   4
ENDBRANCH   2   3
ENDBRANCH   1   2
END_RES ARG D 557
BEGIN_RES GLU D 570
REMARK  3 active torsions:
REMARK  status: ('A' for Active; 'I' for Inactive)
REMARK    5  A    between atoms: CA   and  CB  
REMARK    6  A    between atoms: CB   and  CG  
REMARK    7  A    between atoms: CG   and  CD  
ROOT
ATOM     14  CA  GLU D 570     -18.033  -6.348 -13.375  1.00 32.92     0.160 C 
ENDROOT
BRANCH  14  15
ATOM     15  CB  GLU D 570     -19.500  -6.345 -13.794  1.00 32.92     0.043 C 
BRANCH  15  16
ATOM     16  CG  GLU D 570     -19.797  -6.443 -15.246  1.00 32.92     0.100 C 
BRANCH  16  17
ATOM     17  CD  GLU D 570     -21.083  -7.181 -15.536  1.00 32.92     0.185 C 
ATOM     18  OE1 GLU D 570     -22.158  -6.551 -15.527  1.00 32.92    -0.647 OA
ATOM     19  OE2 GLU D 570     -21.017  -8.406 -15.758  1.00 32.92    -0.647 OA
ENDBRANCH  16  17
ENDBRANCH  15  16
ENDBRANCH  14  15
END_RES GLU D 570
ENDMDL
MODEL 3
REMARK VINA RESULT:      -8.2      1.632      3.451
REMARK  22 active torsions:
REMARK  status: ('A' for Active; 'I' for Inactive)
REMARK    1  A    between atoms: C_2  and  C_4 
REMARK    2  A    between atoms: C_4  and  C_5 
REMARK    3  A    between atoms: C_5  and  C_6 
REMARK    4  A    between atoms: C_6  and  C_7 
REMARK    5  A    between atoms: C_7  and  C_8 
REMARK    6  A    between atoms: C_8  and  C_9 
REMARK    7  A    between atoms: C_9  and  C_10 
REMARK    8  A    between atoms: C_10  and  C_11 
REMARK    9  A    between atoms: C_11  and  C_12 
REMARK   10  A    between atoms: C_12  and  C_13 
REMARK   11  A    between atoms: C_13  and  C_14 
REMARK   12  A    between atoms: C_14  and  C_15 
REMARK   13  A    between atoms: C_15  and  C_16 
REMARK   14  A    between atoms: C_16  and  C_17 
REMARK   15  A    between atoms: C_17  and  C_18 
REMARK   16  A    between atoms: C_18  and  O_20 
REMARK   17  A    between atoms: O_20  and  C_21 
REMARK   18  A    between atoms: C_21  and  C_22 
REMARK   19  A    between atoms: C_22  and  C_23 
REMARK   20  A    between atoms: C_22  and  O_31 
REMARK   21  A    between atoms: C_24  and  O_30 
REMARK   22  A    between atoms: C_25  and  O_29 
ROOT
HETATM    1  C   UNL     1     -22.754  -3.760 -10.278  1.00  0.00     0.111 C 
ENDROOT
BRANCH   1   2
HETATM    2  C   UNL     1     -21.573  -4.421 -10.984  1.00  0.00     0.010 C 
BRANCH   2   3
HETATM    3  C   UNL     1     -20.252  -4.169 -10.282  1.00  0.00     0.000 C 
BRANCH   3   4
HETATM    4  C   UNL     1     -20.228  -4.944  -8.970  1.00  0.00     0.000 C 
BRANCH   4   5
HETATM    5  C   UNL     1     -19.782  -4.042  -7.833  1.00  0.00     0.000 C 
BRANCH   5   6
HETATM    6  C   UNL     1     -19.899  -4.772  -6.506  1.00  0.00     0.000 C 
BRANCH   6   7
HETATM    7  C   UNL     1     -20.758  -6.012  -6.674  1.00  0.00     0.000 C 
BRANCH   7   8
HETATM    8  C   UNL     1     -20.377  -7.055  -5.640  1.00  0.00     0.000 C 
BRANCH   8   9
HETATM    9  C   UNL     1     -21.584  -7.402  -4.787  1.00  0.00     0.000 C 
BRANCH   9  10
HETATM   10  C   UNL     1     -21.834  -6.298  -3.778  1.00  0.00     0.000 C 
BRANCH  10  11
HETATM   11  C   UNL     1     -21.230  -6.673  -2.439  1.00  0.00     0.000 C 
BRANCH  11  12
HETATM   12  C   UNL     1     -22.315  -6.720  -1.374  1.00  0.00     0.000 C 
BRANCH  12  13
HETATM   13  C   UNL     1     -21.893  -7.673  -0.270  1.00  0.00     0.000 C 
BRANCH  13  14
HETATM   14  C   UNL     1     -23.050  -8.567   0.157  1.00  0.00     0.004 C 
BRANCH  14  15
HETATM   15  C   UNL     1     -22.813 -10.038  -0.214  1.00  0.00    -0.023 C 
HETATM   16  C   UNL     1     -24.122 -10.815  -0.098  1.00  0.00     0.009 C 
HETATM   17  C   UNL     1     -22.240 -10.189  -1.626  1.00  0.00     0.009 C 
ENDBRANCH  14  15
ENDBRANCH  13  14
ENDBRANCH  12  13
ENDBRANCH  11  12
ENDBRANCH  10  11
ENDBRANCH   9  10
ENDBRANCH   8   9
ENDBRANCH   7   8
ENDBRANCH   6   7
ENDBRANCH   5   6
ENDBRANCH   4   5
ENDBRANCH   3   4
ENDBRANCH   2   3
ENDBRANCH   1   2
BRANCH   1  18
HETATM   18  C   UNL     1     -23.799  -3.337 -11.281  1.00  0.00     0.258 C 
HETATM   19  O   UNL     1     -24.979  -3.161 -11.011  1.00  0.00    -0.265 OA
BRANCH  18  20
HETATM   20  O   UNL     1     -23.287  -3.243 -12.541  1.00  0.00    -0.319 OA
BRANCH  20  21
HETATM   21  C   UNL     1     -24.077  -2.423 -13.412  1.00  0.00     0.213 C 
BRANCH  21  22
HETATM   22  C   UNL     1     -24.490  -3.153 -14.697  1.00  0.00     0.178 C 
BRANCH  22  23
HETATM   23  C   UNL     1     -25.088  -4.526 -14.318  1.00  0.00     0.222 C 
HETATM   24  C   UNL     1     -24.203  -5.706 -14.501  1.00  0.00     0.114 C 
HETATM   25  C   UNL     1     -24.590  -6.432 -15.542  1.00  0.00     0.173 C 
HETATM   26  C   UNL     1     -25.741  -5.743 -16.116  1.00  0.00     0.320 C 
HETATM   27  O   UNL     1     -26.239  -5.971 -17.193  1.00  0.00    -0.257 OA
HETATM   28  O   UNL     1     -26.159  -4.790 -15.238  1.00  0.00    -0.301 OA
BRANCH  24  29
HETATM   29  O   UNL     1     -23.191  -6.039 -13.641  1.00  0.00    -0.359 OA
HETATM   30  H   UNL     1     -23.235  -5.401 -12.908  1.00  0.00     0.217 HD
ENDBRANCH  24  29
BRANCH  25  31
HETATM   31  O   UNL     1     -24.073  -7.599 -15.997  1.00  0.00    -0.353 OA
HETATM   32  H   UNL     1     -23.273  -7.739 -15.457  1.00  0.00     0.218 HD
ENDBRANCH  25  31
ENDBRANCH  22  23
BRANCH  22  33
HETATM   33  O   UNL     1     -25.464  -2.381 -15.410  1.00  0.00    -0.390 OA
HETATM   34  H   UNL     1     -26.189  -3.015 -15.593  1.00  0.00     0.210 HD
ENDBRANCH  22  33
ENDBRANCH  21  22
ENDBRANCH  20  21
ENDBRANCH  18  20
ENDBRANCH   1  18
TORSDOF 22
BEGIN_RES ARG D 557
REMARK  4 active torsions:
REMARK  status: ('A' for Active; 'I' for Inactive)
REMARK    1  A    between atoms: CA   and  CB  
REMARK    2  A    between atoms: CB   and  CG  
REMARK    3  A    between atoms: CG   and  CD  
REMARK    4  A    between atoms: CD   and  NE  
REMARK       I    between atoms: NE   and  CZ  
REMARK       I    between atoms: CZ   and  NH1 
REMARK       I    between atoms: CZ   and  NH2 
ROOT
ATOM      1  CA  ARG D 557     -26.217   2.705 -17.014  1.00 35.49     0.159 C 
ENDROOT
BRANCH   1   2
ATOM      2  CB  ARG D 557     -26.789   1.319 -17.183  1.00 35.49     0.034 C 
BRANCH   2   3
ATOM      3  CG  ARG D 557     -28.233   1.226 -17.431  1.00 35.49     0.027 C 
BRANCH   3   4
ATOM      4  CD  ARG D 557     -28.902   0.270 -16.519  1.00 35.49     0.116 C 
BRANCH   4   5
ATOM      5  NE  ARG D 557     -28.240  -1.008 -16.492  1.00 35.49    -0.212 N 
ATOM      6  CZ  ARG D 557     -28.742  -2.141 -16.929  1.00 35.49     0.666 C 
ATOM      7  NH1 ARG D 557     -29.955  -2.229 -17.442  1.00 35.49    -0.235 N 
ATOM      8  NH2 ARG D 557     -27.992  -3.201 -16.846  1.00 35.49    -0.235 N 
ATOM      9  HH  ARG D 557     -30.465  -1.544 -17.509  1.00 35.49     0.174 HD
ATOM     10  HH  ARG D 557     -30.228  -2.995 -17.713  1.00 35.49     0.174 HD
ATOM     11  HH  ARG D 557     -27.210  -3.113 -16.516  1.00 35.49     0.174 HD
ATOM     12  HH  ARG D 557     -28.279  -3.950 -17.121  1.00 35.49     0.174 HD
ATOM     13  HE  ARG D 557     -27.482  -1.057 -16.111  1.00 35.49     0.178 HD
ENDBRANCH   4   5
ENDBRANCH   3   4
ENDBRANCH   2   3
ENDBRANCH   1   2
END_RES ARG D 557
BEGIN_RES GLU D 570
REMARK  3 active torsions:
REMARK  status: ('A' for Active; 'I' for Inactive)
REMARK    5  A    between atoms: CA   and  CB  
REMARK    6  A    between atoms: CB   and  CG  
REMARK    7  A    between atoms: CG   and  CD  
ROOT
ATOM     14  CA  GLU D 570     -18.033  -6.348 -13.375  1.00 32.92     0.160 C 
ENDROOT
BRANCH  14  15
ATOM     15  CB  GLU D 570     -19.500  -6.345 -13.794  1.00 32.92     0.043 C 
BRANCH  15  16
ATOM     16  CG  GLU D 570     -19.808  -6.000 -15.206  1.00 32.92     0.100 C 
BRANCH  16  17
ATOM     17  CD  GLU D 570     -20.809  -6.939 -15.837  1.00 32.92     0.185 C 
ATOM     18  OE1 GLU D 570     -21.262  -6.672 -16.967  1.00 32.92    -0.647 OA
ATOM     19  OE2 GLU D 570     -21.157  -7.945 -15.188  1.00 32.92    -0.647 OA
ENDBRANCH  16  17
ENDBRANCH  15  16
ENDBRANCH  14  15
END_RES GLU D 570
ENDMDL
MODEL 4
REMARK VINA RESULT:      -8.2      1.318      2.486
REMARK  22 active torsions:
REMARK  status: ('A' for Active; 'I' for Inactive)
REMARK    1  A    between atoms: C_2  and  C_4 
REMARK    2  A    between atoms: C_4  and  C_5 
REMARK    3  A    between atoms: C_5  and  C_6 
REMARK    4  A    between atoms: C_6  and  C_7 
REMARK    5  A    between atoms: C_7  and  C_8 
REMARK    6  A    between atoms: C_8  and  C_9 
REMARK    7  A    between atoms: C_9  and  C_10 
REMARK    8  A    between atoms: C_10  and  C_11 
REMARK    9  A    between atoms: C_11  and  C_12 
REMARK   10  A    between atoms: C_12  and  C_13 
REMARK   11  A    between atoms: C_13  and  C_14 
REMARK   12  A    between atoms: C_14  and  C_15 
REMARK   13  A    between atoms: C_15  and  C_16 
REMARK   14  A    between atoms: C_16  and  C_17 
REMARK   15  A    between atoms: C_17  and  C_18 
REMARK   16  A    between atoms: C_18  and  O_20 
REMARK   17  A    between atoms: O_20  and  C_21 
REMARK   18  A    between atoms: C_21  and  C_22 
REMARK   19  A    between atoms: C_22  and  C_23 
REMARK   20  A    between atoms: C_22  and  O_31 
REMARK   21  A    between atoms: C_24  and  O_30 
REMARK   22  A    between atoms: C_25  and  O_29 
ROOT
HETATM    1  C   UNL     1     -21.201  -3.805  -8.413  1.00  0.00     0.111 C 
ENDROOT
BRANCH   1   2
HETATM    2  C   UNL     1     -20.298  -4.990  -8.083  1.00  0.00     0.010 C 
BRANCH   2   3
HETATM    3  C   UNL     1     -19.908  -5.041  -6.618  1.00  0.00     0.000 C 
BRANCH   3   4
HETATM    4  C   UNL     1     -20.177  -6.440  -6.077  1.00  0.00     0.000 C 
BRANCH   4   5
HETATM    5  C   UNL     1     -21.604  -6.546  -5.572  1.00  0.00     0.000 C 
BRANCH   5   6
HETATM    6  C   UNL     1     -21.667  -7.454  -4.357  1.00  0.00     0.000 C 
BRANCH   6   7
HETATM    7  C   UNL     1     -20.539  -8.468  -4.413  1.00  0.00     0.000 C 
BRANCH   7   8
HETATM    8  C   UNL     1     -20.914  -9.711  -3.628  1.00  0.00     0.000 C 
BRANCH   8   9
HETATM    9  C   UNL     1     -22.290 -10.194  -4.052  1.00  0.00     0.000 C 
BRANCH   9  10
HETATM   10  C   UNL     1     -22.507 -11.614  -3.565  1.00  0.00     0.000 C 
BRANCH  10  11
HETATM   11  C   UNL     1     -22.456 -11.656  -2.051  1.00  0.00     0.000 C 
BRANCH  11  12
HETATM   12  C   UNL     1     -23.831 -11.354  -1.475  1.00  0.00     0.000 C 
BRANCH  12  13
HETATM   13  C   UNL     1     -23.677 -10.490  -0.236  1.00  0.00     0.000 C 
BRANCH  13  14
HETATM   14  C   UNL     1     -22.427  -9.624  -0.321  1.00  0.00     0.004 C 
BRANCH  14  15
HETATM   15  C   UNL     1     -22.671  -8.202   0.206  1.00  0.00    -0.023 C 
HETATM   16  C   UNL     1     -21.809  -7.958   1.443  1.00  0.00     0.009 C 
HETATM   17  C   UNL     1     -22.377  -7.137  -0.853  1.00  0.00     0.009 C 
ENDBRANCH  14  15
ENDBRANCH  13  14
ENDBRANCH  12  13
ENDBRANCH  11  12
ENDBRANCH  10  11
ENDBRANCH   9  10
ENDBRANCH   8   9
ENDBRANCH   7   8
ENDBRANCH   6   7
ENDBRANCH   5   6
ENDBRANCH   4   5
ENDBRANCH   3   4
ENDBRANCH   2   3
ENDBRANCH   1   2
BRANCH   1  18
HETATM   18  C   UNL     1     -22.647  -4.238  -8.450  1.00  0.00     0.258 C 
HETATM   19  O   UNL     1     -23.355  -4.353  -7.458  1.00  0.00    -0.265 OA
BRANCH  18  20
HETATM   20  O   UNL     1     -23.051  -4.553  -9.712  1.00  0.00    -0.319 OA
BRANCH  20  21
HETATM   21  C   UNL     1     -22.707  -3.554 -10.682  1.00  0.00     0.213 C 
BRANCH  21  22
HETATM   22  C   UNL     1     -23.937  -2.976 -11.395  1.00  0.00     0.178 C 
BRANCH  22  23
HETATM   23  C   UNL     1     -24.034  -3.603 -12.804  1.00  0.00     0.222 C 
HETATM   24  C   UNL     1     -22.918  -3.305 -13.739  1.00  0.00     0.114 C 
HETATM   25  C   UNL     1     -23.305  -2.456 -14.682  1.00  0.00     0.173 C 
HETATM   26  C   UNL     1     -24.697  -2.129 -14.393  1.00  0.00     0.320 C 
HETATM   27  O   UNL     1     -25.333  -1.231 -14.894  1.00  0.00    -0.257 OA
HETATM   28  O   UNL     1     -25.162  -3.001 -13.458  1.00  0.00    -0.301 OA
BRANCH  24  29
HETATM   29  O   UNL     1     -21.692  -3.912 -13.680  1.00  0.00    -0.359 OA
HETATM   30  H   UNL     1     -21.061  -3.223 -13.408  1.00  0.00     0.217 HD
ENDBRANCH  24  29
BRANCH  25  31
HETATM   31  O   UNL     1     -22.595  -1.985 -15.737  1.00  0.00    -0.353 OA
HETATM   32  H   UNL     1     -21.802  -1.584 -15.338  1.00  0.00     0.218 HD
ENDBRANCH  25  31
ENDBRANCH  22  23
BRANCH  22  33
HETATM   33  O   UNL     1     -25.124  -3.274 -10.649  1.00  0.00    -0.390 OA
HETATM   34  H   UNL     1     -25.681  -2.473 -10.751  1.00  0.00     0.210 HD
ENDBRANCH  22  33
ENDBRANCH  21  22
ENDBRANCH  20  21
ENDBRANCH  18  20
ENDBRANCH   1  18
TORSDOF 22
BEGIN_RES ARG D 557
REMARK  4 active torsions:
REMARK  status: ('A' for Active; 'I' for Inactive)
REMARK    1  A    between atoms: CA   and  CB  
REMARK    2  A    between atoms: CB   and  CG  
REMARK    3  A    between atoms: CG   and  CD  
REMARK    4  A    between atoms: CD   and  NE  
REMARK       I    between atoms: NE   and  CZ  
REMARK       I    between atoms: CZ   and  NH1 
REMARK       I    between atoms: CZ   and  NH2 
ROOT
ATOM      1  CA  ARG D 557     -26.217   2.705 -17.014  1.00 35.49     0.159 C 
ENDROOT
BRANCH   1   2
ATOM      2  CB  ARG D 557     -26.789   1.319 -17.183  1.00 35.49     0.034 C 
BRANCH   2   3
ATOM      3  CG  ARG D 557     -28.228   1.227 -17.461  1.00 35.49     0.027 C 
BRANCH   3   4
ATOM      4  CD  ARG D 557     -28.917   0.276 -16.559  1.00 35.49     0.116 C 
BRANCH   4   5
ATOM      5  NE  ARG D 557     -28.108  -0.878 -16.268  1.00 35.49    -0.212 N 
ATOM      6  CZ  ARG D 557     -28.325  -2.098 -16.705  1.00 35.49     0.666 C 
ATOM      7  NH1 ARG D 557     -29.355  -2.404 -17.473  1.00 35.49    -0.235 N 
ATOM      8  NH2 ARG D 557     -27.475  -3.021 -16.357  1.00 35.49    -0.235 N 
ATOM      9  HH  ARG D 557     -29.926  -1.813 -17.715  1.00 35.49     0.174 HD
ATOM     10  HH  ARG D 557     -29.444  -3.217 -17.729  1.00 35.49     0.174 HD
ATOM     11  HH  ARG D 557     -26.816  -2.793 -15.867  1.00 35.49     0.174 HD
ATOM     12  HH  ARG D 557     -27.580  -3.819 -16.623  1.00 35.49     0.174 HD
ATOM     13  HE  ARG D 557     -27.464  -0.786 -15.720  1.00 35.49     0.178 HD
ENDBRANCH   4   5
ENDBRANCH   3   4
ENDBRANCH   2   3
ENDBRANCH   1   2
END_RES ARG D 557
BEGIN_RES GLU D 570
REMARK  3 active torsions:
REMARK  status: ('A' for Active; 'I' for Inactive)
REMARK    5  A    between atoms: CA   and  CB  
REMARK    6  A    between atoms: CB   and  CG  
REMARK    7  A    between atoms: CG   and  CD  
ROOT
ATOM     14  CA  GLU D 570     -18.033  -6.348 -13.375  1.00 32.92     0.160 C 
ENDROOT
BRANCH  14  15
ATOM     15  CB  GLU D 570     -19.500  -6.345 -13.794  1.00 32.92     0.043 C 
BRANCH  15  16
ATOM     16  CG  GLU D 570     -20.075  -7.625 -14.284  1.00 32.92     0.100 C 
BRANCH  16  17
ATOM     17  CD  GLU D 570     -21.054  -7.435 -15.418  1.00 32.92     0.185 C 
ATOM     18  OE1 GLU D 570     -21.314  -8.401 -16.161  1.00 32.92    -0.647 OA
ATOM     19  OE2 GLU D 570     -21.555  -6.304 -15.575  1.00 32.92    -0.647 OA
ENDBRANCH  16  17
ENDBRANCH  15  16
ENDBRANCH  14  15
END_RES GLU D 570
ENDMDL
MODEL 5
REMARK VINA RESULT:      -8.2      2.810      5.039
REMARK  22 active torsions:
REMARK  status: ('A' for Active; 'I' for Inactive)
REMARK    1  A    between atoms: C_2  and  C_4 
REMARK    2  A    between atoms: C_4  and  C_5 
REMARK    3  A    between atoms: C_5  and  C_6 
REMARK    4  A    between atoms: C_6  and  C_7 
REMARK    5  A    between atoms: C_7  and  C_8 
REMARK    6  A    between atoms: C_8  and  C_9 
REMARK    7  A    between atoms: C_9  and  C_10 
REMARK    8  A    between atoms: C_10  and  C_11 
REMARK    9  A    between atoms: C_11  and  C_12 
REMARK   10  A    between atoms: C_12  and  C_13 
REMARK   11  A    between atoms: C_13  and  C_14 
REMARK   12  A    between atoms: C_14  and  C_15 
REMARK   13  A    between atoms: C_15  and  C_16 
REMARK   14  A    between atoms: C_16  and  C_17 
REMARK   15  A    between atoms: C_17  and  C_18 
REMARK   16  A    between atoms: C_18  and  O_20 
REMARK   17  A    between atoms: O_20  and  C_21 
REMARK   18  A    between atoms: C_21  and  C_22 
REMARK   19  A    between atoms: C_22  and  C_23 
REMARK   20  A    between atoms: C_22  and  O_31 
REMARK   21  A    between atoms: C_24  and  O_30 
REMARK   22  A    between atoms: C_25  and  O_29 
ROOT
HETATM    1  C   UNL     1     -23.395  -5.065 -12.731  1.00  0.00     0.111 C 
ENDROOT
BRANCH   1   2
HETATM    2  C   UNL     1     -22.960  -4.280 -11.497  1.00  0.00     0.010 C 
BRANCH   2   3
HETATM    3  C   UNL     1     -23.950  -4.386 -10.354  1.00  0.00     0.000 C 
BRANCH   3   4
HETATM    4  C   UNL     1     -23.244  -4.046  -9.047  1.00  0.00     0.000 C 
BRANCH   4   5
HETATM    5  C   UNL     1     -21.738  -4.077  -9.237  1.00  0.00     0.000 C 
BRANCH   5   6
HETATM    6  C   UNL     1     -21.040  -4.183  -7.892  1.00  0.00     0.000 C 
BRANCH   6   7
HETATM    7  C   UNL     1     -20.143  -5.408  -7.873  1.00  0.00     0.000 C 
BRANCH   7   8
HETATM    8  C   UNL     1     -19.840  -5.811  -6.442  1.00  0.00     0.000 C 
BRANCH   8   9
HETATM    9  C   UNL     1     -20.877  -5.214  -5.506  1.00  0.00     0.000 C 
BRANCH   9  10
HETATM   10  C   UNL     1     -21.759  -6.315  -4.950  1.00  0.00     0.000 C 
BRANCH  10  11
HETATM   11  C   UNL     1     -21.452  -6.533  -3.482  1.00  0.00     0.000 C 
BRANCH  11  12
HETATM   12  C   UNL     1     -20.661  -7.819  -3.300  1.00  0.00     0.000 C 
BRANCH  12  13
HETATM   13  C   UNL     1     -20.443  -8.070  -1.819  1.00  0.00     0.000 C 
BRANCH  13  14
HETATM   14  C   UNL     1     -21.718  -8.569  -1.152  1.00  0.00     0.004 C 
BRANCH  14  15
HETATM   15  C   UNL     1     -21.906  -7.978   0.253  1.00  0.00    -0.023 C 
HETATM   16  C   UNL     1     -23.378  -8.058   0.652  1.00  0.00     0.009 C 
HETATM   17  C   UNL     1     -21.044  -8.693   1.297  1.00  0.00     0.009 C 
ENDBRANCH  14  15
ENDBRANCH  13  14
ENDBRANCH  12  13
ENDBRANCH  11  12
ENDBRANCH  10  11
ENDBRANCH   9  10
ENDBRANCH   8   9
ENDBRANCH   7   8
ENDBRANCH   6   7
ENDBRANCH   5   6
ENDBRANCH   4   5
ENDBRANCH   3   4
ENDBRANCH   2   3
ENDBRANCH   1   2
BRANCH   1  18
HETATM   18  C   UNL     1     -23.847  -4.125 -13.823  1.00  0.00     0.258 C 
HETATM   19  O   UNL     1     -24.029  -2.925 -13.664  1.00  0.00    -0.265 OA
BRANCH  18  20
HETATM   20  O   UNL     1     -24.098  -4.784 -14.989  1.00  0.00    -0.319 OA
BRANCH  20  21
HETATM   21  C   UNL     1     -24.174  -6.207 -14.830  1.00  0.00     0.213 C 
BRANCH  21  22
HETATM   22  C   UNL     1     -25.050  -6.875 -15.898  1.00  0.00     0.178 C 
BRANCH  22  23
HETATM   23  C   UNL     1     -26.428  -6.178 -15.917  1.00  0.00     0.222 C 
HETATM   24  C   UNL     1     -27.619  -7.065 -15.877  1.00  0.00     0.114 C 
HETATM   25  C   UNL     1     -28.225  -7.099 -17.057  1.00  0.00     0.173 C 
HETATM   26  C   UNL     1     -27.438  -6.249 -17.945  1.00  0.00     0.320 C 
HETATM   27  O   UNL     1     -27.541  -6.193 -19.148  1.00  0.00    -0.257 OA
HETATM   28  O   UNL     1     -26.559  -5.532 -17.193  1.00  0.00    -0.301 OA
BRANCH  24  29
HETATM   29  O   UNL     1     -28.074  -7.680 -14.741  1.00  0.00    -0.359 OA
HETATM   30  H   UNL     1     -28.749  -7.089 -14.363  1.00  0.00     0.217 HD
ENDBRANCH  24  29
BRANCH  25  31
HETATM   31  O   UNL     1     -29.362  -7.749 -17.405  1.00  0.00    -0.353 OA
HETATM   32  H   UNL     1     -30.064  -7.078 -17.316  1.00  0.00     0.218 HD
ENDBRANCH  25  31
ENDBRANCH  22  23
BRANCH  22  33
HETATM   33  O   UNL     1     -24.431  -6.758 -17.185  1.00  0.00    -0.390 OA
HETATM   34  H   UNL     1     -24.878  -7.439 -17.732  1.00  0.00     0.210 HD
ENDBRANCH  22  33
ENDBRANCH  21  22
ENDBRANCH  20  21
ENDBRANCH  18  20
ENDBRANCH   1  18
TORSDOF 22
BEGIN_RES ARG D 557
REMARK  4 active torsions:
REMARK  status: ('A' for Active; 'I' for Inactive)
REMARK    1  A    between atoms: CA   and  CB  
REMARK    2  A    between atoms: CB   and  CG  
REMARK    3  A    between atoms: CG   and  CD  
REMARK    4  A    between atoms: CD   and  NE  
REMARK       I    between atoms: NE   and  CZ  
REMARK       I    between atoms: CZ   and  NH1 
REMARK       I    between atoms: CZ   and  NH2 
ROOT
ATOM      1  CA  ARG D 557     -26.217   2.705 -17.014  1.00 35.49     0.159 C 
ENDROOT
BRANCH   1   2
ATOM      2  CB  ARG D 557     -26.789   1.319 -17.183  1.00 35.49     0.034 C 
BRANCH   2   3
ATOM      3  CG  ARG D 557     -28.228   1.164 -16.939  1.00 35.49     0.027 C 
BRANCH   3   4
ATOM      4  CD  ARG D 557     -28.628  -0.256 -16.802  1.00 35.49     0.116 C 
BRANCH   4   5
ATOM      5  NE  ARG D 557     -27.646  -1.029 -16.089  1.00 35.49    -0.212 N 
ATOM      6  CZ  ARG D 557     -27.514  -2.336 -16.138  1.00 35.49     0.666 C 
ATOM      7  NH1 ARG D 557     -28.308  -3.102 -16.863  1.00 35.49    -0.235 N 
ATOM      8  NH2 ARG D 557     -26.552  -2.869 -15.442  1.00 35.49    -0.235 N 
ATOM      9  HH  ARG D 557     -28.946  -2.773 -17.331  1.00 35.49     0.174 HD
ATOM     10  HH  ARG D 557     -28.172  -3.948 -16.858  1.00 35.49     0.174 HD
ATOM     11  HH  ARG D 557     -26.050  -2.349 -14.989  1.00 35.49     0.174 HD
ATOM     12  HH  ARG D 557     -26.433  -3.708 -15.451  1.00 35.49     0.174 HD
ATOM     13  HE  ARG D 557     -27.138  -0.623 -15.541  1.00 35.49     0.178 HD
ENDBRANCH   4   5
ENDBRANCH   3   4
ENDBRANCH   2   3
ENDBRANCH   1   2
END_RES ARG D 557
BEGIN_RES GLU D 570
REMARK  3 active torsions:
REMARK  status: ('A' for Active; 'I' for Inactive)
REMARK    5  A    between atoms: CA   and  CB  
REMARK    6  A    between atoms: CB   and  CG  
REMARK    7  A    between atoms: CG   and  CD  
ROOT
ATOM     14  CA  GLU D 570     -18.033  -6.348 -13.375  1.00 32.92     0.160 C 
ENDROOT
BRANCH  14  15
ATOM     15  CB  GLU D 570     -19.500  -6.345 -13.794  1.00 32.92     0.043 C 
BRANCH  15  16
ATOM     16  CG  GLU D 570     -19.806  -6.031 -15.214  1.00 32.92     0.100 C 
BRANCH  16  17
ATOM     17  CD  GLU D 570     -20.693  -7.065 -15.868  1.00 32.92     0.185 C 
ATOM     18  OE1 GLU D 570     -21.357  -6.744 -16.872  1.00 32.92    -0.647 OA
ATOM     19  OE2 GLU D 570     -20.738  -8.203 -15.360  1.00 32.92    -0.647 OA
ENDBRANCH  16  17
ENDBRANCH  15  16
ENDBRANCH  14  15
END_RES GLU D 570
ENDMDL
MODEL 6
REMARK VINA RESULT:      -8.1      2.822      5.080
REMARK  22 active torsions:
REMARK  status: ('A' for Active; 'I' for Inactive)
REMARK    1  A    between atoms: C_2  and  C_4 
REMARK    2  A    between atoms: C_4  and  C_5 
REMARK    3  A    between atoms: C_5  and  C_6 
REMARK    4  A    between atoms: C_6  and  C_7 
REMARK    5  A    between atoms: C_7  and  C_8 
REMARK    6  A    between atoms: C_8  and  C_9 
REMARK    7  A    between atoms: C_9  and  C_10 
REMARK    8  A    between atoms: C_10  and  C_11 
REMARK    9  A    between atoms: C_11  and  C_12 
REMARK   10  A    between atoms: C_12  and  C_13 
REMARK   11  A    between atoms: C_13  and  C_14 
REMARK   12  A    between atoms: C_14  and  C_15 
REMARK   13  A    between atoms: C_15  and  C_16 
REMARK   14  A    between atoms: C_16  and  C_17 
REMARK   15  A    between atoms: C_17  and  C_18 
REMARK   16  A    between atoms: C_18  and  O_20 
REMARK   17  A    between atoms: O_20  and  C_21 
REMARK   18  A    between atoms: C_21  and  C_22 
REMARK   19  A    between atoms: C_22  and  C_23 
REMARK   20  A    between atoms: C_22  and  O_31 
REMARK   21  A    between atoms: C_24  and  O_30 
REMARK   22  A    between atoms: C_25  and  O_29 
ROOT
HETATM    1  C   UNL     1     -23.385  -5.408 -12.350  1.00  0.00     0.111 C 
ENDROOT
BRANCH   1   2
HETATM    2  C   UNL     1     -22.235  -4.581 -11.780  1.00  0.00     0.010 C 
BRANCH   2   3
HETATM    3  C   UNL     1     -22.657  -3.722 -10.603  1.00  0.00     0.000 C 
BRANCH   3   4
HETATM    4  C   UNL     1     -22.013  -4.262  -9.332  1.00  0.00     0.000 C 
BRANCH   4   5
HETATM    5  C   UNL     1     -20.514  -4.406  -9.520  1.00  0.00     0.000 C 
BRANCH   5   6
HETATM    6  C   UNL     1     -19.821  -4.508  -8.172  1.00  0.00     0.000 C 
BRANCH   6   7
HETATM    7  C   UNL     1     -20.828  -4.284  -7.058  1.00  0.00     0.000 C 
BRANCH   7   8
HETATM    8  C   UNL     1     -20.223  -4.674  -5.722  1.00  0.00     0.000 C 
BRANCH   8   9
HETATM    9  C   UNL     1     -20.327  -6.176  -5.526  1.00  0.00     0.000 C 
BRANCH   9  10
HETATM   10  C   UNL     1     -21.758  -6.552  -5.194  1.00  0.00     0.000 C 
BRANCH  10  11
HETATM   11  C   UNL     1     -21.820  -7.203  -3.827  1.00  0.00     0.000 C 
BRANCH  11  12
HETATM   12  C   UNL     1     -21.744  -6.140  -2.741  1.00  0.00     0.000 C 
BRANCH  12  13
HETATM   13  C   UNL     1     -21.972  -6.789  -1.387  1.00  0.00     0.000 C 
BRANCH  13  14
HETATM   14  C   UNL     1     -21.386  -8.194  -1.345  1.00  0.00     0.004 C 
BRANCH  14  15
HETATM   15  C   UNL     1     -21.835  -8.971  -0.098  1.00  0.00    -0.023 C 
HETATM   16  C   UNL     1     -22.108  -7.994   1.044  1.00  0.00     0.009 C 
HETATM   17  C   UNL     1     -23.078  -9.821  -0.367  1.00  0.00     0.009 C 
ENDBRANCH  14  15
ENDBRANCH  13  14
ENDBRANCH  12  13
ENDBRANCH  11  12
ENDBRANCH  10  11
ENDBRANCH   9  10
ENDBRANCH   8   9
ENDBRANCH   7   8
ENDBRANCH   6   7
ENDBRANCH   5   6
ENDBRANCH   4   5
ENDBRANCH   3   4
ENDBRANCH   2   3
ENDBRANCH   1   2
BRANCH   1  18
HETATM   18  C   UNL     1     -23.313  -5.442 -13.857  1.00  0.00     0.258 C 
HETATM   19  O   UNL     1     -22.580  -4.726 -14.526  1.00  0.00    -0.265 OA
BRANCH  18  20
HETATM   20  O   UNL     1     -24.212  -6.316 -14.390  1.00  0.00    -0.319 OA
BRANCH  20  21
HETATM   21  C   UNL     1     -25.103  -5.706 -15.333  1.00  0.00     0.213 C 
BRANCH  21  22
HETATM   22  C   UNL     1     -25.903  -6.735 -16.142  1.00  0.00     0.178 C 
BRANCH  22  23
HETATM   23  C   UNL     1     -27.408  -6.416 -16.001  1.00  0.00     0.222 C 
HETATM   24  C   UNL     1     -28.190  -6.344 -17.263  1.00  0.00     0.114 C 
HETATM   25  C   UNL     1     -28.504  -5.088 -17.553  1.00  0.00     0.173 C 
HETATM   26  C   UNL     1     -27.916  -4.265 -16.502  1.00  0.00     0.320 C 
HETATM   27  O   UNL     1     -27.798  -3.062 -16.526  1.00  0.00    -0.257 OA
HETATM   28  O   UNL     1     -27.512  -5.079 -15.489  1.00  0.00    -0.301 OA
BRANCH  24  29
HETATM   29  O   UNL     1     -28.606  -7.442 -17.966  1.00  0.00    -0.359 OA
HETATM   30  H   UNL     1     -27.799  -7.894 -18.267  1.00  0.00     0.217 HD
ENDBRANCH  24  29
BRANCH  25  31
HETATM   31  O   UNL     1     -29.247  -4.621 -18.586  1.00  0.00    -0.353 OA
HETATM   32  H   UNL     1     -30.111  -4.408 -18.189  1.00  0.00     0.218 HD
ENDBRANCH  25  31
ENDBRANCH  22  23
BRANCH  22  33
HETATM   33  O   UNL     1     -25.523  -6.679 -17.523  1.00  0.00    -0.390 OA
HETATM   34  H   UNL     1     -24.572  -6.439 -17.502  1.00  0.00     0.210 HD
ENDBRANCH  22  33
ENDBRANCH  21  22
ENDBRANCH  20  21
ENDBRANCH  18  20
ENDBRANCH   1  18
TORSDOF 22
BEGIN_RES ARG D 557
REMARK  4 active torsions:
REMARK  status: ('A' for Active; 'I' for Inactive)
REMARK    1  A    between atoms: CA   and  CB  
REMARK    2  A    between atoms: CB   and  CG  
REMARK    3  A    between atoms: CG   and  CD  
REMARK    4  A    between atoms: CD   and  NE  
REMARK       I    between atoms: NE   and  CZ  
REMARK       I    between atoms: CZ   and  NH1 
REMARK       I    between atoms: CZ   and  NH2 
ROOT
ATOM      1  CA  ARG D 557     -26.217   2.705 -17.014  1.00 35.49     0.159 C 
ENDROOT
BRANCH   1   2
ATOM      2  CB  ARG D 557     -26.789   1.319 -17.183  1.00 35.49     0.034 C 
BRANCH   2   3
ATOM      3  CG  ARG D 557     -25.860   0.195 -17.013  1.00 35.49     0.027 C 
BRANCH   3   4
ATOM      4  CD  ARG D 557     -26.185  -0.632 -15.829  1.00 35.49     0.116 C 
BRANCH   4   5
ATOM      5  NE  ARG D 557     -25.029  -0.888 -15.011  1.00 35.49    -0.212 N 
ATOM      6  CZ  ARG D 557     -24.880  -1.899 -14.186  1.00 35.49     0.666 C 
ATOM      7  NH1 ARG D 557     -25.818  -2.811 -14.006  1.00 35.49    -0.235 N 
ATOM      8  NH2 ARG D 557     -23.754  -1.986 -13.539  1.00 35.49    -0.235 N 
ATOM      9  HH  ARG D 557     -26.565  -2.775 -14.423  1.00 35.49     0.174 HD
ATOM     10  HH  ARG D 557     -25.664  -3.450 -13.456  1.00 35.49     0.174 HD
ATOM     11  HH  ARG D 557     -23.164  -1.386 -13.681  1.00 35.49     0.174 HD
ATOM     12  HH  ARG D 557     -23.620  -2.627 -13.000  1.00 35.49     0.174 HD
ATOM     13  HE  ARG D 557     -24.405  -0.310 -15.010  1.00 35.49     0.178 HD
ENDBRANCH   4   5
ENDBRANCH   3   4
ENDBRANCH   2   3
ENDBRANCH   1   2
END_RES ARG D 557
BEGIN_RES GLU D 570
REMARK  3 active torsions:
REMARK  status: ('A' for Active; 'I' for Inactive)
REMARK    5  A    between atoms: CA   and  CB  
REMARK    6  A    between atoms: CB   and  CG  
REMARK    7  A    between atoms: CG   and  CD  
ROOT
ATOM     14  CA  GLU D 570     -18.033  -6.348 -13.375  1.00 32.92     0.160 C 
ENDROOT
BRANCH  14  15
ATOM     15  CB  GLU D 570     -19.500  -6.345 -13.794  1.00 32.92     0.043 C 
BRANCH  15  16
ATOM     16  CG  GLU D 570     -20.111  -7.650 -14.155  1.00 32.92     0.100 C 
BRANCH  16  17
ATOM     17  CD  GLU D 570     -20.674  -7.669 -15.557  1.00 32.92     0.185 C 
ATOM     18  OE1 GLU D 570     -20.611  -6.635 -16.249  1.00 32.92    -0.647 OA
ATOM     19  OE2 GLU D 570     -21.199  -8.725 -15.963  1.00 32.92    -0.647 OA
ENDBRANCH  16  17
ENDBRANCH  15  16
ENDBRANCH  14  15
END_RES GLU D 570
ENDMDL
MODEL 7
REMARK VINA RESULT:      -8.1      1.527      2.675
REMARK  22 active torsions:
REMARK  status: ('A' for Active; 'I' for Inactive)
REMARK    1  A    between atoms: C_2  and  C_4 
REMARK    2  A    between atoms: C_4  and  C_5 
REMARK    3  A    between atoms: C_5  and  C_6 
REMARK    4  A    between atoms: C_6  and  C_7 
REMARK    5  A    between atoms: C_7  and  C_8 
REMARK    6  A    between atoms: C_8  and  C_9 
REMARK    7  A    between atoms: C_9  and  C_10 
REMARK    8  A    between atoms: C_10  and  C_11 
REMARK    9  A    between atoms: C_11  and  C_12 
REMARK   10  A    between atoms: C_12  and  C_13 
REMARK   11  A    between atoms: C_13  and  C_14 
REMARK   12  A    between atoms: C_14  and  C_15 
REMARK   13  A    between atoms: C_15  and  C_16 
REMARK   14  A    between atoms: C_16  and  C_17 
REMARK   15  A    between atoms: C_17  and  C_18 
REMARK   16  A    between atoms: C_18  and  O_20 
REMARK   17  A    between atoms: O_20  and  C_21 
REMARK   18  A    between atoms: C_21  and  C_22 
REMARK   19  A    between atoms: C_22  and  C_23 
REMARK   20  A    between atoms: C_22  and  O_31 
REMARK   21  A    between atoms: C_24  and  O_30 
REMARK   22  A    between atoms: C_25  and  O_29 
ROOT
HETATM    1  C   UNL     1     -19.802  -3.699  -8.301  1.00  0.00     0.111 C 
ENDROOT
BRANCH   1   2
HETATM    2  C   UNL     1     -19.540  -4.827  -7.307  1.00  0.00     0.010 C 
BRANCH   2   3
HETATM    3  C   UNL     1     -20.469  -4.782  -6.109  1.00  0.00     0.000 C 
BRANCH   3   4
HETATM    4  C   UNL     1     -21.301  -6.059  -6.072  1.00  0.00     0.000 C 
BRANCH   4   5
HETATM    5  C   UNL     1     -21.696  -6.390  -4.645  1.00  0.00     0.000 C 
BRANCH   5   6
HETATM    6  C   UNL     1     -21.437  -7.859  -4.354  1.00  0.00     0.000 C 
BRANCH   6   7
HETATM    7  C   UNL     1     -20.045  -8.239  -4.826  1.00  0.00     0.000 C 
BRANCH   7   8
HETATM    8  C   UNL     1     -19.456  -9.298  -3.913  1.00  0.00     0.000 C 
BRANCH   8   9
HETATM    9  C   UNL     1     -19.684  -8.914  -2.462  1.00  0.00     0.000 C 
BRANCH   9  10
HETATM   10  C   UNL     1     -20.091 -10.140  -1.666  1.00  0.00     0.000 C 
BRANCH  10  11
HETATM   11  C   UNL     1     -21.120 -10.941  -2.437  1.00  0.00     0.000 C 
BRANCH  11  12
HETATM   12  C   UNL     1     -22.507 -10.697  -1.863  1.00  0.00     0.000 C 
BRANCH  12  13
HETATM   13  C   UNL     1     -22.389 -10.377  -0.384  1.00  0.00     0.000 C 
BRANCH  13  14
HETATM   14  C   UNL     1     -23.386  -9.303   0.029  1.00  0.00     0.004 C 
BRANCH  14  15
HETATM   15  C   UNL     1     -22.692  -8.003   0.460  1.00  0.00    -0.023 C 
HETATM   16  C   UNL     1     -21.399  -8.333   1.202  1.00  0.00     0.009 C 
HETATM   17  C   UNL     1     -22.391  -7.090  -0.732  1.00  0.00     0.009 C 
ENDBRANCH  14  15
ENDBRANCH  13  14
ENDBRANCH  12  13
ENDBRANCH  11  12
ENDBRANCH  10  11
ENDBRANCH   9  10
ENDBRANCH   8   9
ENDBRANCH   7   8
ENDBRANCH   6   7
ENDBRANCH   5   6
ENDBRANCH   4   5
ENDBRANCH   3   4
ENDBRANCH   2   3
ENDBRANCH   1   2
BRANCH   1  18
HETATM   18  C   UNL     1     -20.472  -4.234  -9.543  1.00  0.00     0.258 C 
HETATM   19  O   UNL     1     -19.928  -4.974 -10.352  1.00  0.00    -0.265 OA
BRANCH  18  20
HETATM   20  O   UNL     1     -21.733  -3.740  -9.694  1.00  0.00    -0.319 OA
BRANCH  20  21
HETATM   21  C   UNL     1     -22.336  -4.104 -10.943  1.00  0.00     0.213 C 
BRANCH  21  22
HETATM   22  C   UNL     1     -23.108  -2.944 -11.586  1.00  0.00     0.178 C 
BRANCH  22  23
HETATM   23  C   UNL     1     -22.975  -3.049 -13.121  1.00  0.00     0.222 C 
HETATM   24  C   UNL     1     -24.224  -2.875 -13.907  1.00  0.00     0.114 C 
HETATM   25  C   UNL     1     -24.635  -4.034 -14.406  1.00  0.00     0.173 C 
HETATM   26  C   UNL     1     -23.683  -5.039 -13.944  1.00  0.00     0.320 C 
HETATM   27  O   UNL     1     -23.831  -6.237 -14.007  1.00  0.00    -0.257 OA
HETATM   28  O   UNL     1     -22.600  -4.403 -13.422  1.00  0.00    -0.301 OA
BRANCH  24  29
HETATM   29  O   UNL     1     -24.804  -1.661 -14.156  1.00  0.00    -0.359 OA
HETATM   30  H   UNL     1     -25.152  -1.345 -13.304  1.00  0.00     0.217 HD
ENDBRANCH  24  29
BRANCH  25  31
HETATM   31  O   UNL     1     -25.697  -4.277 -15.211  1.00  0.00    -0.353 OA
HETATM   32  H   UNL     1     -26.192  -4.983 -14.756  1.00  0.00     0.218 HD
ENDBRANCH  25  31
ENDBRANCH  22  23
BRANCH  22  33
HETATM   33  O   UNL     1     -24.491  -3.007 -11.214  1.00  0.00    -0.390 OA
HETATM   34  H   UNL     1     -24.958  -3.209 -12.053  1.00  0.00     0.210 HD
ENDBRANCH  22  33
ENDBRANCH  21  22
ENDBRANCH  20  21
ENDBRANCH  18  20
ENDBRANCH   1  18
TORSDOF 22
BEGIN_RES ARG D 557
REMARK  4 active torsions:
REMARK  status: ('A' for Active; 'I' for Inactive)
REMARK    1  A    between atoms: CA   and  CB  
REMARK    2  A    between atoms: CB   and  CG  
REMARK    3  A    between atoms: CG   and  CD  
REMARK    4  A    between atoms: CD   and  NE  
REMARK       I    between atoms: NE   and  CZ  
REMARK       I    between atoms: CZ   and  NH1 
REMARK       I    between atoms: CZ   and  NH2 
ROOT
ATOM      1  CA  ARG D 557     -26.217   2.705 -17.014  1.00 35.49     0.159 C 
ENDROOT
BRANCH   1   2
ATOM      2  CB  ARG D 557     -26.789   1.319 -17.183  1.00 35.49     0.034 C 
BRANCH   2   3
ATOM      3  CG  ARG D 557     -28.228   1.227 -17.456  1.00 35.49     0.027 C 
BRANCH   3   4
ATOM      4  CD  ARG D 557     -28.923   0.314 -16.520  1.00 35.49     0.116 C 
BRANCH   4   5
ATOM      5  NE  ARG D 557     -29.216  -0.960 -17.123  1.00 35.49    -0.212 N 
ATOM      6  CZ  ARG D 557     -28.524  -2.065 -16.958  1.00 35.49     0.666 C 
ATOM      7  NH1 ARG D 557     -27.440  -2.117 -16.207  1.00 35.49    -0.235 N 
ATOM      8  NH2 ARG D 557     -28.948  -3.135 -17.566  1.00 35.49    -0.235 N 
ATOM      9  HH  ARG D 557     -27.144  -1.426 -15.796  1.00 35.49     0.174 HD
ATOM     10  HH  ARG D 557     -27.030  -2.867 -16.134  1.00 35.49     0.174 HD
ATOM     11  HH  ARG D 557     -29.655  -3.073 -18.039  1.00 35.49     0.174 HD
ATOM     12  HH  ARG D 557     -28.530  -3.868 -17.481  1.00 35.49     0.174 HD
ATOM     13  HE  ARG D 557     -29.857  -1.000 -17.681  1.00 35.49     0.178 HD
ENDBRANCH   4   5
ENDBRANCH   3   4
ENDBRANCH   2   3
ENDBRANCH   1   2
END_RES ARG D 557
BEGIN_RES GLU D 570
REMARK  3 active torsions:
REMARK  status: ('A' for Active; 'I' for Inactive)
REMARK    5  A    between atoms: CA   and  CB  
REMARK    6  A    between atoms: CB   and  CG  
REMARK    7  A    between atoms: CG   and  CD  
ROOT
ATOM     14  CA  GLU D 570     -18.033  -6.348 -13.375  1.00 32.92     0.160 C 
ENDROOT
BRANCH  14  15
ATOM     15  CB  GLU D 570     -19.500  -6.345 -13.794  1.00 32.92     0.043 C 
BRANCH  15  16
ATOM     16  CG  GLU D 570     -19.803  -6.076 -15.223  1.00 32.92     0.100 C 
BRANCH  16  17
ATOM     17  CD  GLU D 570     -20.816  -7.036 -15.802  1.00 32.92     0.185 C 
ATOM     18  OE1 GLU D 570     -20.782  -8.233 -15.456  1.00 32.92    -0.647 OA
ATOM     19  OE2 GLU D 570     -21.642  -6.590 -16.623  1.00 32.92    -0.647 OA
ENDBRANCH  16  17
ENDBRANCH  15  16
ENDBRANCH  14  15
END_RES GLU D 570
ENDMDL
MODEL 8
REMARK VINA RESULT:      -7.9      2.441      4.251
REMARK  22 active torsions:
REMARK  status: ('A' for Active; 'I' for Inactive)
REMARK    1  A    between atoms: C_2  and  C_4 
REMARK    2  A    between atoms: C_4  and  C_5 
REMARK    3  A    between atoms: C_5  and  C_6 
REMARK    4  A    between atoms: C_6  and  C_7 
REMARK    5  A    between atoms: C_7  and  C_8 
REMARK    6  A    between atoms: C_8  and  C_9 
REMARK    7  A    between atoms: C_9  and  C_10 
REMARK    8  A    between atoms: C_10  and  C_11 
REMARK    9  A    between atoms: C_11  and  C_12 
REMARK   10  A    between atoms: C_12  and  C_13 
REMARK   11  A    between atoms: C_13  and  C_14 
REMARK   12  A    between atoms: C_14  and  C_15 
REMARK   13  A    between atoms: C_15  and  C_16 
REMARK   14  A    between atoms: C_16  and  C_17 
REMARK   15  A    between atoms: C_17  and  C_18 
REMARK   16  A    between atoms: C_18  and  O_20 
REMARK   17  A    between atoms: O_20  and  C_21 
REMARK   18  A    between atoms: C_21  and  C_22 
REMARK   19  A    between atoms: C_22  and  C_23 
REMARK   20  A    between atoms: C_22  and  O_31 
REMARK   21  A    between atoms: C_24  and  O_30 
REMARK   22  A    between atoms: C_25  and  O_29 
ROOT
HETATM    1  C   UNL     1     -21.972  -6.397  -4.796  1.00  0.00     0.111 C 
ENDROOT
BRANCH   1   2
HETATM    2  C   UNL     1     -21.294  -5.968  -3.498  1.00  0.00     0.010 C 
BRANCH   2   3
HETATM    3  C   UNL     1     -21.274  -7.068  -2.454  1.00  0.00     0.000 C 
BRANCH   3   4
HETATM    4  C   UNL     1     -22.302  -6.752  -1.374  1.00  0.00     0.000 C 
BRANCH   4   5
HETATM    5  C   UNL     1     -21.984  -7.516  -0.102  1.00  0.00     0.000 C 
BRANCH   5   6
HETATM    6  C   UNL     1     -23.214  -8.263   0.385  1.00  0.00     0.000 C 
BRANCH   6   7
HETATM    7  C   UNL     1     -23.187  -9.690  -0.131  1.00  0.00     0.000 C 
BRANCH   7   8
HETATM    8  C   UNL     1     -21.756 -10.184  -0.226  1.00  0.00     0.000 C 
BRANCH   8   9
HETATM    9  C   UNL     1     -21.631 -11.195  -1.353  1.00  0.00     0.000 C 
BRANCH   9  10
HETATM   10  C   UNL     1     -22.645 -10.882  -2.437  1.00  0.00     0.000 C 
BRANCH  10  11
HETATM   11  C   UNL     1     -21.950 -10.259  -3.631  1.00  0.00     0.000 C 
BRANCH  11  12
HETATM   12  C   UNL     1     -20.558 -10.851  -3.792  1.00  0.00     0.000 C 
BRANCH  12  13
HETATM   13  C   UNL     1     -19.603  -9.768  -4.258  1.00  0.00     0.000 C 
BRANCH  13  14
HETATM   14  C   UNL     1     -18.648  -9.359  -3.144  1.00  0.00     0.004 C 
BRANCH  14  15
HETATM   15  C   UNL     1     -17.493 -10.357  -2.976  1.00  0.00    -0.023 C 
HETATM   16  C   UNL     1     -16.171  -9.600  -2.868  1.00  0.00     0.009 C 
HETATM   17  C   UNL     1     -17.682 -11.255  -1.751  1.00  0.00     0.009 C 
ENDBRANCH  14  15
ENDBRANCH  13  14
ENDBRANCH  12  13
ENDBRANCH  11  12
ENDBRANCH  10  11
ENDBRANCH   9  10
ENDBRANCH   8   9
ENDBRANCH   7   8
ENDBRANCH   6   7
ENDBRANCH   5   6
ENDBRANCH   4   5
ENDBRANCH   3   4
ENDBRANCH   2   3
ENDBRANCH   1   2
BRANCH   1  18
HETATM   18  C   UNL     1     -20.989  -6.364  -5.941  1.00  0.00     0.258 C 
HETATM   19  O   UNL     1     -19.791  -6.584  -5.824  1.00  0.00    -0.265 OA
BRANCH  18  20
HETATM   20  O   UNL     1     -21.582  -5.991  -7.110  1.00  0.00    -0.319 OA
BRANCH  20  21
HETATM   21  C   UNL     1     -21.371  -4.610  -7.434  1.00  0.00     0.213 C 
BRANCH  21  22
HETATM   22  C   UNL     1     -22.530  -4.008  -8.239  1.00  0.00     0.178 C 
BRANCH  22  23
HETATM   23  C   UNL     1     -22.595  -4.706  -9.615  1.00  0.00     0.222 C 
HETATM   24  C   UNL     1     -21.804  -4.085 -10.709  1.00  0.00     0.114 C 
HETATM   25  C   UNL     1     -22.598  -3.481 -11.584  1.00  0.00     0.173 C 
HETATM   26  C   UNL     1     -23.960  -3.653 -11.087  1.00  0.00     0.320 C 
HETATM   27  O   UNL     1     -24.938  -3.067 -11.486  1.00  0.00    -0.257 OA
HETATM   28  O   UNL     1     -23.944  -4.580 -10.091  1.00  0.00    -0.301 OA
BRANCH  24  29
HETATM   29  O   UNL     1     -20.447  -4.214 -10.836  1.00  0.00    -0.359 OA
HETATM   30  H   UNL     1     -20.059  -3.789 -10.051  1.00  0.00     0.217 HD
ENDBRANCH  24  29
BRANCH  25  31
HETATM   31  O   UNL     1     -22.261  -2.849 -12.734  1.00  0.00    -0.353 OA
HETATM   32  H   UNL     1     -22.235  -3.557 -13.404  1.00  0.00     0.218 HD
ENDBRANCH  25  31
ENDBRANCH  22  23
BRANCH  22  33
HETATM   33  O   UNL     1     -23.766  -4.202  -7.539  1.00  0.00    -0.390 OA
HETATM   34  H   UNL     1     -24.447  -3.842  -8.147  1.00  0.00     0.210 HD
ENDBRANCH  22  33
ENDBRANCH  21  22
ENDBRANCH  20  21
ENDBRANCH  18  20
ENDBRANCH   1  18
TORSDOF 22
BEGIN_RES ARG D 557
REMARK  4 active torsions:
REMARK  status: ('A' for Active; 'I' for Inactive)
REMARK    1  A    between atoms: CA   and  CB  
REMARK    2  A    between atoms: CB   and  CG  
REMARK    3  A    between atoms: CG   and  CD  
REMARK    4  A    between atoms: CD   and  NE  
REMARK       I    between atoms: NE   and  CZ  
REMARK       I    between atoms: CZ   and  NH1 
REMARK       I    between atoms: CZ   and  NH2 
ROOT
ATOM      1  CA  ARG D 557     -26.217   2.705 -17.014  1.00 35.49     0.159 C 
ENDROOT
BRANCH   1   2
ATOM      2  CB  ARG D 557     -26.789   1.319 -17.183  1.00 35.49     0.034 C 
BRANCH   2   3
ATOM      3  CG  ARG D 557     -25.998   0.207 -16.641  1.00 35.49     0.027 C 
BRANCH   3   4
ATOM      4  CD  ARG D 557     -26.822  -0.742 -15.857  1.00 35.49     0.116 C 
BRANCH   4   5
ATOM      5  NE  ARG D 557     -26.128  -1.975 -15.597  1.00 35.49    -0.212 N 
ATOM      6  CZ  ARG D 557     -25.122  -2.130 -14.765  1.00 35.49     0.666 C 
ATOM      7  NH1 ARG D 557     -24.618  -1.129 -14.067  1.00 35.49    -0.235 N 
ATOM      8  NH2 ARG D 557     -24.627  -3.327 -14.638  1.00 35.49    -0.235 N 
ATOM      9  HH  ARG D 557     -24.930  -0.334 -14.134  1.00 35.49     0.174 HD
ATOM     10  HH  ARG D 557     -23.964  -1.291 -13.538  1.00 35.49     0.174 HD
ATOM     11  HH  ARG D 557     -24.978  -3.956 -15.096  1.00 35.49     0.174 HD
ATOM     12  HH  ARG D 557     -23.980  -3.467 -14.108  1.00 35.49     0.174 HD
ATOM     13  HE  ARG D 557     -26.340  -2.658 -16.058  1.00 35.49     0.178 HD
ENDBRANCH   4   5
ENDBRANCH   3   4
ENDBRANCH   2   3
ENDBRANCH   1   2
END_RES ARG D 557
BEGIN_RES GLU D 570
REMARK  3 active torsions:
REMARK  status: ('A' for Active; 'I' for Inactive)
REMARK    5  A    between atoms: CA   and  CB  
REMARK    6  A    between atoms: CB   and  CG  
REMARK    7  A    between atoms: CG   and  CD  
ROOT
ATOM     14  CA  GLU D 570     -18.033  -6.348 -13.375  1.00 32.92     0.160 C 
ENDROOT
BRANCH  14  15
ATOM     15  CB  GLU D 570     -19.500  -6.345 -13.794  1.00 32.92     0.043 C 
BRANCH  15  16
ATOM     16  CG  GLU D 570     -19.809  -5.989 -15.203  1.00 32.92     0.100 C 
BRANCH  16  17
ATOM     17  CD  GLU D 570     -21.183  -5.384 -15.370  1.00 32.92     0.185 C 
ATOM     18  OE1 GLU D 570     -21.905  -5.235 -14.366  1.00 32.92    -0.647 OA
ATOM     19  OE2 GLU D 570     -21.548  -5.071 -16.521  1.00 32.92    -0.647 OA
ENDBRANCH  16  17
ENDBRANCH  15  16
ENDBRANCH  14  15
END_RES GLU D 570
ENDMDL
MODEL 9
REMARK VINA RESULT:      -7.9      1.586      2.441
REMARK  22 active torsions:
REMARK  status: ('A' for Active; 'I' for Inactive)
REMARK    1  A    between atoms: C_2  and  C_4 
REMARK    2  A    between atoms: C_4  and  C_5 
REMARK    3  A    between atoms: C_5  and  C_6 
REMARK    4  A    between atoms: C_6  and  C_7 
REMARK    5  A    between atoms: C_7  and  C_8 
REMARK    6  A    between atoms: C_8  and  C_9 
REMARK    7  A    between atoms: C_9  and  C_10 
REMARK    8  A    between atoms: C_10  and  C_11 
REMARK    9  A    between atoms: C_11  and  C_12 
REMARK   10  A    between atoms: C_12  and  C_13 
REMARK   11  A    between atoms: C_13  and  C_14 
REMARK   12  A    between atoms: C_14  and  C_15 
REMARK   13  A    between atoms: C_15  and  C_16 
REMARK   14  A    between atoms: C_16  and  C_17 
REMARK   15  A    between atoms: C_17  and  C_18 
REMARK   16  A    between atoms: C_18  and  O_20 
REMARK   17  A    between atoms: O_20  and  C_21 
REMARK   18  A    between atoms: C_21  and  C_22 
REMARK   19  A    between atoms: C_22  and  C_23 
REMARK   20  A    between atoms: C_22  and  O_31 
REMARK   21  A    between atoms: C_24  and  O_30 
REMARK   22  A    between atoms: C_25  and  O_29 
ROOT
HETATM    1  C   UNL     1     -21.889  -4.715  -7.461  1.00  0.00     0.111 C 
ENDROOT
BRANCH   1   2
HETATM    2  C   UNL     1     -20.840  -4.057  -6.568  1.00  0.00     0.010 C 
BRANCH   2   3
HETATM    3  C   UNL     1     -19.721  -5.004  -6.179  1.00  0.00     0.000 C 
BRANCH   3   4
HETATM    4  C   UNL     1     -20.049  -6.402  -6.689  1.00  0.00     0.000 C 
BRANCH   4   5
HETATM    5  C   UNL     1     -19.338  -7.450  -5.853  1.00  0.00     0.000 C 
BRANCH   5   6
HETATM    6  C   UNL     1     -20.266  -7.982  -4.775  1.00  0.00     0.000 C 
BRANCH   6   7
HETATM    7  C   UNL     1     -21.709  -7.690  -5.147  1.00  0.00     0.000 C 
BRANCH   7   8
HETATM    8  C   UNL     1     -22.376  -6.877  -4.053  1.00  0.00     0.000 C 
BRANCH   8   9
HETATM    9  C   UNL     1     -21.359  -6.514  -2.985  1.00  0.00     0.000 C 
BRANCH   9  10
HETATM   10  C   UNL     1     -22.070  -5.944  -1.773  1.00  0.00     0.000 C 
BRANCH  10  11
HETATM   11  C   UNL     1     -22.462  -7.063  -0.829  1.00  0.00     0.000 C 
BRANCH  11  12
HETATM   12  C   UNL     1     -21.293  -8.016  -0.637  1.00  0.00     0.000 C 
BRANCH  12  13
HETATM   13  C   UNL     1     -21.797  -9.313  -0.030  1.00  0.00     0.000 C 
BRANCH  13  14
HETATM   14  C   UNL     1     -22.609 -10.114  -1.039  1.00  0.00     0.004 C 
BRANCH  14  15
HETATM   15  C   UNL     1     -21.842 -10.339  -2.351  1.00  0.00    -0.023 C 
HETATM   16  C   UNL     1     -20.703 -11.329  -2.116  1.00  0.00     0.009 C 
HETATM   17  C   UNL     1     -22.754 -10.849  -3.469  1.00  0.00     0.009 C 
ENDBRANCH  14  15
ENDBRANCH  13  14
ENDBRANCH  12  13
ENDBRANCH  11  12
ENDBRANCH  10  11
ENDBRANCH   9  10
ENDBRANCH   8   9
ENDBRANCH   7   8
ENDBRANCH   6   7
ENDBRANCH   5   6
ENDBRANCH   4   5
ENDBRANCH   3   4
ENDBRANCH   2   3
ENDBRANCH   1   2
BRANCH   1  18
HETATM   18  C   UNL     1     -21.727  -4.257  -8.890  1.00  0.00     0.258 C 
HETATM   19  O   UNL     1     -20.649  -4.025  -9.420  1.00  0.00    -0.265 OA
BRANCH  18  20
HETATM   20  O   UNL     1     -22.930  -4.064  -9.501  1.00  0.00    -0.319 OA
BRANCH  20  21
HETATM   21  C   UNL     1     -22.852  -4.120 -10.932  1.00  0.00     0.213 C 
BRANCH  21  22
HETATM   22  C   UNL     1     -23.607  -2.969 -11.610  1.00  0.00     0.178 C 
BRANCH  22  23
HETATM   23  C   UNL     1     -23.351  -3.035 -13.132  1.00  0.00     0.222 C 
HETATM   24  C   UNL     1     -24.546  -2.939 -14.009  1.00  0.00     0.114 C 
HETATM   25  C   UNL     1     -24.831  -4.115 -14.553  1.00  0.00     0.173 C 
HETATM   26  C   UNL     1     -23.844  -5.056 -14.033  1.00  0.00     0.320 C 
HETATM   27  O   UNL     1     -23.897  -6.260 -14.123  1.00  0.00    -0.257 OA
HETATM   28  O   UNL     1     -22.854  -4.352 -13.421  1.00  0.00    -0.301 OA
BRANCH  24  29
HETATM   29  O   UNL     1     -25.195  -1.765 -14.286  1.00  0.00    -0.359 OA
HETATM   30  H   UNL     1     -25.967  -2.003 -14.829  1.00  0.00     0.217 HD
ENDBRANCH  24  29
BRANCH  25  31
HETATM   31  O   UNL     1     -25.808  -4.420 -15.441  1.00  0.00    -0.353 OA
HETATM   32  H   UNL     1     -25.444  -4.158 -16.306  1.00  0.00     0.218 HD
ENDBRANCH  25  31
ENDBRANCH  22  23
BRANCH  22  33
HETATM   33  O   UNL     1     -25.012  -3.081 -11.350  1.00  0.00    -0.390 OA
HETATM   34  H   UNL     1     -25.374  -2.202 -11.593  1.00  0.00     0.210 HD
ENDBRANCH  22  33
ENDBRANCH  21  22
ENDBRANCH  20  21
ENDBRANCH  18  20
ENDBRANCH   1  18
TORSDOF 22
BEGIN_RES ARG D 557
REMARK  4 active torsions:
REMARK  status: ('A' for Active; 'I' for Inactive)
REMARK    1  A    between atoms: CA   and  CB  
REMARK    2  A    between atoms: CB   and  CG  
REMARK    3  A    between atoms: CG   and  CD  
REMARK    4  A    between atoms: CD   and  NE  
REMARK       I    between atoms: NE   and  CZ  
REMARK       I    between atoms: CZ   and  NH1 
REMARK       I    between atoms: CZ   and  NH2 
ROOT
ATOM      1  CA  ARG D 557     -26.217   2.705 -17.014  1.00 35.49     0.159 C 
ENDROOT
BRANCH   1   2
ATOM      2  CB  ARG D 557     -26.789   1.319 -17.183  1.00 35.49     0.034 C 
BRANCH   2   3
ATOM      3  CG  ARG D 557     -28.237   1.224 -17.406  1.00 35.49     0.027 C 
BRANCH   3   4
ATOM      4  CD  ARG D 557     -28.891   0.280 -16.472  1.00 35.49     0.116 C 
BRANCH   4   5
ATOM      5  NE  ARG D 557     -29.244  -0.960 -17.113  1.00 35.49    -0.212 N 
ATOM      6  CZ  ARG D 557     -28.596  -2.097 -16.993  1.00 35.49     0.666 C 
ATOM      7  NH1 ARG D 557     -27.508  -2.219 -16.256  1.00 35.49    -0.235 N 
ATOM      8  NH2 ARG D 557     -29.071  -3.128 -17.630  1.00 35.49    -0.235 N 
ATOM      9  HH  ARG D 557     -27.179  -1.555 -15.827  1.00 35.49     0.174 HD
ATOM     10  HH  ARG D 557     -27.129  -2.987 -16.214  1.00 35.49     0.174 HD
ATOM     11  HH  ARG D 557     -29.780  -3.021 -18.092  1.00 35.49     0.174 HD
ATOM     12  HH  ARG D 557     -28.683  -3.880 -17.574  1.00 35.49     0.174 HD
ATOM     13  HE  ARG D 557     -29.891  -0.954 -17.664  1.00 35.49     0.178 HD
ENDBRANCH   4   5
ENDBRANCH   3   4
ENDBRANCH   2   3
ENDBRANCH   1   2
END_RES ARG D 557
BEGIN_RES GLU D 570
REMARK  3 active torsions:
REMARK  status: ('A' for Active; 'I' for Inactive)
REMARK    5  A    between atoms: CA   and  CB  
REMARK    6  A    between atoms: CB   and  CG  
REMARK    7  A    between atoms: CG   and  CD  
ROOT
ATOM     14  CA  GLU D 570     -18.033  -6.348 -13.375  1.00 32.92     0.160 C 
ENDROOT
BRANCH  14  15
ATOM     15  CB  GLU D 570     -19.500  -6.345 -13.794  1.00 32.92     0.043 C 
BRANCH  15  16
ATOM     16  CG  GLU D 570     -20.076  -7.626 -14.278  1.00 32.92     0.100 C 
BRANCH  16  17
ATOM     17  CD  GLU D 570     -20.825  -7.480 -15.582  1.00 32.92     0.185 C 
ATOM     18  OE1 GLU D 570     -20.957  -6.346 -16.081  1.00 32.92    -0.647 OA
ATOM     19  OE2 GLU D 570     -21.300  -8.509 -16.102  1.00 32.92    -0.647 OA
ENDBRANCH  16  17
ENDBRANCH  15  16
ENDBRANCH  14  15
END_RES GLU D 570
ENDMDL
