MODEL 1
REMARK VINA RESULT:      -7.4      0.000      0.000
REMARK  19 active torsions:
REMARK  status: ('A' for Active; 'I' for Inactive)
REMARK    1  A    between atoms: C_2  and  C_3 
REMARK    2  A    between atoms: C_3  and  C_4 
REMARK    3  A    between atoms: C_4  and  C_5 
REMARK    4  A    between atoms: C_5  and  C_6 
REMARK    5  A    between atoms: C_6  and  C_7 
REMARK    6  A    between atoms: C_7  and  C_8 
REMARK    7  A    between atoms: C_8  and  C_9 
REMARK    8  A    between atoms: C_9  and  C_10 
REMARK    9  A    between atoms: C_10  and  C_11 
REMARK   10  A    between atoms: C_11  and  C_12 
REMARK   11  A    between atoms: C_12  and  C_13 
REMARK   12  A    between atoms: C_13  and  C_14 
REMARK   13  A    between atoms: C_14  and  C_15 
REMARK   14  A    between atoms: C_15  and  C_16 
REMARK   15  A    between atoms: C_16  and  C_17 
REMARK   16  A    between atoms: C_17  and  C_18 
REMARK       I    between atoms: C_18  and  N_20 
REMARK   17  A    between atoms: N_20  and  C_21 
REMARK   18  A    between atoms: C_21  and  C_24 
REMARK   19  A    between atoms: C_24  and  O_25 
ROOT
HETATM    1  C   UNL     1     -22.155  -4.388  -7.488  1.00  0.00     0.000 C 
ENDROOT
BRANCH   1   2
HETATM    2  C   UNL     1     -20.804  -3.989  -6.918  1.00  0.00     0.000 C 
BRANCH   2   3
HETATM    3  C   UNL     1     -20.427  -4.910  -5.771  1.00  0.00     0.000 C 
BRANCH   3   4
HETATM    4  C   UNL     1     -20.465  -6.356  -6.231  1.00  0.00     0.000 C 
BRANCH   4   5
HETATM    5  C   UNL     1     -20.965  -7.244  -5.107  1.00  0.00     0.000 C 
BRANCH   5   6
HETATM    6  C   UNL     1     -21.661  -6.402  -4.053  1.00  0.00     0.000 C 
BRANCH   6   7
HETATM    7  C   UNL     1     -21.328  -6.927  -2.669  1.00  0.00     0.000 C 
BRANCH   7   8
HETATM    8  C   UNL     1     -22.281  -6.332  -1.647  1.00  0.00     0.000 C 
BRANCH   8   9
HETATM    9  C   UNL     1     -22.403  -7.260  -0.452  1.00  0.00     0.000 C 
BRANCH   9  10
HETATM   10  C   UNL     1     -21.183  -8.159  -0.365  1.00  0.00     0.000 C 
BRANCH  10  11
HETATM   11  C   UNL     1     -21.535  -9.444   0.369  1.00  0.00     0.000 C 
BRANCH  11  12
HETATM   12  C   UNL     1     -21.535 -10.614  -0.600  1.00  0.00    -0.000 C 
BRANCH  12  13
HETATM   13  C   UNL     1     -22.889 -10.741  -1.291  1.00  0.00    -0.005 C 
HETATM   14  C   UNL     1     -23.997 -10.857  -0.269  1.00  0.00     0.005 C 
ENDBRANCH  12  13
ENDBRANCH  11  12
ENDBRANCH  10  11
ENDBRANCH   9  10
ENDBRANCH   8   9
ENDBRANCH   7   8
ENDBRANCH   6   7
ENDBRANCH   5   6
ENDBRANCH   4   5
ENDBRANCH   3   4
ENDBRANCH   2   3
ENDBRANCH   1   2
BRANCH   1  15
HETATM   15  C   UNL     1     -22.075  -4.490  -9.003  1.00  0.00     0.000 C 
BRANCH  15  16
HETATM   16  C   UNL     1     -20.703  -4.051  -9.489  1.00  0.00     0.009 C 
BRANCH  16  17
HETATM   17  C   UNL     1     -20.525  -4.373 -10.963  1.00  0.00     0.103 C 
BRANCH  17  18
HETATM   18  C   UNL     1     -21.569  -3.645 -11.765  1.00  0.00     0.218 C 
HETATM   19  O   UNL     1     -21.691  -2.426 -11.666  1.00  0.00    -0.274 OA
HETATM   20  N   UNL     1     -22.366  -4.435 -12.557  1.00  0.00    -0.350 N 
HETATM   21  H   UNL     1     -22.151  -5.423 -12.639  1.00  0.00     0.163 HD
BRANCH  20  22
HETATM   22  C   UNL     1     -23.420  -3.868 -13.436  1.00  0.00     0.046 C 
HETATM   23  C   UNL     1     -24.077  -4.996 -14.257  1.00  0.00     0.040 C 
HETATM   24  C   UNL     1     -24.501  -3.222 -12.546  1.00  0.00     0.040 C 
BRANCH  22  25
HETATM   25  C   UNL     1     -22.873  -2.794 -14.426  1.00  0.00     0.194 C 
BRANCH  25  26
HETATM   26  O   UNL     1     -22.051  -3.337 -15.463  1.00  0.00    -0.398 OA
HETATM   27  H   UNL     1     -22.564  -3.284 -16.286  1.00  0.00     0.209 HD
ENDBRANCH  25  26
ENDBRANCH  22  25
ENDBRANCH  20  22
ENDBRANCH  17  18
ENDBRANCH  16  17
ENDBRANCH  15  16
ENDBRANCH   1  15
TORSDOF 19
BEGIN_RES ARG D 557
REMARK  4 active torsions:
REMARK  status: ('A' for Active; 'I' for Inactive)
REMARK    1  A    between atoms: CA   and  CB  
REMARK    2  A    between atoms: CB   and  CG  
REMARK    3  A    between atoms: CG   and  CD  
REMARK    4  A    between atoms: CD   and  NE  
REMARK       I    between atoms: NE   and  CZ  
REMARK       I    between atoms: CZ   and  NH1 
REMARK       I    between atoms: CZ   and  NH2 
ROOT
ATOM      1  CA  ARG D 557     -26.217   2.705 -17.014  1.00 35.49     0.159 C 
ENDROOT
BRANCH   1   2
ATOM      2  CB  ARG D 557     -26.789   1.319 -17.183  1.00 35.49     0.034 C 
BRANCH   2   3
ATOM      3  CG  ARG D 557     -28.209   1.230 -17.543  1.00 35.49     0.027 C 
BRANCH   3   4
ATOM      4  CD  ARG D 557     -28.977   0.379 -16.605  1.00 35.49     0.116 C 
BRANCH   4   5
ATOM      5  NE  ARG D 557     -29.306  -0.900 -17.178  1.00 35.49    -0.212 N 
ATOM      6  CZ  ARG D 557     -28.629  -2.013 -17.013  1.00 35.49     0.666 C 
ATOM      7  NH1 ARG D 557     -27.527  -2.072 -16.288  1.00 35.49    -0.235 N 
ATOM      8  NH2 ARG D 557     -29.086  -3.086 -17.592  1.00 35.49    -0.235 N 
ATOM      9  HH  ARG D 557     -27.209  -1.379 -15.897  1.00 35.49     0.174 HD
ATOM     10  HH  ARG D 557     -27.129  -2.827 -16.214  1.00 35.49     0.174 HD
ATOM     11  HH  ARG D 557     -29.804  -3.019 -18.047  1.00 35.49     0.174 HD
ATOM     12  HH  ARG D 557     -28.679  -3.824 -17.505  1.00 35.49     0.174 HD
ATOM     13  HE  ARG D 557     -29.962  -0.937 -17.719  1.00 35.49     0.178 HD
ENDBRANCH   4   5
ENDBRANCH   3   4
ENDBRANCH   2   3
ENDBRANCH   1   2
END_RES ARG D 557
BEGIN_RES GLU D 570
REMARK  3 active torsions:
REMARK  status: ('A' for Active; 'I' for Inactive)
REMARK    5  A    between atoms: CA   and  CB  
REMARK    6  A    between atoms: CB   and  CG  
REMARK    7  A    between atoms: CG   and  CD  
ROOT
ATOM     14  CA  GLU D 570     -18.033  -6.348 -13.375  1.00 32.92     0.160 C 
ENDROOT
BRANCH  14  15
ATOM     15  CB  GLU D 570     -19.500  -6.345 -13.794  1.00 32.92     0.043 C 
BRANCH  15  16
ATOM     16  CG  GLU D 570     -19.809  -5.992 -15.204  1.00 32.92     0.100 C 
BRANCH  16  17
ATOM     17  CD  GLU D 570     -20.707  -7.000 -15.881  1.00 32.92     0.185 C 
ATOM     18  OE1 GLU D 570     -20.814  -8.140 -15.391  1.00 32.92    -0.647 OA
ATOM     19  OE2 GLU D 570     -21.297  -6.651 -16.922  1.00 32.92    -0.647 OA
ENDBRANCH  16  17
ENDBRANCH  15  16
ENDBRANCH  14  15
END_RES GLU D 570
ENDMDL
MODEL 2
REMARK VINA RESULT:      -7.2      2.741      5.714
REMARK  19 active torsions:
REMARK  status: ('A' for Active; 'I' for Inactive)
REMARK    1  A    between atoms: C_2  and  C_3 
REMARK    2  A    between atoms: C_3  and  C_4 
REMARK    3  A    between atoms: C_4  and  C_5 
REMARK    4  A    between atoms: C_5  and  C_6 
REMARK    5  A    between atoms: C_6  and  C_7 
REMARK    6  A    between atoms: C_7  and  C_8 
REMARK    7  A    between atoms: C_8  and  C_9 
REMARK    8  A    between atoms: C_9  and  C_10 
REMARK    9  A    between atoms: C_10  and  C_11 
REMARK   10  A    between atoms: C_11  and  C_12 
REMARK   11  A    between atoms: C_12  and  C_13 
REMARK   12  A    between atoms: C_13  and  C_14 
REMARK   13  A    between atoms: C_14  and  C_15 
REMARK   14  A    between atoms: C_15  and  C_16 
REMARK   15  A    between atoms: C_16  and  C_17 
REMARK   16  A    between atoms: C_17  and  C_18 
REMARK       I    between atoms: C_18  and  N_20 
REMARK   17  A    between atoms: N_20  and  C_21 
REMARK   18  A    between atoms: C_21  and  C_24 
REMARK   19  A    between atoms: C_24  and  O_25 
ROOT
HETATM    1  C   UNL     1     -22.958  -5.264 -13.426  1.00  0.00     0.000 C 
ENDROOT
BRANCH   1   2
HETATM    2  C   UNL     1     -23.595  -5.122 -12.054  1.00  0.00     0.000 C 
BRANCH   2   3
HETATM    3  C   UNL     1     -22.757  -4.207 -11.179  1.00  0.00     0.000 C 
BRANCH   3   4
HETATM    4  C   UNL     1     -21.365  -4.058 -11.767  1.00  0.00     0.000 C 
BRANCH   4   5
HETATM    5  C   UNL     1     -20.320  -4.349 -10.706  1.00  0.00     0.000 C 
BRANCH   5   6
HETATM    6  C   UNL     1     -20.951  -4.283  -9.327  1.00  0.00     0.000 C 
BRANCH   6   7
HETATM    7  C   UNL     1     -19.888  -3.990  -8.286  1.00  0.00     0.000 C 
BRANCH   7   8
HETATM    8  C   UNL     1     -19.797  -5.142  -7.301  1.00  0.00     0.000 C 
BRANCH   8   9
HETATM    9  C   UNL     1     -20.419  -4.740  -5.975  1.00  0.00     0.000 C 
BRANCH   9  10
HETATM   10  C   UNL     1     -21.376  -5.818  -5.501  1.00  0.00     0.000 C 
BRANCH  10  11
HETATM   11  C   UNL     1     -20.819  -6.502  -4.262  1.00  0.00     0.000 C 
BRANCH  11  12
HETATM   12  C   UNL     1     -21.954  -6.939  -3.353  1.00  0.00    -0.000 C 
BRANCH  12  13
HETATM   13  C   UNL     1     -21.980  -6.097  -2.081  1.00  0.00    -0.005 C 
HETATM   14  C   UNL     1     -22.378  -6.943  -0.893  1.00  0.00     0.005 C 
ENDBRANCH  12  13
ENDBRANCH  11  12
ENDBRANCH  10  11
ENDBRANCH   9  10
ENDBRANCH   8   9
ENDBRANCH   7   8
ENDBRANCH   6   7
ENDBRANCH   5   6
ENDBRANCH   4   5
ENDBRANCH   3   4
ENDBRANCH   2   3
ENDBRANCH   1   2
BRANCH   1  15
HETATM   15  C   UNL     1     -23.651  -6.365 -14.214  1.00  0.00     0.000 C 
BRANCH  15  16
HETATM   16  C   UNL     1     -24.512  -5.763 -15.314  1.00  0.00     0.009 C 
BRANCH  16  17
HETATM   17  C   UNL     1     -25.549  -6.763 -15.794  1.00  0.00     0.103 C 
BRANCH  17  18
HETATM   18  C   UNL     1     -26.759  -6.027 -16.302  1.00  0.00     0.218 C 
HETATM   19  O   UNL     1     -26.787  -4.799 -16.299  1.00  0.00    -0.274 OA
HETATM   20  N   UNL     1     -27.803  -6.818 -16.718  1.00  0.00    -0.350 N 
HETATM   21  H   UNL     1     -27.670  -7.823 -16.759  1.00  0.00     0.163 HD
BRANCH  20  22
HETATM   22  C   UNL     1     -29.054  -6.249 -17.279  1.00  0.00     0.046 C 
HETATM   23  C   UNL     1     -29.942  -7.382 -17.830  1.00  0.00     0.040 C 
HETATM   24  C   UNL     1     -29.820  -5.541 -16.142  1.00  0.00     0.040 C 
BRANCH  22  25
HETATM   25  C   UNL     1     -28.795  -5.225 -18.427  1.00  0.00     0.194 C 
BRANCH  25  26
HETATM   26  O   UNL     1     -29.090  -3.872 -18.065  1.00  0.00    -0.398 OA
HETATM   27  H   UNL     1     -28.455  -3.621 -17.374  1.00  0.00     0.209 HD
ENDBRANCH  25  26
ENDBRANCH  22  25
ENDBRANCH  20  22
ENDBRANCH  17  18
ENDBRANCH  16  17
ENDBRANCH  15  16
ENDBRANCH   1  15
TORSDOF 19
BEGIN_RES ARG D 557
REMARK  4 active torsions:
REMARK  status: ('A' for Active; 'I' for Inactive)
REMARK    1  A    between atoms: CA   and  CB  
REMARK    2  A    between atoms: CB   and  CG  
REMARK    3  A    between atoms: CG   and  CD  
REMARK    4  A    between atoms: CD   and  NE  
REMARK       I    between atoms: NE   and  CZ  
REMARK       I    between atoms: CZ   and  NH1 
REMARK       I    between atoms: CZ   and  NH2 
ROOT
ATOM      1  CA  ARG D 557     -26.217   2.705 -17.014  1.00 35.49     0.159 C 
ENDROOT
BRANCH   1   2
ATOM      2  CB  ARG D 557     -26.789   1.319 -17.183  1.00 35.49     0.034 C 
BRANCH   2   3
ATOM      3  CG  ARG D 557     -25.854   0.196 -17.040  1.00 35.49     0.027 C 
BRANCH   3   4
ATOM      4  CD  ARG D 557     -26.201  -0.685 -15.902  1.00 35.49     0.116 C 
BRANCH   4   5
ATOM      5  NE  ARG D 557     -25.095  -0.864 -14.998  1.00 35.49    -0.212 N 
ATOM      6  CZ  ARG D 557     -24.913  -1.893 -14.201  1.00 35.49     0.666 C 
ATOM      7  NH1 ARG D 557     -25.765  -2.899 -14.137  1.00 35.49    -0.235 N 
ATOM      8  NH2 ARG D 557     -23.841  -1.898 -13.463  1.00 35.49    -0.235 N 
ATOM      9  HH  ARG D 557     -26.476  -2.918 -14.615  1.00 35.49     0.174 HD
ATOM     10  HH  ARG D 557     -25.592  -3.545 -13.600  1.00 35.49     0.174 HD
ATOM     11  HH  ARG D 557     -23.305  -1.238 -13.531  1.00 35.49     0.174 HD
ATOM     12  HH  ARG D 557     -23.687  -2.547 -12.940  1.00 35.49     0.174 HD
ATOM     13  HE  ARG D 557     -24.535  -0.228 -14.922  1.00 35.49     0.178 HD
ENDBRANCH   4   5
ENDBRANCH   3   4
ENDBRANCH   2   3
ENDBRANCH   1   2
END_RES ARG D 557
BEGIN_RES GLU D 570
REMARK  3 active torsions:
REMARK  status: ('A' for Active; 'I' for Inactive)
REMARK    5  A    between atoms: CA   and  CB  
REMARK    6  A    between atoms: CB   and  CG  
REMARK    7  A    between atoms: CG   and  CD  
ROOT
ATOM     14  CA  GLU D 570     -18.033  -6.348 -13.375  1.00 32.92     0.160 C 
ENDROOT
BRANCH  14  15
ATOM     15  CB  GLU D 570     -19.500  -6.345 -13.794  1.00 32.92     0.043 C 
BRANCH  15  16
ATOM     16  CG  GLU D 570     -19.800  -6.146 -15.236  1.00 32.92     0.100 C 
BRANCH  16  17
ATOM     17  CD  GLU D 570     -20.610  -7.275 -15.830  1.00 32.92     0.185 C 
ATOM     18  OE1 GLU D 570     -20.546  -8.405 -15.309  1.00 32.92    -0.647 OA
ATOM     19  OE2 GLU D 570     -21.303  -7.030 -16.837  1.00 32.92    -0.647 OA
ENDBRANCH  16  17
ENDBRANCH  15  16
ENDBRANCH  14  15
END_RES GLU D 570
ENDMDL
MODEL 3
REMARK VINA RESULT:      -7.0      1.804      3.128
REMARK  19 active torsions:
REMARK  status: ('A' for Active; 'I' for Inactive)
REMARK    1  A    between atoms: C_2  and  C_3 
REMARK    2  A    between atoms: C_3  and  C_4 
REMARK    3  A    between atoms: C_4  and  C_5 
REMARK    4  A    between atoms: C_5  and  C_6 
REMARK    5  A    between atoms: C_6  and  C_7 
REMARK    6  A    between atoms: C_7  and  C_8 
REMARK    7  A    between atoms: C_8  and  C_9 
REMARK    8  A    between atoms: C_9  and  C_10 
REMARK    9  A    between atoms: C_10  and  C_11 
REMARK   10  A    between atoms: C_11  and  C_12 
REMARK   11  A    between atoms: C_12  and  C_13 
REMARK   12  A    between atoms: C_13  and  C_14 
REMARK   13  A    between atoms: C_14  and  C_15 
REMARK   14  A    between atoms: C_15  and  C_16 
REMARK   15  A    between atoms: C_16  and  C_17 
REMARK   16  A    between atoms: C_17  and  C_18 
REMARK       I    between atoms: C_18  and  N_20 
REMARK   17  A    between atoms: N_20  and  C_21 
REMARK   18  A    between atoms: C_21  and  C_24 
REMARK   19  A    between atoms: C_24  and  O_25 
ROOT
HETATM    1  C   UNL     1     -20.123  -6.024  -6.547  1.00  0.00     0.000 C 
ENDROOT
BRANCH   1   2
HETATM    2  C   UNL     1     -21.193  -6.898  -5.916  1.00  0.00     0.000 C 
BRANCH   2   3
HETATM    3  C   UNL     1     -20.682  -7.496  -4.616  1.00  0.00     0.000 C 
BRANCH   3   4
HETATM    4  C   UNL     1     -21.653  -8.548  -4.112  1.00  0.00     0.000 C 
BRANCH   4   5
HETATM    5  C   UNL     1     -20.888  -9.727  -3.538  1.00  0.00     0.000 C 
BRANCH   5   6
HETATM    6  C   UNL     1     -21.494 -11.027  -4.035  1.00  0.00     0.000 C 
BRANCH   6   7
HETATM    7  C   UNL     1     -22.876 -11.214  -3.438  1.00  0.00     0.000 C 
BRANCH   7   8
HETATM    8  C   UNL     1     -22.758 -11.687  -1.999  1.00  0.00     0.000 C 
BRANCH   8   9
HETATM    9  C   UNL     1     -23.997 -11.285  -1.220  1.00  0.00     0.000 C 
BRANCH   9  10
HETATM   10  C   UNL     1     -23.622 -10.323  -0.107  1.00  0.00     0.000 C 
BRANCH  10  11
HETATM   11  C   UNL     1     -22.110 -10.278   0.055  1.00  0.00     0.000 C 
BRANCH  11  12
HETATM   12  C   UNL     1     -21.656  -8.853   0.316  1.00  0.00    -0.000 C 
BRANCH  12  13
HETATM   13  C   UNL     1     -22.788  -7.868   0.041  1.00  0.00    -0.005 C 
HETATM   14  C   UNL     1     -22.351  -6.826  -0.964  1.00  0.00     0.005 C 
ENDBRANCH  12  13
ENDBRANCH  11  12
ENDBRANCH  10  11
ENDBRANCH   9  10
ENDBRANCH   8   9
ENDBRANCH   7   8
ENDBRANCH   6   7
ENDBRANCH   5   6
ENDBRANCH   4   5
ENDBRANCH   3   4
ENDBRANCH   2   3
ENDBRANCH   1   2
BRANCH   1  15
HETATM   15  C   UNL     1     -20.395  -4.559  -6.241  1.00  0.00     0.000 C 
BRANCH  15  16
HETATM   16  C   UNL     1     -20.621  -3.785  -7.531  1.00  0.00     0.009 C 
BRANCH  16  17
HETATM   17  C   UNL     1     -19.981  -4.499  -8.707  1.00  0.00     0.103 C 
BRANCH  17  18
HETATM   18  C   UNL     1     -20.793  -4.249  -9.949  1.00  0.00     0.218 C 
HETATM   19  O   UNL     1     -20.258  -4.263 -11.055  1.00  0.00    -0.274 OA
HETATM   20  N   UNL     1     -22.124  -3.977  -9.742  1.00  0.00    -0.350 N 
HETATM   21  H   UNL     1     -22.501  -4.060  -8.804  1.00  0.00     0.163 HD
BRANCH  20  22
HETATM   22  C   UNL     1     -23.068  -3.742 -10.863  1.00  0.00     0.046 C 
HETATM   23  C   UNL     1     -23.244  -5.040 -11.677  1.00  0.00     0.040 C 
HETATM   24  C   UNL     1     -24.438  -3.350 -10.273  1.00  0.00     0.040 C 
BRANCH  22  25
HETATM   25  C   UNL     1     -22.595  -2.615 -11.832  1.00  0.00     0.194 C 
BRANCH  25  26
HETATM   26  O   UNL     1     -22.167  -3.099 -13.109  1.00  0.00    -0.398 OA
HETATM   27  H   UNL     1     -22.058  -4.061 -13.022  1.00  0.00     0.209 HD
ENDBRANCH  25  26
ENDBRANCH  22  25
ENDBRANCH  20  22
ENDBRANCH  17  18
ENDBRANCH  16  17
ENDBRANCH  15  16
ENDBRANCH   1  15
TORSDOF 19
BEGIN_RES ARG D 557
REMARK  4 active torsions:
REMARK  status: ('A' for Active; 'I' for Inactive)
REMARK    1  A    between atoms: CA   and  CB  
REMARK    2  A    between atoms: CB   and  CG  
REMARK    3  A    between atoms: CG   and  CD  
REMARK    4  A    between atoms: CD   and  NE  
REMARK       I    between atoms: NE   and  CZ  
REMARK       I    between atoms: CZ   and  NH1 
REMARK       I    between atoms: CZ   and  NH2 
ROOT
ATOM      1  CA  ARG D 557     -26.217   2.705 -17.014  1.00 35.49     0.159 C 
ENDROOT
BRANCH   1   2
ATOM      2  CB  ARG D 557     -26.789   1.319 -17.183  1.00 35.49     0.034 C 
BRANCH   2   3
ATOM      3  CG  ARG D 557     -25.948   0.199 -16.743  1.00 35.49     0.027 C 
BRANCH   3   4
ATOM      4  CD  ARG D 557     -26.684  -0.754 -15.881  1.00 35.49     0.116 C 
BRANCH   4   5
ATOM      5  NE  ARG D 557     -25.797  -1.619 -15.149  1.00 35.49    -0.212 N 
ATOM      6  CZ  ARG D 557     -25.926  -2.920 -15.019  1.00 35.49     0.666 C 
ATOM      7  NH1 ARG D 557     -26.929  -3.590 -15.556  1.00 35.49    -0.235 N 
ATOM      8  NH2 ARG D 557     -25.014  -3.549 -14.336  1.00 35.49    -0.235 N 
ATOM      9  HH  ARG D 557     -27.539  -3.197 -16.011  1.00 35.49     0.174 HD
ATOM     10  HH  ARG D 557     -26.960  -4.439 -15.440  1.00 35.49     0.174 HD
ATOM     11  HH  ARG D 557     -24.374  -3.092 -14.006  1.00 35.49     0.174 HD
ATOM     12  HH  ARG D 557     -25.062  -4.390 -14.233  1.00 35.49     0.174 HD
ATOM     13  HE  ARG D 557     -25.162  -1.261 -14.709  1.00 35.49     0.178 HD
ENDBRANCH   4   5
ENDBRANCH   3   4
ENDBRANCH   2   3
ENDBRANCH   1   2
END_RES ARG D 557
BEGIN_RES GLU D 570
REMARK  3 active torsions:
REMARK  status: ('A' for Active; 'I' for Inactive)
REMARK    5  A    between atoms: CA   and  CB  
REMARK    6  A    between atoms: CB   and  CG  
REMARK    7  A    between atoms: CG   and  CD  
ROOT
ATOM     14  CA  GLU D 570     -18.033  -6.348 -13.375  1.00 32.92     0.160 C 
ENDROOT
BRANCH  14  15
ATOM     15  CB  GLU D 570     -19.500  -6.345 -13.794  1.00 32.92     0.043 C 
BRANCH  15  16
ATOM     16  CG  GLU D 570     -19.848  -5.653 -15.062  1.00 32.92     0.100 C 
BRANCH  16  17
ATOM     17  CD  GLU D 570     -21.322  -5.727 -15.388  1.00 32.92     0.185 C 
ATOM     18  OE1 GLU D 570     -21.973  -4.670 -15.490  1.00 32.92    -0.647 OA
ATOM     19  OE2 GLU D 570     -21.834  -6.855 -15.526  1.00 32.92    -0.647 OA
ENDBRANCH  16  17
ENDBRANCH  15  16
ENDBRANCH  14  15
END_RES GLU D 570
ENDMDL
MODEL 4
REMARK VINA RESULT:      -6.9      1.356      2.265
REMARK  19 active torsions:
REMARK  status: ('A' for Active; 'I' for Inactive)
REMARK    1  A    between atoms: C_2  and  C_3 
REMARK    2  A    between atoms: C_3  and  C_4 
REMARK    3  A    between atoms: C_4  and  C_5 
REMARK    4  A    between atoms: C_5  and  C_6 
REMARK    5  A    between atoms: C_6  and  C_7 
REMARK    6  A    between atoms: C_7  and  C_8 
REMARK    7  A    between atoms: C_8  and  C_9 
REMARK    8  A    between atoms: C_9  and  C_10 
REMARK    9  A    between atoms: C_10  and  C_11 
REMARK   10  A    between atoms: C_11  and  C_12 
REMARK   11  A    between atoms: C_12  and  C_13 
REMARK   12  A    between atoms: C_13  and  C_14 
REMARK   13  A    between atoms: C_14  and  C_15 
REMARK   14  A    between atoms: C_15  and  C_16 
REMARK   15  A    between atoms: C_16  and  C_17 
REMARK   16  A    between atoms: C_17  and  C_18 
REMARK       I    between atoms: C_18  and  N_20 
REMARK   17  A    between atoms: N_20  and  C_21 
REMARK   18  A    between atoms: C_21  and  C_24 
REMARK   19  A    between atoms: C_24  and  O_25 
ROOT
HETATM    1  C   UNL     1     -21.493  -4.565  -8.557  1.00  0.00     0.000 C 
ENDROOT
BRANCH   1   2
HETATM    2  C   UNL     1     -21.495  -4.032  -7.134  1.00  0.00     0.000 C 
BRANCH   2   3
HETATM    3  C   UNL     1     -21.744  -5.163  -6.151  1.00  0.00     0.000 C 
BRANCH   3   4
HETATM    4  C   UNL     1     -20.452  -5.527  -5.441  1.00  0.00     0.000 C 
BRANCH   4   5
HETATM    5  C   UNL     1     -20.162  -7.006  -5.619  1.00  0.00     0.000 C 
BRANCH   5   6
HETATM    6  C   UNL     1     -21.444  -7.805  -5.471  1.00  0.00     0.000 C 
BRANCH   6   7
HETATM    7  C   UNL     1     -21.119  -9.279  -5.322  1.00  0.00     0.000 C 
BRANCH   7   8
HETATM    8  C   UNL     1     -21.246  -9.692  -3.865  1.00  0.00     0.000 C 
BRANCH   8   9
HETATM    9  C   UNL     1     -19.874  -9.729  -3.216  1.00  0.00     0.000 C 
BRANCH   9  10
HETATM   10  C   UNL     1     -19.998  -9.479  -1.724  1.00  0.00     0.000 C 
BRANCH  10  11
HETATM   11  C   UNL     1     -21.436  -9.131  -1.372  1.00  0.00     0.000 C 
BRANCH  11  12
HETATM   12  C   UNL     1     -21.465  -8.005  -0.352  1.00  0.00    -0.000 C 
BRANCH  12  13
HETATM   13  C   UNL     1     -22.444  -6.917  -0.779  1.00  0.00    -0.005 C 
HETATM   14  C   UNL     1     -22.023  -6.314  -2.100  1.00  0.00     0.005 C 
ENDBRANCH  12  13
ENDBRANCH  11  12
ENDBRANCH  10  11
ENDBRANCH   9  10
ENDBRANCH   8   9
ENDBRANCH   7   8
ENDBRANCH   6   7
ENDBRANCH   5   6
ENDBRANCH   4   5
ENDBRANCH   3   4
ENDBRANCH   2   3
ENDBRANCH   1   2
BRANCH   1  15
HETATM   15  C   UNL     1     -20.078  -4.567  -9.113  1.00  0.00     0.000 C 
BRANCH  15  16
HETATM   16  C   UNL     1     -20.110  -4.553 -10.634  1.00  0.00     0.009 C 
BRANCH  16  17
HETATM   17  C   UNL     1     -20.785  -3.294 -11.147  1.00  0.00     0.103 C 
BRANCH  17  18
HETATM   18  C   UNL     1     -21.890  -3.667 -12.096  1.00  0.00     0.218 C 
HETATM   19  O   UNL     1     -22.321  -4.817 -12.128  1.00  0.00    -0.274 OA
HETATM   20  N   UNL     1     -22.332  -2.658 -12.918  1.00  0.00    -0.350 N 
HETATM   21  H   UNL     1     -21.977  -1.719 -12.776  1.00  0.00     0.163 HD
BRANCH  20  22
HETATM   22  C   UNL     1     -23.440  -2.854 -13.886  1.00  0.00     0.046 C 
HETATM   23  C   UNL     1     -24.773  -3.016 -13.128  1.00  0.00     0.040 C 
HETATM   24  C   UNL     1     -23.538  -1.597 -14.776  1.00  0.00     0.040 C 
BRANCH  22  25
HETATM   25  C   UNL     1     -23.239  -4.102 -14.799  1.00  0.00     0.194 C 
BRANCH  25  26
HETATM   26  O   UNL     1     -21.916  -4.213 -15.335  1.00  0.00    -0.398 OA
HETATM   27  H   UNL     1     -21.781  -5.149 -15.557  1.00  0.00     0.209 HD
ENDBRANCH  25  26
ENDBRANCH  22  25
ENDBRANCH  20  22
ENDBRANCH  17  18
ENDBRANCH  16  17
ENDBRANCH  15  16
ENDBRANCH   1  15
TORSDOF 19
BEGIN_RES ARG D 557
REMARK  4 active torsions:
REMARK  status: ('A' for Active; 'I' for Inactive)
REMARK    1  A    between atoms: CA   and  CB  
REMARK    2  A    between atoms: CB   and  CG  
REMARK    3  A    between atoms: CG   and  CD  
REMARK    4  A    between atoms: CD   and  NE  
REMARK       I    between atoms: NE   and  CZ  
REMARK       I    between atoms: CZ   and  NH1 
REMARK       I    between atoms: CZ   and  NH2 
ROOT
ATOM      1  CA  ARG D 557     -26.217   2.705 -17.014  1.00 35.49     0.159 C 
ENDROOT
BRANCH   1   2
ATOM      2  CB  ARG D 557     -26.789   1.319 -17.183  1.00 35.49     0.034 C 
BRANCH   2   3
ATOM      3  CG  ARG D 557     -28.152   1.101 -16.683  1.00 35.49     0.027 C 
BRANCH   3   4
ATOM      4  CD  ARG D 557     -28.792  -0.088 -17.290  1.00 35.49     0.116 C 
BRANCH   4   5
ATOM      5  NE  ARG D 557     -28.180  -1.315 -16.855  1.00 35.49    -0.212 N 
ATOM      6  CZ  ARG D 557     -28.662  -2.523 -17.044  1.00 35.49     0.666 C 
ATOM      7  NH1 ARG D 557     -29.807  -2.741 -17.665  1.00 35.49    -0.235 N 
ATOM      8  NH2 ARG D 557     -27.961  -3.526 -16.600  1.00 35.49    -0.235 N 
ATOM      9  HH  ARG D 557     -30.284  -2.096 -17.967  1.00 35.49     0.174 HD
ATOM     10  HH  ARG D 557     -30.070  -3.550 -17.762  1.00 35.49     0.174 HD
ATOM     11  HH  ARG D 557     -27.222  -3.356 -16.210  1.00 35.49     0.174 HD
ATOM     12  HH  ARG D 557     -28.238  -4.320 -16.707  1.00 35.49     0.174 HD
ATOM     13  HE  ARG D 557     -27.475  -1.264 -16.383  1.00 35.49     0.178 HD
ENDBRANCH   4   5
ENDBRANCH   3   4
ENDBRANCH   2   3
ENDBRANCH   1   2
END_RES ARG D 557
BEGIN_RES GLU D 570
REMARK  3 active torsions:
REMARK  status: ('A' for Active; 'I' for Inactive)
REMARK    5  A    between atoms: CA   and  CB  
REMARK    6  A    between atoms: CB   and  CG  
REMARK    7  A    between atoms: CG   and  CD  
ROOT
ATOM     14  CA  GLU D 570     -18.033  -6.348 -13.375  1.00 32.92     0.160 C 
ENDROOT
BRANCH  14  15
ATOM     15  CB  GLU D 570     -19.500  -6.345 -13.794  1.00 32.92     0.043 C 
BRANCH  15  16
ATOM     16  CG  GLU D 570     -20.090  -7.637 -14.231  1.00 32.92     0.100 C 
BRANCH  16  17
ATOM     17  CD  GLU D 570     -20.539  -7.622 -15.673  1.00 32.92     0.185 C 
ATOM     18  OE1 GLU D 570     -20.648  -6.530 -16.262  1.00 32.92    -0.647 OA
ATOM     19  OE2 GLU D 570     -20.800  -8.714 -16.215  1.00 32.92    -0.647 OA
ENDBRANCH  16  17
ENDBRANCH  15  16
ENDBRANCH  14  15
END_RES GLU D 570
ENDMDL
MODEL 5
REMARK VINA RESULT:      -6.8      1.606      2.479
REMARK  19 active torsions:
REMARK  status: ('A' for Active; 'I' for Inactive)
REMARK    1  A    between atoms: C_2  and  C_3 
REMARK    2  A    between atoms: C_3  and  C_4 
REMARK    3  A    between atoms: C_4  and  C_5 
REMARK    4  A    between atoms: C_5  and  C_6 
REMARK    5  A    between atoms: C_6  and  C_7 
REMARK    6  A    between atoms: C_7  and  C_8 
REMARK    7  A    between atoms: C_8  and  C_9 
REMARK    8  A    between atoms: C_9  and  C_10 
REMARK    9  A    between atoms: C_10  and  C_11 
REMARK   10  A    between atoms: C_11  and  C_12 
REMARK   11  A    between atoms: C_12  and  C_13 
REMARK   12  A    between atoms: C_13  and  C_14 
REMARK   13  A    between atoms: C_14  and  C_15 
REMARK   14  A    between atoms: C_15  and  C_16 
REMARK   15  A    between atoms: C_16  and  C_17 
REMARK   16  A    between atoms: C_17  and  C_18 
REMARK       I    between atoms: C_18  and  N_20 
REMARK   17  A    between atoms: N_20  and  C_21 
REMARK   18  A    between atoms: C_21  and  C_24 
REMARK   19  A    between atoms: C_24  and  O_25 
ROOT
HETATM    1  C   UNL     1     -20.057  -5.917  -6.736  1.00  0.00     0.000 C 
ENDROOT
BRANCH   1   2
HETATM    2  C   UNL     1     -20.106  -7.068  -5.746  1.00  0.00     0.000 C 
BRANCH   2   3
HETATM    3  C   UNL     1     -21.547  -7.407  -5.407  1.00  0.00     0.000 C 
BRANCH   3   4
HETATM    4  C   UNL     1     -21.594  -8.327  -4.200  1.00  0.00     0.000 C 
BRANCH   4   5
HETATM    5  C   UNL     1     -21.019  -7.620  -2.986  1.00  0.00     0.000 C 
BRANCH   5   6
HETATM    6  C   UNL     1     -21.882  -6.422  -2.630  1.00  0.00     0.000 C 
BRANCH   6   7
HETATM    7  C   UNL     1     -22.321  -6.516  -1.181  1.00  0.00     0.000 C 
BRANCH   7   8
HETATM    8  C   UNL     1     -21.739  -7.766  -0.544  1.00  0.00     0.000 C 
BRANCH   8   9
HETATM    9  C   UNL     1     -22.604  -8.202   0.625  1.00  0.00     0.000 C 
BRANCH   9  10
HETATM   10  C   UNL     1     -23.543  -9.313   0.192  1.00  0.00     0.000 C 
BRANCH  10  11
HETATM   11  C   UNL     1     -22.858 -10.204  -0.833  1.00  0.00     0.000 C 
BRANCH  11  12
HETATM   12  C   UNL     1     -23.539 -11.561  -0.883  1.00  0.00    -0.000 C 
BRANCH  12  13
HETATM   13  C   UNL     1     -23.479 -12.244   0.479  1.00  0.00    -0.005 C 
HETATM   14  C   UNL     1     -22.051 -12.589   0.836  1.00  0.00     0.005 C 
ENDBRANCH  12  13
ENDBRANCH  11  12
ENDBRANCH  10  11
ENDBRANCH   9  10
ENDBRANCH   8   9
ENDBRANCH   7   8
ENDBRANCH   6   7
ENDBRANCH   5   6
ENDBRANCH   4   5
ENDBRANCH   3   4
ENDBRANCH   2   3
ENDBRANCH   1   2
BRANCH   1  15
HETATM   15  C   UNL     1     -20.428  -4.615  -6.045  1.00  0.00     0.000 C 
BRANCH  15  16
HETATM   16  C   UNL     1     -21.064  -3.654  -7.038  1.00  0.00     0.009 C 
BRANCH  16  17
HETATM   17  C   UNL     1     -22.291  -4.277  -7.679  1.00  0.00     0.103 C 
BRANCH  17  18
HETATM   18  C   UNL     1     -22.145  -4.247  -9.176  1.00  0.00     0.218 C 
HETATM   19  O   UNL     1     -21.079  -4.557  -9.704  1.00  0.00    -0.274 OA
HETATM   20  N   UNL     1     -23.252  -3.824  -9.872  1.00  0.00    -0.350 N 
HETATM   21  H   UNL     1     -24.116  -3.660  -9.366  1.00  0.00     0.163 HD
BRANCH  20  22
HETATM   22  C   UNL     1     -23.283  -3.771 -11.355  1.00  0.00     0.046 C 
HETATM   23  C   UNL     1     -22.009  -3.077 -11.879  1.00  0.00     0.040 C 
HETATM   24  C   UNL     1     -23.304  -5.216 -11.894  1.00  0.00     0.040 C 
BRANCH  22  25
HETATM   25  C   UNL     1     -24.523  -3.007 -11.912  1.00  0.00     0.194 C 
BRANCH  25  26
HETATM   26  O   UNL     1     -24.776  -3.258 -13.298  1.00  0.00    -0.398 OA
HETATM   27  H   UNL     1     -24.791  -2.394 -13.742  1.00  0.00     0.209 HD
ENDBRANCH  25  26
ENDBRANCH  22  25
ENDBRANCH  20  22
ENDBRANCH  17  18
ENDBRANCH  16  17
ENDBRANCH  15  16
ENDBRANCH   1  15
TORSDOF 19
BEGIN_RES ARG D 557
REMARK  4 active torsions:
REMARK  status: ('A' for Active; 'I' for Inactive)
REMARK    1  A    between atoms: CA   and  CB  
REMARK    2  A    between atoms: CB   and  CG  
REMARK    3  A    between atoms: CG   and  CD  
REMARK    4  A    between atoms: CD   and  NE  
REMARK       I    between atoms: NE   and  CZ  
REMARK       I    between atoms: CZ   and  NH1 
REMARK       I    between atoms: CZ   and  NH2 
ROOT
ATOM      1  CA  ARG D 557     -26.217   2.705 -17.014  1.00 35.49     0.159 C 
ENDROOT
BRANCH   1   2
ATOM      2  CB  ARG D 557     -26.789   1.319 -17.183  1.00 35.49     0.034 C 
BRANCH   2   3
ATOM      3  CG  ARG D 557     -25.953   0.200 -16.733  1.00 35.49     0.027 C 
BRANCH   3   4
ATOM      4  CD  ARG D 557     -26.740  -0.855 -16.054  1.00 35.49     0.116 C 
BRANCH   4   5
ATOM      5  NE  ARG D 557     -27.997  -1.101 -16.710  1.00 35.49    -0.212 N 
ATOM      6  CZ  ARG D 557     -28.520  -2.283 -16.950  1.00 35.49     0.666 C 
ATOM      7  NH1 ARG D 557     -27.916  -3.407 -16.613  1.00 35.49    -0.235 N 
ATOM      8  NH2 ARG D 557     -29.681  -2.317 -17.537  1.00 35.49    -0.235 N 
ATOM      9  HH  ARG D 557     -27.153  -3.408 -16.223  1.00 35.49     0.174 HD
ATOM     10  HH  ARG D 557     -28.307  -4.148 -16.792  1.00 35.49     0.174 HD
ATOM     11  HH  ARG D 557     -30.051  -1.575 -17.737  1.00 35.49     0.174 HD
ATOM     12  HH  ARG D 557     -30.052  -3.061 -17.705  1.00 35.49     0.174 HD
ATOM     13  HE  ARG D 557     -28.419  -0.434 -17.027  1.00 35.49     0.178 HD
ENDBRANCH   4   5
ENDBRANCH   3   4
ENDBRANCH   2   3
ENDBRANCH   1   2
END_RES ARG D 557
BEGIN_RES GLU D 570
REMARK  3 active torsions:
REMARK  status: ('A' for Active; 'I' for Inactive)
REMARK    5  A    between atoms: CA   and  CB  
REMARK    6  A    between atoms: CB   and  CG  
REMARK    7  A    between atoms: CG   and  CD  
ROOT
ATOM     14  CA  GLU D 570     -18.033  -6.348 -13.375  1.00 32.92     0.160 C 
ENDROOT
BRANCH  14  15
ATOM     15  CB  GLU D 570     -19.500  -6.345 -13.794  1.00 32.92     0.043 C 
BRANCH  15  16
ATOM     16  CG  GLU D 570     -19.797  -6.447 -15.246  1.00 32.92     0.100 C 
BRANCH  16  17
ATOM     17  CD  GLU D 570     -20.961  -5.582 -15.672  1.00 32.92     0.185 C 
ATOM     18  OE1 GLU D 570     -21.751  -5.161 -14.805  1.00 32.92    -0.647 OA
ATOM     19  OE2 GLU D 570     -21.093  -5.336 -16.887  1.00 32.92    -0.647 OA
ENDBRANCH  16  17
ENDBRANCH  15  16
ENDBRANCH  14  15
END_RES GLU D 570
ENDMDL
MODEL 6
REMARK VINA RESULT:      -6.8      1.959      3.946
REMARK  19 active torsions:
REMARK  status: ('A' for Active; 'I' for Inactive)
REMARK    1  A    between atoms: C_2  and  C_3 
REMARK    2  A    between atoms: C_3  and  C_4 
REMARK    3  A    between atoms: C_4  and  C_5 
REMARK    4  A    between atoms: C_5  and  C_6 
REMARK    5  A    between atoms: C_6  and  C_7 
REMARK    6  A    between atoms: C_7  and  C_8 
REMARK    7  A    between atoms: C_8  and  C_9 
REMARK    8  A    between atoms: C_9  and  C_10 
REMARK    9  A    between atoms: C_10  and  C_11 
REMARK   10  A    between atoms: C_11  and  C_12 
REMARK   11  A    between atoms: C_12  and  C_13 
REMARK   12  A    between atoms: C_13  and  C_14 
REMARK   13  A    between atoms: C_14  and  C_15 
REMARK   14  A    between atoms: C_15  and  C_16 
REMARK   15  A    between atoms: C_16  and  C_17 
REMARK   16  A    between atoms: C_17  and  C_18 
REMARK       I    between atoms: C_18  and  N_20 
REMARK   17  A    between atoms: N_20  and  C_21 
REMARK   18  A    between atoms: C_21  and  C_24 
REMARK   19  A    between atoms: C_24  and  O_25 
ROOT
HETATM    1  C   UNL     1     -21.993  -6.439  -4.136  1.00  0.00     0.000 C 
ENDROOT
BRANCH   1   2
HETATM    2  C   UNL     1     -21.309  -6.354  -2.782  1.00  0.00     0.000 C 
BRANCH   2   3
HETATM    3  C   UNL     1     -22.317  -6.591  -1.670  1.00  0.00     0.000 C 
BRANCH   3   4
HETATM    4  C   UNL     1     -21.791  -7.641  -0.708  1.00  0.00     0.000 C 
BRANCH   4   5
HETATM    5  C   UNL     1     -22.760  -7.818   0.446  1.00  0.00     0.000 C 
BRANCH   5   6
HETATM    6  C   UNL     1     -23.567  -9.089   0.251  1.00  0.00     0.000 C 
BRANCH   6   7
HETATM    7  C   UNL     1     -22.667 -10.201  -0.252  1.00  0.00     0.000 C 
BRANCH   7   8
HETATM    8  C   UNL     1     -23.399 -11.027  -1.296  1.00  0.00     0.000 C 
BRANCH   8   9
HETATM    9  C   UNL     1     -22.454 -11.383  -2.429  1.00  0.00     0.000 C 
BRANCH   9  10
HETATM   10  C   UNL     1     -22.477 -10.295  -3.487  1.00  0.00     0.000 C 
BRANCH  10  11
HETATM   11  C   UNL     1     -21.078 -10.082  -4.046  1.00  0.00     0.000 C 
BRANCH  11  12
HETATM   12  C   UNL     1     -20.070 -10.008  -2.912  1.00  0.00    -0.000 C 
BRANCH  12  13
HETATM   13  C   UNL     1     -18.852  -9.188  -3.328  1.00  0.00    -0.005 C 
HETATM   14  C   UNL     1     -18.602  -9.326  -4.813  1.00  0.00     0.005 C 
ENDBRANCH  12  13
ENDBRANCH  11  12
ENDBRANCH  10  11
ENDBRANCH   9  10
ENDBRANCH   8   9
ENDBRANCH   7   8
ENDBRANCH   6   7
ENDBRANCH   5   6
ENDBRANCH   4   5
ENDBRANCH   3   4
ENDBRANCH   2   3
ENDBRANCH   1   2
BRANCH   1  15
HETATM   15  C   UNL     1     -20.957  -6.418  -5.249  1.00  0.00     0.000 C 
BRANCH  15  16
HETATM   16  C   UNL     1     -20.978  -5.075  -5.963  1.00  0.00     0.009 C 
BRANCH  16  17
HETATM   17  C   UNL     1     -20.808  -5.258  -7.460  1.00  0.00     0.103 C 
BRANCH  17  18
HETATM   18  C   UNL     1     -22.028  -4.741  -8.171  1.00  0.00     0.218 C 
HETATM   19  O   UNL     1     -23.081  -4.575  -7.560  1.00  0.00    -0.274 OA
HETATM   20  N   UNL     1     -21.879  -4.515  -9.519  1.00  0.00    -0.350 N 
HETATM   21  H   UNL     1     -20.957  -4.605  -9.931  1.00  0.00     0.163 HD
BRANCH  20  22
HETATM   22  C   UNL     1     -22.977  -3.971 -10.357  1.00  0.00     0.046 C 
HETATM   23  C   UNL     1     -22.399  -3.003 -11.409  1.00  0.00     0.040 C 
HETATM   24  C   UNL     1     -23.652  -5.145 -11.097  1.00  0.00     0.040 C 
BRANCH  22  25
HETATM   25  C   UNL     1     -24.056  -3.210  -9.529  1.00  0.00     0.194 C 
BRANCH  25  26
HETATM   26  O   UNL     1     -25.346  -3.827  -9.564  1.00  0.00    -0.398 OA
HETATM   27  H   UNL     1     -25.995  -3.116  -9.694  1.00  0.00     0.209 HD
ENDBRANCH  25  26
ENDBRANCH  22  25
ENDBRANCH  20  22
ENDBRANCH  17  18
ENDBRANCH  16  17
ENDBRANCH  15  16
ENDBRANCH   1  15
TORSDOF 19
BEGIN_RES ARG D 557
REMARK  4 active torsions:
REMARK  status: ('A' for Active; 'I' for Inactive)
REMARK    1  A    between atoms: CA   and  CB  
REMARK    2  A    between atoms: CB   and  CG  
REMARK    3  A    between atoms: CG   and  CD  
REMARK    4  A    between atoms: CD   and  NE  
REMARK       I    between atoms: NE   and  CZ  
REMARK       I    between atoms: CZ   and  NH1 
REMARK       I    between atoms: CZ   and  NH2 
ROOT
ATOM      1  CA  ARG D 557     -26.217   2.705 -17.014  1.00 35.49     0.159 C 
ENDROOT
BRANCH   1   2
ATOM      2  CB  ARG D 557     -26.789   1.319 -17.183  1.00 35.49     0.034 C 
BRANCH   2   3
ATOM      3  CG  ARG D 557     -28.230   1.227 -17.445  1.00 35.49     0.027 C 
BRANCH   3   4
ATOM      4  CD  ARG D 557     -28.915   0.303 -16.511  1.00 35.49     0.116 C 
BRANCH   4   5
ATOM      5  NE  ARG D 557     -29.287  -0.933 -17.147  1.00 35.49    -0.212 N 
ATOM      6  CZ  ARG D 557     -28.649  -2.077 -17.034  1.00 35.49     0.666 C 
ATOM      7  NH1 ARG D 557     -27.552  -2.209 -16.311  1.00 35.49    -0.235 N 
ATOM      8  NH2 ARG D 557     -29.141  -3.103 -17.665  1.00 35.49    -0.235 N 
ATOM      9  HH  ARG D 557     -27.212  -1.547 -15.886  1.00 35.49     0.174 HD
ATOM     10  HH  ARG D 557     -27.181  -2.980 -16.273  1.00 35.49     0.174 HD
ATOM     11  HH  ARG D 557     -29.855  -2.990 -18.118  1.00 35.49     0.174 HD
ATOM     12  HH  ARG D 557     -28.759  -3.859 -17.613  1.00 35.49     0.174 HD
ATOM     13  HE  ARG D 557     -29.941  -0.922 -17.690  1.00 35.49     0.178 HD
ENDBRANCH   4   5
ENDBRANCH   3   4
ENDBRANCH   2   3
ENDBRANCH   1   2
END_RES ARG D 557
BEGIN_RES GLU D 570
REMARK  3 active torsions:
REMARK  status: ('A' for Active; 'I' for Inactive)
REMARK    5  A    between atoms: CA   and  CB  
REMARK    6  A    between atoms: CB   and  CG  
REMARK    7  A    between atoms: CG   and  CD  
ROOT
ATOM     14  CA  GLU D 570     -18.033  -6.348 -13.375  1.00 32.92     0.160 C 
ENDROOT
BRANCH  14  15
ATOM     15  CB  GLU D 570     -19.500  -6.345 -13.794  1.00 32.92     0.043 C 
BRANCH  15  16
ATOM     16  CG  GLU D 570     -20.091  -7.637 -14.228  1.00 32.92     0.100 C 
BRANCH  16  17
ATOM     17  CD  GLU D 570     -21.121  -7.477 -15.322  1.00 32.92     0.185 C 
ATOM     18  OE1 GLU D 570     -21.133  -8.290 -16.266  1.00 32.92    -0.647 OA
ATOM     19  OE2 GLU D 570     -21.913  -6.517 -15.242  1.00 32.92    -0.647 OA
ENDBRANCH  16  17
ENDBRANCH  15  16
ENDBRANCH  14  15
END_RES GLU D 570
ENDMDL
MODEL 7
REMARK VINA RESULT:      -6.7      1.560      2.636
REMARK  19 active torsions:
REMARK  status: ('A' for Active; 'I' for Inactive)
REMARK    1  A    between atoms: C_2  and  C_3 
REMARK    2  A    between atoms: C_3  and  C_4 
REMARK    3  A    between atoms: C_4  and  C_5 
REMARK    4  A    between atoms: C_5  and  C_6 
REMARK    5  A    between atoms: C_6  and  C_7 
REMARK    6  A    between atoms: C_7  and  C_8 
REMARK    7  A    between atoms: C_8  and  C_9 
REMARK    8  A    between atoms: C_9  and  C_10 
REMARK    9  A    between atoms: C_10  and  C_11 
REMARK   10  A    between atoms: C_11  and  C_12 
REMARK   11  A    between atoms: C_12  and  C_13 
REMARK   12  A    between atoms: C_13  and  C_14 
REMARK   13  A    between atoms: C_14  and  C_15 
REMARK   14  A    between atoms: C_15  and  C_16 
REMARK   15  A    between atoms: C_16  and  C_17 
REMARK   16  A    between atoms: C_17  and  C_18 
REMARK       I    between atoms: C_18  and  N_20 
REMARK   17  A    between atoms: N_20  and  C_21 
REMARK   18  A    between atoms: C_21  and  C_24 
REMARK   19  A    between atoms: C_24  and  O_25 
ROOT
HETATM    1  C   UNL     1     -21.828  -5.709  -6.215  1.00  0.00     0.000 C 
ENDROOT
BRANCH   1   2
HETATM    2  C   UNL     1     -21.772  -6.584  -4.975  1.00  0.00     0.000 C 
BRANCH   2   3
HETATM    3  C   UNL     1     -21.124  -5.827  -3.828  1.00  0.00     0.000 C 
BRANCH   3   4
HETATM    4  C   UNL     1     -21.707  -6.290  -2.505  1.00  0.00     0.000 C 
BRANCH   4   5
HETATM    5  C   UNL     1     -21.456  -7.775  -2.320  1.00  0.00     0.000 C 
BRANCH   5   6
HETATM    6  C   UNL     1     -21.186  -8.075  -0.857  1.00  0.00     0.000 C 
BRANCH   6   7
HETATM    7  C   UNL     1     -22.234  -7.402   0.009  1.00  0.00     0.000 C 
BRANCH   7   8
HETATM    8  C   UNL     1     -23.322  -8.398   0.373  1.00  0.00     0.000 C 
BRANCH   8   9
HETATM    9  C   UNL     1     -22.843  -9.811   0.095  1.00  0.00     0.000 C 
BRANCH   9  10
HETATM   10  C   UNL     1     -24.032 -10.739  -0.072  1.00  0.00     0.000 C 
BRANCH  10  11
HETATM   11  C   UNL     1     -23.811 -11.659  -1.263  1.00  0.00     0.000 C 
BRANCH  11  12
HETATM   12  C   UNL     1     -22.794 -11.049  -2.212  1.00  0.00    -0.000 C 
BRANCH  12  13
HETATM   13  C   UNL     1     -22.668 -11.890  -3.479  1.00  0.00    -0.005 C 
HETATM   14  C   UNL     1     -21.827 -11.172  -4.510  1.00  0.00     0.005 C 
ENDBRANCH  12  13
ENDBRANCH  11  12
ENDBRANCH  10  11
ENDBRANCH   9  10
ENDBRANCH   8   9
ENDBRANCH   7   8
ENDBRANCH   6   7
ENDBRANCH   5   6
ENDBRANCH   4   5
ENDBRANCH   3   4
ENDBRANCH   2   3
ENDBRANCH   1   2
BRANCH   1  15
HETATM   15  C   UNL     1     -20.441  -5.180  -6.546  1.00  0.00     0.000 C 
BRANCH  15  16
HETATM   16  C   UNL     1     -20.540  -4.020  -7.526  1.00  0.00     0.009 C 
BRANCH  16  17
HETATM   17  C   UNL     1     -19.898  -4.380  -8.853  1.00  0.00     0.103 C 
BRANCH  17  18
HETATM   18  C   UNL     1     -20.899  -4.196  -9.961  1.00  0.00     0.218 C 
HETATM   19  O   UNL     1     -20.560  -4.332 -11.135  1.00  0.00    -0.274 OA
HETATM   20  N   UNL     1     -22.165  -3.840  -9.563  1.00  0.00    -0.350 N 
HETATM   21  H   UNL     1     -22.381  -3.823  -8.573  1.00  0.00     0.163 HD
BRANCH  20  22
HETATM   22  C   UNL     1     -23.276  -3.655 -10.530  1.00  0.00     0.046 C 
HETATM   23  C   UNL     1     -23.552  -4.980 -11.269  1.00  0.00     0.040 C 
HETATM   24  C   UNL     1     -24.546  -3.264  -9.745  1.00  0.00     0.040 C 
BRANCH  22  25
HETATM   25  C   UNL     1     -22.981  -2.552 -11.593  1.00  0.00     0.194 C 
BRANCH  25  26
HETATM   26  O   UNL     1     -23.942  -2.506 -12.653  1.00  0.00    -0.398 OA
HETATM   27  H   UNL     1     -24.704  -3.036 -12.365  1.00  0.00     0.209 HD
ENDBRANCH  25  26
ENDBRANCH  22  25
ENDBRANCH  20  22
ENDBRANCH  17  18
ENDBRANCH  16  17
ENDBRANCH  15  16
ENDBRANCH   1  15
TORSDOF 19
BEGIN_RES ARG D 557
REMARK  4 active torsions:
REMARK  status: ('A' for Active; 'I' for Inactive)
REMARK    1  A    between atoms: CA   and  CB  
REMARK    2  A    between atoms: CB   and  CG  
REMARK    3  A    between atoms: CG   and  CD  
REMARK    4  A    between atoms: CD   and  NE  
REMARK       I    between atoms: NE   and  CZ  
REMARK       I    between atoms: CZ   and  NH1 
REMARK       I    between atoms: CZ   and  NH2 
ROOT
ATOM      1  CA  ARG D 557     -26.217   2.705 -17.014  1.00 35.49     0.159 C 
ENDROOT
BRANCH   1   2
ATOM      2  CB  ARG D 557     -26.789   1.319 -17.183  1.00 35.49     0.034 C 
BRANCH   2   3
ATOM      3  CG  ARG D 557     -28.233   1.226 -17.433  1.00 35.49     0.027 C 
BRANCH   3   4
ATOM      4  CD  ARG D 557     -28.911   0.309 -16.489  1.00 35.49     0.116 C 
BRANCH   4   5
ATOM      5  NE  ARG D 557     -29.295  -0.928 -17.116  1.00 35.49    -0.212 N 
ATOM      6  CZ  ARG D 557     -28.649  -2.069 -17.025  1.00 35.49     0.666 C 
ATOM      7  NH1 ARG D 557     -27.531  -2.198 -16.335  1.00 35.49    -0.235 N 
ATOM      8  NH2 ARG D 557     -29.155  -3.096 -17.644  1.00 35.49    -0.235 N 
ATOM      9  HH  ARG D 557     -27.182  -1.535 -15.918  1.00 35.49     0.174 HD
ATOM     10  HH  ARG D 557     -27.155  -2.967 -16.309  1.00 35.49     0.174 HD
ATOM     11  HH  ARG D 557     -29.882  -2.985 -18.076  1.00 35.49     0.174 HD
ATOM     12  HH  ARG D 557     -28.768  -3.850 -17.605  1.00 35.49     0.174 HD
ATOM     13  HE  ARG D 557     -29.965  -0.919 -17.640  1.00 35.49     0.178 HD
ENDBRANCH   4   5
ENDBRANCH   3   4
ENDBRANCH   2   3
ENDBRANCH   1   2
END_RES ARG D 557
BEGIN_RES GLU D 570
REMARK  3 active torsions:
REMARK  status: ('A' for Active; 'I' for Inactive)
REMARK    5  A    between atoms: CA   and  CB  
REMARK    6  A    between atoms: CB   and  CG  
REMARK    7  A    between atoms: CG   and  CD  
ROOT
ATOM     14  CA  GLU D 570     -18.033  -6.348 -13.375  1.00 32.92     0.160 C 
ENDROOT
BRANCH  14  15
ATOM     15  CB  GLU D 570     -19.500  -6.345 -13.794  1.00 32.92     0.043 C 
BRANCH  15  16
ATOM     16  CG  GLU D 570     -19.798  -6.193 -15.242  1.00 32.92     0.100 C 
BRANCH  16  17
ATOM     17  CD  GLU D 570     -21.240  -5.832 -15.511  1.00 32.92     0.185 C 
ATOM     18  OE1 GLU D 570     -21.493  -4.880 -16.275  1.00 32.92    -0.647 OA
ATOM     19  OE2 GLU D 570     -22.126  -6.498 -14.940  1.00 32.92    -0.647 OA
ENDBRANCH  16  17
ENDBRANCH  15  16
ENDBRANCH  14  15
END_RES GLU D 570
ENDMDL
MODEL 8
REMARK VINA RESULT:      -6.7      1.977      3.560
REMARK  19 active torsions:
REMARK  status: ('A' for Active; 'I' for Inactive)
REMARK    1  A    between atoms: C_2  and  C_3 
REMARK    2  A    between atoms: C_3  and  C_4 
REMARK    3  A    between atoms: C_4  and  C_5 
REMARK    4  A    between atoms: C_5  and  C_6 
REMARK    5  A    between atoms: C_6  and  C_7 
REMARK    6  A    between atoms: C_7  and  C_8 
REMARK    7  A    between atoms: C_8  and  C_9 
REMARK    8  A    between atoms: C_9  and  C_10 
REMARK    9  A    between atoms: C_10  and  C_11 
REMARK   10  A    between atoms: C_11  and  C_12 
REMARK   11  A    between atoms: C_12  and  C_13 
REMARK   12  A    between atoms: C_13  and  C_14 
REMARK   13  A    between atoms: C_14  and  C_15 
REMARK   14  A    between atoms: C_15  and  C_16 
REMARK   15  A    between atoms: C_16  and  C_17 
REMARK   16  A    between atoms: C_17  and  C_18 
REMARK       I    between atoms: C_18  and  N_20 
REMARK   17  A    between atoms: N_20  and  C_21 
REMARK   18  A    between atoms: C_21  and  C_24 
REMARK   19  A    between atoms: C_24  and  O_25 
ROOT
HETATM    1  C   UNL     1     -20.608  -6.729  -5.410  1.00  0.00     0.000 C 
ENDROOT
BRANCH   1   2
HETATM    2  C   UNL     1     -21.727  -6.447  -4.422  1.00  0.00     0.000 C 
BRANCH   2   3
HETATM    3  C   UNL     1     -21.277  -6.780  -3.010  1.00  0.00     0.000 C 
BRANCH   3   4
HETATM    4  C   UNL     1     -22.167  -6.077  -2.002  1.00  0.00     0.000 C 
BRANCH   4   5
HETATM    5  C   UNL     1     -22.410  -6.980  -0.807  1.00  0.00     0.000 C 
BRANCH   5   6
HETATM    6  C   UNL     1     -21.311  -8.022  -0.715  1.00  0.00     0.000 C 
BRANCH   6   7
HETATM    7  C   UNL     1     -21.823  -9.251   0.013  1.00  0.00     0.000 C 
BRANCH   7   8
HETATM    8  C   UNL     1     -22.713 -10.065  -0.910  1.00  0.00     0.000 C 
BRANCH   8   9
HETATM    9  C   UNL     1     -21.861 -10.840  -1.899  1.00  0.00     0.000 C 
BRANCH   9  10
HETATM   10  C   UNL     1     -22.193 -10.413  -3.317  1.00  0.00     0.000 C 
BRANCH  10  11
HETATM   11  C   UNL     1     -20.914 -10.225  -4.118  1.00  0.00     0.000 C 
BRANCH  11  12
HETATM   12  C   UNL     1     -19.708 -10.279  -3.196  1.00  0.00    -0.000 C 
BRANCH  12  13
HETATM   13  C   UNL     1     -18.608  -9.347  -3.693  1.00  0.00    -0.005 C 
HETATM   14  C   UNL     1     -18.336  -9.584  -5.162  1.00  0.00     0.005 C 
ENDBRANCH  12  13
ENDBRANCH  11  12
ENDBRANCH  10  11
ENDBRANCH   9  10
ENDBRANCH   8   9
ENDBRANCH   7   8
ENDBRANCH   6   7
ENDBRANCH   5   6
ENDBRANCH   4   5
ENDBRANCH   3   4
ENDBRANCH   2   3
ENDBRANCH   1   2
BRANCH   1  15
HETATM   15  C   UNL     1     -20.194  -5.445  -6.113  1.00  0.00     0.000 C 
BRANCH  15  16
HETATM   16  C   UNL     1     -20.419  -5.571  -7.613  1.00  0.00     0.009 C 
BRANCH  16  17
HETATM   17  C   UNL     1     -19.801  -4.396  -8.350  1.00  0.00     0.103 C 
BRANCH  17  18
HETATM   18  C   UNL     1     -20.606  -4.099  -9.585  1.00  0.00     0.218 C 
HETATM   19  O   UNL     1     -20.102  -3.486 -10.524  1.00  0.00    -0.274 OA
HETATM   20  N   UNL     1     -21.913  -4.523  -9.557  1.00  0.00    -0.350 N 
HETATM   21  H   UNL     1     -22.229  -5.088  -8.776  1.00  0.00     0.163 HD
BRANCH  20  22
HETATM   22  C   UNL     1     -22.830  -4.338 -10.710  1.00  0.00     0.046 C 
HETATM   23  C   UNL     1     -24.035  -5.292 -10.576  1.00  0.00     0.040 C 
HETATM   24  C   UNL     1     -23.355  -2.888 -10.688  1.00  0.00     0.040 C 
BRANCH  22  25
HETATM   25  C   UNL     1     -22.142  -4.605 -12.084  1.00  0.00     0.194 C 
BRANCH  25  26
HETATM   26  O   UNL     1     -21.999  -3.432 -12.890  1.00  0.00    -0.398 OA
HETATM   27  H   UNL     1     -22.506  -3.587 -13.705  1.00  0.00     0.209 HD
ENDBRANCH  25  26
ENDBRANCH  22  25
ENDBRANCH  20  22
ENDBRANCH  17  18
ENDBRANCH  16  17
ENDBRANCH  15  16
ENDBRANCH   1  15
TORSDOF 19
BEGIN_RES ARG D 557
REMARK  4 active torsions:
REMARK  status: ('A' for Active; 'I' for Inactive)
REMARK    1  A    between atoms: CA   and  CB  
REMARK    2  A    between atoms: CB   and  CG  
REMARK    3  A    between atoms: CG   and  CD  
REMARK    4  A    between atoms: CD   and  NE  
REMARK       I    between atoms: NE   and  CZ  
REMARK       I    between atoms: CZ   and  NH1 
REMARK       I    between atoms: CZ   and  NH2 
ROOT
ATOM      1  CA  ARG D 557     -26.217   2.705 -17.014  1.00 35.49     0.159 C 
ENDROOT
BRANCH   1   2
ATOM      2  CB  ARG D 557     -26.789   1.319 -17.183  1.00 35.49     0.034 C 
BRANCH   2   3
ATOM      3  CG  ARG D 557     -25.923   0.196 -16.804  1.00 35.49     0.027 C 
BRANCH   3   4
ATOM      4  CD  ARG D 557     -26.651  -0.847 -16.046  1.00 35.49     0.116 C 
BRANCH   4   5
ATOM      5  NE  ARG D 557     -25.804  -1.519 -15.097  1.00 35.49    -0.212 N 
ATOM      6  CZ  ARG D 557     -25.861  -2.794 -14.784  1.00 35.49     0.666 C 
ATOM      7  NH1 ARG D 557     -26.744  -3.617 -15.319  1.00 35.49    -0.235 N 
ATOM      8  NH2 ARG D 557     -24.999  -3.238 -13.916  1.00 35.49    -0.235 N 
ATOM      9  HH  ARG D 557     -27.319  -3.347 -15.893  1.00 35.49     0.174 HD
ATOM     10  HH  ARG D 557     -26.732  -4.439 -15.078  1.00 35.49     0.174 HD
ATOM     11  HH  ARG D 557     -24.435  -2.686 -13.592  1.00 35.49     0.174 HD
ATOM     12  HH  ARG D 557     -25.002  -4.056 -13.692  1.00 35.49     0.174 HD
ATOM     13  HE  ARG D 557     -25.253  -1.049 -14.650  1.00 35.49     0.178 HD
ENDBRANCH   4   5
ENDBRANCH   3   4
ENDBRANCH   2   3
ENDBRANCH   1   2
END_RES ARG D 557
BEGIN_RES GLU D 570
REMARK  3 active torsions:
REMARK  status: ('A' for Active; 'I' for Inactive)
REMARK    5  A    between atoms: CA   and  CB  
REMARK    6  A    between atoms: CB   and  CG  
REMARK    7  A    between atoms: CG   and  CD  
ROOT
ATOM     14  CA  GLU D 570     -18.033  -6.348 -13.375  1.00 32.92     0.160 C 
ENDROOT
BRANCH  14  15
ATOM     15  CB  GLU D 570     -19.500  -6.345 -13.794  1.00 32.92     0.043 C 
BRANCH  15  16
ATOM     16  CG  GLU D 570     -19.809  -5.992 -15.204  1.00 32.92     0.100 C 
BRANCH  16  17
ATOM     17  CD  GLU D 570     -21.282  -5.759 -15.444  1.00 32.92     0.185 C 
ATOM     18  OE1 GLU D 570     -22.060  -6.732 -15.422  1.00 32.92    -0.647 OA
ATOM     19  OE2 GLU D 570     -21.660  -4.593 -15.674  1.00 32.92    -0.647 OA
ENDBRANCH  16  17
ENDBRANCH  15  16
ENDBRANCH  14  15
END_RES GLU D 570
ENDMDL
MODEL 9
REMARK VINA RESULT:      -6.5      4.074      9.818
REMARK  19 active torsions:
REMARK  status: ('A' for Active; 'I' for Inactive)
REMARK    1  A    between atoms: C_2  and  C_3 
REMARK    2  A    between atoms: C_3  and  C_4 
REMARK    3  A    between atoms: C_4  and  C_5 
REMARK    4  A    between atoms: C_5  and  C_6 
REMARK    5  A    between atoms: C_6  and  C_7 
REMARK    6  A    between atoms: C_7  and  C_8 
REMARK    7  A    between atoms: C_8  and  C_9 
REMARK    8  A    between atoms: C_9  and  C_10 
REMARK    9  A    between atoms: C_10  and  C_11 
REMARK   10  A    between atoms: C_11  and  C_12 
REMARK   11  A    between atoms: C_12  and  C_13 
REMARK   12  A    between atoms: C_13  and  C_14 
REMARK   13  A    between atoms: C_14  and  C_15 
REMARK   14  A    between atoms: C_15  and  C_16 
REMARK   15  A    between atoms: C_16  and  C_17 
REMARK   16  A    between atoms: C_17  and  C_18 
REMARK       I    between atoms: C_18  and  N_20 
REMARK   17  A    between atoms: N_20  and  C_21 
REMARK   18  A    between atoms: C_21  and  C_24 
REMARK   19  A    between atoms: C_24  and  O_25 
ROOT
HETATM    1  C   UNL     1     -21.252  -6.524  -5.967  1.00  0.00     0.000 C 
ENDROOT
BRANCH   1   2
HETATM    2  C   UNL     1     -20.443  -5.382  -5.376  1.00  0.00     0.000 C 
BRANCH   2   3
HETATM    3  C   UNL     1     -19.595  -4.728  -6.454  1.00  0.00     0.000 C 
BRANCH   3   4
HETATM    4  C   UNL     1     -20.481  -3.959  -7.417  1.00  0.00     0.000 C 
BRANCH   4   5
HETATM    5  C   UNL     1     -20.133  -4.327  -8.848  1.00  0.00     0.000 C 
BRANCH   5   6
HETATM    6  C   UNL     1     -21.361  -4.187  -9.729  1.00  0.00     0.000 C 
BRANCH   6   7
HETATM    7  C   UNL     1     -22.617  -4.367  -8.898  1.00  0.00     0.000 C 
BRANCH   7   8
HETATM    8  C   UNL     1     -23.826  -3.874  -9.674  1.00  0.00     0.000 C 
BRANCH   8   9
HETATM    9  C   UNL     1     -23.374  -3.094 -10.896  1.00  0.00     0.000 C 
BRANCH   9  10
HETATM   10  C   UNL     1     -24.421  -3.189 -11.990  1.00  0.00     0.000 C 
BRANCH  10  11
HETATM   11  C   UNL     1     -23.896  -4.030 -13.143  1.00  0.00     0.000 C 
BRANCH  11  12
HETATM   12  C   UNL     1     -24.249  -3.378 -14.469  1.00  0.00    -0.000 C 
BRANCH  12  13
HETATM   13  C   UNL     1     -23.432  -2.107 -14.678  1.00  0.00    -0.005 C 
HETATM   14  C   UNL     1     -24.333  -0.953 -15.055  1.00  0.00     0.005 C 
ENDBRANCH  12  13
ENDBRANCH  11  12
ENDBRANCH  10  11
ENDBRANCH   9  10
ENDBRANCH   8   9
ENDBRANCH   7   8
ENDBRANCH   6   7
ENDBRANCH   5   6
ENDBRANCH   4   5
ENDBRANCH   3   4
ENDBRANCH   2   3
ENDBRANCH   1   2
BRANCH   1  15
HETATM   15  C   UNL     1     -22.008  -7.254  -4.867  1.00  0.00     0.000 C 
BRANCH  15  16
HETATM   16  C   UNL     1     -21.198  -7.250  -3.579  1.00  0.00     0.009 C 
BRANCH  16  17
HETATM   17  C   UNL     1     -20.413  -8.541  -3.432  1.00  0.00     0.103 C 
BRANCH  17  18
HETATM   18  C   UNL     1     -20.813  -9.229  -2.156  1.00  0.00     0.218 C 
HETATM   19  O   UNL     1     -20.279 -10.285  -1.825  1.00  0.00    -0.274 OA
HETATM   20  N   UNL     1     -21.815  -8.618  -1.441  1.00  0.00    -0.350 N 
HETATM   21  H   UNL     1     -22.150  -7.709  -1.745  1.00  0.00     0.163 HD
BRANCH  20  22
HETATM   22  C   UNL     1     -22.301  -9.150  -0.143  1.00  0.00     0.046 C 
HETATM   23  C   UNL     1     -23.139  -8.077   0.580  1.00  0.00     0.040 C 
HETATM   24  C   UNL     1     -23.208 -10.366  -0.424  1.00  0.00     0.040 C 
BRANCH  22  25
HETATM   25  C   UNL     1     -21.144  -9.592   0.804  1.00  0.00     0.194 C 
BRANCH  25  26
HETATM   26  O   UNL     1     -21.018 -11.012   0.931  1.00  0.00    -0.398 OA
HETATM   27  H   UNL     1     -20.123 -11.186   1.266  1.00  0.00     0.209 HD
ENDBRANCH  25  26
ENDBRANCH  22  25
ENDBRANCH  20  22
ENDBRANCH  17  18
ENDBRANCH  16  17
ENDBRANCH  15  16
ENDBRANCH   1  15
TORSDOF 19
BEGIN_RES ARG D 557
REMARK  4 active torsions:
REMARK  status: ('A' for Active; 'I' for Inactive)
REMARK    1  A    between atoms: CA   and  CB  
REMARK    2  A    between atoms: CB   and  CG  
REMARK    3  A    between atoms: CG   and  CD  
REMARK    4  A    between atoms: CD   and  NE  
REMARK       I    between atoms: NE   and  CZ  
REMARK       I    between atoms: CZ   and  NH1 
REMARK       I    between atoms: CZ   and  NH2 
ROOT
ATOM      1  CA  ARG D 557     -26.217   2.705 -17.014  1.00 35.49     0.159 C 
ENDROOT
BRANCH   1   2
ATOM      2  CB  ARG D 557     -26.789   1.319 -17.183  1.00 35.49     0.034 C 
BRANCH   2   3
ATOM      3  CG  ARG D 557     -28.237   1.224 -17.402  1.00 35.49     0.027 C 
BRANCH   3   4
ATOM      4  CD  ARG D 557     -28.891   0.290 -16.457  1.00 35.49     0.116 C 
BRANCH   4   5
ATOM      5  NE  ARG D 557     -29.282  -0.940 -17.093  1.00 35.49    -0.212 N 
ATOM      6  CZ  ARG D 557     -28.643  -2.085 -17.008  1.00 35.49     0.666 C 
ATOM      7  NH1 ARG D 557     -27.528  -2.226 -16.316  1.00 35.49    -0.235 N 
ATOM      8  NH2 ARG D 557     -29.155  -3.105 -17.634  1.00 35.49    -0.235 N 
ATOM      9  HH  ARG D 557     -27.175  -1.569 -15.895  1.00 35.49     0.174 HD
ATOM     10  HH  ARG D 557     -27.157  -2.998 -16.295  1.00 35.49     0.174 HD
ATOM     11  HH  ARG D 557     -29.880  -2.987 -18.067  1.00 35.49     0.174 HD
ATOM     12  HH  ARG D 557     -28.773  -3.862 -17.600  1.00 35.49     0.174 HD
ATOM     13  HE  ARG D 557     -29.951  -0.923 -17.618  1.00 35.49     0.178 HD
ENDBRANCH   4   5
ENDBRANCH   3   4
ENDBRANCH   2   3
ENDBRANCH   1   2
END_RES ARG D 557
BEGIN_RES GLU D 570
REMARK  3 active torsions:
REMARK  status: ('A' for Active; 'I' for Inactive)
REMARK    5  A    between atoms: CA   and  CB  
REMARK    6  A    between atoms: CB   and  CG  
REMARK    7  A    between atoms: CG   and  CD  
ROOT
ATOM     14  CA  GLU D 570     -18.033  -6.348 -13.375  1.00 32.92     0.160 C 
ENDROOT
BRANCH  14  15
ATOM     15  CB  GLU D 570     -19.500  -6.345 -13.794  1.00 32.92     0.043 C 
BRANCH  15  16
ATOM     16  CG  GLU D 570     -19.817  -5.895 -15.174  1.00 32.92     0.100 C 
BRANCH  16  17
ATOM     17  CD  GLU D 570     -21.301  -5.836 -15.449  1.00 32.92     0.185 C 
ATOM     18  OE1 GLU D 570     -21.722  -5.079 -16.344  1.00 32.92    -0.647 OA
ATOM     19  OE2 GLU D 570     -22.054  -6.542 -14.749  1.00 32.92    -0.647 OA
ENDBRANCH  16  17
ENDBRANCH  15  16
ENDBRANCH  14  15
END_RES GLU D 570
ENDMDL
