MODEL 1
REMARK VINA RESULT:      -7.2      0.000      0.000
REMARK  2 active torsions:
REMARK  status: ('A' for Active; 'I' for Inactive)
REMARK    1  A    between atoms: C_7  and  O_14 
REMARK    2  A    between atoms: C_8  and  O_12 
ROOT
HETATM    1  C   UNL     1     -21.688  -6.045  -4.392  1.00  0.00     0.046 C 
HETATM    2  C   UNL     1     -21.157  -5.820  -5.815  1.00  0.00     0.061 C 
HETATM    3  C   UNL     1     -19.903  -4.936  -5.734  1.00  0.00     0.042 C 
HETATM    4  C   UNL     1     -19.368  -4.631  -7.123  1.00  0.00     0.044 C 
HETATM    5  C   UNL     1     -20.490  -4.285  -8.057  1.00  0.00    -0.022 A 
HETATM    6  C   UNL     1     -20.200  -3.724  -9.308  1.00  0.00     0.049 A 
HETATM    7  C   UNL     1     -21.229  -3.400 -10.199  1.00  0.00     0.099 A 
HETATM    8  C   UNL     1     -22.564  -3.621  -9.849  1.00  0.00     0.103 A 
HETATM    9  C   UNL     1     -22.844  -4.195  -8.600  1.00  0.00     0.077 A 
HETATM   10  C   UNL     1     -21.819  -4.548  -7.721  1.00  0.00     0.079 A 
HETATM   11  O   UNL     1     -22.201  -5.149  -6.548  1.00  0.00    -0.340 OA
HETATM   12  C   UNL     1     -20.890  -7.195  -6.451  1.00  0.00     0.046 C 
ENDROOT
BRANCH   8  13
HETATM   13  O   UNL     1     -23.690  -3.355 -10.584  1.00  0.00    -0.353 OA
HETATM   14  C   UNL     1     -24.935  -3.299  -9.904  1.00  0.00     0.210 C 
ENDBRANCH   8  13
BRANCH   7  15
HETATM   15  O   UNL     1     -20.880  -2.871 -11.412  1.00  0.00    -0.358 OA
HETATM   16  H   UNL     1     -21.199  -3.454 -12.119  1.00  0.00     0.217 HD
ENDBRANCH   7  15
TORSDOF 2
BEGIN_RES ARG D 557
REMARK  4 active torsions:
REMARK  status: ('A' for Active; 'I' for Inactive)
REMARK    1  A    between atoms: CA   and  CB  
REMARK    2  A    between atoms: CB   and  CG  
REMARK    3  A    between atoms: CG   and  CD  
REMARK    4  A    between atoms: CD   and  NE  
REMARK       I    between atoms: NE   and  CZ  
REMARK       I    between atoms: CZ   and  NH1 
REMARK       I    between atoms: CZ   and  NH2 
ROOT
ATOM      1  CA  ARG D 557     -26.217   2.705 -17.014  1.00 35.49     0.159 C 
ENDROOT
BRANCH   1   2
ATOM      2  CB  ARG D 557     -26.789   1.319 -17.183  1.00 35.49     0.034 C 
BRANCH   2   3
ATOM      3  CG  ARG D 557     -25.838   0.202 -17.137  1.00 35.49     0.027 C 
BRANCH   3   4
ATOM      4  CD  ARG D 557     -24.757   0.421 -16.149  1.00 35.49     0.116 C 
BRANCH   4   5
ATOM      5  NE  ARG D 557     -24.897  -0.425 -14.994  1.00 35.49    -0.212 N 
ATOM      6  CZ  ARG D 557     -24.085  -1.400 -14.653  1.00 35.49     0.666 C 
ATOM      7  NH1 ARG D 557     -23.025  -1.724 -15.370  1.00 35.49    -0.235 N 
ATOM      8  NH2 ARG D 557     -24.355  -2.052 -13.559  1.00 35.49    -0.235 N 
ATOM      9  HH  ARG D 557     -22.827  -1.307 -16.092  1.00 35.49     0.174 HD
ATOM     10  HH  ARG D 557     -22.529  -2.367 -15.097  1.00 35.49     0.174 HD
ATOM     11  HH  ARG D 557     -25.042  -1.816 -13.112  1.00 35.49     0.174 HD
ATOM     12  HH  ARG D 557     -23.851  -2.685 -13.304  1.00 35.49     0.174 HD
ATOM     13  HE  ARG D 557     -25.594  -0.334 -14.514  1.00 35.49     0.178 HD
ENDBRANCH   4   5
ENDBRANCH   3   4
ENDBRANCH   2   3
ENDBRANCH   1   2
END_RES ARG D 557
BEGIN_RES GLU D 570
REMARK  3 active torsions:
REMARK  status: ('A' for Active; 'I' for Inactive)
REMARK    5  A    between atoms: CA   and  CB  
REMARK    6  A    between atoms: CB   and  CG  
REMARK    7  A    between atoms: CG   and  CD  
ROOT
ATOM     14  CA  GLU D 570     -18.033  -6.348 -13.375  1.00 32.92     0.160 C 
ENDROOT
BRANCH  14  15
ATOM     15  CB  GLU D 570     -19.500  -6.345 -13.794  1.00 32.92     0.043 C 
BRANCH  15  16
ATOM     16  CG  GLU D 570     -20.445  -5.544 -12.973  1.00 32.92     0.100 C 
BRANCH  16  17
ATOM     17  CD  GLU D 570     -21.747  -5.259 -13.684  1.00 32.92     0.185 C 
ATOM     18  OE1 GLU D 570     -22.287  -4.146 -13.535  1.00 32.92    -0.647 OA
ATOM     19  OE2 GLU D 570     -22.241  -6.165 -14.384  1.00 32.92    -0.647 OA
ENDBRANCH  16  17
ENDBRANCH  15  16
ENDBRANCH  14  15
END_RES GLU D 570
ENDMDL
MODEL 2
REMARK VINA RESULT:      -7.0      2.401      5.226
REMARK  2 active torsions:
REMARK  status: ('A' for Active; 'I' for Inactive)
REMARK    1  A    between atoms: C_7  and  O_14 
REMARK    2  A    between atoms: C_8  and  O_12 
ROOT
HETATM    1  C   UNL     1     -22.108  -3.800 -14.810  1.00  0.00     0.046 C 
HETATM    2  C   UNL     1     -22.885  -4.112 -13.523  1.00  0.00     0.061 C 
HETATM    3  C   UNL     1     -23.884  -2.973 -13.269  1.00  0.00     0.042 C 
HETATM    4  C   UNL     1     -24.642  -3.202 -11.971  1.00  0.00     0.044 C 
HETATM    5  C   UNL     1     -23.710  -3.659 -10.888  1.00  0.00    -0.022 A 
HETATM    6  C   UNL     1     -24.152  -3.678  -9.558  1.00  0.00     0.049 A 
HETATM    7  C   UNL     1     -23.303  -4.109  -8.533  1.00  0.00     0.099 A 
HETATM    8  C   UNL     1     -21.996  -4.515  -8.818  1.00  0.00     0.103 A 
HETATM    9  C   UNL     1     -21.567  -4.504 -10.154  1.00  0.00     0.077 A 
HETATM   10  C   UNL     1     -22.421  -4.105 -11.184  1.00  0.00     0.079 A 
HETATM   11  O   UNL     1     -21.918  -4.182 -12.458  1.00  0.00    -0.340 OA
HETATM   12  C   UNL     1     -23.559  -5.485 -13.691  1.00  0.00     0.046 C 
ENDROOT
BRANCH   8  13
HETATM   13  O   UNL     1     -21.032  -4.949  -7.946  1.00  0.00    -0.353 OA
HETATM   14  C   UNL     1     -19.727  -4.403  -8.065  1.00  0.00     0.210 C 
ENDBRANCH   8  13
BRANCH   7  15
HETATM   15  O   UNL     1     -23.798  -4.120  -7.257  1.00  0.00    -0.358 OA
HETATM   16  H   UNL     1     -23.062  -4.064  -6.628  1.00  0.00     0.217 HD
ENDBRANCH   7  15
TORSDOF 2
BEGIN_RES ARG D 557
REMARK  4 active torsions:
REMARK  status: ('A' for Active; 'I' for Inactive)
REMARK    1  A    between atoms: CA   and  CB  
REMARK    2  A    between atoms: CB   and  CG  
REMARK    3  A    between atoms: CG   and  CD  
REMARK    4  A    between atoms: CD   and  NE  
REMARK       I    between atoms: NE   and  CZ  
REMARK       I    between atoms: CZ   and  NH1 
REMARK       I    between atoms: CZ   and  NH2 
ROOT
ATOM      1  CA  ARG D 557     -26.217   2.705 -17.014  1.00 35.49     0.159 C 
ENDROOT
BRANCH   1   2
ATOM      2  CB  ARG D 557     -26.789   1.319 -17.183  1.00 35.49     0.034 C 
BRANCH   2   3
ATOM      3  CG  ARG D 557     -28.235   1.172 -16.978  1.00 35.49     0.027 C 
BRANCH   3   4
ATOM      4  CD  ARG D 557     -28.644  -0.245 -16.841  1.00 35.49     0.116 C 
BRANCH   4   5
ATOM      5  NE  ARG D 557     -27.662  -1.027 -16.138  1.00 35.49    -0.212 N 
ATOM      6  CZ  ARG D 557     -27.534  -2.334 -16.198  1.00 35.49     0.666 C 
ATOM      7  NH1 ARG D 557     -28.333  -3.092 -16.926  1.00 35.49    -0.235 N 
ATOM      8  NH2 ARG D 557     -26.571  -2.875 -15.509  1.00 35.49    -0.235 N 
ATOM      9  HH  ARG D 557     -28.972  -2.757 -17.388  1.00 35.49     0.174 HD
ATOM     10  HH  ARG D 557     -28.200  -3.938 -16.928  1.00 35.49     0.174 HD
ATOM     11  HH  ARG D 557     -26.066  -2.360 -15.054  1.00 35.49     0.174 HD
ATOM     12  HH  ARG D 557     -26.455  -3.715 -15.526  1.00 35.49     0.174 HD
ATOM     13  HE  ARG D 557     -27.151  -0.627 -15.588  1.00 35.49     0.178 HD
ENDBRANCH   4   5
ENDBRANCH   3   4
ENDBRANCH   2   3
ENDBRANCH   1   2
END_RES ARG D 557
BEGIN_RES GLU D 570
REMARK  3 active torsions:
REMARK  status: ('A' for Active; 'I' for Inactive)
REMARK    5  A    between atoms: CA   and  CB  
REMARK    6  A    between atoms: CB   and  CG  
REMARK    7  A    between atoms: CG   and  CD  
ROOT
ATOM     14  CA  GLU D 570     -18.033  -6.348 -13.375  1.00 32.92     0.160 C 
ENDROOT
BRANCH  14  15
ATOM     15  CB  GLU D 570     -19.500  -6.345 -13.794  1.00 32.92     0.043 C 
BRANCH  15  16
ATOM     16  CG  GLU D 570     -20.092  -7.638 -14.225  1.00 32.92     0.100 C 
BRANCH  16  17
ATOM     17  CD  GLU D 570     -20.688  -7.580 -15.612  1.00 32.92     0.185 C 
ATOM     18  OE1 GLU D 570     -21.283  -8.581 -16.057  1.00 32.92    -0.647 OA
ATOM     19  OE2 GLU D 570     -20.544  -6.529 -16.267  1.00 32.92    -0.647 OA
ENDBRANCH  16  17
ENDBRANCH  15  16
ENDBRANCH  14  15
END_RES GLU D 570
ENDMDL
MODEL 3
REMARK VINA RESULT:      -6.8      2.162      2.501
REMARK  2 active torsions:
REMARK  status: ('A' for Active; 'I' for Inactive)
REMARK    1  A    between atoms: C_7  and  O_14 
REMARK    2  A    between atoms: C_8  and  O_12 
ROOT
HETATM    1  C   UNL     1     -21.316  -5.709  -4.400  1.00  0.00     0.046 C 
HETATM    2  C   UNL     1     -20.938  -5.678  -5.888  1.00  0.00     0.061 C 
HETATM    3  C   UNL     1     -19.648  -4.860  -6.048  1.00  0.00     0.042 C 
HETATM    4  C   UNL     1     -19.260  -4.747  -7.513  1.00  0.00     0.044 C 
HETATM    5  C   UNL     1     -20.464  -4.451  -8.357  1.00  0.00    -0.022 A 
HETATM    6  C   UNL     1     -20.292  -4.054  -9.691  1.00  0.00     0.049 A 
HETATM    7  C   UNL     1     -21.400  -3.781 -10.500  1.00  0.00     0.099 A 
HETATM    8  C   UNL     1     -22.697  -3.887  -9.986  1.00  0.00     0.103 A 
HETATM    9  C   UNL     1     -22.858  -4.297  -8.654  1.00  0.00     0.077 A 
HETATM   10  C   UNL     1     -21.756  -4.601  -7.853  1.00  0.00     0.079 A 
HETATM   11  O   UNL     1     -22.029  -5.042  -6.582  1.00  0.00    -0.340 OA
HETATM   12  C   UNL     1     -20.801  -7.130  -6.378  1.00  0.00     0.046 C 
ENDROOT
BRANCH   8  13
HETATM   13  O   UNL     1     -23.886  -3.647 -10.624  1.00  0.00    -0.353 OA
HETATM   14  C   UNL     1     -25.013  -3.307  -9.831  1.00  0.00     0.210 C 
ENDBRANCH   8  13
BRANCH   7  15
HETATM   15  O   UNL     1     -21.168  -3.415 -11.798  1.00  0.00    -0.358 OA
HETATM   16  H   UNL     1     -20.839  -2.502 -11.819  1.00  0.00     0.217 HD
ENDBRANCH   7  15
TORSDOF 2
BEGIN_RES ARG D 557
REMARK  4 active torsions:
REMARK  status: ('A' for Active; 'I' for Inactive)
REMARK    1  A    between atoms: CA   and  CB  
REMARK    2  A    between atoms: CB   and  CG  
REMARK    3  A    between atoms: CG   and  CD  
REMARK    4  A    between atoms: CD   and  NE  
REMARK       I    between atoms: NE   and  CZ  
REMARK       I    between atoms: CZ   and  NH1 
REMARK       I    between atoms: CZ   and  NH2 
ROOT
ATOM      1  CA  ARG D 557     -26.217   2.705 -17.014  1.00 35.49     0.159 C 
ENDROOT
BRANCH   1   2
ATOM      2  CB  ARG D 557     -26.789   1.319 -17.183  1.00 35.49     0.034 C 
BRANCH   2   3
ATOM      3  CG  ARG D 557     -28.232   1.226 -17.433  1.00 35.49     0.027 C 
BRANCH   3   4
ATOM      4  CD  ARG D 557     -28.910   0.306 -16.491  1.00 35.49     0.116 C 
BRANCH   4   5
ATOM      5  NE  ARG D 557     -29.293  -0.930 -17.121  1.00 35.49    -0.212 N 
ATOM      6  CZ  ARG D 557     -28.652  -2.073 -17.021  1.00 35.49     0.666 C 
ATOM      7  NH1 ARG D 557     -27.543  -2.206 -16.317  1.00 35.49    -0.235 N 
ATOM      8  NH2 ARG D 557     -29.155  -3.100 -17.644  1.00 35.49    -0.235 N 
ATOM      9  HH  ARG D 557     -27.196  -1.544 -15.898  1.00 35.49     0.174 HD
ATOM     10  HH  ARG D 557     -27.170  -2.976 -16.286  1.00 35.49     0.174 HD
ATOM     11  HH  ARG D 557     -29.876  -2.986 -18.084  1.00 35.49     0.174 HD
ATOM     12  HH  ARG D 557     -28.772  -3.855 -17.599  1.00 35.49     0.174 HD
ATOM     13  HE  ARG D 557     -29.956  -0.919 -17.653  1.00 35.49     0.178 HD
ENDBRANCH   4   5
ENDBRANCH   3   4
ENDBRANCH   2   3
ENDBRANCH   1   2
END_RES ARG D 557
BEGIN_RES GLU D 570
REMARK  3 active torsions:
REMARK  status: ('A' for Active; 'I' for Inactive)
REMARK    5  A    between atoms: CA   and  CB  
REMARK    6  A    between atoms: CB   and  CG  
REMARK    7  A    between atoms: CG   and  CD  
ROOT
ATOM     14  CA  GLU D 570     -18.033  -6.348 -13.375  1.00 32.92     0.160 C 
ENDROOT
BRANCH  14  15
ATOM     15  CB  GLU D 570     -19.500  -6.345 -13.794  1.00 32.92     0.043 C 
BRANCH  15  16
ATOM     16  CG  GLU D 570     -19.809  -5.989 -15.203  1.00 32.92     0.100 C 
BRANCH  16  17
ATOM     17  CD  GLU D 570     -21.139  -5.289 -15.356  1.00 32.92     0.185 C 
ATOM     18  OE1 GLU D 570     -21.781  -4.980 -14.334  1.00 32.92    -0.647 OA
ATOM     19  OE2 GLU D 570     -21.551  -5.062 -16.511  1.00 32.92    -0.647 OA
ENDBRANCH  16  17
ENDBRANCH  15  16
ENDBRANCH  14  15
END_RES GLU D 570
ENDMDL
MODEL 4
REMARK VINA RESULT:      -6.8      5.663      8.864
REMARK  2 active torsions:
REMARK  status: ('A' for Active; 'I' for Inactive)
REMARK    1  A    between atoms: C_7  and  O_14 
REMARK    2  A    between atoms: C_8  and  O_12 
ROOT
HETATM    1  C   UNL     1     -30.713  -5.083 -16.558  1.00  0.00     0.046 C 
HETATM    2  C   UNL     1     -29.288  -5.099 -17.130  1.00  0.00     0.061 C 
HETATM    3  C   UNL     1     -29.295  -5.910 -18.433  1.00  0.00     0.042 C 
HETATM    4  C   UNL     1     -27.893  -6.009 -19.014  1.00  0.00     0.044 C 
HETATM    5  C   UNL     1     -26.894  -6.302 -17.934  1.00  0.00    -0.022 A 
HETATM    6  C   UNL     1     -25.592  -6.686 -18.283  1.00  0.00     0.049 A 
HETATM    7  C   UNL     1     -24.640  -6.956 -17.293  1.00  0.00     0.099 A 
HETATM    8  C   UNL     1     -24.978  -6.859 -15.940  1.00  0.00     0.103 A 
HETATM    9  C   UNL     1     -26.280  -6.462 -15.601  1.00  0.00     0.077 A 
HETATM   10  C   UNL     1     -27.224  -6.161 -16.585  1.00  0.00     0.079 A 
HETATM   11  O   UNL     1     -28.450  -5.733 -16.144  1.00  0.00    -0.340 OA
HETATM   12  C   UNL     1     -28.833  -3.642 -17.324  1.00  0.00     0.046 C 
ENDROOT
BRANCH   8  13
HETATM   13  O   UNL     1     -24.186  -7.098 -14.847  1.00  0.00    -0.353 OA
HETATM   14  C   UNL     1     -23.651  -5.981 -14.152  1.00  0.00     0.210 C 
ENDBRANCH   8  13
BRANCH   7  15
HETATM   15  O   UNL     1     -23.382  -7.310 -17.698  1.00  0.00    -0.358 OA
HETATM   16  H   UNL     1     -23.446  -8.000 -18.375  1.00  0.00     0.217 HD
ENDBRANCH   7  15
TORSDOF 2
BEGIN_RES ARG D 557
REMARK  4 active torsions:
REMARK  status: ('A' for Active; 'I' for Inactive)
REMARK    1  A    between atoms: CA   and  CB  
REMARK    2  A    between atoms: CB   and  CG  
REMARK    3  A    between atoms: CG   and  CD  
REMARK    4  A    between atoms: CD   and  NE  
REMARK       I    between atoms: NE   and  CZ  
REMARK       I    between atoms: CZ   and  NH1 
REMARK       I    between atoms: CZ   and  NH2 
ROOT
ATOM      1  CA  ARG D 557     -26.217   2.705 -17.014  1.00 35.49     0.159 C 
ENDROOT
BRANCH   1   2
ATOM      2  CB  ARG D 557     -26.789   1.319 -17.183  1.00 35.49     0.034 C 
BRANCH   2   3
ATOM      3  CG  ARG D 557     -25.867   0.195 -16.983  1.00 35.49     0.027 C 
BRANCH   3   4
ATOM      4  CD  ARG D 557     -26.291  -0.694 -15.878  1.00 35.49     0.116 C 
BRANCH   4   5
ATOM      5  NE  ARG D 557     -25.228  -0.936 -14.938  1.00 35.49    -0.212 N 
ATOM      6  CZ  ARG D 557     -25.018  -2.060 -14.289  1.00 35.49     0.666 C 
ATOM      7  NH1 ARG D 557     -25.799  -3.115 -14.427  1.00 35.49    -0.235 N 
ATOM      8  NH2 ARG D 557     -23.991  -2.109 -13.491  1.00 35.49    -0.235 N 
ATOM      9  HH  ARG D 557     -26.478  -3.106 -14.949  1.00 35.49     0.174 HD
ATOM     10  HH  ARG D 557     -25.611  -3.822 -13.980  1.00 35.49     0.174 HD
ATOM     11  HH  ARG D 557     -23.501  -1.414 -13.427  1.00 35.49     0.174 HD
ATOM     12  HH  ARG D 557     -23.821  -2.818 -13.058  1.00 35.49     0.174 HD
ATOM     13  HE  ARG D 557     -24.720  -0.286 -14.733  1.00 35.49     0.178 HD
ENDBRANCH   4   5
ENDBRANCH   3   4
ENDBRANCH   2   3
ENDBRANCH   1   2
END_RES ARG D 557
BEGIN_RES GLU D 570
REMARK  3 active torsions:
REMARK  status: ('A' for Active; 'I' for Inactive)
REMARK    5  A    between atoms: CA   and  CB  
REMARK    6  A    between atoms: CB   and  CG  
REMARK    7  A    between atoms: CG   and  CD  
ROOT
ATOM     14  CA  GLU D 570     -18.033  -6.348 -13.375  1.00 32.92     0.160 C 
ENDROOT
BRANCH  14  15
ATOM     15  CB  GLU D 570     -19.500  -6.345 -13.794  1.00 32.92     0.043 C 
BRANCH  15  16
ATOM     16  CG  GLU D 570     -20.094  -7.640 -14.215  1.00 32.92     0.100 C 
BRANCH  16  17
ATOM     17  CD  GLU D 570     -20.723  -7.581 -15.588  1.00 32.92     0.185 C 
ATOM     18  OE1 GLU D 570     -20.740  -6.496 -16.200  1.00 32.92    -0.647 OA
ATOM     19  OE2 GLU D 570     -21.218  -8.628 -16.050  1.00 32.92    -0.647 OA
ENDBRANCH  16  17
ENDBRANCH  15  16
ENDBRANCH  14  15
END_RES GLU D 570
ENDMDL
MODEL 5
REMARK VINA RESULT:      -6.8      3.034      5.070
REMARK  2 active torsions:
REMARK  status: ('A' for Active; 'I' for Inactive)
REMARK    1  A    between atoms: C_7  and  O_14 
REMARK    2  A    between atoms: C_8  and  O_12 
ROOT
HETATM    1  C   UNL     1     -20.376  -4.726  -9.490  1.00  0.00     0.046 C 
HETATM    2  C   UNL     1     -21.280  -3.981 -10.484  1.00  0.00     0.061 C 
HETATM    3  C   UNL     1     -22.560  -3.552  -9.752  1.00  0.00     0.042 C 
HETATM    4  C   UNL     1     -23.520  -2.860 -10.706  1.00  0.00     0.044 C 
HETATM    5  C   UNL     1     -23.594  -3.600 -12.009  1.00  0.00    -0.022 A 
HETATM    6  C   UNL     1     -24.604  -3.284 -12.928  1.00  0.00     0.049 A 
HETATM    7  C   UNL     1     -24.688  -3.954 -14.153  1.00  0.00     0.099 A 
HETATM    8  C   UNL     1     -23.772  -4.959 -14.475  1.00  0.00     0.103 A 
HETATM    9  C   UNL     1     -22.756  -5.260 -13.555  1.00  0.00     0.077 A 
HETATM   10  C   UNL     1     -22.649  -4.572 -12.345  1.00  0.00     0.079 A 
HETATM   11  O   UNL     1     -21.590  -4.909 -11.542  1.00  0.00    -0.340 OA
HETATM   12  C   UNL     1     -20.484  -2.798 -11.062  1.00  0.00     0.046 C 
ENDROOT
BRANCH   8  13
HETATM   13  O   UNL     1     -23.712  -5.722 -15.611  1.00  0.00    -0.353 OA
HETATM   14  C   UNL     1     -24.515  -6.891 -15.676  1.00  0.00     0.210 C 
ENDBRANCH   8  13
BRANCH   7  15
HETATM   15  O   UNL     1     -25.687  -3.588 -15.014  1.00  0.00    -0.358 OA
HETATM   16  H   UNL     1     -26.207  -2.873 -14.615  1.00  0.00     0.217 HD
ENDBRANCH   7  15
TORSDOF 2
BEGIN_RES ARG D 557
REMARK  4 active torsions:
REMARK  status: ('A' for Active; 'I' for Inactive)
REMARK    1  A    between atoms: CA   and  CB  
REMARK    2  A    between atoms: CB   and  CG  
REMARK    3  A    between atoms: CG   and  CD  
REMARK    4  A    between atoms: CD   and  NE  
REMARK       I    between atoms: NE   and  CZ  
REMARK       I    between atoms: CZ   and  NH1 
REMARK       I    between atoms: CZ   and  NH2 
ROOT
ATOM      1  CA  ARG D 557     -26.217   2.705 -17.014  1.00 35.49     0.159 C 
ENDROOT
BRANCH   1   2
ATOM      2  CB  ARG D 557     -26.789   1.319 -17.183  1.00 35.49     0.034 C 
BRANCH   2   3
ATOM      3  CG  ARG D 557     -28.226   1.228 -17.468  1.00 35.49     0.027 C 
BRANCH   3   4
ATOM      4  CD  ARG D 557     -28.935   0.341 -16.516  1.00 35.49     0.116 C 
BRANCH   4   5
ATOM      5  NE  ARG D 557     -29.366  -0.884 -17.135  1.00 35.49    -0.212 N 
ATOM      6  CZ  ARG D 557     -28.746  -2.041 -17.062  1.00 35.49     0.666 C 
ATOM      7  NH1 ARG D 557     -27.614  -2.198 -16.401  1.00 35.49    -0.235 N 
ATOM      8  NH2 ARG D 557     -29.293  -3.054 -17.668  1.00 35.49    -0.235 N 
ATOM      9  HH  ARG D 557     -27.237  -1.546 -15.993  1.00 35.49     0.174 HD
ATOM     10  HH  ARG D 557     -27.256  -2.977 -16.386  1.00 35.49     0.174 HD
ATOM     11  HH  ARG D 557     -30.028  -2.925 -18.081  1.00 35.49     0.174 HD
ATOM     12  HH  ARG D 557     -28.924  -3.817 -17.641  1.00 35.49     0.174 HD
ATOM     13  HE  ARG D 557     -30.049  -0.857 -17.641  1.00 35.49     0.178 HD
ENDBRANCH   4   5
ENDBRANCH   3   4
ENDBRANCH   2   3
ENDBRANCH   1   2
END_RES ARG D 557
BEGIN_RES GLU D 570
REMARK  3 active torsions:
REMARK  status: ('A' for Active; 'I' for Inactive)
REMARK    5  A    between atoms: CA   and  CB  
REMARK    6  A    between atoms: CB   and  CG  
REMARK    7  A    between atoms: CG   and  CD  
ROOT
ATOM     14  CA  GLU D 570     -18.033  -6.348 -13.375  1.00 32.92     0.160 C 
ENDROOT
BRANCH  14  15
ATOM     15  CB  GLU D 570     -19.500  -6.345 -13.794  1.00 32.92     0.043 C 
BRANCH  15  16
ATOM     16  CG  GLU D 570     -20.082  -7.631 -14.259  1.00 32.92     0.100 C 
BRANCH  16  17
ATOM     17  CD  GLU D 570     -20.704  -7.534 -15.632  1.00 32.92     0.185 C 
ATOM     18  OE1 GLU D 570     -21.355  -8.501 -16.071  1.00 32.92    -0.647 OA
ATOM     19  OE2 GLU D 570     -20.523  -6.486 -16.283  1.00 32.92    -0.647 OA
ENDBRANCH  16  17
ENDBRANCH  15  16
ENDBRANCH  14  15
END_RES GLU D 570
ENDMDL
MODEL 6
REMARK VINA RESULT:      -6.4      4.783      9.039
REMARK  2 active torsions:
REMARK  status: ('A' for Active; 'I' for Inactive)
REMARK    1  A    between atoms: C_7  and  O_14 
REMARK    2  A    between atoms: C_8  and  O_12 
ROOT
HETATM    1  C   UNL     1     -30.093  -4.779 -18.007  1.00  0.00     0.046 C 
HETATM    2  C   UNL     1     -29.010  -5.699 -17.425  1.00  0.00     0.061 C 
HETATM    3  C   UNL     1     -28.531  -5.106 -16.092  1.00  0.00     0.042 C 
HETATM    4  C   UNL     1     -27.413  -5.947 -15.498  1.00  0.00     0.044 C 
HETATM    5  C   UNL     1     -26.428  -6.341 -16.559  1.00  0.00    -0.022 A 
HETATM    6  C   UNL     1     -25.195  -6.894 -16.187  1.00  0.00     0.049 A 
HETATM    7  C   UNL     1     -24.265  -7.277 -17.159  1.00  0.00     0.099 A 
HETATM    8  C   UNL     1     -24.545  -7.101 -18.518  1.00  0.00     0.103 A 
HETATM    9  C   UNL     1     -25.787  -6.557 -18.881  1.00  0.00     0.077 A 
HETATM   10  C   UNL     1     -26.731  -6.204 -17.915  1.00  0.00     0.079 A 
HETATM   11  O   UNL     1     -27.932  -5.730 -18.381  1.00  0.00    -0.340 OA
HETATM   12  C   UNL     1     -29.605  -7.110 -17.283  1.00  0.00     0.046 C 
ENDROOT
BRANCH   8  13
HETATM   13  O   UNL     1     -23.754  -7.402 -19.595  1.00  0.00    -0.353 OA
HETATM   14  C   UNL     1     -24.377  -7.927 -20.757  1.00  0.00     0.210 C 
ENDBRANCH   8  13
BRANCH   7  15
HETATM   15  O   UNL     1     -23.087  -7.827 -16.733  1.00  0.00    -0.358 OA
HETATM   16  H   UNL     1     -23.025  -8.740 -17.055  1.00  0.00     0.217 HD
ENDBRANCH   7  15
TORSDOF 2
BEGIN_RES ARG D 557
REMARK  4 active torsions:
REMARK  status: ('A' for Active; 'I' for Inactive)
REMARK    1  A    between atoms: CA   and  CB  
REMARK    2  A    between atoms: CB   and  CG  
REMARK    3  A    between atoms: CG   and  CD  
REMARK    4  A    between atoms: CD   and  NE  
REMARK       I    between atoms: NE   and  CZ  
REMARK       I    between atoms: CZ   and  NH1 
REMARK       I    between atoms: CZ   and  NH2 
ROOT
ATOM      1  CA  ARG D 557     -26.217   2.705 -17.014  1.00 35.49     0.159 C 
ENDROOT
BRANCH   1   2
ATOM      2  CB  ARG D 557     -26.789   1.319 -17.183  1.00 35.49     0.034 C 
BRANCH   2   3
ATOM      3  CG  ARG D 557     -25.836   0.203 -17.151  1.00 35.49     0.027 C 
BRANCH   3   4
ATOM      4  CD  ARG D 557     -24.751   0.415 -16.166  1.00 35.49     0.116 C 
BRANCH   4   5
ATOM      5  NE  ARG D 557     -24.897  -0.428 -15.009  1.00 35.49    -0.212 N 
ATOM      6  CZ  ARG D 557     -24.091  -1.408 -14.665  1.00 35.49     0.666 C 
ATOM      7  NH1 ARG D 557     -23.033  -1.740 -15.382  1.00 35.49    -0.235 N 
ATOM      8  NH2 ARG D 557     -24.365  -2.055 -13.570  1.00 35.49    -0.235 N 
ATOM      9  HH  ARG D 557     -22.832  -1.326 -16.105  1.00 35.49     0.174 HD
ATOM     10  HH  ARG D 557     -22.542  -2.386 -15.107  1.00 35.49     0.174 HD
ATOM     11  HH  ARG D 557     -25.051  -1.813 -13.123  1.00 35.49     0.174 HD
ATOM     12  HH  ARG D 557     -23.866  -2.690 -13.314  1.00 35.49     0.174 HD
ATOM     13  HE  ARG D 557     -25.593  -0.331 -14.529  1.00 35.49     0.178 HD
ENDBRANCH   4   5
ENDBRANCH   3   4
ENDBRANCH   2   3
ENDBRANCH   1   2
END_RES ARG D 557
BEGIN_RES GLU D 570
REMARK  3 active torsions:
REMARK  status: ('A' for Active; 'I' for Inactive)
REMARK    5  A    between atoms: CA   and  CB  
REMARK    6  A    between atoms: CB   and  CG  
REMARK    7  A    between atoms: CG   and  CD  
ROOT
ATOM     14  CA  GLU D 570     -18.033  -6.348 -13.375  1.00 32.92     0.160 C 
ENDROOT
BRANCH  14  15
ATOM     15  CB  GLU D 570     -19.500  -6.345 -13.794  1.00 32.92     0.043 C 
BRANCH  15  16
ATOM     16  CG  GLU D 570     -20.442  -5.532 -12.982  1.00 32.92     0.100 C 
BRANCH  16  17
ATOM     17  CD  GLU D 570     -21.744  -5.251 -13.696  1.00 32.92     0.185 C 
ATOM     18  OE1 GLU D 570     -22.291  -4.142 -13.543  1.00 32.92    -0.647 OA
ATOM     19  OE2 GLU D 570     -22.230  -6.156 -14.402  1.00 32.92    -0.647 OA
ENDBRANCH  16  17
ENDBRANCH  15  16
ENDBRANCH  14  15
END_RES GLU D 570
ENDMDL
MODEL 7
REMARK VINA RESULT:      -6.4      2.226      3.486
REMARK  2 active torsions:
REMARK  status: ('A' for Active; 'I' for Inactive)
REMARK    1  A    between atoms: C_7  and  O_14 
REMARK    2  A    between atoms: C_8  and  O_12 
ROOT
HETATM    1  C   UNL     1     -19.793  -5.620  -7.371  1.00  0.00     0.046 C 
HETATM    2  C   UNL     1     -20.861  -4.689  -7.962  1.00  0.00     0.061 C 
HETATM    3  C   UNL     1     -22.220  -5.052  -7.346  1.00  0.00     0.042 C 
HETATM    4  C   UNL     1     -23.327  -4.197  -7.942  1.00  0.00     0.044 C 
HETATM    5  C   UNL     1     -23.165  -4.085  -9.429  1.00  0.00    -0.022 A 
HETATM    6  C   UNL     1     -24.212  -3.563 -10.201  1.00  0.00     0.049 A 
HETATM    7  C   UNL     1     -24.081  -3.441 -11.589  1.00  0.00     0.099 A 
HETATM    8  C   UNL     1     -22.908  -3.851 -12.229  1.00  0.00     0.103 A 
HETATM    9  C   UNL     1     -21.860  -4.360 -11.446  1.00  0.00     0.077 A 
HETATM   10  C   UNL     1     -21.975  -4.454 -10.058  1.00  0.00     0.079 A 
HETATM   11  O   UNL     1     -20.873  -4.918  -9.385  1.00  0.00    -0.340 OA
HETATM   12  C   UNL     1     -20.437  -3.236  -7.685  1.00  0.00     0.046 C 
ENDROOT
BRANCH   8  13
HETATM   13  O   UNL     1     -22.613  -3.818 -13.567  1.00  0.00    -0.353 OA
HETATM   14  C   UNL     1     -23.133  -4.849 -14.392  1.00  0.00     0.210 C 
ENDBRANCH   8  13
BRANCH   7  15
HETATM   15  O   UNL     1     -25.132  -2.908 -12.284  1.00  0.00    -0.358 OA
HETATM   16  H   UNL     1     -24.848  -2.084 -12.710  1.00  0.00     0.217 HD
ENDBRANCH   7  15
TORSDOF 2
BEGIN_RES ARG D 557
REMARK  4 active torsions:
REMARK  status: ('A' for Active; 'I' for Inactive)
REMARK    1  A    between atoms: CA   and  CB  
REMARK    2  A    between atoms: CB   and  CG  
REMARK    3  A    between atoms: CG   and  CD  
REMARK    4  A    between atoms: CD   and  NE  
REMARK       I    between atoms: NE   and  CZ  
REMARK       I    between atoms: CZ   and  NH1 
REMARK       I    between atoms: CZ   and  NH2 
ROOT
ATOM      1  CA  ARG D 557     -26.217   2.705 -17.014  1.00 35.49     0.159 C 
ENDROOT
BRANCH   1   2
ATOM      2  CB  ARG D 557     -26.789   1.319 -17.183  1.00 35.49     0.034 C 
BRANCH   2   3
ATOM      3  CG  ARG D 557     -28.210   1.147 -16.858  1.00 35.49     0.027 C 
BRANCH   3   4
ATOM      4  CD  ARG D 557     -28.547  -0.257 -16.528  1.00 35.49     0.116 C 
BRANCH   4   5
ATOM      5  NE  ARG D 557     -27.482  -0.919 -15.822  1.00 35.49    -0.212 N 
ATOM      6  CZ  ARG D 557     -27.205  -2.202 -15.878  1.00 35.49     0.666 C 
ATOM      7  NH1 ARG D 557     -27.911  -3.049 -16.604  1.00 35.49    -0.235 N 
ATOM      8  NH2 ARG D 557     -26.186  -2.627 -15.188  1.00 35.49    -0.235 N 
ATOM      9  HH  ARG D 557     -28.584  -2.791 -17.067  1.00 35.49     0.174 HD
ATOM     10  HH  ARG D 557     -27.682  -3.875 -16.603  1.00 35.49     0.174 HD
ATOM     11  HH  ARG D 557     -25.744  -2.056 -14.734  1.00 35.49     0.174 HD
ATOM     12  HH  ARG D 557     -25.975  -3.448 -15.202  1.00 35.49     0.174 HD
ATOM     13  HE  ARG D 557     -27.021  -0.461 -15.274  1.00 35.49     0.178 HD
ENDBRANCH   4   5
ENDBRANCH   3   4
ENDBRANCH   2   3
ENDBRANCH   1   2
END_RES ARG D 557
BEGIN_RES GLU D 570
REMARK  3 active torsions:
REMARK  status: ('A' for Active; 'I' for Inactive)
REMARK    5  A    between atoms: CA   and  CB  
REMARK    6  A    between atoms: CB   and  CG  
REMARK    7  A    between atoms: CG   and  CD  
ROOT
ATOM     14  CA  GLU D 570     -18.033  -6.348 -13.375  1.00 32.92     0.160 C 
ENDROOT
BRANCH  14  15
ATOM     15  CB  GLU D 570     -19.500  -6.345 -13.794  1.00 32.92     0.043 C 
BRANCH  15  16
ATOM     16  CG  GLU D 570     -19.796  -6.282 -15.249  1.00 32.92     0.100 C 
BRANCH  16  17
ATOM     17  CD  GLU D 570     -20.694  -7.404 -15.716  1.00 32.92     0.185 C 
ATOM     18  OE1 GLU D 570     -20.569  -8.533 -15.204  1.00 32.92    -0.647 OA
ATOM     19  OE2 GLU D 570     -21.520  -7.156 -16.617  1.00 32.92    -0.647 OA
ENDBRANCH  16  17
ENDBRANCH  15  16
ENDBRANCH  14  15
END_RES GLU D 570
ENDMDL
MODEL 8
REMARK VINA RESULT:      -5.9      4.500      8.808
REMARK  2 active torsions:
REMARK  status: ('A' for Active; 'I' for Inactive)
REMARK    1  A    between atoms: C_7  and  O_14 
REMARK    2  A    between atoms: C_8  and  O_12 
ROOT
HETATM    1  C   UNL     1     -31.679  -6.048 -17.818  1.00  0.00     0.046 C 
HETATM    2  C   UNL     1     -30.578  -5.390 -16.974  1.00  0.00     0.061 C 
HETATM    3  C   UNL     1     -30.136  -4.096 -17.673  1.00  0.00     0.042 C 
HETATM    4  C   UNL     1     -29.003  -3.431 -16.909  1.00  0.00     0.044 C 
HETATM    5  C   UNL     1     -27.991  -4.449 -16.472  1.00  0.00    -0.022 A 
HETATM    6  C   UNL     1     -26.749  -4.023 -15.983  1.00  0.00     0.049 A 
HETATM    7  C   UNL     1     -25.793  -4.955 -15.562  1.00  0.00     0.099 A 
HETATM    8  C   UNL     1     -26.059  -6.325 -15.634  1.00  0.00     0.103 A 
HETATM    9  C   UNL     1     -27.310  -6.741 -16.113  1.00  0.00     0.077 A 
HETATM   10  C   UNL     1     -28.279  -5.815 -16.505  1.00  0.00     0.079 A 
HETATM   11  O   UNL     1     -29.485  -6.327 -16.909  1.00  0.00    -0.340 OA
HETATM   12  C   UNL     1     -31.134  -5.156 -15.559  1.00  0.00     0.046 C 
ENDROOT
BRANCH   8  13
HETATM   13  O   UNL     1     -25.243  -7.369 -15.282  1.00  0.00    -0.353 OA
HETATM   14  C   UNL     1     -24.207  -7.740 -16.179  1.00  0.00     0.210 C 
ENDBRANCH   8  13
BRANCH   7  15
HETATM   15  O   UNL     1     -24.606  -4.476 -15.078  1.00  0.00    -0.358 OA
HETATM   16  H   UNL     1     -24.620  -4.505 -14.109  1.00  0.00     0.217 HD
ENDBRANCH   7  15
TORSDOF 2
BEGIN_RES ARG D 557
REMARK  4 active torsions:
REMARK  status: ('A' for Active; 'I' for Inactive)
REMARK    1  A    between atoms: CA   and  CB  
REMARK    2  A    between atoms: CB   and  CG  
REMARK    3  A    between atoms: CG   and  CD  
REMARK    4  A    between atoms: CD   and  NE  
REMARK       I    between atoms: NE   and  CZ  
REMARK       I    between atoms: CZ   and  NH1 
REMARK       I    between atoms: CZ   and  NH2 
ROOT
ATOM      1  CA  ARG D 557     -26.217   2.705 -17.014  1.00 35.49     0.159 C 
ENDROOT
BRANCH   1   2
ATOM      2  CB  ARG D 557     -26.789   1.319 -17.183  1.00 35.49     0.034 C 
BRANCH   2   3
ATOM      3  CG  ARG D 557     -25.840   0.201 -17.125  1.00 35.49     0.027 C 
BRANCH   3   4
ATOM      4  CD  ARG D 557     -24.745   0.440 -16.157  1.00 35.49     0.116 C 
BRANCH   4   5
ATOM      5  NE  ARG D 557     -24.870  -0.382 -14.983  1.00 35.49    -0.212 N 
ATOM      6  CZ  ARG D 557     -24.073  -1.373 -14.650  1.00 35.49     0.666 C 
ATOM      7  NH1 ARG D 557     -23.046  -1.738 -15.395  1.00 35.49    -0.235 N 
ATOM      8  NH2 ARG D 557     -24.325  -1.998 -13.536  1.00 35.49    -0.235 N 
ATOM      9  HH  ARG D 557     -22.861  -1.340 -16.131  1.00 35.49     0.174 HD
ATOM     10  HH  ARG D 557     -22.560  -2.390 -15.126  1.00 35.49     0.174 HD
ATOM     11  HH  ARG D 557     -24.990  -1.735 -13.072  1.00 35.49     0.174 HD
ATOM     12  HH  ARG D 557     -23.830  -2.640 -13.287  1.00 35.49     0.174 HD
ATOM     13  HE  ARG D 557     -25.548  -0.264 -14.483  1.00 35.49     0.178 HD
ENDBRANCH   4   5
ENDBRANCH   3   4
ENDBRANCH   2   3
ENDBRANCH   1   2
END_RES ARG D 557
BEGIN_RES GLU D 570
REMARK  3 active torsions:
REMARK  status: ('A' for Active; 'I' for Inactive)
REMARK    5  A    between atoms: CA   and  CB  
REMARK    6  A    between atoms: CB   and  CG  
REMARK    7  A    between atoms: CG   and  CD  
ROOT
ATOM     14  CA  GLU D 570     -18.033  -6.348 -13.375  1.00 32.92     0.160 C 
ENDROOT
BRANCH  14  15
ATOM     15  CB  GLU D 570     -19.500  -6.345 -13.794  1.00 32.92     0.043 C 
BRANCH  15  16
ATOM     16  CG  GLU D 570     -20.448  -5.559 -12.963  1.00 32.92     0.100 C 
BRANCH  16  17
ATOM     17  CD  GLU D 570     -21.628  -5.036 -13.749  1.00 32.92     0.185 C 
ATOM     18  OE1 GLU D 570     -22.299  -4.097 -13.280  1.00 32.92    -0.647 OA
ATOM     19  OE2 GLU D 570     -21.894  -5.584 -14.837  1.00 32.92    -0.647 OA
ENDBRANCH  16  17
ENDBRANCH  15  16
ENDBRANCH  14  15
END_RES GLU D 570
ENDMDL
MODEL 9
REMARK VINA RESULT:      -5.8      3.363      6.123
REMARK  2 active torsions:
REMARK  status: ('A' for Active; 'I' for Inactive)
REMARK    1  A    between atoms: C_7  and  O_14 
REMARK    2  A    between atoms: C_8  and  O_12 
ROOT
HETATM    1  C   UNL     1     -22.173  -4.826  -6.781  1.00  0.00     0.046 C 
HETATM    2  C   UNL     1     -21.310  -5.587  -5.765  1.00  0.00     0.061 C 
HETATM    3  C   UNL     1     -20.999  -6.979  -6.334  1.00  0.00     0.042 C 
HETATM    4  C   UNL     1     -20.193  -7.800  -5.341  1.00  0.00     0.044 C 
HETATM    5  C   UNL     1     -20.748  -7.646  -3.955  1.00  0.00    -0.022 A 
HETATM    6  C   UNL     1     -20.321  -8.511  -2.939  1.00  0.00     0.049 A 
HETATM    7  C   UNL     1     -20.818  -8.380  -1.637  1.00  0.00     0.099 A 
HETATM    8  C   UNL     1     -21.760  -7.393  -1.334  1.00  0.00     0.103 A 
HETATM    9  C   UNL     1     -22.172  -6.523  -2.355  1.00  0.00     0.077 A 
HETATM   10  C   UNL     1     -21.655  -6.630  -3.648  1.00  0.00     0.079 A 
HETATM   11  O   UNL     1     -22.088  -5.698  -4.557  1.00  0.00    -0.340 OA
HETATM   12  C   UNL     1     -20.050  -4.750  -5.484  1.00  0.00     0.046 C 
ENDROOT
BRANCH   8  13
HETATM   13  O   UNL     1     -22.359  -7.131  -0.130  1.00  0.00    -0.353 OA
HETATM   14  C   UNL     1     -23.232  -8.112   0.410  1.00  0.00     0.210 C 
ENDBRANCH   8  13
BRANCH   7  15
HETATM   15  O   UNL     1     -20.348  -9.244  -0.685  1.00  0.00    -0.358 OA
HETATM   16  H   UNL     1     -20.985  -9.292   0.045  1.00  0.00     0.217 HD
ENDBRANCH   7  15
TORSDOF 2
BEGIN_RES ARG D 557
REMARK  4 active torsions:
REMARK  status: ('A' for Active; 'I' for Inactive)
REMARK    1  A    between atoms: CA   and  CB  
REMARK    2  A    between atoms: CB   and  CG  
REMARK    3  A    between atoms: CG   and  CD  
REMARK    4  A    between atoms: CD   and  NE  
REMARK       I    between atoms: NE   and  CZ  
REMARK       I    between atoms: CZ   and  NH1 
REMARK       I    between atoms: CZ   and  NH2 
ROOT
ATOM      1  CA  ARG D 557     -26.217   2.705 -17.014  1.00 35.49     0.159 C 
ENDROOT
BRANCH   1   2
ATOM      2  CB  ARG D 557     -26.789   1.319 -17.183  1.00 35.49     0.034 C 
BRANCH   2   3
ATOM      3  CG  ARG D 557     -28.234   1.225 -17.423  1.00 35.49     0.027 C 
BRANCH   3   4
ATOM      4  CD  ARG D 557     -28.902   0.293 -16.486  1.00 35.49     0.116 C 
BRANCH   4   5
ATOM      5  NE  ARG D 557     -29.307  -0.927 -17.133  1.00 35.49    -0.212 N 
ATOM      6  CZ  ARG D 557     -28.691  -2.085 -17.043  1.00 35.49     0.666 C 
ATOM      7  NH1 ARG D 557     -27.588  -2.248 -16.336  1.00 35.49    -0.235 N 
ATOM      8  NH2 ARG D 557     -29.211  -3.093 -17.680  1.00 35.49    -0.235 N 
ATOM      9  HH  ARG D 557     -27.229  -1.599 -15.907  1.00 35.49     0.174 HD
ATOM     10  HH  ARG D 557     -27.231  -3.027 -16.312  1.00 35.49     0.174 HD
ATOM     11  HH  ARG D 557     -29.928  -2.960 -18.123  1.00 35.49     0.174 HD
ATOM     12  HH  ARG D 557     -28.844  -3.856 -17.643  1.00 35.49     0.174 HD
ATOM     13  HE  ARG D 557     -29.968  -0.896 -17.667  1.00 35.49     0.178 HD
ENDBRANCH   4   5
ENDBRANCH   3   4
ENDBRANCH   2   3
ENDBRANCH   1   2
END_RES ARG D 557
BEGIN_RES GLU D 570
REMARK  3 active torsions:
REMARK  status: ('A' for Active; 'I' for Inactive)
REMARK    5  A    between atoms: CA   and  CB  
REMARK    6  A    between atoms: CB   and  CG  
REMARK    7  A    between atoms: CG   and  CD  
ROOT
ATOM     14  CA  GLU D 570     -18.033  -6.348 -13.375  1.00 32.92     0.160 C 
ENDROOT
BRANCH  14  15
ATOM     15  CB  GLU D 570     -19.500  -6.345 -13.794  1.00 32.92     0.043 C 
BRANCH  15  16
ATOM     16  CG  GLU D 570     -20.450  -5.568 -12.956  1.00 32.92     0.100 C 
BRANCH  16  17
ATOM     17  CD  GLU D 570     -21.703  -5.171 -13.700  1.00 32.92     0.185 C 
ATOM     18  OE1 GLU D 570     -22.657  -4.686 -13.063  1.00 32.92    -0.647 OA
ATOM     19  OE2 GLU D 570     -21.738  -5.363 -14.932  1.00 32.92    -0.647 OA
ENDBRANCH  16  17
ENDBRANCH  15  16
ENDBRANCH  14  15
END_RES GLU D 570
ENDMDL
