MODEL 1
REMARK VINA RESULT:      -1.2      0.000      0.000
REMARK  6 active torsions:
REMARK  status: ('A' for Active; 'I' for Inactive)
REMARK    1  A    between atoms: C_19  and  C_20 
REMARK    2  A    between atoms: C_19  and  O_34 
REMARK    3  A    between atoms: C_20  and  O_33 
REMARK    4  A    between atoms: C_23  and  O_27 
REMARK    5  A    between atoms: O_27  and  P_28 
REMARK    6  A    between atoms: P_28  and  O_30 
ROOT
HETATM    1 MG   UNL     4      -9.077   5.875 -17.173  1.00  0.00     0.000 Mg
ENDROOT
TORSDOF 6
BEGIN_RES ARG D 557
REMARK  4 active torsions:
REMARK  status: ('A' for Active; 'I' for Inactive)
REMARK    1  A    between atoms: CA   and  CB  
REMARK    2  A    between atoms: CB   and  CG  
REMARK    3  A    between atoms: CG   and  CD  
REMARK    4  A    between atoms: CD   and  NE  
REMARK       I    between atoms: NE   and  CZ  
REMARK       I    between atoms: CZ   and  NH1 
REMARK       I    between atoms: CZ   and  NH2 
ROOT
ATOM      1  CA  ARG D 557     -26.217   2.705 -17.014  1.00 35.49     0.159 C 
ENDROOT
BRANCH   1   2
ATOM      2  CB  ARG D 557     -26.789   1.319 -17.183  1.00 35.49     0.034 C 
BRANCH   2   3
ATOM      3  CG  ARG D 557     -25.836   0.203 -17.151  1.00 35.49     0.027 C 
BRANCH   3   4
ATOM      4  CD  ARG D 557     -24.762   0.407 -16.153  1.00 35.49     0.116 C 
BRANCH   4   5
ATOM      5  NE  ARG D 557     -24.915  -0.451 -15.007  1.00 35.49    -0.212 N 
ATOM      6  CZ  ARG D 557     -24.102  -1.424 -14.661  1.00 35.49     0.666 C 
ATOM      7  NH1 ARG D 557     -23.029  -1.734 -15.364  1.00 35.49    -0.235 N 
ATOM      8  NH2 ARG D 557     -24.386  -2.086 -13.577  1.00 35.49    -0.235 N 
ATOM      9  HH  ARG D 557     -22.822  -1.310 -16.079  1.00 35.49     0.174 HD
ATOM     10  HH  ARG D 557     -22.534  -2.377 -15.088  1.00 35.49     0.174 HD
ATOM     11  HH  ARG D 557     -25.081  -1.858 -13.139  1.00 35.49     0.174 HD
ATOM     12  HH  ARG D 557     -23.882  -2.718 -13.320  1.00 35.49     0.174 HD
ATOM     13  HE  ARG D 557     -25.620  -0.368 -14.538  1.00 35.49     0.178 HD
ENDBRANCH   4   5
ENDBRANCH   3   4
ENDBRANCH   2   3
ENDBRANCH   1   2
END_RES ARG D 557
BEGIN_RES GLU D 570
REMARK  3 active torsions:
REMARK  status: ('A' for Active; 'I' for Inactive)
REMARK    5  A    between atoms: CA   and  CB  
REMARK    6  A    between atoms: CB   and  CG  
REMARK    7  A    between atoms: CG   and  CD  
ROOT
ATOM     14  CA  GLU D 570     -18.033  -6.348 -13.375  1.00 32.92     0.160 C 
ENDROOT
BRANCH  14  15
ATOM     15  CB  GLU D 570     -19.500  -6.345 -13.794  1.00 32.92     0.043 C 
BRANCH  15  16
ATOM     16  CG  GLU D 570     -20.442  -5.532 -12.982  1.00 32.92     0.100 C 
BRANCH  16  17
ATOM     17  CD  GLU D 570     -21.740  -5.243 -13.700  1.00 32.92     0.185 C 
ATOM     18  OE1 GLU D 570     -22.161  -6.060 -14.541  1.00 32.92    -0.647 OA
ATOM     19  OE2 GLU D 570     -22.333  -4.180 -13.429  1.00 32.92    -0.647 OA
ENDBRANCH  16  17
ENDBRANCH  15  16
ENDBRANCH  14  15
END_RES GLU D 570
ENDMDL
MODEL 2
REMARK VINA RESULT:      -1.1     10.969     11.008
REMARK  6 active torsions:
REMARK  status: ('A' for Active; 'I' for Inactive)
REMARK    1  A    between atoms: C_19  and  C_20 
REMARK    2  A    between atoms: C_19  and  O_34 
REMARK    3  A    between atoms: C_20  and  O_33 
REMARK    4  A    between atoms: C_23  and  O_27 
REMARK    5  A    between atoms: O_27  and  P_28 
REMARK    6  A    between atoms: P_28  and  O_30 
ROOT
HETATM    1 MG   UNL     4     -36.593   0.682   6.052  1.00  0.00     0.000 Mg
ENDROOT
TORSDOF 6
BEGIN_RES ARG D 557
REMARK  4 active torsions:
REMARK  status: ('A' for Active; 'I' for Inactive)
REMARK    1  A    between atoms: CA   and  CB  
REMARK    2  A    between atoms: CB   and  CG  
REMARK    3  A    between atoms: CG   and  CD  
REMARK    4  A    between atoms: CD   and  NE  
REMARK       I    between atoms: NE   and  CZ  
REMARK       I    between atoms: CZ   and  NH1 
REMARK       I    between atoms: CZ   and  NH2 
ROOT
ATOM      1  CA  ARG D 557     -26.217   2.705 -17.014  1.00 35.49     0.159 C 
ENDROOT
BRANCH   1   2
ATOM      2  CB  ARG D 557     -26.789   1.319 -17.183  1.00 35.49     0.034 C 
BRANCH   2   3
ATOM      3  CG  ARG D 557     -25.835   0.203 -17.160  1.00 35.49     0.027 C 
BRANCH   3   4
ATOM      4  CD  ARG D 557     -24.750   0.409 -16.174  1.00 35.49     0.116 C 
BRANCH   4   5
ATOM      5  NE  ARG D 557     -24.900  -0.435 -15.018  1.00 35.49    -0.212 N 
ATOM      6  CZ  ARG D 557     -24.090  -1.410 -14.669  1.00 35.49     0.666 C 
ATOM      7  NH1 ARG D 557     -23.025  -1.735 -15.377  1.00 35.49    -0.235 N 
ATOM      8  NH2 ARG D 557     -24.369  -2.059 -13.575  1.00 35.49    -0.235 N 
ATOM      9  HH  ARG D 557     -22.821  -1.320 -16.099  1.00 35.49     0.174 HD
ATOM     10  HH  ARG D 557     -22.532  -2.379 -15.099  1.00 35.49     0.174 HD
ATOM     11  HH  ARG D 557     -25.059  -1.822 -13.134  1.00 35.49     0.174 HD
ATOM     12  HH  ARG D 557     -23.868  -2.691 -13.316  1.00 35.49     0.174 HD
ATOM     13  HE  ARG D 557     -25.600  -0.342 -14.544  1.00 35.49     0.178 HD
ENDBRANCH   4   5
ENDBRANCH   3   4
ENDBRANCH   2   3
ENDBRANCH   1   2
END_RES ARG D 557
BEGIN_RES GLU D 570
REMARK  3 active torsions:
REMARK  status: ('A' for Active; 'I' for Inactive)
REMARK    5  A    between atoms: CA   and  CB  
REMARK    6  A    between atoms: CB   and  CG  
REMARK    7  A    between atoms: CG   and  CD  
ROOT
ATOM     14  CA  GLU D 570     -18.033  -6.348 -13.375  1.00 32.92     0.160 C 
ENDROOT
BRANCH  14  15
ATOM     15  CB  GLU D 570     -19.500  -6.345 -13.794  1.00 32.92     0.043 C 
BRANCH  15  16
ATOM     16  CG  GLU D 570     -20.438  -5.514 -12.996  1.00 32.92     0.100 C 
BRANCH  16  17
ATOM     17  CD  GLU D 570     -21.736  -5.233 -13.717  1.00 32.92     0.185 C 
ATOM     18  OE1 GLU D 570     -22.311  -4.144 -13.526  1.00 32.92    -0.647 OA
ATOM     19  OE2 GLU D 570     -22.191  -6.118 -14.469  1.00 32.92    -0.647 OA
ENDBRANCH  16  17
ENDBRANCH  15  16
ENDBRANCH  14  15
END_RES GLU D 570
ENDMDL
MODEL 3
REMARK VINA RESULT:      -1.1      6.970      7.032
REMARK  6 active torsions:
REMARK  status: ('A' for Active; 'I' for Inactive)
REMARK    1  A    between atoms: C_19  and  C_20 
REMARK    2  A    between atoms: C_19  and  O_34 
REMARK    3  A    between atoms: C_20  and  O_33 
REMARK    4  A    between atoms: C_23  and  O_27 
REMARK    5  A    between atoms: O_27  and  P_28 
REMARK    6  A    between atoms: P_28  and  O_30 
ROOT
HETATM    1 MG   UNL     4     -25.246  -5.232  -4.944  1.00  0.00     0.000 Mg
ENDROOT
TORSDOF 6
BEGIN_RES ARG D 557
REMARK  4 active torsions:
REMARK  status: ('A' for Active; 'I' for Inactive)
REMARK    1  A    between atoms: CA   and  CB  
REMARK    2  A    between atoms: CB   and  CG  
REMARK    3  A    between atoms: CG   and  CD  
REMARK    4  A    between atoms: CD   and  NE  
REMARK       I    between atoms: NE   and  CZ  
REMARK       I    between atoms: CZ   and  NH1 
REMARK       I    between atoms: CZ   and  NH2 
ROOT
ATOM      1  CA  ARG D 557     -26.217   2.705 -17.014  1.00 35.49     0.159 C 
ENDROOT
BRANCH   1   2
ATOM      2  CB  ARG D 557     -26.789   1.319 -17.183  1.00 35.49     0.034 C 
BRANCH   2   3
ATOM      3  CG  ARG D 557     -25.836   0.203 -17.156  1.00 35.49     0.027 C 
BRANCH   3   4
ATOM      4  CD  ARG D 557     -24.754   0.409 -16.166  1.00 35.49     0.116 C 
BRANCH   4   5
ATOM      5  NE  ARG D 557     -24.903  -0.441 -15.015  1.00 35.49    -0.212 N 
ATOM      6  CZ  ARG D 557     -24.091  -1.413 -14.666  1.00 35.49     0.666 C 
ATOM      7  NH1 ARG D 557     -23.021  -1.730 -15.372  1.00 35.49    -0.235 N 
ATOM      8  NH2 ARG D 557     -24.370  -2.068 -13.577  1.00 35.49    -0.235 N 
ATOM      9  HH  ARG D 557     -22.817  -1.311 -16.091  1.00 35.49     0.174 HD
ATOM     10  HH  ARG D 557     -22.526  -2.372 -15.095  1.00 35.49     0.174 HD
ATOM     11  HH  ARG D 557     -25.063  -1.836 -13.137  1.00 35.49     0.174 HD
ATOM     12  HH  ARG D 557     -23.867  -2.699 -13.318  1.00 35.49     0.174 HD
ATOM     13  HE  ARG D 557     -25.606  -0.354 -14.543  1.00 35.49     0.178 HD
ENDBRANCH   4   5
ENDBRANCH   3   4
ENDBRANCH   2   3
ENDBRANCH   1   2
END_RES ARG D 557
BEGIN_RES GLU D 570
REMARK  3 active torsions:
REMARK  status: ('A' for Active; 'I' for Inactive)
REMARK    5  A    between atoms: CA   and  CB  
REMARK    6  A    between atoms: CB   and  CG  
REMARK    7  A    between atoms: CG   and  CD  
ROOT
ATOM     14  CA  GLU D 570     -18.033  -6.348 -13.375  1.00 32.92     0.160 C 
ENDROOT
BRANCH  14  15
ATOM     15  CB  GLU D 570     -19.500  -6.345 -13.794  1.00 32.92     0.043 C 
BRANCH  15  16
ATOM     16  CG  GLU D 570     -20.443  -5.536 -12.980  1.00 32.92     0.100 C 
BRANCH  16  17
ATOM     17  CD  GLU D 570     -21.741  -5.246 -13.696  1.00 32.92     0.185 C 
ATOM     18  OE1 GLU D 570     -22.286  -4.137 -13.535  1.00 32.92    -0.647 OA
ATOM     19  OE2 GLU D 570     -22.227  -6.143 -14.412  1.00 32.92    -0.647 OA
ENDBRANCH  16  17
ENDBRANCH  15  16
ENDBRANCH  14  15
END_RES GLU D 570
ENDMDL
MODEL 4
REMARK VINA RESULT:      -1.0      6.139      6.241
REMARK  6 active torsions:
REMARK  status: ('A' for Active; 'I' for Inactive)
REMARK    1  A    between atoms: C_19  and  C_20 
REMARK    2  A    between atoms: C_19  and  O_34 
REMARK    3  A    between atoms: C_20  and  O_33 
REMARK    4  A    between atoms: C_23  and  O_27 
REMARK    5  A    between atoms: O_27  and  P_28 
REMARK    6  A    between atoms: P_28  and  O_30 
ROOT
HETATM    1 MG   UNL     4     -11.292   1.520   2.356  1.00  0.00     0.000 Mg
ENDROOT
TORSDOF 6
BEGIN_RES ARG D 557
REMARK  4 active torsions:
REMARK  status: ('A' for Active; 'I' for Inactive)
REMARK    1  A    between atoms: CA   and  CB  
REMARK    2  A    between atoms: CB   and  CG  
REMARK    3  A    between atoms: CG   and  CD  
REMARK    4  A    between atoms: CD   and  NE  
REMARK       I    between atoms: NE   and  CZ  
REMARK       I    between atoms: CZ   and  NH1 
REMARK       I    between atoms: CZ   and  NH2 
ROOT
ATOM      1  CA  ARG D 557     -26.217   2.705 -17.014  1.00 35.49     0.159 C 
ENDROOT
BRANCH   1   2
ATOM      2  CB  ARG D 557     -26.789   1.319 -17.183  1.00 35.49     0.034 C 
BRANCH   2   3
ATOM      3  CG  ARG D 557     -25.861   0.195 -17.008  1.00 35.49     0.027 C 
BRANCH   3   4
ATOM      4  CD  ARG D 557     -26.272  -0.710 -15.911  1.00 35.49     0.116 C 
BRANCH   4   5
ATOM      5  NE  ARG D 557     -25.218  -0.912 -14.951  1.00 35.49    -0.212 N 
ATOM      6  CZ  ARG D 557     -24.944  -2.042 -14.338  1.00 35.49     0.666 C 
ATOM      7  NH1 ARG D 557     -25.641  -3.145 -14.538  1.00 35.49    -0.235 N 
ATOM      8  NH2 ARG D 557     -23.937  -2.048 -13.513  1.00 35.49    -0.235 N 
ATOM      9  HH  ARG D 557     -26.306  -3.164 -15.078  1.00 35.49     0.174 HD
ATOM     10  HH  ARG D 557     -25.414  -3.853 -14.112  1.00 35.49     0.174 HD
ATOM     11  HH  ARG D 557     -23.500  -1.323 -13.410  1.00 35.49     0.174 HD
ATOM     12  HH  ARG D 557     -23.727  -2.759 -13.102  1.00 35.49     0.174 HD
ATOM     13  HE  ARG D 557     -24.764  -0.235 -14.708  1.00 35.49     0.178 HD
ENDBRANCH   4   5
ENDBRANCH   3   4
ENDBRANCH   2   3
ENDBRANCH   1   2
END_RES ARG D 557
BEGIN_RES GLU D 570
REMARK  3 active torsions:
REMARK  status: ('A' for Active; 'I' for Inactive)
REMARK    5  A    between atoms: CA   and  CB  
REMARK    6  A    between atoms: CB   and  CG  
REMARK    7  A    between atoms: CG   and  CD  
ROOT
ATOM     14  CA  GLU D 570     -18.033  -6.348 -13.375  1.00 32.92     0.160 C 
ENDROOT
BRANCH  14  15
ATOM     15  CB  GLU D 570     -19.500  -6.345 -13.794  1.00 32.92     0.043 C 
BRANCH  15  16
ATOM     16  CG  GLU D 570     -20.451  -5.574 -12.952  1.00 32.92     0.100 C 
BRANCH  16  17
ATOM     17  CD  GLU D 570     -21.706  -5.177 -13.693  1.00 32.92     0.185 C 
ATOM     18  OE1 GLU D 570     -22.646  -4.660 -13.059  1.00 32.92    -0.647 OA
ATOM     19  OE2 GLU D 570     -21.756  -5.400 -14.919  1.00 32.92    -0.647 OA
ENDBRANCH  16  17
ENDBRANCH  15  16
ENDBRANCH  14  15
END_RES GLU D 570
ENDMDL
MODEL 5
REMARK VINA RESULT:      -1.0      3.220      3.220
REMARK  6 active torsions:
REMARK  status: ('A' for Active; 'I' for Inactive)
REMARK    1  A    between atoms: C_19  and  C_20 
REMARK    2  A    between atoms: C_19  and  O_34 
REMARK    3  A    between atoms: C_20  and  O_33 
REMARK    4  A    between atoms: C_23  and  O_27 
REMARK    5  A    between atoms: O_27  and  P_28 
REMARK    6  A    between atoms: P_28  and  O_30 
ROOT
HETATM    1 MG   UNL     4     -14.443   3.554  -8.234  1.00  0.00     0.000 Mg
ENDROOT
TORSDOF 6
BEGIN_RES ARG D 557
REMARK  4 active torsions:
REMARK  status: ('A' for Active; 'I' for Inactive)
REMARK    1  A    between atoms: CA   and  CB  
REMARK    2  A    between atoms: CB   and  CG  
REMARK    3  A    between atoms: CG   and  CD  
REMARK    4  A    between atoms: CD   and  NE  
REMARK       I    between atoms: NE   and  CZ  
REMARK       I    between atoms: CZ   and  NH1 
REMARK       I    between atoms: CZ   and  NH2 
ROOT
ATOM      1  CA  ARG D 557     -26.217   2.705 -17.014  1.00 35.49     0.159 C 
ENDROOT
BRANCH   1   2
ATOM      2  CB  ARG D 557     -26.789   1.319 -17.183  1.00 35.49     0.034 C 
BRANCH   2   3
ATOM      3  CG  ARG D 557     -25.835   0.203 -17.161  1.00 35.49     0.027 C 
BRANCH   3   4
ATOM      4  CD  ARG D 557     -24.755   0.404 -16.168  1.00 35.49     0.116 C 
BRANCH   4   5
ATOM      5  NE  ARG D 557     -24.915  -0.443 -15.015  1.00 35.49    -0.212 N 
ATOM      6  CZ  ARG D 557     -24.107  -1.416 -14.659  1.00 35.49     0.666 C 
ATOM      7  NH1 ARG D 557     -23.034  -1.739 -15.358  1.00 35.49    -0.235 N 
ATOM      8  NH2 ARG D 557     -24.395  -2.067 -13.570  1.00 35.49    -0.235 N 
ATOM      9  HH  ARG D 557     -22.824  -1.322 -16.076  1.00 35.49     0.174 HD
ATOM     10  HH  ARG D 557     -22.543  -2.381 -15.075  1.00 35.49     0.174 HD
ATOM     11  HH  ARG D 557     -25.091  -1.832 -13.135  1.00 35.49     0.174 HD
ATOM     12  HH  ARG D 557     -23.896  -2.700 -13.306  1.00 35.49     0.174 HD
ATOM     13  HE  ARG D 557     -25.620  -0.352 -14.548  1.00 35.49     0.178 HD
ENDBRANCH   4   5
ENDBRANCH   3   4
ENDBRANCH   2   3
ENDBRANCH   1   2
END_RES ARG D 557
BEGIN_RES GLU D 570
REMARK  3 active torsions:
REMARK  status: ('A' for Active; 'I' for Inactive)
REMARK    5  A    between atoms: CA   and  CB  
REMARK    6  A    between atoms: CB   and  CG  
REMARK    7  A    between atoms: CG   and  CD  
ROOT
ATOM     14  CA  GLU D 570     -18.033  -6.348 -13.375  1.00 32.92     0.160 C 
ENDROOT
BRANCH  14  15
ATOM     15  CB  GLU D 570     -19.500  -6.345 -13.794  1.00 32.92     0.043 C 
BRANCH  15  16
ATOM     16  CG  GLU D 570     -20.440  -5.521 -12.991  1.00 32.92     0.100 C 
BRANCH  16  17
ATOM     17  CD  GLU D 570     -21.738  -5.237 -13.710  1.00 32.92     0.185 C 
ATOM     18  OE1 GLU D 570     -22.182  -6.081 -14.512  1.00 32.92    -0.647 OA
ATOM     19  OE2 GLU D 570     -22.308  -4.152 -13.482  1.00 32.92    -0.647 OA
ENDBRANCH  16  17
ENDBRANCH  15  16
ENDBRANCH  14  15
END_RES GLU D 570
ENDMDL
MODEL 6
REMARK VINA RESULT:      -0.9      4.586      4.586
REMARK  6 active torsions:
REMARK  status: ('A' for Active; 'I' for Inactive)
REMARK    1  A    between atoms: C_19  and  C_20 
REMARK    2  A    between atoms: C_19  and  O_34 
REMARK    3  A    between atoms: C_20  and  O_33 
REMARK    4  A    between atoms: C_23  and  O_27 
REMARK    5  A    between atoms: O_27  and  P_28 
REMARK    6  A    between atoms: P_28  and  O_30 
ROOT
HETATM    1 MG   UNL     4     -20.634  -2.614 -12.107  1.00  0.00     0.000 Mg
ENDROOT
TORSDOF 6
BEGIN_RES ARG D 557
REMARK  4 active torsions:
REMARK  status: ('A' for Active; 'I' for Inactive)
REMARK    1  A    between atoms: CA   and  CB  
REMARK    2  A    between atoms: CB   and  CG  
REMARK    3  A    between atoms: CG   and  CD  
REMARK    4  A    between atoms: CD   and  NE  
REMARK       I    between atoms: NE   and  CZ  
REMARK       I    between atoms: CZ   and  NH1 
REMARK       I    between atoms: CZ   and  NH2 
ROOT
ATOM      1  CA  ARG D 557     -26.217   2.705 -17.014  1.00 35.49     0.159 C 
ENDROOT
BRANCH   1   2
ATOM      2  CB  ARG D 557     -26.789   1.319 -17.183  1.00 35.49     0.034 C 
BRANCH   2   3
ATOM      3  CG  ARG D 557     -25.837   0.202 -17.142  1.00 35.49     0.027 C 
BRANCH   3   4
ATOM      4  CD  ARG D 557     -24.773   0.404 -16.132  1.00 35.49     0.116 C 
BRANCH   4   5
ATOM      5  NE  ARG D 557     -24.923  -0.474 -15.003  1.00 35.49    -0.212 N 
ATOM      6  CZ  ARG D 557     -24.097  -1.439 -14.665  1.00 35.49     0.666 C 
ATOM      7  NH1 ARG D 557     -23.011  -1.720 -15.362  1.00 35.49    -0.235 N 
ATOM      8  NH2 ARG D 557     -24.379  -2.124 -13.595  1.00 35.49    -0.235 N 
ATOM      9  HH  ARG D 557     -22.805  -1.280 -16.068  1.00 35.49     0.174 HD
ATOM     10  HH  ARG D 557     -22.508  -2.358 -15.092  1.00 35.49     0.174 HD
ATOM     11  HH  ARG D 557     -25.082  -1.916 -13.160  1.00 35.49     0.174 HD
ATOM     12  HH  ARG D 557     -23.867  -2.752 -13.343  1.00 35.49     0.174 HD
ATOM     13  HE  ARG D 557     -25.633  -0.412 -14.539  1.00 35.49     0.178 HD
ENDBRANCH   4   5
ENDBRANCH   3   4
ENDBRANCH   2   3
ENDBRANCH   1   2
END_RES ARG D 557
BEGIN_RES GLU D 570
REMARK  3 active torsions:
REMARK  status: ('A' for Active; 'I' for Inactive)
REMARK    5  A    between atoms: CA   and  CB  
REMARK    6  A    between atoms: CB   and  CG  
REMARK    7  A    between atoms: CG   and  CD  
ROOT
ATOM     14  CA  GLU D 570     -18.033  -6.348 -13.375  1.00 32.92     0.160 C 
ENDROOT
BRANCH  14  15
ATOM     15  CB  GLU D 570     -19.500  -6.345 -13.794  1.00 32.92     0.043 C 
BRANCH  15  16
ATOM     16  CG  GLU D 570     -20.457  -5.607 -12.930  1.00 32.92     0.100 C 
BRANCH  16  17
ATOM     17  CD  GLU D 570     -21.727  -5.222 -13.652  1.00 32.92     0.185 C 
ATOM     18  OE1 GLU D 570     -22.286  -6.063 -14.383  1.00 32.92    -0.647 OA
ATOM     19  OE2 GLU D 570     -22.159  -4.063 -13.499  1.00 32.92    -0.647 OA
ENDBRANCH  16  17
ENDBRANCH  15  16
ENDBRANCH  14  15
END_RES GLU D 570
ENDMDL
MODEL 7
REMARK VINA RESULT:      -0.9      8.857      8.892
REMARK  6 active torsions:
REMARK  status: ('A' for Active; 'I' for Inactive)
REMARK    1  A    between atoms: C_19  and  C_20 
REMARK    2  A    between atoms: C_19  and  O_34 
REMARK    3  A    between atoms: C_20  and  O_33 
REMARK    4  A    between atoms: C_23  and  O_27 
REMARK    5  A    between atoms: O_27  and  P_28 
REMARK    6  A    between atoms: P_28  and  O_30 
ROOT
HETATM    1 MG   UNL     4     -32.735  -6.087  -4.949  1.00  0.00     0.000 Mg
ENDROOT
TORSDOF 6
BEGIN_RES ARG D 557
REMARK  4 active torsions:
REMARK  status: ('A' for Active; 'I' for Inactive)
REMARK    1  A    between atoms: CA   and  CB  
REMARK    2  A    between atoms: CB   and  CG  
REMARK    3  A    between atoms: CG   and  CD  
REMARK    4  A    between atoms: CD   and  NE  
REMARK       I    between atoms: NE   and  CZ  
REMARK       I    between atoms: CZ   and  NH1 
REMARK       I    between atoms: CZ   and  NH2 
ROOT
ATOM      1  CA  ARG D 557     -26.217   2.705 -17.014  1.00 35.49     0.159 C 
ENDROOT
BRANCH   1   2
ATOM      2  CB  ARG D 557     -26.789   1.319 -17.183  1.00 35.49     0.034 C 
BRANCH   2   3
ATOM      3  CG  ARG D 557     -25.866   0.195 -16.984  1.00 35.49     0.027 C 
BRANCH   3   4
ATOM      4  CD  ARG D 557     -26.302  -0.707 -15.893  1.00 35.49     0.116 C 
BRANCH   4   5
ATOM      5  NE  ARG D 557     -25.258  -0.938 -14.930  1.00 35.49    -0.212 N 
ATOM      6  CZ  ARG D 557     -24.987  -2.086 -14.352  1.00 35.49     0.666 C 
ATOM      7  NH1 ARG D 557     -25.680  -3.183 -14.594  1.00 35.49    -0.235 N 
ATOM      8  NH2 ARG D 557     -23.988  -2.117 -13.518  1.00 35.49    -0.235 N 
ATOM      9  HH  ARG D 557     -26.340  -3.186 -15.140  1.00 35.49     0.174 HD
ATOM     10  HH  ARG D 557     -25.456  -3.904 -14.189  1.00 35.49     0.174 HD
ATOM     11  HH  ARG D 557     -23.553  -1.395 -13.387  1.00 35.49     0.174 HD
ATOM     12  HH  ARG D 557     -23.780  -2.841 -13.128  1.00 35.49     0.174 HD
ATOM     13  HE  ARG D 557     -24.808  -0.268 -14.661  1.00 35.49     0.178 HD
ENDBRANCH   4   5
ENDBRANCH   3   4
ENDBRANCH   2   3
ENDBRANCH   1   2
END_RES ARG D 557
BEGIN_RES GLU D 570
REMARK  3 active torsions:
REMARK  status: ('A' for Active; 'I' for Inactive)
REMARK    5  A    between atoms: CA   and  CB  
REMARK    6  A    between atoms: CB   and  CG  
REMARK    7  A    between atoms: CG   and  CD  
ROOT
ATOM     14  CA  GLU D 570     -18.033  -6.348 -13.375  1.00 32.92     0.160 C 
ENDROOT
BRANCH  14  15
ATOM     15  CB  GLU D 570     -19.500  -6.345 -13.794  1.00 32.92     0.043 C 
BRANCH  15  16
ATOM     16  CG  GLU D 570     -20.445  -5.544 -12.973  1.00 32.92     0.100 C 
BRANCH  16  17
ATOM     17  CD  GLU D 570     -21.677  -5.121 -13.738  1.00 32.92     0.185 C 
ATOM     18  OE1 GLU D 570     -21.613  -5.014 -14.978  1.00 32.92    -0.647 OA
ATOM     19  OE2 GLU D 570     -22.714  -4.878 -13.089  1.00 32.92    -0.647 OA
ENDBRANCH  16  17
ENDBRANCH  15  16
ENDBRANCH  14  15
END_RES GLU D 570
ENDMDL
MODEL 8
REMARK VINA RESULT:      -0.8      3.568      3.687
REMARK  6 active torsions:
REMARK  status: ('A' for Active; 'I' for Inactive)
REMARK    1  A    between atoms: C_19  and  C_20 
REMARK    2  A    between atoms: C_19  and  O_34 
REMARK    3  A    between atoms: C_20  and  O_33 
REMARK    4  A    between atoms: C_23  and  O_27 
REMARK    5  A    between atoms: O_27  and  P_28 
REMARK    6  A    between atoms: P_28  and  O_30 
ROOT
HETATM    1 MG   UNL     4     -19.767   3.750 -12.566  1.00  0.00     0.000 Mg
ENDROOT
TORSDOF 6
BEGIN_RES ARG D 557
REMARK  4 active torsions:
REMARK  status: ('A' for Active; 'I' for Inactive)
REMARK    1  A    between atoms: CA   and  CB  
REMARK    2  A    between atoms: CB   and  CG  
REMARK    3  A    between atoms: CG   and  CD  
REMARK    4  A    between atoms: CD   and  NE  
REMARK       I    between atoms: NE   and  CZ  
REMARK       I    between atoms: CZ   and  NH1 
REMARK       I    between atoms: CZ   and  NH2 
ROOT
ATOM      1  CA  ARG D 557     -26.217   2.705 -17.014  1.00 35.49     0.159 C 
ENDROOT
BRANCH   1   2
ATOM      2  CB  ARG D 557     -26.789   1.319 -17.183  1.00 35.49     0.034 C 
BRANCH   2   3
ATOM      3  CG  ARG D 557     -25.837   0.202 -17.147  1.00 35.49     0.027 C 
BRANCH   3   4
ATOM      4  CD  ARG D 557     -24.753   0.416 -16.161  1.00 35.49     0.116 C 
BRANCH   4   5
ATOM      5  NE  ARG D 557     -24.896  -0.429 -15.006  1.00 35.49    -0.212 N 
ATOM      6  CZ  ARG D 557     -24.091  -1.411 -14.668  1.00 35.49     0.666 C 
ATOM      7  NH1 ARG D 557     -23.036  -1.743 -15.389  1.00 35.49    -0.235 N 
ATOM      8  NH2 ARG D 557     -24.362  -2.061 -13.573  1.00 35.49    -0.235 N 
ATOM      9  HH  ARG D 557     -22.837  -1.328 -16.112  1.00 35.49     0.174 HD
ATOM     10  HH  ARG D 557     -22.545  -2.391 -15.118  1.00 35.49     0.174 HD
ATOM     11  HH  ARG D 557     -25.046  -1.819 -13.123  1.00 35.49     0.174 HD
ATOM     12  HH  ARG D 557     -23.863  -2.698 -13.320  1.00 35.49     0.174 HD
ATOM     13  HE  ARG D 557     -25.590  -0.332 -14.524  1.00 35.49     0.178 HD
ENDBRANCH   4   5
ENDBRANCH   3   4
ENDBRANCH   2   3
ENDBRANCH   1   2
END_RES ARG D 557
BEGIN_RES GLU D 570
REMARK  3 active torsions:
REMARK  status: ('A' for Active; 'I' for Inactive)
REMARK    5  A    between atoms: CA   and  CB  
REMARK    6  A    between atoms: CB   and  CG  
REMARK    7  A    between atoms: CG   and  CD  
ROOT
ATOM     14  CA  GLU D 570     -18.033  -6.348 -13.375  1.00 32.92     0.160 C 
ENDROOT
BRANCH  14  15
ATOM     15  CB  GLU D 570     -19.500  -6.345 -13.794  1.00 32.92     0.043 C 
BRANCH  15  16
ATOM     16  CG  GLU D 570     -20.441  -5.526 -12.987  1.00 32.92     0.100 C 
BRANCH  16  17
ATOM     17  CD  GLU D 570     -21.741  -5.245 -13.703  1.00 32.92     0.185 C 
ATOM     18  OE1 GLU D 570     -22.294  -4.139 -13.543  1.00 32.92    -0.647 OA
ATOM     19  OE2 GLU D 570     -22.221  -6.146 -14.419  1.00 32.92    -0.647 OA
ENDBRANCH  16  17
ENDBRANCH  15  16
ENDBRANCH  14  15
END_RES GLU D 570
ENDMDL
MODEL 9
REMARK VINA RESULT:      -0.8      9.177      9.239
REMARK  6 active torsions:
REMARK  status: ('A' for Active; 'I' for Inactive)
REMARK    1  A    between atoms: C_19  and  C_20 
REMARK    2  A    between atoms: C_19  and  O_34 
REMARK    3  A    between atoms: C_20  and  O_33 
REMARK    4  A    between atoms: C_23  and  O_27 
REMARK    5  A    between atoms: O_27  and  P_28 
REMARK    6  A    between atoms: P_28  and  O_30 
ROOT
HETATM    1 MG   UNL     4     -35.103  -8.571 -11.659  1.00  0.00     0.000 Mg
ENDROOT
TORSDOF 6
BEGIN_RES ARG D 557
REMARK  4 active torsions:
REMARK  status: ('A' for Active; 'I' for Inactive)
REMARK    1  A    between atoms: CA   and  CB  
REMARK    2  A    between atoms: CB   and  CG  
REMARK    3  A    between atoms: CG   and  CD  
REMARK    4  A    between atoms: CD   and  NE  
REMARK       I    between atoms: NE   and  CZ  
REMARK       I    between atoms: CZ   and  NH1 
REMARK       I    between atoms: CZ   and  NH2 
ROOT
ATOM      1  CA  ARG D 557     -26.217   2.705 -17.014  1.00 35.49     0.159 C 
ENDROOT
BRANCH   1   2
ATOM      2  CB  ARG D 557     -26.789   1.319 -17.183  1.00 35.49     0.034 C 
BRANCH   2   3
ATOM      3  CG  ARG D 557     -25.866   0.195 -16.987  1.00 35.49     0.027 C 
BRANCH   3   4
ATOM      4  CD  ARG D 557     -26.286  -0.695 -15.880  1.00 35.49     0.116 C 
BRANCH   4   5
ATOM      5  NE  ARG D 557     -25.229  -0.912 -14.928  1.00 35.49    -0.212 N 
ATOM      6  CZ  ARG D 557     -24.927  -2.060 -14.364  1.00 35.49     0.666 C 
ATOM      7  NH1 ARG D 557     -25.596  -3.170 -14.613  1.00 35.49    -0.235 N 
ATOM      8  NH2 ARG D 557     -23.921  -2.076 -13.538  1.00 35.49    -0.235 N 
ATOM      9  HH  ARG D 557     -26.260  -3.182 -15.155  1.00 35.49     0.174 HD
ATOM     10  HH  ARG D 557     -25.352  -3.890 -14.218  1.00 35.49     0.174 HD
ATOM     11  HH  ARG D 557     -23.502  -1.346 -13.403  1.00 35.49     0.174 HD
ATOM     12  HH  ARG D 557     -23.694  -2.799 -13.158  1.00 35.49     0.174 HD
ATOM     13  HE  ARG D 557     -24.792  -0.235 -14.655  1.00 35.49     0.178 HD
ENDBRANCH   4   5
ENDBRANCH   3   4
ENDBRANCH   2   3
ENDBRANCH   1   2
END_RES ARG D 557
BEGIN_RES GLU D 570
REMARK  3 active torsions:
REMARK  status: ('A' for Active; 'I' for Inactive)
REMARK    5  A    between atoms: CA   and  CB  
REMARK    6  A    between atoms: CB   and  CG  
REMARK    7  A    between atoms: CG   and  CD  
ROOT
ATOM     14  CA  GLU D 570     -18.033  -6.348 -13.375  1.00 32.92     0.160 C 
ENDROOT
BRANCH  14  15
ATOM     15  CB  GLU D 570     -19.500  -6.345 -13.794  1.00 32.92     0.043 C 
BRANCH  15  16
ATOM     16  CG  GLU D 570     -20.450  -5.570 -12.955  1.00 32.92     0.100 C 
BRANCH  16  17
ATOM     17  CD  GLU D 570     -21.688  -5.143 -13.707  1.00 32.92     0.185 C 
ATOM     18  OE1 GLU D 570     -22.696  -4.791 -13.065  1.00 32.92    -0.647 OA
ATOM     19  OE2 GLU D 570     -21.656  -5.176 -14.953  1.00 32.92    -0.647 OA
ENDBRANCH  16  17
ENDBRANCH  15  16
ENDBRANCH  14  15
END_RES GLU D 570
ENDMDL
