MODEL 1
REMARK VINA RESULT:      -7.8      0.000      0.000
REMARK  12 active torsions:
REMARK  status: ('A' for Active; 'I' for Inactive)
REMARK    1  A    between atoms: C_6  and  O_11 
REMARK    2  A    between atoms: C_7  and  C_8 
REMARK    3  A    between atoms: C_8  and  O_10 
REMARK    4  A    between atoms: C_18  and  O_35 
REMARK    5  A    between atoms: C_19  and  C_24 
REMARK    6  A    between atoms: C_20  and  O_23 
REMARK    7  A    between atoms: C_21  and  O_22 
REMARK    8  A    between atoms: C_25  and  O_34 
REMARK    9  A    between atoms: C_26  and  O_33 
REMARK   10  A    between atoms: C_27  and  O_32 
REMARK   11  A    between atoms: C_28  and  C_30 
REMARK   12  A    between atoms: C_30  and  O_31 
ROOT
HETATM    1  C   UNL     1     -19.908  -5.276  -9.590  1.00  0.00     0.050 C 
HETATM    2  C   UNL     1     -21.047  -5.149  -8.594  1.00  0.00    -0.027 A 
HETATM    3  C   UNL     1     -21.066  -5.844  -7.338  1.00  0.00     0.036 A 
HETATM    4  C   UNL     1     -22.143  -5.699  -6.452  1.00  0.00     0.032 A 
HETATM    5  C   UNL     1     -23.208  -4.871  -6.792  1.00  0.00     0.054 A 
HETATM    6  C   UNL     1     -23.205  -4.181  -8.007  1.00  0.00     0.084 A 
HETATM    7  C   UNL     1     -22.142  -4.298  -8.928  1.00  0.00     0.077 A 
HETATM    8  C   UNL     1     -22.193  -6.399  -5.131  1.00  0.00     0.197 A 
HETATM    9  O   UNL     1     -23.164  -6.195  -4.412  1.00  0.00    -0.286 OA
HETATM   10  C   UNL     1     -21.096  -7.319  -4.735  1.00  0.00     0.068 A 
HETATM   11  C   UNL     1     -20.064  -7.494  -5.639  1.00  0.00     0.066 A 
HETATM   12  C   UNL     1     -19.974  -6.723  -6.885  1.00  0.00     0.197 A 
HETATM   13  O   UNL     1     -18.921  -6.818  -7.506  1.00  0.00    -0.286 OA
HETATM   14  C   UNL     1     -19.030  -8.394  -5.329  1.00  0.00     0.092 A 
HETATM   15  C   UNL     1     -18.915  -9.066  -4.087  1.00  0.00     0.043 A 
HETATM   16  C   UNL     1     -19.946  -8.873  -3.187  1.00  0.00     0.111 A 
HETATM   17  C   UNL     1     -21.035  -8.021  -3.512  1.00  0.00     0.115 A 
ENDROOT
BRANCH  15  18
HETATM   18  C   UNL     1     -17.613  -9.834  -3.940  1.00  0.00     0.192 C 
HETATM   19  C   UNL     1     -17.534 -10.498  -2.540  1.00  0.00     0.183 C 
HETATM   20  C   UNL     1     -16.042 -10.565  -2.200  1.00  0.00     0.181 C 
HETATM   21  C   UNL     1     -15.265 -11.343  -3.277  1.00  0.00     0.180 C 
HETATM   22  C   UNL     1     -15.638 -10.848  -4.704  1.00  0.00     0.177 C 
HETATM   23  O   UNL     1     -17.109 -10.792  -4.910  1.00  0.00    -0.368 OA
BRANCH  19  24
HETATM   24  O   UNL     1     -18.136 -11.804  -2.538  1.00  0.00    -0.390 OA
HETATM   25  H   UNL     1     -18.739 -11.850  -1.778  1.00  0.00     0.210 HD
ENDBRANCH  19  24
BRANCH  20  26
HETATM   26  O   UNL     1     -15.846 -11.130  -0.906  1.00  0.00    -0.390 OA
HETATM   27  H   UNL     1     -15.729 -12.089  -1.058  1.00  0.00     0.210 HD
ENDBRANCH  20  26
BRANCH  21  28
HETATM   28  O   UNL     1     -15.494 -12.751  -3.114  1.00  0.00    -0.390 OA
HETATM   29  H   UNL     1     -14.690 -13.182  -2.787  1.00  0.00     0.210 HD
ENDBRANCH  21  28
BRANCH  22  30
HETATM   30  C   UNL     1     -14.936 -11.694  -5.772  1.00  0.00     0.198 C 
BRANCH  30  31
HETATM   31  O   UNL     1     -13.636 -12.070  -5.329  1.00  0.00    -0.398 OA
HETATM   32  H   UNL     1     -13.520 -13.005  -5.563  1.00  0.00     0.209 HD
ENDBRANCH  30  31
ENDBRANCH  22  30
ENDBRANCH  15  18
BRANCH  14  33
HETATM   33  O   UNL     1     -18.031  -8.666  -6.248  1.00  0.00    -0.359 OA
HETATM   34  H   UNL     1     -17.153  -8.547  -5.816  1.00  0.00     0.217 HD
ENDBRANCH  14  33
BRANCH  16  35
HETATM   35  O   UNL     1     -19.980  -9.481  -1.958  1.00  0.00    -0.357 OA
HETATM   36  H   UNL     1     -19.626  -8.856  -1.298  1.00  0.00     0.217 HD
ENDBRANCH  16  35
BRANCH  17  37
HETATM   37  O   UNL     1     -22.031  -7.888  -2.577  1.00  0.00    -0.357 OA
HETATM   38  H   UNL     1     -21.617  -7.489  -1.786  1.00  0.00     0.217 HD
ENDBRANCH  17  37
BRANCH   7  39
HETATM   39  C   UNL     1     -22.161  -3.526 -10.241  1.00  0.00     0.179 C 
HETATM   40  O   UNL     1     -21.206  -2.931 -10.711  1.00  0.00    -0.646 OA
BRANCH  39  41
HETATM   41  O   UNL     1     -23.342  -3.520 -10.901  1.00  0.00    -0.773 OA
HETATM   42  H   UNL     1     -23.237  -3.524 -11.877  1.00  0.00     0.167 HD
ENDBRANCH  39  41
ENDBRANCH   7  39
BRANCH   6  43
HETATM   43  O   UNL     1     -24.285  -3.382  -8.288  1.00  0.00    -0.360 OA
HETATM   44  H   UNL     1     -24.023  -2.444  -8.230  1.00  0.00     0.217 HD
ENDBRANCH   6  43
TORSDOF 12
BEGIN_RES ARG D 557
REMARK  4 active torsions:
REMARK  status: ('A' for Active; 'I' for Inactive)
REMARK    1  A    between atoms: CA   and  CB  
REMARK    2  A    between atoms: CB   and  CG  
REMARK    3  A    between atoms: CG   and  CD  
REMARK    4  A    between atoms: CD   and  NE  
REMARK       I    between atoms: NE   and  CZ  
REMARK       I    between atoms: CZ   and  NH1 
REMARK       I    between atoms: CZ   and  NH2 
ROOT
ATOM      1  CA  ARG D 557     -26.217   2.705 -17.014  1.00 35.49     0.159 C 
ENDROOT
BRANCH   1   2
ATOM      2  CB  ARG D 557     -26.789   1.319 -17.183  1.00 35.49     0.034 C 
BRANCH   2   3
ATOM      3  CG  ARG D 557     -25.839   0.201 -17.127  1.00 35.49     0.027 C 
BRANCH   3   4
ATOM      4  CD  ARG D 557     -24.759   0.427 -16.140  1.00 35.49     0.116 C 
BRANCH   4   5
ATOM      5  NE  ARG D 557     -24.889  -0.427 -14.989  1.00 35.49    -0.212 N 
ATOM      6  CZ  ARG D 557     -24.067  -1.396 -14.655  1.00 35.49     0.666 C 
ATOM      7  NH1 ARG D 557     -23.005  -1.705 -15.376  1.00 35.49    -0.235 N 
ATOM      8  NH2 ARG D 557     -24.328  -2.056 -13.564  1.00 35.49    -0.235 N 
ATOM      9  HH  ARG D 557     -22.812  -1.283 -16.096  1.00 35.49     0.174 HD
ATOM     10  HH  ARG D 557     -22.502  -2.345 -15.107  1.00 35.49     0.174 HD
ATOM     11  HH  ARG D 557     -25.017  -1.829 -13.114  1.00 35.49     0.174 HD
ATOM     12  HH  ARG D 557     -23.818  -2.685 -13.313  1.00 35.49     0.174 HD
ATOM     13  HE  ARG D 557     -25.586  -0.346 -14.508  1.00 35.49     0.178 HD
ENDBRANCH   4   5
ENDBRANCH   3   4
ENDBRANCH   2   3
ENDBRANCH   1   2
END_RES ARG D 557
BEGIN_RES GLU D 570
REMARK  3 active torsions:
REMARK  status: ('A' for Active; 'I' for Inactive)
REMARK    5  A    between atoms: CA   and  CB  
REMARK    6  A    between atoms: CB   and  CG  
REMARK    7  A    between atoms: CG   and  CD  
ROOT
ATOM     14  CA  GLU D 570     -18.033  -6.348 -13.375  1.00 32.92     0.160 C 
ENDROOT
BRANCH  14  15
ATOM     15  CB  GLU D 570     -19.500  -6.345 -13.794  1.00 32.92     0.043 C 
BRANCH  15  16
ATOM     16  CG  GLU D 570     -20.427  -5.466 -13.035  1.00 32.92     0.100 C 
BRANCH  16  17
ATOM     17  CD  GLU D 570     -21.745  -5.251 -13.741  1.00 32.92     0.185 C 
ATOM     18  OE1 GLU D 570     -22.314  -4.147 -13.639  1.00 32.92    -0.647 OA
ATOM     19  OE2 GLU D 570     -22.223  -6.202 -14.390  1.00 32.92    -0.647 OA
ENDBRANCH  16  17
ENDBRANCH  15  16
ENDBRANCH  14  15
END_RES GLU D 570
ENDMDL
MODEL 2
REMARK VINA RESULT:      -7.3      2.547      5.893
REMARK  12 active torsions:
REMARK  status: ('A' for Active; 'I' for Inactive)
REMARK    1  A    between atoms: C_6  and  O_11 
REMARK    2  A    between atoms: C_7  and  C_8 
REMARK    3  A    between atoms: C_8  and  O_10 
REMARK    4  A    between atoms: C_18  and  O_35 
REMARK    5  A    between atoms: C_19  and  C_24 
REMARK    6  A    between atoms: C_20  and  O_23 
REMARK    7  A    between atoms: C_21  and  O_22 
REMARK    8  A    between atoms: C_25  and  O_34 
REMARK    9  A    between atoms: C_26  and  O_33 
REMARK   10  A    between atoms: C_27  and  O_32 
REMARK   11  A    between atoms: C_28  and  C_30 
REMARK   12  A    between atoms: C_30  and  O_31 
ROOT
HETATM    1  C   UNL     1     -20.713 -10.055   0.450  1.00  0.00     0.050 C 
HETATM    2  C   UNL     1     -20.827  -9.142  -0.758  1.00  0.00    -0.027 A 
HETATM    3  C   UNL     1     -20.062  -9.335  -1.957  1.00  0.00     0.036 A 
HETATM    4  C   UNL     1     -20.198  -8.462  -3.046  1.00  0.00     0.032 A 
HETATM    5  C   UNL     1     -21.086  -7.395  -2.966  1.00  0.00     0.054 A 
HETATM    6  C   UNL     1     -21.844  -7.192  -1.810  1.00  0.00     0.084 A 
HETATM    7  C   UNL     1     -21.738  -8.046  -0.690  1.00  0.00     0.077 A 
HETATM    8  C   UNL     1     -19.426  -8.639  -4.315  1.00  0.00     0.197 A 
HETATM    9  O   UNL     1     -19.626  -7.840  -5.222  1.00  0.00    -0.286 OA
HETATM   10  C   UNL     1     -18.443  -9.745  -4.439  1.00  0.00     0.068 A 
HETATM   11  C   UNL     1     -18.279 -10.569  -3.340  1.00  0.00     0.066 A 
HETATM   12  C   UNL     1     -19.117 -10.450  -2.140  1.00  0.00     0.197 A 
HETATM   13  O   UNL     1     -19.015 -11.354  -1.318  1.00  0.00    -0.286 OA
HETATM   14  C   UNL     1     -17.322 -11.597  -3.394  1.00  0.00     0.092 A 
HETATM   15  C   UNL     1     -16.577 -11.920  -4.555  1.00  0.00     0.043 A 
HETATM   16  C   UNL     1     -16.757 -11.098  -5.650  1.00  0.00     0.111 A 
HETATM   17  C   UNL     1     -17.670 -10.010  -5.590  1.00  0.00     0.115 A 
ENDROOT
BRANCH  15  18
HETATM   18  C   UNL     1     -15.751 -13.185  -4.401  1.00  0.00     0.192 C 
HETATM   19  C   UNL     1     -15.458 -13.810  -5.792  1.00  0.00     0.183 C 
HETATM   20  C   UNL     1     -15.337 -15.317  -5.549  1.00  0.00     0.181 C 
HETATM   21  C   UNL     1     -14.243 -15.624  -4.512  1.00  0.00     0.180 C 
HETATM   22  C   UNL     1     -14.394 -14.721  -3.254  1.00  0.00     0.177 C 
HETATM   23  O   UNL     1     -14.535 -13.284  -3.611  1.00  0.00    -0.368 OA
BRANCH  19  24
HETATM   24  O   UNL     1     -14.258 -13.270  -6.373  1.00  0.00    -0.390 OA
HETATM   25  H   UNL     1     -13.703 -14.016  -6.652  1.00  0.00     0.210 HD
ENDBRANCH  19  24
BRANCH  20  26
HETATM   26  O   UNL     1     -15.102 -16.006  -6.774  1.00  0.00    -0.390 OA
HETATM   27  H   UNL     1     -14.778 -16.892  -6.514  1.00  0.00     0.210 HD
ENDBRANCH  20  26
BRANCH  21  28
HETATM   28  O   UNL     1     -12.950 -15.492  -5.123  1.00  0.00    -0.390 OA
HETATM   29  H   UNL     1     -12.964 -15.870  -6.015  1.00  0.00     0.210 HD
ENDBRANCH  21  28
BRANCH  22  30
HETATM   30  C   UNL     1     -13.242 -14.962  -2.272  1.00  0.00     0.198 C 
BRANCH  30  31
HETATM   31  O   UNL     1     -12.950 -16.353  -2.186  1.00  0.00    -0.398 OA
HETATM   32  H   UNL     1     -12.796 -16.549  -1.248  1.00  0.00     0.209 HD
ENDBRANCH  30  31
ENDBRANCH  22  30
ENDBRANCH  15  18
BRANCH  14  33
HETATM   33  O   UNL     1     -17.064 -12.381  -2.282  1.00  0.00    -0.359 OA
HETATM   34  H   UNL     1     -17.003 -11.802  -1.486  1.00  0.00     0.217 HD
ENDBRANCH  14  33
BRANCH  16  35
HETATM   35  O   UNL     1     -16.082 -11.276  -6.830  1.00  0.00    -0.357 OA
HETATM   36  H   UNL     1     -15.356 -11.910  -6.673  1.00  0.00     0.217 HD
ENDBRANCH  16  35
BRANCH  17  37
HETATM   37  O   UNL     1     -17.787  -9.226  -6.710  1.00  0.00    -0.357 OA
HETATM   38  H   UNL     1     -18.684  -9.382  -7.065  1.00  0.00     0.217 HD
ENDBRANCH  17  37
BRANCH   7  39
HETATM   39  C   UNL     1     -22.584  -7.808   0.554  1.00  0.00     0.179 C 
HETATM   40  O   UNL     1     -22.137  -7.629   1.675  1.00  0.00    -0.646 OA
BRANCH  39  41
HETATM   41  O   UNL     1     -23.923  -7.808   0.362  1.00  0.00    -0.773 OA
HETATM   42  H   UNL     1     -24.178  -7.983  -0.569  1.00  0.00     0.167 HD
ENDBRANCH  39  41
ENDBRANCH   7  39
BRANCH   6  43
HETATM   43  O   UNL     1     -22.700  -6.120  -1.788  1.00  0.00    -0.360 OA
HETATM   44  H   UNL     1     -22.977  -5.940  -0.870  1.00  0.00     0.217 HD
ENDBRANCH   6  43
TORSDOF 12
BEGIN_RES ARG D 557
REMARK  4 active torsions:
REMARK  status: ('A' for Active; 'I' for Inactive)
REMARK    1  A    between atoms: CA   and  CB  
REMARK    2  A    between atoms: CB   and  CG  
REMARK    3  A    between atoms: CG   and  CD  
REMARK    4  A    between atoms: CD   and  NE  
REMARK       I    between atoms: NE   and  CZ  
REMARK       I    between atoms: CZ   and  NH1 
REMARK       I    between atoms: CZ   and  NH2 
ROOT
ATOM      1  CA  ARG D 557     -26.217   2.705 -17.014  1.00 35.49     0.159 C 
ENDROOT
BRANCH   1   2
ATOM      2  CB  ARG D 557     -26.789   1.319 -17.183  1.00 35.49     0.034 C 
BRANCH   2   3
ATOM      3  CG  ARG D 557     -25.837   0.202 -17.144  1.00 35.49     0.027 C 
BRANCH   3   4
ATOM      4  CD  ARG D 557     -24.761   0.412 -16.149  1.00 35.49     0.116 C 
BRANCH   4   5
ATOM      5  NE  ARG D 557     -24.914  -0.437 -14.997  1.00 35.49    -0.212 N 
ATOM      6  CZ  ARG D 557     -24.123  -1.433 -14.667  1.00 35.49     0.666 C 
ATOM      7  NH1 ARG D 557     -23.075  -1.777 -15.393  1.00 35.49    -0.235 N 
ATOM      8  NH2 ARG D 557     -24.401  -2.084 -13.575  1.00 35.49    -0.235 N 
ATOM      9  HH  ARG D 557     -22.872  -1.362 -16.114  1.00 35.49     0.174 HD
ATOM     10  HH  ARG D 557     -22.593  -2.434 -15.126  1.00 35.49     0.174 HD
ATOM     11  HH  ARG D 557     -25.079  -1.834 -13.122  1.00 35.49     0.174 HD
ATOM     12  HH  ARG D 557     -23.911  -2.730 -13.327  1.00 35.49     0.174 HD
ATOM     13  HE  ARG D 557     -25.605  -0.332 -14.513  1.00 35.49     0.178 HD
ENDBRANCH   4   5
ENDBRANCH   3   4
ENDBRANCH   2   3
ENDBRANCH   1   2
END_RES ARG D 557
BEGIN_RES GLU D 570
REMARK  3 active torsions:
REMARK  status: ('A' for Active; 'I' for Inactive)
REMARK    5  A    between atoms: CA   and  CB  
REMARK    6  A    between atoms: CB   and  CG  
REMARK    7  A    between atoms: CG   and  CD  
ROOT
ATOM     14  CA  GLU D 570     -18.033  -6.348 -13.375  1.00 32.92     0.160 C 
ENDROOT
BRANCH  14  15
ATOM     15  CB  GLU D 570     -19.500  -6.345 -13.794  1.00 32.92     0.043 C 
BRANCH  15  16
ATOM     16  CG  GLU D 570     -20.448  -5.558 -12.963  1.00 32.92     0.100 C 
BRANCH  16  17
ATOM     17  CD  GLU D 570     -21.712  -5.187 -13.703  1.00 32.92     0.185 C 
ATOM     18  OE1 GLU D 570     -22.308  -4.137 -13.393  1.00 32.92    -0.647 OA
ATOM     19  OE2 GLU D 570     -22.119  -5.962 -14.590  1.00 32.92    -0.647 OA
ENDBRANCH  16  17
ENDBRANCH  15  16
ENDBRANCH  14  15
END_RES GLU D 570
ENDMDL
MODEL 3
REMARK VINA RESULT:      -7.2      3.635      6.291
REMARK  12 active torsions:
REMARK  status: ('A' for Active; 'I' for Inactive)
REMARK    1  A    between atoms: C_6  and  O_11 
REMARK    2  A    between atoms: C_7  and  C_8 
REMARK    3  A    between atoms: C_8  and  O_10 
REMARK    4  A    between atoms: C_18  and  O_35 
REMARK    5  A    between atoms: C_19  and  C_24 
REMARK    6  A    between atoms: C_20  and  O_23 
REMARK    7  A    between atoms: C_21  and  O_22 
REMARK    8  A    between atoms: C_25  and  O_34 
REMARK    9  A    between atoms: C_26  and  O_33 
REMARK   10  A    between atoms: C_27  and  O_32 
REMARK   11  A    between atoms: C_28  and  C_30 
REMARK   12  A    between atoms: C_30  and  O_31 
ROOT
HETATM    1  C   UNL     1     -20.789 -10.188   0.530  1.00  0.00     0.050 C 
HETATM    2  C   UNL     1     -20.866  -9.249  -0.660  1.00  0.00    -0.027 A 
HETATM    3  C   UNL     1     -20.098  -9.444  -1.858  1.00  0.00     0.036 A 
HETATM    4  C   UNL     1     -20.198  -8.547  -2.931  1.00  0.00     0.032 A 
HETATM    5  C   UNL     1     -21.053  -7.453  -2.836  1.00  0.00     0.054 A 
HETATM    6  C   UNL     1     -21.812  -7.249  -1.682  1.00  0.00     0.084 A 
HETATM    7  C   UNL     1     -21.742  -8.127  -0.578  1.00  0.00     0.077 A 
HETATM    8  C   UNL     1     -19.423  -8.723  -4.197  1.00  0.00     0.197 A 
HETATM    9  O   UNL     1     -19.591  -7.902  -5.091  1.00  0.00    -0.286 OA
HETATM   10  C   UNL     1     -18.474  -9.858  -4.336  1.00  0.00     0.068 A 
HETATM   11  C   UNL     1     -18.345 -10.707  -3.252  1.00  0.00     0.066 A 
HETATM   12  C   UNL     1     -19.187 -10.585  -2.056  1.00  0.00     0.197 A 
HETATM   13  O   UNL     1     -19.121 -11.507  -1.251  1.00  0.00    -0.286 OA
HETATM   14  C   UNL     1     -17.421 -11.764  -3.320  1.00  0.00     0.092 A 
HETATM   15  C   UNL     1     -16.677 -12.089  -4.481  1.00  0.00     0.043 A 
HETATM   16  C   UNL     1     -16.824 -11.240  -5.562  1.00  0.00     0.111 A 
HETATM   17  C   UNL     1     -17.702 -10.125  -5.487  1.00  0.00     0.115 A 
ENDROOT
BRANCH  15  18
HETATM   18  C   UNL     1     -15.893 -13.382  -4.346  1.00  0.00     0.192 C 
HETATM   19  C   UNL     1     -15.579 -13.971  -5.748  1.00  0.00     0.183 C 
HETATM   20  C   UNL     1     -15.509 -15.488  -5.551  1.00  0.00     0.181 C 
HETATM   21  C   UNL     1     -14.454 -15.860  -4.495  1.00  0.00     0.180 C 
HETATM   22  C   UNL     1     -14.614 -14.993  -3.213  1.00  0.00     0.177 C 
HETATM   23  O   UNL     1     -14.704 -13.543  -3.526  1.00  0.00    -0.368 OA
BRANCH  19  24
HETATM   24  O   UNL     1     -14.348 -13.448  -6.278  1.00  0.00    -0.390 OA
HETATM   25  H   UNL     1     -14.551 -12.614  -6.730  1.00  0.00     0.210 HD
ENDBRANCH  19  24
BRANCH  20  26
HETATM   26  O   UNL     1     -15.259 -16.144  -6.791  1.00  0.00    -0.390 OA
HETATM   27  H   UNL     1     -15.293 -17.101  -6.589  1.00  0.00     0.210 HD
ENDBRANCH  20  26
BRANCH  21  28
HETATM   28  O   UNL     1     -13.141 -15.747  -5.065  1.00  0.00    -0.390 OA
HETATM   29  H   UNL     1     -12.551 -15.282  -4.451  1.00  0.00     0.210 HD
ENDBRANCH  21  28
BRANCH  22  30
HETATM   30  C   UNL     1     -13.499 -15.300  -2.208  1.00  0.00     0.198 C 
BRANCH  30  31
HETATM   31  O   UNL     1     -12.359 -14.489  -2.472  1.00  0.00    -0.398 OA
HETATM   32  H   UNL     1     -11.638 -15.091  -2.717  1.00  0.00     0.209 HD
ENDBRANCH  30  31
ENDBRANCH  22  30
ENDBRANCH  15  18
BRANCH  14  33
HETATM   33  O   UNL     1     -17.196 -12.576  -2.221  1.00  0.00    -0.359 OA
HETATM   34  H   UNL     1     -18.042 -12.696  -1.728  1.00  0.00     0.217 HD
ENDBRANCH  14  33
BRANCH  16  35
HETATM   35  O   UNL     1     -16.145 -11.418  -6.740  1.00  0.00    -0.357 OA
HETATM   36  H   UNL     1     -15.525 -12.162  -6.626  1.00  0.00     0.217 HD
ENDBRANCH  16  35
BRANCH  17  37
HETATM   37  O   UNL     1     -17.786  -9.317  -6.592  1.00  0.00    -0.357 OA
HETATM   38  H   UNL     1     -17.542  -9.870  -7.360  1.00  0.00     0.217 HD
ENDBRANCH  17  37
BRANCH   7  39
HETATM   39  C   UNL     1     -22.589  -7.885   0.665  1.00  0.00     0.179 C 
HETATM   40  O   UNL     1     -22.144  -7.726   1.789  1.00  0.00    -0.646 OA
BRANCH  39  41
HETATM   41  O   UNL     1     -23.927  -7.859   0.466  1.00  0.00    -0.773 OA
HETATM   42  H   UNL     1     -24.186  -8.109  -0.446  1.00  0.00     0.167 HD
ENDBRANCH  39  41
ENDBRANCH   7  39
BRANCH   6  43
HETATM   43  O   UNL     1     -22.634  -6.150  -1.645  1.00  0.00    -0.360 OA
HETATM   44  H   UNL     1     -23.222  -6.155  -2.423  1.00  0.00     0.217 HD
ENDBRANCH   6  43
TORSDOF 12
BEGIN_RES ARG D 557
REMARK  4 active torsions:
REMARK  status: ('A' for Active; 'I' for Inactive)
REMARK    1  A    between atoms: CA   and  CB  
REMARK    2  A    between atoms: CB   and  CG  
REMARK    3  A    between atoms: CG   and  CD  
REMARK    4  A    between atoms: CD   and  NE  
REMARK       I    between atoms: NE   and  CZ  
REMARK       I    between atoms: CZ   and  NH1 
REMARK       I    between atoms: CZ   and  NH2 
ROOT
ATOM      1  CA  ARG D 557     -26.217   2.705 -17.014  1.00 35.49     0.159 C 
ENDROOT
BRANCH   1   2
ATOM      2  CB  ARG D 557     -26.789   1.319 -17.183  1.00 35.49     0.034 C 
BRANCH   2   3
ATOM      3  CG  ARG D 557     -28.234   1.226 -17.426  1.00 35.49     0.027 C 
BRANCH   3   4
ATOM      4  CD  ARG D 557     -28.904   0.295 -16.490  1.00 35.49     0.116 C 
BRANCH   4   5
ATOM      5  NE  ARG D 557     -29.304  -0.928 -17.134  1.00 35.49    -0.212 N 
ATOM      6  CZ  ARG D 557     -28.685  -2.084 -17.041  1.00 35.49     0.666 C 
ATOM      7  NH1 ARG D 557     -27.584  -2.243 -16.330  1.00 35.49    -0.235 N 
ATOM      8  NH2 ARG D 557     -29.201  -3.095 -17.677  1.00 35.49    -0.235 N 
ATOM      9  HH  ARG D 557     -27.228  -1.592 -15.901  1.00 35.49     0.174 HD
ATOM     10  HH  ARG D 557     -27.226  -3.021 -16.303  1.00 35.49     0.174 HD
ATOM     11  HH  ARG D 557     -29.917  -2.964 -18.122  1.00 35.49     0.174 HD
ATOM     12  HH  ARG D 557     -28.833  -3.857 -17.637  1.00 35.49     0.174 HD
ATOM     13  HE  ARG D 557     -29.963  -0.900 -17.671  1.00 35.49     0.178 HD
ENDBRANCH   4   5
ENDBRANCH   3   4
ENDBRANCH   2   3
ENDBRANCH   1   2
END_RES ARG D 557
BEGIN_RES GLU D 570
REMARK  3 active torsions:
REMARK  status: ('A' for Active; 'I' for Inactive)
REMARK    5  A    between atoms: CA   and  CB  
REMARK    6  A    between atoms: CB   and  CG  
REMARK    7  A    between atoms: CG   and  CD  
ROOT
ATOM     14  CA  GLU D 570     -18.033  -6.348 -13.375  1.00 32.92     0.160 C 
ENDROOT
BRANCH  14  15
ATOM     15  CB  GLU D 570     -19.500  -6.345 -13.794  1.00 32.92     0.043 C 
BRANCH  15  16
ATOM     16  CG  GLU D 570     -20.133  -7.658 -14.081  1.00 32.92     0.100 C 
BRANCH  16  17
ATOM     17  CD  GLU D 570     -20.820  -7.700 -15.426  1.00 32.92     0.185 C 
ATOM     18  OE1 GLU D 570     -20.629  -8.679 -16.173  1.00 32.92    -0.647 OA
ATOM     19  OE2 GLU D 570     -21.543  -6.735 -15.743  1.00 32.92    -0.647 OA
ENDBRANCH  16  17
ENDBRANCH  15  16
ENDBRANCH  14  15
END_RES GLU D 570
ENDMDL
MODEL 4
REMARK VINA RESULT:      -6.7      1.250      7.784
REMARK  12 active torsions:
REMARK  status: ('A' for Active; 'I' for Inactive)
REMARK    1  A    between atoms: C_6  and  O_11 
REMARK    2  A    between atoms: C_7  and  C_8 
REMARK    3  A    between atoms: C_8  and  O_10 
REMARK    4  A    between atoms: C_18  and  O_35 
REMARK    5  A    between atoms: C_19  and  C_24 
REMARK    6  A    between atoms: C_20  and  O_23 
REMARK    7  A    between atoms: C_21  and  O_22 
REMARK    8  A    between atoms: C_25  and  O_34 
REMARK    9  A    between atoms: C_26  and  O_33 
REMARK   10  A    between atoms: C_27  and  O_32 
REMARK   11  A    between atoms: C_28  and  C_30 
REMARK   12  A    between atoms: C_30  and  O_31 
ROOT
HETATM    1  C   UNL     1     -15.787 -10.976  -5.860  1.00  0.00     0.050 C 
HETATM    2  C   UNL     1     -16.549 -10.953  -4.547  1.00  0.00    -0.027 A 
HETATM    3  C   UNL     1     -17.694 -10.116  -4.325  1.00  0.00     0.036 A 
HETATM    4  C   UNL     1     -18.364 -10.125  -3.093  1.00  0.00     0.032 A 
HETATM    5  C   UNL     1     -17.915 -10.955  -2.072  1.00  0.00     0.054 A 
HETATM    6  C   UNL     1     -16.806 -11.782  -2.270  1.00  0.00     0.084 A 
HETATM    7  C   UNL     1     -16.102 -11.804  -3.494  1.00  0.00     0.077 A 
HETATM    8  C   UNL     1     -19.566  -9.275  -2.829  1.00  0.00     0.197 A 
HETATM    9  O   UNL     1     -20.100  -9.365  -1.730  1.00  0.00    -0.286 OA
HETATM   10  C   UNL     1     -20.066  -8.348  -3.877  1.00  0.00     0.068 A 
HETATM   11  C   UNL     1     -19.367  -8.310  -5.070  1.00  0.00     0.066 A 
HETATM   12  C   UNL     1     -18.254  -9.223  -5.355  1.00  0.00     0.197 A 
HETATM   13  O   UNL     1     -17.843  -9.231  -6.511  1.00  0.00    -0.286 OA
HETATM   14  C   UNL     1     -19.773  -7.410  -6.070  1.00  0.00     0.092 A 
HETATM   15  C   UNL     1     -20.934  -6.603  -5.981  1.00  0.00     0.043 A 
HETATM   16  C   UNL     1     -21.631  -6.659  -4.789  1.00  0.00     0.111 A 
HETATM   17  C   UNL     1     -21.194  -7.511  -3.739  1.00  0.00     0.115 A 
ENDROOT
BRANCH  15  18
HETATM   18  C   UNL     1     -21.247  -5.861  -7.269  1.00  0.00     0.192 C 
HETATM   19  C   UNL     1     -22.390  -4.837  -7.037  1.00  0.00     0.183 C 
HETATM   20  C   UNL     1     -23.116  -4.720  -8.379  1.00  0.00     0.181 C 
HETATM   21  C   UNL     1     -22.148  -4.295  -9.497  1.00  0.00     0.180 C 
HETATM   22  C   UNL     1     -20.853  -5.156  -9.474  1.00  0.00     0.177 C 
HETATM   23  O   UNL     1     -20.252  -5.225  -8.115  1.00  0.00    -0.368 OA
BRANCH  19  24
HETATM   24  O   UNL     1     -21.880  -3.565  -6.598  1.00  0.00    -0.390 OA
HETATM   25  H   UNL     1     -22.640  -2.995  -6.399  1.00  0.00     0.210 HD
ENDBRANCH  19  24
BRANCH  20  26
HETATM   26  O   UNL     1     -24.220  -3.824  -8.277  1.00  0.00    -0.390 OA
HETATM   27  H   UNL     1     -24.020  -3.095  -8.899  1.00  0.00     0.210 HD
ENDBRANCH  20  26
BRANCH  21  28
HETATM   28  O   UNL     1     -21.869  -2.891  -9.383  1.00  0.00    -0.390 OA
HETATM   29  H   UNL     1     -21.176  -2.639 -10.013  1.00  0.00     0.210 HD
ENDBRANCH  21  28
BRANCH  22  30
HETATM   30  C   UNL     1     -19.853  -4.660 -10.523  1.00  0.00     0.198 C 
BRANCH  30  31
HETATM   31  O   UNL     1     -20.538  -4.020 -11.595  1.00  0.00    -0.398 OA
HETATM   32  H   UNL     1     -21.249  -4.620 -11.871  1.00  0.00     0.209 HD
ENDBRANCH  30  31
ENDBRANCH  22  30
ENDBRANCH  15  18
BRANCH  14  33
HETATM   33  O   UNL     1     -19.042  -7.276  -7.239  1.00  0.00    -0.359 OA
HETATM   34  H   UNL     1     -19.480  -6.611  -7.820  1.00  0.00     0.217 HD
ENDBRANCH  14  33
BRANCH  16  35
HETATM   35  O   UNL     1     -22.756  -5.911  -4.553  1.00  0.00    -0.357 OA
HETATM   36  H   UNL     1     -23.297  -6.376  -3.887  1.00  0.00     0.217 HD
ENDBRANCH  16  35
BRANCH  17  37
HETATM   37  O   UNL     1     -21.926  -7.504  -2.579  1.00  0.00    -0.357 OA
HETATM   38  H   UNL     1     -22.760  -7.036  -2.780  1.00  0.00     0.217 HD
ENDBRANCH  17  37
BRANCH   7  39
HETATM   39  C   UNL     1     -14.902 -12.722  -3.686  1.00  0.00     0.179 C 
HETATM   40  O   UNL     1     -13.766 -12.467  -3.320  1.00  0.00    -0.646 OA
BRANCH  39  41
HETATM   41  O   UNL     1     -15.153 -13.892  -4.316  1.00  0.00    -0.773 OA
HETATM   42  H   UNL     1     -14.472 -14.124  -4.983  1.00  0.00     0.167 HD
ENDBRANCH  39  41
ENDBRANCH   7  39
BRANCH   6  43
HETATM   43  O   UNL     1     -16.408 -12.576  -1.224  1.00  0.00    -0.360 OA
HETATM   44  H   UNL     1     -17.101 -12.587  -0.538  1.00  0.00     0.217 HD
ENDBRANCH   6  43
TORSDOF 12
BEGIN_RES ARG D 557
REMARK  4 active torsions:
REMARK  status: ('A' for Active; 'I' for Inactive)
REMARK    1  A    between atoms: CA   and  CB  
REMARK    2  A    between atoms: CB   and  CG  
REMARK    3  A    between atoms: CG   and  CD  
REMARK    4  A    between atoms: CD   and  NE  
REMARK       I    between atoms: NE   and  CZ  
REMARK       I    between atoms: CZ   and  NH1 
REMARK       I    between atoms: CZ   and  NH2 
ROOT
ATOM      1  CA  ARG D 557     -26.217   2.705 -17.014  1.00 35.49     0.159 C 
ENDROOT
BRANCH   1   2
ATOM      2  CB  ARG D 557     -26.789   1.319 -17.183  1.00 35.49     0.034 C 
BRANCH   2   3
ATOM      3  CG  ARG D 557     -25.862   0.195 -17.002  1.00 35.49     0.027 C 
BRANCH   3   4
ATOM      4  CD  ARG D 557     -26.278  -0.707 -15.904  1.00 35.49     0.116 C 
BRANCH   4   5
ATOM      5  NE  ARG D 557     -25.230  -0.903 -14.937  1.00 35.49    -0.212 N 
ATOM      6  CZ  ARG D 557     -24.931  -2.039 -14.348  1.00 35.49     0.666 C 
ATOM      7  NH1 ARG D 557     -25.595  -3.156 -14.582  1.00 35.49    -0.235 N 
ATOM      8  NH2 ARG D 557     -23.934  -2.038 -13.511  1.00 35.49    -0.235 N 
ATOM      9  HH  ARG D 557     -26.254  -3.180 -15.129  1.00 35.49     0.174 HD
ATOM     10  HH  ARG D 557     -25.353  -3.867 -14.170  1.00 35.49     0.174 HD
ATOM     11  HH  ARG D 557     -23.518  -1.304 -13.386  1.00 35.49     0.174 HD
ATOM     12  HH  ARG D 557     -23.708  -2.753 -13.115  1.00 35.49     0.174 HD
ATOM     13  HE  ARG D 557     -24.798  -0.220 -14.672  1.00 35.49     0.178 HD
ENDBRANCH   4   5
ENDBRANCH   3   4
ENDBRANCH   2   3
ENDBRANCH   1   2
END_RES ARG D 557
BEGIN_RES GLU D 570
REMARK  3 active torsions:
REMARK  status: ('A' for Active; 'I' for Inactive)
REMARK    5  A    between atoms: CA   and  CB  
REMARK    6  A    between atoms: CB   and  CG  
REMARK    7  A    between atoms: CG   and  CD  
ROOT
ATOM     14  CA  GLU D 570     -18.033  -6.348 -13.375  1.00 32.92     0.160 C 
ENDROOT
BRANCH  14  15
ATOM     15  CB  GLU D 570     -19.500  -6.345 -13.794  1.00 32.92     0.043 C 
BRANCH  15  16
ATOM     16  CG  GLU D 570     -19.809  -5.988 -15.203  1.00 32.92     0.100 C 
BRANCH  16  17
ATOM     17  CD  GLU D 570     -21.136  -5.282 -15.354  1.00 32.92     0.185 C 
ATOM     18  OE1 GLU D 570     -21.575  -5.059 -16.499  1.00 32.92    -0.647 OA
ATOM     19  OE2 GLU D 570     -21.734  -4.933 -14.318  1.00 32.92    -0.647 OA
ENDBRANCH  16  17
ENDBRANCH  15  16
ENDBRANCH  14  15
END_RES GLU D 570
ENDMDL
MODEL 5
REMARK VINA RESULT:      -6.5      2.072      4.264
REMARK  12 active torsions:
REMARK  status: ('A' for Active; 'I' for Inactive)
REMARK    1  A    between atoms: C_6  and  O_11 
REMARK    2  A    between atoms: C_7  and  C_8 
REMARK    3  A    between atoms: C_8  and  O_10 
REMARK    4  A    between atoms: C_18  and  O_35 
REMARK    5  A    between atoms: C_19  and  C_24 
REMARK    6  A    between atoms: C_20  and  O_23 
REMARK    7  A    between atoms: C_21  and  O_22 
REMARK    8  A    between atoms: C_25  and  O_34 
REMARK    9  A    between atoms: C_26  and  O_33 
REMARK   10  A    between atoms: C_27  and  O_32 
REMARK   11  A    between atoms: C_28  and  C_30 
REMARK   12  A    between atoms: C_30  and  O_31 
ROOT
HETATM    1  C   UNL     1     -19.482  -7.428  -6.169  1.00  0.00     0.050 C 
HETATM    2  C   UNL     1     -20.079  -7.591  -4.782  1.00  0.00    -0.027 A 
HETATM    3  C   UNL     1     -19.664  -8.619  -3.870  1.00  0.00     0.036 A 
HETATM    4  C   UNL     1     -20.248  -8.734  -2.600  1.00  0.00     0.032 A 
HETATM    5  C   UNL     1     -21.242  -7.839  -2.217  1.00  0.00     0.054 A 
HETATM    6  C   UNL     1     -21.655  -6.828  -3.088  1.00  0.00     0.084 A 
HETATM    7  C   UNL     1     -21.094  -6.677  -4.375  1.00  0.00     0.077 A 
HETATM    8  C   UNL     1     -19.834  -9.785  -1.621  1.00  0.00     0.197 A 
HETATM    9  O   UNL     1     -20.384  -9.794  -0.526  1.00  0.00    -0.286 OA
HETATM   10  C   UNL     1     -18.799 -10.783  -1.994  1.00  0.00     0.068 A 
HETATM   11  C   UNL     1     -18.267 -10.693  -3.267  1.00  0.00     0.066 A 
HETATM   12  C   UNL     1     -18.604  -9.595  -4.181  1.00  0.00     0.197 A 
HETATM   13  O   UNL     1     -17.925  -9.510  -5.199  1.00  0.00    -0.286 OA
HETATM   14  C   UNL     1     -17.323 -11.648  -3.681  1.00  0.00     0.092 A 
HETATM   15  C   UNL     1     -16.790 -12.649  -2.833  1.00  0.00     0.043 A 
HETATM   16  C   UNL     1     -17.321 -12.722  -1.559  1.00  0.00     0.111 A 
HETATM   17  C   UNL     1     -18.328 -11.808  -1.146  1.00  0.00     0.115 A 
ENDROOT
BRANCH  15  18
HETATM   18  C   UNL     1     -15.655 -13.431  -3.471  1.00  0.00     0.192 C 
HETATM   19  C   UNL     1     -14.598 -13.817  -2.401  1.00  0.00     0.183 C 
HETATM   20  C   UNL     1     -13.262 -13.883  -3.147  1.00  0.00     0.181 C 
HETATM   21  C   UNL     1     -13.329 -14.885  -4.312  1.00  0.00     0.180 C 
HETATM   22  C   UNL     1     -14.603 -14.658  -5.175  1.00  0.00     0.177 C 
HETATM   23  O   UNL     1     -15.834 -14.579  -4.344  1.00  0.00    -0.368 OA
BRANCH  19  24
HETATM   24  O   UNL     1     -14.915 -15.070  -1.771  1.00  0.00    -0.390 OA
HETATM   25  H   UNL     1     -15.429 -14.877  -0.971  1.00  0.00     0.210 HD
ENDBRANCH  19  24
BRANCH  20  26
HETATM   26  O   UNL     1     -12.200 -14.196  -2.250  1.00  0.00    -0.390 OA
HETATM   27  H   UNL     1     -12.046 -15.156  -2.357  1.00  0.00     0.210 HD
ENDBRANCH  20  26
BRANCH  21  28
HETATM   28  O   UNL     1     -13.252 -16.225  -3.799  1.00  0.00    -0.390 OA
HETATM   29  H   UNL     1     -12.326 -16.473  -3.658  1.00  0.00     0.210 HD
ENDBRANCH  21  28
BRANCH  22  30
HETATM   30  C   UNL     1     -14.713 -15.724  -6.271  1.00  0.00     0.198 C 
BRANCH  30  31
HETATM   31  O   UNL     1     -13.422 -16.050  -6.773  1.00  0.00    -0.398 OA
HETATM   32  H   UNL     1     -12.776 -15.653  -6.167  1.00  0.00     0.209 HD
ENDBRANCH  30  31
ENDBRANCH  22  30
ENDBRANCH  15  18
BRANCH  14  33
HETATM   33  O   UNL     1     -16.839 -11.646  -4.979  1.00  0.00    -0.359 OA
HETATM   34  H   UNL     1     -16.075 -12.267  -5.040  1.00  0.00     0.217 HD
ENDBRANCH  14  33
BRANCH  16  35
HETATM   35  O   UNL     1     -16.919 -13.659  -0.642  1.00  0.00    -0.357 OA
HETATM   36  H   UNL     1     -17.300 -14.520  -0.898  1.00  0.00     0.217 HD
ENDBRANCH  16  35
BRANCH  17  37
HETATM   37  O   UNL     1     -18.819 -11.949   0.127  1.00  0.00    -0.357 OA
HETATM   38  H   UNL     1     -18.435 -12.774   0.483  1.00  0.00     0.217 HD
ENDBRANCH  17  37
BRANCH   7  39
HETATM   39  C   UNL     1     -21.557  -5.558  -5.300  1.00  0.00     0.179 C 
HETATM   40  O   UNL     1     -20.842  -4.665  -5.723  1.00  0.00    -0.646 OA
BRANCH  39  41
HETATM   41  O   UNL     1     -22.863  -5.590  -5.650  1.00  0.00    -0.773 OA
HETATM   42  H   UNL     1     -23.017  -5.341  -6.587  1.00  0.00     0.167 HD
ENDBRANCH  39  41
ENDBRANCH   7  39
BRANCH   6  43
HETATM   43  O   UNL     1     -22.642  -5.978  -2.655  1.00  0.00    -0.360 OA
HETATM   44  H   UNL     1     -22.251  -5.119  -2.409  1.00  0.00     0.217 HD
ENDBRANCH   6  43
TORSDOF 12
BEGIN_RES ARG D 557
REMARK  4 active torsions:
REMARK  status: ('A' for Active; 'I' for Inactive)
REMARK    1  A    between atoms: CA   and  CB  
REMARK    2  A    between atoms: CB   and  CG  
REMARK    3  A    between atoms: CG   and  CD  
REMARK    4  A    between atoms: CD   and  NE  
REMARK       I    between atoms: NE   and  CZ  
REMARK       I    between atoms: CZ   and  NH1 
REMARK       I    between atoms: CZ   and  NH2 
ROOT
ATOM      1  CA  ARG D 557     -26.217   2.705 -17.014  1.00 35.49     0.159 C 
ENDROOT
BRANCH   1   2
ATOM      2  CB  ARG D 557     -26.789   1.319 -17.183  1.00 35.49     0.034 C 
BRANCH   2   3
ATOM      3  CG  ARG D 557     -25.836   0.203 -17.151  1.00 35.49     0.027 C 
BRANCH   3   4
ATOM      4  CD  ARG D 557     -24.764   0.405 -16.149  1.00 35.49     0.116 C 
BRANCH   4   5
ATOM      5  NE  ARG D 557     -24.931  -0.443 -14.998  1.00 35.49    -0.212 N 
ATOM      6  CZ  ARG D 557     -24.138  -1.432 -14.652  1.00 35.49     0.666 C 
ATOM      7  NH1 ARG D 557     -23.076  -1.772 -15.359  1.00 35.49    -0.235 N 
ATOM      8  NH2 ARG D 557     -24.430  -2.082 -13.563  1.00 35.49    -0.235 N 
ATOM      9  HH  ARG D 557     -22.864  -1.356 -16.078  1.00 35.49     0.174 HD
ATOM     10  HH  ARG D 557     -22.595  -2.424 -15.083  1.00 35.49     0.174 HD
ATOM     11  HH  ARG D 557     -25.117  -1.836 -13.122  1.00 35.49     0.174 HD
ATOM     12  HH  ARG D 557     -23.940  -2.724 -13.305  1.00 35.49     0.174 HD
ATOM     13  HE  ARG D 557     -25.630  -0.341 -14.525  1.00 35.49     0.178 HD
ENDBRANCH   4   5
ENDBRANCH   3   4
ENDBRANCH   2   3
ENDBRANCH   1   2
END_RES ARG D 557
BEGIN_RES GLU D 570
REMARK  3 active torsions:
REMARK  status: ('A' for Active; 'I' for Inactive)
REMARK    5  A    between atoms: CA   and  CB  
REMARK    6  A    between atoms: CB   and  CG  
REMARK    7  A    between atoms: CG   and  CD  
ROOT
ATOM     14  CA  GLU D 570     -18.033  -6.348 -13.375  1.00 32.92     0.160 C 
ENDROOT
BRANCH  14  15
ATOM     15  CB  GLU D 570     -19.500  -6.345 -13.794  1.00 32.92     0.043 C 
BRANCH  15  16
ATOM     16  CG  GLU D 570     -20.448  -5.558 -12.963  1.00 32.92     0.100 C 
BRANCH  16  17
ATOM     17  CD  GLU D 570     -21.684  -5.134 -13.721  1.00 32.92     0.185 C 
ATOM     18  OE1 GLU D 570     -22.369  -4.190 -13.283  1.00 32.92    -0.647 OA
ATOM     19  OE2 GLU D 570     -21.981  -5.765 -14.755  1.00 32.92    -0.647 OA
ENDBRANCH  16  17
ENDBRANCH  15  16
ENDBRANCH  14  15
END_RES GLU D 570
ENDMDL
MODEL 6
REMARK VINA RESULT:      -6.4      2.370      9.280
REMARK  12 active torsions:
REMARK  status: ('A' for Active; 'I' for Inactive)
REMARK    1  A    between atoms: C_6  and  O_11 
REMARK    2  A    between atoms: C_7  and  C_8 
REMARK    3  A    between atoms: C_8  and  O_10 
REMARK    4  A    between atoms: C_18  and  O_35 
REMARK    5  A    between atoms: C_19  and  C_24 
REMARK    6  A    between atoms: C_20  and  O_23 
REMARK    7  A    between atoms: C_21  and  O_22 
REMARK    8  A    between atoms: C_25  and  O_34 
REMARK    9  A    between atoms: C_26  and  O_33 
REMARK   10  A    between atoms: C_27  and  O_32 
REMARK   11  A    between atoms: C_28  and  C_30 
REMARK   12  A    between atoms: C_30  and  O_31 
ROOT
HETATM    1  C   UNL     1     -15.654 -12.675   1.028  1.00  0.00     0.050 C 
HETATM    2  C   UNL     1     -15.091 -13.219  -0.273  1.00  0.00    -0.027 A 
HETATM    3  C   UNL     1     -15.510 -12.746  -1.562  1.00  0.00     0.036 A 
HETATM    4  C   UNL     1     -14.964 -13.282  -2.738  1.00  0.00     0.032 A 
HETATM    5  C   UNL     1     -14.004 -14.285  -2.655  1.00  0.00     0.054 A 
HETATM    6  C   UNL     1     -13.579 -14.755  -1.411  1.00  0.00     0.084 A 
HETATM    7  C   UNL     1     -14.101 -14.244  -0.202  1.00  0.00     0.077 A 
HETATM    8  C   UNL     1     -15.369 -12.807  -4.097  1.00  0.00     0.197 A 
HETATM    9  O   UNL     1     -14.822 -13.318  -5.067  1.00  0.00    -0.286 OA
HETATM   10  C   UNL     1     -16.413 -11.760  -4.239  1.00  0.00     0.068 A 
HETATM   11  C   UNL     1     -16.981 -11.275  -3.074  1.00  0.00     0.066 A 
HETATM   12  C   UNL     1     -16.502 -11.672  -1.745  1.00  0.00     0.197 A 
HETATM   13  O   UNL     1     -16.945 -11.032  -0.797  1.00  0.00    -0.286 OA
HETATM   14  C   UNL     1     -18.009 -10.321  -3.163  1.00  0.00     0.092 A 
HETATM   15  C   UNL     1     -18.437  -9.733  -4.378  1.00  0.00     0.043 A 
HETATM   16  C   UNL     1     -17.854 -10.217  -5.534  1.00  0.00     0.111 A 
HETATM   17  C   UNL     1     -16.862 -11.232  -5.469  1.00  0.00     0.115 A 
ENDROOT
BRANCH  15  18
HETATM   18  C   UNL     1     -19.429  -8.601  -4.178  1.00  0.00     0.192 C 
HETATM   19  C   UNL     1     -19.978  -8.116  -5.547  1.00  0.00     0.183 C 
HETATM   20  C   UNL     1     -20.306  -6.632  -5.356  1.00  0.00     0.181 C 
HETATM   21  C   UNL     1     -21.306  -6.431  -4.205  1.00  0.00     0.180 C 
HETATM   22  C   UNL     1     -20.868  -7.220  -2.938  1.00  0.00     0.177 C 
HETATM   23  O   UNL     1     -20.544  -8.638  -3.247  1.00  0.00    -0.368 OA
BRANCH  19  24
HETATM   24  O   UNL     1     -21.136  -8.867  -5.949  1.00  0.00    -0.390 OA
HETATM   25  H   UNL     1     -21.723  -8.267  -6.437  1.00  0.00     0.210 HD
ENDBRANCH  19  24
BRANCH  20  26
HETATM   26  O   UNL     1     -20.789  -6.064  -6.571  1.00  0.00    -0.390 OA
HETATM   27  H   UNL     1     -21.663  -6.476  -6.720  1.00  0.00     0.210 HD
ENDBRANCH  20  26
BRANCH  21  28
HETATM   28  O   UNL     1     -22.624  -6.796  -4.643  1.00  0.00    -0.390 OA
HETATM   29  H   UNL     1     -22.660  -7.746  -4.833  1.00  0.00     0.210 HD
ENDBRANCH  21  28
BRANCH  22  30
HETATM   30  C   UNL     1     -21.921  -7.096  -1.831  1.00  0.00     0.198 C 
BRANCH  30  31
HETATM   31  O   UNL     1     -22.623  -5.863  -1.953  1.00  0.00    -0.398 OA
HETATM   32  H   UNL     1     -22.041  -5.172  -1.599  1.00  0.00     0.209 HD
ENDBRANCH  30  31
ENDBRANCH  22  30
ENDBRANCH  15  18
BRANCH  14  33
HETATM   33  O   UNL     1     -18.665  -9.883  -2.025  1.00  0.00    -0.359 OA
HETATM   34  H   UNL     1     -18.201  -9.089  -1.669  1.00  0.00     0.217 HD
ENDBRANCH  14  33
BRANCH  16  35
HETATM   35  O   UNL     1     -18.191  -9.759  -6.782  1.00  0.00    -0.357 OA
HETATM   36  H   UNL     1     -17.431  -9.264  -7.141  1.00  0.00     0.217 HD
ENDBRANCH  16  35
BRANCH  17  37
HETATM   37  O   UNL     1     -16.337 -11.675  -6.656  1.00  0.00    -0.357 OA
HETATM   38  H   UNL     1     -15.708 -12.389  -6.432  1.00  0.00     0.217 HD
ENDBRANCH  17  37
BRANCH   7  39
HETATM   39  C   UNL     1     -13.612 -14.768   1.141  1.00  0.00     0.179 C 
HETATM   40  O   UNL     1     -14.289 -15.417   1.922  1.00  0.00    -0.646 OA
BRANCH  39  41
HETATM   41  O   UNL     1     -12.332 -14.466   1.458  1.00  0.00    -0.773 OA
HETATM   42  H   UNL     1     -11.691 -15.146   1.158  1.00  0.00     0.167 HD
ENDBRANCH  39  41
ENDBRANCH   7  39
BRANCH   6  43
HETATM   43  O   UNL     1     -12.632 -15.748  -1.393  1.00  0.00    -0.360 OA
HETATM   44  H   UNL     1     -12.137 -15.744  -2.234  1.00  0.00     0.217 HD
ENDBRANCH   6  43
TORSDOF 12
BEGIN_RES ARG D 557
REMARK  4 active torsions:
REMARK  status: ('A' for Active; 'I' for Inactive)
REMARK    1  A    between atoms: CA   and  CB  
REMARK    2  A    between atoms: CB   and  CG  
REMARK    3  A    between atoms: CG   and  CD  
REMARK    4  A    between atoms: CD   and  NE  
REMARK       I    between atoms: NE   and  CZ  
REMARK       I    between atoms: CZ   and  NH1 
REMARK       I    between atoms: CZ   and  NH2 
ROOT
ATOM      1  CA  ARG D 557     -26.217   2.705 -17.014  1.00 35.49     0.159 C 
ENDROOT
BRANCH   1   2
ATOM      2  CB  ARG D 557     -26.789   1.319 -17.183  1.00 35.49     0.034 C 
BRANCH   2   3
ATOM      3  CG  ARG D 557     -25.838   0.202 -17.140  1.00 35.49     0.027 C 
BRANCH   3   4
ATOM      4  CD  ARG D 557     -24.759   0.417 -16.149  1.00 35.49     0.116 C 
BRANCH   4   5
ATOM      5  NE  ARG D 557     -24.906  -0.431 -14.995  1.00 35.49    -0.212 N 
ATOM      6  CZ  ARG D 557     -24.100  -1.411 -14.655  1.00 35.49     0.666 C 
ATOM      7  NH1 ARG D 557     -23.041  -1.740 -15.372  1.00 35.49    -0.235 N 
ATOM      8  NH2 ARG D 557     -24.374  -2.063 -13.562  1.00 35.49    -0.235 N 
ATOM      9  HH  ARG D 557     -22.840  -1.323 -16.093  1.00 35.49     0.174 HD
ATOM     10  HH  ARG D 557     -22.549  -2.387 -15.099  1.00 35.49     0.174 HD
ATOM     11  HH  ARG D 557     -25.061  -1.824 -13.116  1.00 35.49     0.174 HD
ATOM     12  HH  ARG D 557     -23.875  -2.700 -13.308  1.00 35.49     0.174 HD
ATOM     13  HE  ARG D 557     -25.602  -0.336 -14.516  1.00 35.49     0.178 HD
ENDBRANCH   4   5
ENDBRANCH   3   4
ENDBRANCH   2   3
ENDBRANCH   1   2
END_RES ARG D 557
BEGIN_RES GLU D 570
REMARK  3 active torsions:
REMARK  status: ('A' for Active; 'I' for Inactive)
REMARK    5  A    between atoms: CA   and  CB  
REMARK    6  A    between atoms: CB   and  CG  
REMARK    7  A    between atoms: CG   and  CD  
ROOT
ATOM     14  CA  GLU D 570     -18.033  -6.348 -13.375  1.00 32.92     0.160 C 
ENDROOT
BRANCH  14  15
ATOM     15  CB  GLU D 570     -19.500  -6.345 -13.794  1.00 32.92     0.043 C 
BRANCH  15  16
ATOM     16  CG  GLU D 570     -20.446  -5.551 -12.969  1.00 32.92     0.100 C 
BRANCH  16  17
ATOM     17  CD  GLU D 570     -21.716  -5.195 -13.706  1.00 32.92     0.185 C 
ATOM     18  OE1 GLU D 570     -22.298  -4.128 -13.429  1.00 32.92    -0.647 OA
ATOM     19  OE2 GLU D 570     -22.143  -5.999 -14.558  1.00 32.92    -0.647 OA
ENDBRANCH  16  17
ENDBRANCH  15  16
ENDBRANCH  14  15
END_RES GLU D 570
ENDMDL
MODEL 7
REMARK VINA RESULT:      -6.4      2.930      5.917
REMARK  12 active torsions:
REMARK  status: ('A' for Active; 'I' for Inactive)
REMARK    1  A    between atoms: C_6  and  O_11 
REMARK    2  A    between atoms: C_7  and  C_8 
REMARK    3  A    between atoms: C_8  and  O_10 
REMARK    4  A    between atoms: C_18  and  O_35 
REMARK    5  A    between atoms: C_19  and  C_24 
REMARK    6  A    between atoms: C_20  and  O_23 
REMARK    7  A    between atoms: C_21  and  O_22 
REMARK    8  A    between atoms: C_25  and  O_34 
REMARK    9  A    between atoms: C_26  and  O_33 
REMARK   10  A    between atoms: C_27  and  O_32 
REMARK   11  A    between atoms: C_28  and  C_30 
REMARK   12  A    between atoms: C_30  and  O_31 
ROOT
HETATM    1  C   UNL     1     -21.166  -8.325  -1.651  1.00  0.00     0.050 C 
HETATM    2  C   UNL     1     -20.434  -8.417  -2.978  1.00  0.00    -0.027 A 
HETATM    3  C   UNL     1     -19.376  -9.357  -3.221  1.00  0.00     0.036 A 
HETATM    4  C   UNL     1     -18.725  -9.402  -4.463  1.00  0.00     0.032 A 
HETATM    5  C   UNL     1     -19.110  -8.527  -5.473  1.00  0.00     0.054 A 
HETATM    6  C   UNL     1     -20.141  -7.609  -5.258  1.00  0.00     0.084 A 
HETATM    7  C   UNL     1     -20.822  -7.529  -4.024  1.00  0.00     0.077 A 
HETATM    8  C   UNL     1     -17.626 -10.373  -4.756  1.00  0.00     0.197 A 
HETATM    9  O   UNL     1     -17.131 -10.356  -5.877  1.00  0.00    -0.286 OA
HETATM   10  C   UNL     1     -17.159 -11.307  -3.700  1.00  0.00     0.068 A 
HETATM   11  C   UNL     1     -17.772 -11.219  -2.464  1.00  0.00     0.066 A 
HETATM   12  C   UNL     1     -18.919 -10.335  -2.220  1.00  0.00     0.197 A 
HETATM   13  O   UNL     1     -19.501 -10.487  -1.151  1.00  0.00    -0.286 OA
HETATM   14  C   UNL     1     -17.326 -12.048  -1.420  1.00  0.00     0.092 A 
HETATM   15  C   UNL     1     -16.348 -13.060  -1.579  1.00  0.00     0.043 A 
HETATM   16  C   UNL     1     -15.751 -13.146  -2.822  1.00  0.00     0.111 A 
HETATM   17  C   UNL     1     -16.140 -12.269  -3.870  1.00  0.00     0.115 A 
ENDROOT
BRANCH  15  18
HETATM   18  C   UNL     1     -16.183 -13.931  -0.346  1.00  0.00     0.192 C 
HETATM   19  C   UNL     1     -14.905 -13.525   0.435  1.00  0.00     0.183 C 
HETATM   20  C   UNL     1     -14.420 -14.803   1.123  1.00  0.00     0.181 C 
HETATM   21  C   UNL     1     -15.514 -15.391   2.030  1.00  0.00     0.180 C 
HETATM   22  C   UNL     1     -16.877 -15.471   1.285  1.00  0.00     0.177 C 
HETATM   23  O   UNL     1     -17.231 -14.185   0.628  1.00  0.00    -0.368 OA
BRANCH  19  24
HETATM   24  O   UNL     1     -15.175 -12.481   1.386  1.00  0.00    -0.390 OA
HETATM   25  H   UNL     1     -14.322 -12.130   1.690  1.00  0.00     0.210 HD
ENDBRANCH  19  24
BRANCH  20  26
HETATM   26  O   UNL     1     -13.217 -14.558   1.849  1.00  0.00    -0.390 OA
HETATM   27  H   UNL     1     -13.498 -14.426   2.777  1.00  0.00     0.210 HD
ENDBRANCH  20  26
BRANCH  21  28
HETATM   28  O   UNL     1     -15.601 -14.623   3.240  1.00  0.00    -0.390 OA
HETATM   29  H   UNL     1     -15.995 -13.757   3.055  1.00  0.00     0.210 HD
ENDBRANCH  21  28
BRANCH  22  30
HETATM   30  C   UNL     1     -17.982 -15.963   2.226  1.00  0.00     0.198 C 
BRANCH  30  31
HETATM   31  O   UNL     1     -17.434 -16.808   3.232  1.00  0.00    -0.398 OA
HETATM   32  H   UNL     1     -18.034 -17.566   3.319  1.00  0.00     0.209 HD
ENDBRANCH  30  31
ENDBRANCH  22  30
ENDBRANCH  15  18
BRANCH  14  33
HETATM   33  O   UNL     1     -17.852 -11.921  -0.145  1.00  0.00    -0.359 OA
HETATM   34  H   UNL     1     -18.811 -11.703  -0.210  1.00  0.00     0.217 HD
ENDBRANCH  14  33
BRANCH  16  35
HETATM   35  O   UNL     1     -14.770 -14.060  -3.110  1.00  0.00    -0.357 OA
HETATM   36  H   UNL     1     -14.199 -13.686  -3.808  1.00  0.00     0.217 HD
ENDBRANCH  16  35
BRANCH  17  37
HETATM   37  O   UNL     1     -15.494 -12.402  -5.073  1.00  0.00    -0.357 OA
HETATM   38  H   UNL     1     -16.188 -12.553  -5.745  1.00  0.00     0.217 HD
ENDBRANCH  17  37
BRANCH   7  39
HETATM   39  C   UNL     1     -21.950  -6.526  -3.821  1.00  0.00     0.179 C 
HETATM   40  O   UNL     1     -22.173  -5.933  -2.778  1.00  0.00    -0.646 OA
BRANCH  39  41
HETATM   41  O   UNL     1     -22.742  -6.308  -4.895  1.00  0.00    -0.773 OA
HETATM   42  H   UNL     1     -23.643  -6.682  -4.790  1.00  0.00     0.167 HD
ENDBRANCH  39  41
ENDBRANCH   7  39
BRANCH   6  43
HETATM   43  O   UNL     1     -20.473  -6.769  -6.292  1.00  0.00    -0.360 OA
HETATM   44  H   UNL     1     -21.390  -6.456  -6.179  1.00  0.00     0.217 HD
ENDBRANCH   6  43
TORSDOF 12
BEGIN_RES ARG D 557
REMARK  4 active torsions:
REMARK  status: ('A' for Active; 'I' for Inactive)
REMARK    1  A    between atoms: CA   and  CB  
REMARK    2  A    between atoms: CB   and  CG  
REMARK    3  A    between atoms: CG   and  CD  
REMARK    4  A    between atoms: CD   and  NE  
REMARK       I    between atoms: NE   and  CZ  
REMARK       I    between atoms: CZ   and  NH1 
REMARK       I    between atoms: CZ   and  NH2 
ROOT
ATOM      1  CA  ARG D 557     -26.217   2.705 -17.014  1.00 35.49     0.159 C 
ENDROOT
BRANCH   1   2
ATOM      2  CB  ARG D 557     -26.789   1.319 -17.183  1.00 35.49     0.034 C 
BRANCH   2   3
ATOM      3  CG  ARG D 557     -25.876   0.194 -16.946  1.00 35.49     0.027 C 
BRANCH   3   4
ATOM      4  CD  ARG D 557     -26.338  -0.685 -15.847  1.00 35.49     0.116 C 
BRANCH   4   5
ATOM      5  NE  ARG D 557     -25.296  -0.951 -14.891  1.00 35.49    -0.212 N 
ATOM      6  CZ  ARG D 557     -25.022  -2.122 -14.359  1.00 35.49     0.666 C 
ATOM      7  NH1 ARG D 557     -25.710  -3.211 -14.649  1.00 35.49    -0.235 N 
ATOM      8  NH2 ARG D 557     -24.026  -2.183 -13.524  1.00 35.49    -0.235 N 
ATOM      9  HH  ARG D 557     -26.368  -3.194 -15.198  1.00 35.49     0.174 HD
ATOM     10  HH  ARG D 557     -25.484  -3.947 -14.273  1.00 35.49     0.174 HD
ATOM     11  HH  ARG D 557     -23.595  -1.465 -13.362  1.00 35.49     0.174 HD
ATOM     12  HH  ARG D 557     -23.817  -2.921 -13.164  1.00 35.49     0.174 HD
ATOM     13  HE  ARG D 557     -24.850  -0.292 -14.593  1.00 35.49     0.178 HD
ENDBRANCH   4   5
ENDBRANCH   3   4
ENDBRANCH   2   3
ENDBRANCH   1   2
END_RES ARG D 557
BEGIN_RES GLU D 570
REMARK  3 active torsions:
REMARK  status: ('A' for Active; 'I' for Inactive)
REMARK    5  A    between atoms: CA   and  CB  
REMARK    6  A    between atoms: CB   and  CG  
REMARK    7  A    between atoms: CG   and  CD  
ROOT
ATOM     14  CA  GLU D 570     -18.033  -6.348 -13.375  1.00 32.92     0.160 C 
ENDROOT
BRANCH  14  15
ATOM     15  CB  GLU D 570     -19.500  -6.345 -13.794  1.00 32.92     0.043 C 
BRANCH  15  16
ATOM     16  CG  GLU D 570     -20.448  -5.558 -12.963  1.00 32.92     0.100 C 
BRANCH  16  17
ATOM     17  CD  GLU D 570     -21.708  -5.180 -13.705  1.00 32.92     0.185 C 
ATOM     18  OE1 GLU D 570     -21.706  -5.198 -14.951  1.00 32.92    -0.647 OA
ATOM     19  OE2 GLU D 570     -22.704  -4.846 -13.034  1.00 32.92    -0.647 OA
ENDBRANCH  16  17
ENDBRANCH  15  16
ENDBRANCH  14  15
END_RES GLU D 570
ENDMDL
MODEL 8
REMARK VINA RESULT:      -6.2      1.648      7.930
REMARK  12 active torsions:
REMARK  status: ('A' for Active; 'I' for Inactive)
REMARK    1  A    between atoms: C_6  and  O_11 
REMARK    2  A    between atoms: C_7  and  C_8 
REMARK    3  A    between atoms: C_8  and  O_10 
REMARK    4  A    between atoms: C_18  and  O_35 
REMARK    5  A    between atoms: C_19  and  C_24 
REMARK    6  A    between atoms: C_20  and  O_23 
REMARK    7  A    between atoms: C_21  and  O_22 
REMARK    8  A    between atoms: C_25  and  O_34 
REMARK    9  A    between atoms: C_26  and  O_33 
REMARK   10  A    between atoms: C_27  and  O_32 
REMARK   11  A    between atoms: C_28  and  C_30 
REMARK   12  A    between atoms: C_30  and  O_31 
ROOT
HETATM    1  C   UNL     1     -15.414 -12.535  -6.575  1.00  0.00     0.050 C 
HETATM    2  C   UNL     1     -15.879 -12.778  -5.150  1.00  0.00    -0.027 A 
HETATM    3  C   UNL     1     -16.874 -11.967  -4.506  1.00  0.00     0.036 A 
HETATM    4  C   UNL     1     -17.269 -12.226  -3.185  1.00  0.00     0.032 A 
HETATM    5  C   UNL     1     -16.690 -13.282  -2.489  1.00  0.00     0.054 A 
HETATM    6  C   UNL     1     -15.725 -14.086  -3.100  1.00  0.00     0.084 A 
HETATM    7  C   UNL     1     -15.298 -13.861  -4.427  1.00  0.00     0.077 A 
HETATM    8  C   UNL     1     -18.309 -11.410  -2.486  1.00  0.00     0.197 A 
HETATM    9  O   UNL     1     -18.607 -11.724  -1.340  1.00  0.00    -0.286 OA
HETATM   10  C   UNL     1     -18.934 -10.253  -3.176  1.00  0.00     0.068 A 
HETATM   11  C   UNL     1     -18.500  -9.975  -4.460  1.00  0.00     0.066 A 
HETATM   12  C   UNL     1     -17.556 -10.844  -5.173  1.00  0.00     0.197 A 
HETATM   13  O   UNL     1     -17.400 -10.609  -6.366  1.00  0.00    -0.286 OA
HETATM   14  C   UNL     1     -19.026  -8.858  -5.131  1.00  0.00     0.092 A 
HETATM   15  C   UNL     1     -20.066  -8.046  -4.617  1.00  0.00     0.043 A 
HETATM   16  C   UNL     1     -20.500  -8.340  -3.338  1.00  0.00     0.111 A 
HETATM   17  C   UNL     1     -19.930  -9.423  -2.616  1.00  0.00     0.115 A 
ENDROOT
BRANCH  15  18
HETATM   18  C   UNL     1     -20.576  -7.022  -5.616  1.00  0.00     0.192 C 
HETATM   19  C   UNL     1     -21.839  -6.309  -5.061  1.00  0.00     0.183 C 
HETATM   20  C   UNL     1     -22.668  -5.926  -6.290  1.00  0.00     0.181 C 
HETATM   21  C   UNL     1     -21.855  -5.042  -7.251  1.00  0.00     0.180 C 
HETATM   22  C   UNL     1     -20.447  -5.650  -7.518  1.00  0.00     0.177 C 
HETATM   23  O   UNL     1     -19.749  -6.014  -6.256  1.00  0.00    -0.368 OA
BRANCH  19  24
HETATM   24  O   UNL     1     -21.493  -5.156  -4.275  1.00  0.00    -0.390 OA
HETATM   25  H   UNL     1     -20.574  -5.263  -3.981  1.00  0.00     0.210 HD
ENDBRANCH  19  24
BRANCH  20  26
HETATM   26  O   UNL     1     -23.882  -5.290  -5.899  1.00  0.00    -0.390 OA
HETATM   27  H   UNL     1     -24.203  -5.798  -5.127  1.00  0.00     0.210 HD
ENDBRANCH  20  26
BRANCH  21  28
HETATM   28  O   UNL     1     -21.778  -3.706  -6.730  1.00  0.00    -0.390 OA
HETATM   29  H   UNL     1     -21.037  -3.634  -6.110  1.00  0.00     0.210 HD
ENDBRANCH  21  28
BRANCH  22  30
HETATM   30  C   UNL     1     -19.609  -4.714  -8.394  1.00  0.00     0.198 C 
BRANCH  30  31
HETATM   31  O   UNL     1     -20.432  -4.080  -9.368  1.00  0.00    -0.398 OA
HETATM   32  H   UNL     1     -20.734  -3.244  -8.978  1.00  0.00     0.209 HD
ENDBRANCH  30  31
ENDBRANCH  22  30
ENDBRANCH  15  18
BRANCH  14  33
HETATM   33  O   UNL     1     -18.547  -8.494  -6.379  1.00  0.00    -0.359 OA
HETATM   34  H   UNL     1     -18.966  -7.644  -6.650  1.00  0.00     0.217 HD
ENDBRANCH  14  33
BRANCH  16  35
HETATM   35  O   UNL     1     -21.480  -7.621  -2.704  1.00  0.00    -0.357 OA
HETATM   36  H   UNL     1     -22.002  -8.235  -2.154  1.00  0.00     0.217 HD
ENDBRANCH  16  35
BRANCH  17  37
HETATM   37  O   UNL     1     -20.398  -9.649  -1.347  1.00  0.00    -0.357 OA
HETATM   38  H   UNL     1     -19.657  -9.455  -0.739  1.00  0.00     0.217 HD
ENDBRANCH  17  37
BRANCH   7  39
HETATM   39  C   UNL     1     -14.251 -14.759  -5.071  1.00  0.00     0.179 C 
HETATM   40  O   UNL     1     -14.474 -15.552  -5.971  1.00  0.00    -0.646 OA
BRANCH  39  41
HETATM   41  O   UNL     1     -12.996 -14.644  -4.579  1.00  0.00    -0.773 OA
HETATM   42  H   UNL     1     -12.835 -15.216  -3.798  1.00  0.00     0.167 HD
ENDBRANCH  39  41
ENDBRANCH   7  39
BRANCH   6  43
HETATM   43  O   UNL     1     -15.188 -15.110  -2.361  1.00  0.00    -0.360 OA
HETATM   44  H   UNL     1     -15.518 -15.965  -2.697  1.00  0.00     0.217 HD
ENDBRANCH   6  43
TORSDOF 12
BEGIN_RES ARG D 557
REMARK  4 active torsions:
REMARK  status: ('A' for Active; 'I' for Inactive)
REMARK    1  A    between atoms: CA   and  CB  
REMARK    2  A    between atoms: CB   and  CG  
REMARK    3  A    between atoms: CG   and  CD  
REMARK    4  A    between atoms: CD   and  NE  
REMARK       I    between atoms: NE   and  CZ  
REMARK       I    between atoms: CZ   and  NH1 
REMARK       I    between atoms: CZ   and  NH2 
ROOT
ATOM      1  CA  ARG D 557     -26.217   2.705 -17.014  1.00 35.49     0.159 C 
ENDROOT
BRANCH   1   2
ATOM      2  CB  ARG D 557     -26.789   1.319 -17.183  1.00 35.49     0.034 C 
BRANCH   2   3
ATOM      3  CG  ARG D 557     -25.869   0.194 -16.973  1.00 35.49     0.027 C 
BRANCH   3   4
ATOM      4  CD  ARG D 557     -26.302  -0.690 -15.868  1.00 35.49     0.116 C 
BRANCH   4   5
ATOM      5  NE  ARG D 557     -25.247  -0.929 -14.919  1.00 35.49    -0.212 N 
ATOM      6  CZ  ARG D 557     -24.952  -2.088 -14.373  1.00 35.49     0.666 C 
ATOM      7  NH1 ARG D 557     -25.629  -3.190 -14.639  1.00 35.49    -0.235 N 
ATOM      8  NH2 ARG D 557     -23.946  -2.124 -13.548  1.00 35.49    -0.235 N 
ATOM      9  HH  ARG D 557     -26.293  -3.189 -15.181  1.00 35.49     0.174 HD
ATOM     10  HH  ARG D 557     -25.390  -3.917 -14.255  1.00 35.49     0.174 HD
ATOM     11  HH  ARG D 557     -23.523  -1.399 -13.401  1.00 35.49     0.174 HD
ATOM     12  HH  ARG D 557     -23.724  -2.855 -13.179  1.00 35.49     0.174 HD
ATOM     13  HE  ARG D 557     -24.805  -0.260 -14.636  1.00 35.49     0.178 HD
ENDBRANCH   4   5
ENDBRANCH   3   4
ENDBRANCH   2   3
ENDBRANCH   1   2
END_RES ARG D 557
BEGIN_RES GLU D 570
REMARK  3 active torsions:
REMARK  status: ('A' for Active; 'I' for Inactive)
REMARK    5  A    between atoms: CA   and  CB  
REMARK    6  A    between atoms: CB   and  CG  
REMARK    7  A    between atoms: CG   and  CD  
ROOT
ATOM     14  CA  GLU D 570     -18.033  -6.348 -13.375  1.00 32.92     0.160 C 
ENDROOT
BRANCH  14  15
ATOM     15  CB  GLU D 570     -19.500  -6.345 -13.794  1.00 32.92     0.043 C 
BRANCH  15  16
ATOM     16  CG  GLU D 570     -20.448  -5.561 -12.961  1.00 32.92     0.100 C 
BRANCH  16  17
ATOM     17  CD  GLU D 570     -21.706  -5.175 -13.705  1.00 32.92     0.185 C 
ATOM     18  OE1 GLU D 570     -21.706  -5.208 -14.951  1.00 32.92    -0.647 OA
ATOM     19  OE2 GLU D 570     -22.695  -4.820 -13.035  1.00 32.92    -0.647 OA
ENDBRANCH  16  17
ENDBRANCH  15  16
ENDBRANCH  14  15
END_RES GLU D 570
ENDMDL
MODEL 9
REMARK VINA RESULT:      -6.1      2.647      9.317
REMARK  12 active torsions:
REMARK  status: ('A' for Active; 'I' for Inactive)
REMARK    1  A    between atoms: C_6  and  O_11 
REMARK    2  A    between atoms: C_7  and  C_8 
REMARK    3  A    between atoms: C_8  and  O_10 
REMARK    4  A    between atoms: C_18  and  O_35 
REMARK    5  A    between atoms: C_19  and  C_24 
REMARK    6  A    between atoms: C_20  and  O_23 
REMARK    7  A    between atoms: C_21  and  O_22 
REMARK    8  A    between atoms: C_25  and  O_34 
REMARK    9  A    between atoms: C_26  and  O_33 
REMARK   10  A    between atoms: C_27  and  O_32 
REMARK   11  A    between atoms: C_28  and  C_30 
REMARK   12  A    between atoms: C_30  and  O_31 
ROOT
HETATM    1  C   UNL     1     -16.034 -13.033   0.830  1.00  0.00     0.050 C 
HETATM    2  C   UNL     1     -15.396 -13.438  -0.487  1.00  0.00    -0.027 A 
HETATM    3  C   UNL     1     -15.735 -12.822  -1.739  1.00  0.00     0.036 A 
HETATM    4  C   UNL     1     -15.122 -13.232  -2.932  1.00  0.00     0.032 A 
HETATM    5  C   UNL     1     -14.172 -14.249  -2.903  1.00  0.00     0.054 A 
HETATM    6  C   UNL     1     -13.825 -14.856  -1.694  1.00  0.00     0.084 A 
HETATM    7  C   UNL     1     -14.417 -14.475  -0.470  1.00  0.00     0.077 A 
HETATM    8  C   UNL     1     -15.441 -12.607  -4.252  1.00  0.00     0.197 A 
HETATM    9  O   UNL     1     -14.839 -13.015  -5.238  1.00  0.00    -0.286 OA
HETATM   10  C   UNL     1     -16.470 -11.539  -4.340  1.00  0.00     0.068 A 
HETATM   11  C   UNL     1     -17.105 -11.179  -3.165  1.00  0.00     0.066 A 
HETATM   12  C   UNL     1     -16.710 -11.724  -1.861  1.00  0.00     0.197 A 
HETATM   13  O   UNL     1     -17.205 -11.186  -0.877  1.00  0.00    -0.286 OA
HETATM   14  C   UNL     1     -18.122 -10.209  -3.210  1.00  0.00     0.092 A 
HETATM   15  C   UNL     1     -18.473  -9.487  -4.376  1.00  0.00     0.043 A 
HETATM   16  C   UNL     1     -17.823  -9.848  -5.541  1.00  0.00     0.111 A 
HETATM   17  C   UNL     1     -16.842 -10.875  -5.529  1.00  0.00     0.115 A 
ENDROOT
BRANCH  15  18
HETATM   18  C   UNL     1     -19.471  -8.373  -4.112  1.00  0.00     0.192 C 
HETATM   19  C   UNL     1     -19.965  -7.763  -5.452  1.00  0.00     0.183 C 
HETATM   20  C   UNL     1     -20.298  -6.301  -5.140  1.00  0.00     0.181 C 
HETATM   21  C   UNL     1     -21.342  -6.200  -4.015  1.00  0.00     0.180 C 
HETATM   22  C   UNL     1     -20.955  -7.103  -2.808  1.00  0.00     0.177 C 
HETATM   23  O   UNL     1     -20.621  -8.489  -3.232  1.00  0.00    -0.368 OA
BRANCH  19  24
HETATM   24  O   UNL     1     -21.108  -8.468  -5.965  1.00  0.00    -0.390 OA
HETATM   25  H   UNL     1     -21.900  -7.958  -5.730  1.00  0.00     0.210 HD
ENDBRANCH  19  24
BRANCH  20  26
HETATM   26  O   UNL     1     -20.732  -5.623  -6.316  1.00  0.00    -0.390 OA
HETATM   27  H   UNL     1     -21.412  -4.988  -6.012  1.00  0.00     0.210 HD
ENDBRANCH  20  26
BRANCH  21  28
HETATM   28  O   UNL     1     -22.642  -6.517  -4.534  1.00  0.00    -0.390 OA
HETATM   29  H   UNL     1     -22.789  -7.474  -4.500  1.00  0.00     0.210 HD
ENDBRANCH  21  28
BRANCH  22  30
HETATM   30  C   UNL     1     -22.049  -7.074  -1.736  1.00  0.00     0.198 C 
BRANCH  30  31
HETATM   31  O   UNL     1     -22.633  -5.778  -1.660  1.00  0.00    -0.398 OA
HETATM   32  H   UNL     1     -22.940  -5.662  -0.747  1.00  0.00     0.209 HD
ENDBRANCH  30  31
ENDBRANCH  22  30
ENDBRANCH  15  18
BRANCH  14  33
HETATM   33  O   UNL     1     -18.844  -9.891  -2.071  1.00  0.00    -0.359 OA
HETATM   34  H   UNL     1     -18.636 -10.545  -1.363  1.00  0.00     0.217 HD
ENDBRANCH  14  33
BRANCH  16  35
HETATM   35  O   UNL     1     -18.083  -9.253  -6.749  1.00  0.00    -0.357 OA
HETATM   36  H   UNL     1     -18.924  -9.611  -7.091  1.00  0.00     0.217 HD
ENDBRANCH  16  35
BRANCH  17  37
HETATM   37  O   UNL     1     -16.248 -11.192  -6.724  1.00  0.00    -0.357 OA
HETATM   38  H   UNL     1     -15.292 -11.289  -6.543  1.00  0.00     0.217 HD
ENDBRANCH  17  37
BRANCH   7  39
HETATM   39  C   UNL     1     -14.012 -15.148   0.834  1.00  0.00     0.179 C 
HETATM   40  O   UNL     1     -13.318 -14.633   1.696  1.00  0.00    -0.646 OA
BRANCH  39  41
HETATM   41  O   UNL     1     -14.470 -16.408   1.011  1.00  0.00    -0.773 OA
HETATM   42  H   UNL     1     -15.246 -16.455   1.609  1.00  0.00     0.167 HD
ENDBRANCH  39  41
ENDBRANCH   7  39
BRANCH   6  43
HETATM   43  O   UNL     1     -12.885 -15.856  -1.730  1.00  0.00    -0.360 OA
HETATM   44  H   UNL     1     -12.883 -16.272  -2.612  1.00  0.00     0.217 HD
ENDBRANCH   6  43
TORSDOF 12
BEGIN_RES ARG D 557
REMARK  4 active torsions:
REMARK  status: ('A' for Active; 'I' for Inactive)
REMARK    1  A    between atoms: CA   and  CB  
REMARK    2  A    between atoms: CB   and  CG  
REMARK    3  A    between atoms: CG   and  CD  
REMARK    4  A    between atoms: CD   and  NE  
REMARK       I    between atoms: NE   and  CZ  
REMARK       I    between atoms: CZ   and  NH1 
REMARK       I    between atoms: CZ   and  NH2 
ROOT
ATOM      1  CA  ARG D 557     -26.217   2.705 -17.014  1.00 35.49     0.159 C 
ENDROOT
BRANCH   1   2
ATOM      2  CB  ARG D 557     -26.789   1.319 -17.183  1.00 35.49     0.034 C 
BRANCH   2   3
ATOM      3  CG  ARG D 557     -28.220   1.156 -16.900  1.00 35.49     0.027 C 
BRANCH   3   4
ATOM      4  CD  ARG D 557     -28.607  -0.266 -16.751  1.00 35.49     0.116 C 
BRANCH   4   5
ATOM      5  NE  ARG D 557     -27.601  -1.032 -16.064  1.00 35.49    -0.212 N 
ATOM      6  CZ  ARG D 557     -27.446  -2.335 -16.137  1.00 35.49     0.666 C 
ATOM      7  NH1 ARG D 557     -28.236  -3.104 -16.864  1.00 35.49    -0.235 N 
ATOM      8  NH2 ARG D 557     -26.465  -2.862 -15.463  1.00 35.49    -0.235 N 
ATOM      9  HH  ARG D 557     -28.887  -2.779 -17.317  1.00 35.49     0.174 HD
ATOM     10  HH  ARG D 557     -28.085  -3.947 -16.875  1.00 35.49     0.174 HD
ATOM     11  HH  ARG D 557     -25.967  -2.340 -15.009  1.00 35.49     0.174 HD
ATOM     12  HH  ARG D 557     -26.331  -3.698 -15.488  1.00 35.49     0.174 HD
ATOM     13  HE  ARG D 557     -27.094  -0.626 -15.517  1.00 35.49     0.178 HD
ENDBRANCH   4   5
ENDBRANCH   3   4
ENDBRANCH   2   3
ENDBRANCH   1   2
END_RES ARG D 557
BEGIN_RES GLU D 570
REMARK  3 active torsions:
REMARK  status: ('A' for Active; 'I' for Inactive)
REMARK    5  A    between atoms: CA   and  CB  
REMARK    6  A    between atoms: CB   and  CG  
REMARK    7  A    between atoms: CG   and  CD  
ROOT
ATOM     14  CA  GLU D 570     -18.033  -6.348 -13.375  1.00 32.92     0.160 C 
ENDROOT
BRANCH  14  15
ATOM     15  CB  GLU D 570     -19.500  -6.345 -13.794  1.00 32.92     0.043 C 
BRANCH  15  16
ATOM     16  CG  GLU D 570     -20.435  -5.501 -13.006  1.00 32.92     0.100 C 
BRANCH  16  17
ATOM     17  CD  GLU D 570     -21.710  -5.180 -13.752  1.00 32.92     0.185 C 
ATOM     18  OE1 GLU D 570     -22.792  -5.193 -13.134  1.00 32.92    -0.647 OA
ATOM     19  OE2 GLU D 570     -21.627  -4.928 -14.970  1.00 32.92    -0.647 OA
ENDBRANCH  16  17
ENDBRANCH  15  16
ENDBRANCH  14  15
END_RES GLU D 570
ENDMDL
