MODEL 1
REMARK VINA RESULT:      -5.5      0.000      0.000
REMARK  3 active torsions:
REMARK  status: ('A' for Active; 'I' for Inactive)
REMARK    1  A    between atoms: C_3  and  C_4 
REMARK    2  A    between atoms: C_5  and  C_6 
REMARK    3  A    between atoms: C_6  and  O_8 
ROOT
HETATM    1  C   UNL     1     -22.149  -3.748 -10.002  1.00  0.00     0.006 C 
HETATM    2  C   UNL     1     -23.367  -4.115  -9.570  1.00  0.00     0.081 C 
ENDROOT
BRANCH   2   3
HETATM    3  C   UNL     1     -24.562  -3.591 -10.264  1.00  0.00     0.165 C 
HETATM    4  O   UNL     1     -25.479  -3.004  -9.715  1.00  0.00    -0.647 OA
BRANCH   3   5
HETATM    5  O   UNL     1     -24.536  -3.830 -11.589  1.00  0.00    -0.773 OA
HETATM    6  H   UNL     1     -23.771  -4.332 -11.921  1.00  0.00     0.167 HD
ENDBRANCH   3   5
ENDBRANCH   2   3
BRANCH   1   7
HETATM    7  C   UNL     1     -20.917  -4.205  -9.393  1.00  0.00    -0.004 C 
HETATM    8  C   UNL     1     -20.674  -4.106  -8.078  1.00  0.00    -0.031 C 
HETATM    9  C   UNL     1     -19.402  -4.577  -7.447  1.00  0.00     0.036 C 
ENDBRANCH   1   7
TORSDOF 3
BEGIN_RES ARG D 557
REMARK  4 active torsions:
REMARK  status: ('A' for Active; 'I' for Inactive)
REMARK    1  A    between atoms: CA   and  CB  
REMARK    2  A    between atoms: CB   and  CG  
REMARK    3  A    between atoms: CG   and  CD  
REMARK    4  A    between atoms: CD   and  NE  
REMARK       I    between atoms: NE   and  CZ  
REMARK       I    between atoms: CZ   and  NH1 
REMARK       I    between atoms: CZ   and  NH2 
ROOT
ATOM      1  CA  ARG D 557     -26.217   2.705 -17.014  1.00 35.49     0.159 C 
ENDROOT
BRANCH   1   2
ATOM      2  CB  ARG D 557     -26.789   1.319 -17.183  1.00 35.49     0.034 C 
BRANCH   2   3
ATOM      3  CG  ARG D 557     -25.852   0.197 -17.050  1.00 35.49     0.027 C 
BRANCH   3   4
ATOM      4  CD  ARG D 557     -26.200  -0.698 -15.922  1.00 35.49     0.116 C 
BRANCH   4   5
ATOM      5  NE  ARG D 557     -25.134  -0.796 -14.960  1.00 35.49    -0.212 N 
ATOM      6  CZ  ARG D 557     -24.748  -1.895 -14.352  1.00 35.49     0.666 C 
ATOM      7  NH1 ARG D 557     -25.329  -3.063 -14.559  1.00 35.49    -0.235 N 
ATOM      8  NH2 ARG D 557     -23.748  -1.803 -13.523  1.00 35.49    -0.235 N 
ATOM      9  HH  ARG D 557     -25.987  -3.147 -15.101  1.00 35.49     0.174 HD
ATOM     10  HH  ARG D 557     -25.032  -3.746 -14.136  1.00 35.49     0.174 HD
ATOM     11  HH  ARG D 557     -23.387  -1.038 -13.415  1.00 35.49     0.174 HD
ATOM     12  HH  ARG D 557     -23.468  -2.492 -13.115  1.00 35.49     0.174 HD
ATOM     13  HE  ARG D 557     -24.752  -0.078 -14.712  1.00 35.49     0.178 HD
ENDBRANCH   4   5
ENDBRANCH   3   4
ENDBRANCH   2   3
ENDBRANCH   1   2
END_RES ARG D 557
BEGIN_RES GLU D 570
REMARK  3 active torsions:
REMARK  status: ('A' for Active; 'I' for Inactive)
REMARK    5  A    between atoms: CA   and  CB  
REMARK    6  A    between atoms: CB   and  CG  
REMARK    7  A    between atoms: CG   and  CD  
ROOT
ATOM     14  CA  GLU D 570     -18.033  -6.348 -13.375  1.00 32.92     0.160 C 
ENDROOT
BRANCH  14  15
ATOM     15  CB  GLU D 570     -19.500  -6.345 -13.794  1.00 32.92     0.043 C 
BRANCH  15  16
ATOM     16  CG  GLU D 570     -20.430  -5.479 -13.024  1.00 32.92     0.100 C 
BRANCH  16  17
ATOM     17  CD  GLU D 570     -21.780  -5.329 -13.686  1.00 32.92     0.185 C 
ATOM     18  OE1 GLU D 570     -22.476  -4.330 -13.422  1.00 32.92    -0.647 OA
ATOM     19  OE2 GLU D 570     -22.153  -6.230 -14.464  1.00 32.92    -0.647 OA
ENDBRANCH  16  17
ENDBRANCH  15  16
ENDBRANCH  14  15
END_RES GLU D 570
ENDMDL
MODEL 2
REMARK VINA RESULT:      -5.0      2.322      2.673
REMARK  3 active torsions:
REMARK  status: ('A' for Active; 'I' for Inactive)
REMARK    1  A    between atoms: C_3  and  C_4 
REMARK    2  A    between atoms: C_5  and  C_6 
REMARK    3  A    between atoms: C_6  and  O_8 
ROOT
HETATM    1  C   UNL     1     -22.426  -3.905  -9.477  1.00  0.00     0.006 C 
HETATM    2  C   UNL     1     -23.719  -3.780  -9.132  1.00  0.00     0.081 C 
ENDROOT
BRANCH   2   3
HETATM    3  C   UNL     1     -24.688  -3.305 -10.142  1.00  0.00     0.165 C 
HETATM    4  O   UNL     1     -24.392  -2.943 -11.268  1.00  0.00    -0.647 OA
BRANCH   3   5
HETATM    5  O   UNL     1     -25.955  -3.313  -9.686  1.00  0.00    -0.773 OA
HETATM    6  H   UNL     1     -26.114  -2.844  -8.848  1.00  0.00     0.167 HD
ENDBRANCH   3   5
ENDBRANCH   2   3
BRANCH   1   7
HETATM    7  C   UNL     1     -21.399  -4.362  -8.565  1.00  0.00    -0.004 C 
HETATM    8  C   UNL     1     -21.409  -4.075  -7.255  1.00  0.00    -0.031 C 
HETATM    9  C   UNL     1     -20.349  -4.546  -6.309  1.00  0.00     0.036 C 
ENDBRANCH   1   7
TORSDOF 3
BEGIN_RES ARG D 557
REMARK  4 active torsions:
REMARK  status: ('A' for Active; 'I' for Inactive)
REMARK    1  A    between atoms: CA   and  CB  
REMARK    2  A    between atoms: CB   and  CG  
REMARK    3  A    between atoms: CG   and  CD  
REMARK    4  A    between atoms: CD   and  NE  
REMARK       I    between atoms: NE   and  CZ  
REMARK       I    between atoms: CZ   and  NH1 
REMARK       I    between atoms: CZ   and  NH2 
ROOT
ATOM      1  CA  ARG D 557     -26.217   2.705 -17.014  1.00 35.49     0.159 C 
ENDROOT
BRANCH   1   2
ATOM      2  CB  ARG D 557     -26.789   1.319 -17.183  1.00 35.49     0.034 C 
BRANCH   2   3
ATOM      3  CG  ARG D 557     -28.155   1.104 -16.691  1.00 35.49     0.027 C 
BRANCH   3   4
ATOM      4  CD  ARG D 557     -28.791  -0.090 -17.295  1.00 35.49     0.116 C 
BRANCH   4   5
ATOM      5  NE  ARG D 557     -28.179  -1.314 -16.849  1.00 35.49    -0.212 N 
ATOM      6  CZ  ARG D 557     -28.659  -2.524 -17.030  1.00 35.49     0.666 C 
ATOM      7  NH1 ARG D 557     -29.803  -2.747 -17.650  1.00 35.49    -0.235 N 
ATOM      8  NH2 ARG D 557     -27.959  -3.522 -16.576  1.00 35.49    -0.235 N 
ATOM      9  HH  ARG D 557     -30.279  -2.105 -17.959  1.00 35.49     0.174 HD
ATOM     10  HH  ARG D 557     -30.065  -3.557 -17.741  1.00 35.49     0.174 HD
ATOM     11  HH  ARG D 557     -27.220  -3.348 -16.186  1.00 35.49     0.174 HD
ATOM     12  HH  ARG D 557     -28.235  -4.317 -16.677  1.00 35.49     0.174 HD
ATOM     13  HE  ARG D 557     -27.474  -1.259 -16.376  1.00 35.49     0.178 HD
ENDBRANCH   4   5
ENDBRANCH   3   4
ENDBRANCH   2   3
ENDBRANCH   1   2
END_RES ARG D 557
BEGIN_RES GLU D 570
REMARK  3 active torsions:
REMARK  status: ('A' for Active; 'I' for Inactive)
REMARK    5  A    between atoms: CA   and  CB  
REMARK    6  A    between atoms: CB   and  CG  
REMARK    7  A    between atoms: CG   and  CD  
ROOT
ATOM     14  CA  GLU D 570     -18.033  -6.348 -13.375  1.00 32.92     0.160 C 
ENDROOT
BRANCH  14  15
ATOM     15  CB  GLU D 570     -19.500  -6.345 -13.794  1.00 32.92     0.043 C 
BRANCH  15  16
ATOM     16  CG  GLU D 570     -20.442  -5.531 -12.983  1.00 32.92     0.100 C 
BRANCH  16  17
ATOM     17  CD  GLU D 570     -21.714  -5.189 -13.723  1.00 32.92     0.185 C 
ATOM     18  OE1 GLU D 570     -22.789  -5.155 -13.095  1.00 32.92    -0.647 OA
ATOM     19  OE2 GLU D 570     -21.636  -4.971 -14.948  1.00 32.92    -0.647 OA
ENDBRANCH  16  17
ENDBRANCH  15  16
ENDBRANCH  14  15
END_RES GLU D 570
ENDMDL
MODEL 3
REMARK VINA RESULT:      -5.0      3.085      6.475
REMARK  3 active torsions:
REMARK  status: ('A' for Active; 'I' for Inactive)
REMARK    1  A    between atoms: C_3  and  C_4 
REMARK    2  A    between atoms: C_5  and  C_6 
REMARK    3  A    between atoms: C_6  and  O_8 
ROOT
HETATM    1  C   UNL     1     -27.078  -5.613 -16.903  1.00  0.00     0.006 C 
HETATM    2  C   UNL     1     -26.692  -6.525 -15.994  1.00  0.00     0.081 C 
ENDROOT
BRANCH   2   3
HETATM    3  C   UNL     1     -25.248  -6.763 -15.786  1.00  0.00     0.165 C 
HETATM    4  O   UNL     1     -24.696  -7.839 -15.940  1.00  0.00    -0.647 OA
BRANCH   3   5
HETATM    5  O   UNL     1     -24.592  -5.652 -15.401  1.00  0.00    -0.773 OA
HETATM    6  H   UNL     1     -23.645  -5.758 -15.202  1.00  0.00     0.167 HD
ENDBRANCH   3   5
ENDBRANCH   2   3
BRANCH   1   7
HETATM    7  C   UNL     1     -28.464  -5.305 -17.183  1.00  0.00    -0.004 C 
HETATM    8  C   UNL     1     -28.914  -4.051 -17.337  1.00  0.00    -0.031 C 
HETATM    9  C   UNL     1     -30.347  -3.729 -17.626  1.00  0.00     0.036 C 
ENDBRANCH   1   7
TORSDOF 3
BEGIN_RES ARG D 557
REMARK  4 active torsions:
REMARK  status: ('A' for Active; 'I' for Inactive)
REMARK    1  A    between atoms: CA   and  CB  
REMARK    2  A    between atoms: CB   and  CG  
REMARK    3  A    between atoms: CG   and  CD  
REMARK    4  A    between atoms: CD   and  NE  
REMARK       I    between atoms: NE   and  CZ  
REMARK       I    between atoms: CZ   and  NH1 
REMARK       I    between atoms: CZ   and  NH2 
ROOT
ATOM      1  CA  ARG D 557     -26.217   2.705 -17.014  1.00 35.49     0.159 C 
ENDROOT
BRANCH   1   2
ATOM      2  CB  ARG D 557     -26.789   1.319 -17.183  1.00 35.49     0.034 C 
BRANCH   2   3
ATOM      3  CG  ARG D 557     -25.867   0.195 -16.981  1.00 35.49     0.027 C 
BRANCH   3   4
ATOM      4  CD  ARG D 557     -26.297  -0.696 -15.878  1.00 35.49     0.116 C 
BRANCH   4   5
ATOM      5  NE  ARG D 557     -25.234  -0.949 -14.941  1.00 35.49    -0.212 N 
ATOM      6  CZ  ARG D 557     -25.010  -2.087 -14.323  1.00 35.49     0.666 C 
ATOM      7  NH1 ARG D 557     -25.775  -3.150 -14.495  1.00 35.49    -0.235 N 
ATOM      8  NH2 ARG D 557     -23.986  -2.144 -13.522  1.00 35.49    -0.235 N 
ATOM      9  HH  ARG D 557     -26.453  -3.135 -15.019  1.00 35.49     0.174 HD
ATOM     10  HH  ARG D 557     -25.579  -3.866 -14.067  1.00 35.49     0.174 HD
ATOM     11  HH  ARG D 557     -23.506  -1.445 -13.436  1.00 35.49     0.174 HD
ATOM     12  HH  ARG D 557     -23.808  -2.863 -13.108  1.00 35.49     0.174 HD
ATOM     13  HE  ARG D 557     -24.736  -0.298 -14.716  1.00 35.49     0.178 HD
ENDBRANCH   4   5
ENDBRANCH   3   4
ENDBRANCH   2   3
ENDBRANCH   1   2
END_RES ARG D 557
BEGIN_RES GLU D 570
REMARK  3 active torsions:
REMARK  status: ('A' for Active; 'I' for Inactive)
REMARK    5  A    between atoms: CA   and  CB  
REMARK    6  A    between atoms: CB   and  CG  
REMARK    7  A    between atoms: CG   and  CD  
ROOT
ATOM     14  CA  GLU D 570     -18.033  -6.348 -13.375  1.00 32.92     0.160 C 
ENDROOT
BRANCH  14  15
ATOM     15  CB  GLU D 570     -19.500  -6.345 -13.794  1.00 32.92     0.043 C 
BRANCH  15  16
ATOM     16  CG  GLU D 570     -20.444  -5.543 -12.974  1.00 32.92     0.100 C 
BRANCH  16  17
ATOM     17  CD  GLU D 570     -21.698  -5.159 -13.726  1.00 32.92     0.185 C 
ATOM     18  OE1 GLU D 570     -22.743  -4.935 -13.085  1.00 32.92    -0.647 OA
ATOM     19  OE2 GLU D 570     -21.638  -5.098 -14.970  1.00 32.92    -0.647 OA
ENDBRANCH  16  17
ENDBRANCH  15  16
ENDBRANCH  14  15
END_RES GLU D 570
ENDMDL
MODEL 4
REMARK VINA RESULT:      -4.8      4.783      7.545
REMARK  3 active torsions:
REMARK  status: ('A' for Active; 'I' for Inactive)
REMARK    1  A    between atoms: C_3  and  C_4 
REMARK    2  A    between atoms: C_5  and  C_6 
REMARK    3  A    between atoms: C_6  and  O_8 
ROOT
HETATM    1  C   UNL     1     -29.757  -5.609 -18.000  1.00  0.00     0.006 C 
HETATM    2  C   UNL     1     -29.184  -6.808 -18.201  1.00  0.00     0.081 C 
ENDROOT
BRANCH   2   3
HETATM    3  C   UNL     1     -29.998  -7.905 -18.765  1.00  0.00     0.165 C 
HETATM    4  O   UNL     1     -31.211  -7.878 -18.882  1.00  0.00    -0.647 OA
BRANCH   3   5
HETATM    5  O   UNL     1     -29.250  -8.960 -19.143  1.00  0.00    -0.773 OA
HETATM    6  H   UNL     1     -28.341  -8.763 -19.429  1.00  0.00     0.167 HD
ENDBRANCH   3   5
ENDBRANCH   2   3
BRANCH   1   7
HETATM    7  C   UNL     1     -29.049  -4.470 -17.455  1.00  0.00    -0.004 C 
HETATM    8  C   UNL     1     -28.029  -4.591 -16.593  1.00  0.00    -0.031 C 
HETATM    9  C   UNL     1     -27.295  -3.415 -16.028  1.00  0.00     0.036 C 
ENDBRANCH   1   7
TORSDOF 3
BEGIN_RES ARG D 557
REMARK  4 active torsions:
REMARK  status: ('A' for Active; 'I' for Inactive)
REMARK    1  A    between atoms: CA   and  CB  
REMARK    2  A    between atoms: CB   and  CG  
REMARK    3  A    between atoms: CG   and  CD  
REMARK    4  A    between atoms: CD   and  NE  
REMARK       I    between atoms: NE   and  CZ  
REMARK       I    between atoms: CZ   and  NH1 
REMARK       I    between atoms: CZ   and  NH2 
ROOT
ATOM      1  CA  ARG D 557     -26.217   2.705 -17.014  1.00 35.49     0.159 C 
ENDROOT
BRANCH   1   2
ATOM      2  CB  ARG D 557     -26.789   1.319 -17.183  1.00 35.49     0.034 C 
BRANCH   2   3
ATOM      3  CG  ARG D 557     -25.834   0.204 -17.167  1.00 35.49     0.027 C 
BRANCH   3   4
ATOM      4  CD  ARG D 557     -24.784   0.375 -16.138  1.00 35.49     0.116 C 
BRANCH   4   5
ATOM      5  NE  ARG D 557     -24.978  -0.501 -15.013  1.00 35.49    -0.212 N 
ATOM      6  CZ  ARG D 557     -24.172  -1.473 -14.648  1.00 35.49     0.666 C 
ATOM      7  NH1 ARG D 557     -23.068  -1.765 -15.310  1.00 35.49    -0.235 N 
ATOM      8  NH2 ARG D 557     -24.495  -2.154 -13.587  1.00 35.49    -0.235 N 
ATOM      9  HH  ARG D 557     -22.835  -1.328 -16.009  1.00 35.49     0.174 HD
ATOM     10  HH  ARG D 557     -22.580  -2.408 -15.023  1.00 35.49     0.174 HD
ATOM     11  HH  ARG D 557     -25.210  -1.938 -13.175  1.00 35.49     0.174 HD
ATOM     12  HH  ARG D 557     -23.998  -2.786 -13.318  1.00 35.49     0.174 HD
ATOM     13  HE  ARG D 557     -25.702  -0.430 -14.572  1.00 35.49     0.178 HD
ENDBRANCH   4   5
ENDBRANCH   3   4
ENDBRANCH   2   3
ENDBRANCH   1   2
END_RES ARG D 557
BEGIN_RES GLU D 570
REMARK  3 active torsions:
REMARK  status: ('A' for Active; 'I' for Inactive)
REMARK    5  A    between atoms: CA   and  CB  
REMARK    6  A    between atoms: CB   and  CG  
REMARK    7  A    between atoms: CG   and  CD  
ROOT
ATOM     14  CA  GLU D 570     -18.033  -6.348 -13.375  1.00 32.92     0.160 C 
ENDROOT
BRANCH  14  15
ATOM     15  CB  GLU D 570     -19.500  -6.345 -13.794  1.00 32.92     0.043 C 
BRANCH  15  16
ATOM     16  CG  GLU D 570     -20.438  -5.515 -12.995  1.00 32.92     0.100 C 
BRANCH  16  17
ATOM     17  CD  GLU D 570     -21.601  -4.992 -13.807  1.00 32.92     0.185 C 
ATOM     18  OE1 GLU D 570     -21.731  -5.368 -14.987  1.00 32.92    -0.647 OA
ATOM     19  OE2 GLU D 570     -22.379  -4.185 -13.261  1.00 32.92    -0.647 OA
ENDBRANCH  16  17
ENDBRANCH  15  16
ENDBRANCH  14  15
END_RES GLU D 570
ENDMDL
MODEL 5
REMARK VINA RESULT:      -4.8      1.510      1.952
REMARK  3 active torsions:
REMARK  status: ('A' for Active; 'I' for Inactive)
REMARK    1  A    between atoms: C_3  and  C_4 
REMARK    2  A    between atoms: C_5  and  C_6 
REMARK    3  A    between atoms: C_6  and  O_8 
ROOT
HETATM    1  C   UNL     1     -21.713  -4.117  -9.388  1.00  0.00     0.006 C 
HETATM    2  C   UNL     1     -21.275  -3.777 -10.612  1.00  0.00     0.081 C 
ENDROOT
BRANCH   2   3
HETATM    3  C   UNL     1     -22.242  -3.254 -11.600  1.00  0.00     0.165 C 
HETATM    4  O   UNL     1     -23.332  -2.787 -11.321  1.00  0.00    -0.647 OA
BRANCH   3   5
HETATM    5  O   UNL     1     -21.788  -3.348 -12.865  1.00  0.00    -0.773 OA
HETATM    6  H   UNL     1     -22.143  -2.700 -13.499  1.00  0.00     0.167 HD
ENDBRANCH   3   5
ENDBRANCH   2   3
BRANCH   1   7
HETATM    7  C   UNL     1     -20.849  -4.637  -8.349  1.00  0.00    -0.004 C 
HETATM    8  C   UNL     1     -20.843  -4.155  -7.098  1.00  0.00    -0.031 C 
HETATM    9  C   UNL     1     -19.952  -4.690  -6.022  1.00  0.00     0.036 C 
ENDBRANCH   1   7
TORSDOF 3
BEGIN_RES ARG D 557
REMARK  4 active torsions:
REMARK  status: ('A' for Active; 'I' for Inactive)
REMARK    1  A    between atoms: CA   and  CB  
REMARK    2  A    between atoms: CB   and  CG  
REMARK    3  A    between atoms: CG   and  CD  
REMARK    4  A    between atoms: CD   and  NE  
REMARK       I    between atoms: NE   and  CZ  
REMARK       I    between atoms: CZ   and  NH1 
REMARK       I    between atoms: CZ   and  NH2 
ROOT
ATOM      1  CA  ARG D 557     -26.217   2.705 -17.014  1.00 35.49     0.159 C 
ENDROOT
BRANCH   1   2
ATOM      2  CB  ARG D 557     -26.789   1.319 -17.183  1.00 35.49     0.034 C 
BRANCH   2   3
ATOM      3  CG  ARG D 557     -25.837   0.202 -17.141  1.00 35.49     0.027 C 
BRANCH   3   4
ATOM      4  CD  ARG D 557     -24.968   0.245 -15.943  1.00 35.49     0.116 C 
BRANCH   4   5
ATOM      5  NE  ARG D 557     -25.252  -0.828 -15.028  1.00 35.49    -0.212 N 
ATOM      6  CZ  ARG D 557     -24.417  -1.781 -14.678  1.00 35.49     0.666 C 
ATOM      7  NH1 ARG D 557     -23.190  -1.860 -15.160  1.00 35.49    -0.235 N 
ATOM      8  NH2 ARG D 557     -24.837  -2.662 -13.818  1.00 35.49    -0.235 N 
ATOM      9  HH  ARG D 557     -22.892  -1.289 -15.725  1.00 35.49     0.174 HD
ATOM     10  HH  ARG D 557     -22.689  -2.502 -14.893  1.00 35.49     0.174 HD
ATOM     11  HH  ARG D 557     -25.632  -2.582 -13.519  1.00 35.49     0.174 HD
ATOM     12  HH  ARG D 557     -24.326  -3.289 -13.565  1.00 35.49     0.174 HD
ATOM     13  HE  ARG D 557     -26.044  -0.896 -14.725  1.00 35.49     0.178 HD
ENDBRANCH   4   5
ENDBRANCH   3   4
ENDBRANCH   2   3
ENDBRANCH   1   2
END_RES ARG D 557
BEGIN_RES GLU D 570
REMARK  3 active torsions:
REMARK  status: ('A' for Active; 'I' for Inactive)
REMARK    5  A    between atoms: CA   and  CB  
REMARK    6  A    between atoms: CB   and  CG  
REMARK    7  A    between atoms: CG   and  CD  
ROOT
ATOM     14  CA  GLU D 570     -18.033  -6.348 -13.375  1.00 32.92     0.160 C 
ENDROOT
BRANCH  14  15
ATOM     15  CB  GLU D 570     -19.500  -6.345 -13.794  1.00 32.92     0.043 C 
BRANCH  15  16
ATOM     16  CG  GLU D 570     -19.815  -5.912 -15.180  1.00 32.92     0.100 C 
BRANCH  16  17
ATOM     17  CD  GLU D 570     -21.294  -5.711 -15.412  1.00 32.92     0.185 C 
ATOM     18  OE1 GLU D 570     -22.049  -6.702 -15.402  1.00 32.92    -0.647 OA
ATOM     19  OE2 GLU D 570     -21.701  -4.551 -15.624  1.00 32.92    -0.647 OA
ENDBRANCH  16  17
ENDBRANCH  15  16
ENDBRANCH  14  15
END_RES GLU D 570
ENDMDL
MODEL 6
REMARK VINA RESULT:      -4.8      3.831      6.889
REMARK  3 active torsions:
REMARK  status: ('A' for Active; 'I' for Inactive)
REMARK    1  A    between atoms: C_3  and  C_4 
REMARK    2  A    between atoms: C_5  and  C_6 
REMARK    3  A    between atoms: C_6  and  O_8 
ROOT
HETATM    1  C   UNL     1     -28.487  -4.587 -17.299  1.00  0.00     0.006 C 
HETATM    2  C   UNL     1     -27.899  -4.802 -16.110  1.00  0.00     0.081 C 
ENDROOT
BRANCH   2   3
HETATM    3  C   UNL     1     -26.828  -3.885 -15.664  1.00  0.00     0.165 C 
HETATM    4  O   UNL     1     -25.766  -4.243 -15.185  1.00  0.00    -0.647 OA
BRANCH   3   5
HETATM    5  O   UNL     1     -27.151  -2.590 -15.842  1.00  0.00    -0.773 OA
HETATM    6  H   UNL     1     -26.428  -2.000 -16.120  1.00  0.00     0.167 HD
ENDBRANCH   3   5
ENDBRANCH   2   3
BRANCH   1   7
HETATM    7  C   UNL     1     -29.543  -5.423 -17.827  1.00  0.00    -0.004 C 
HETATM    8  C   UNL     1     -29.435  -6.756 -17.928  1.00  0.00    -0.031 C 
HETATM    9  C   UNL     1     -30.526  -7.624 -18.474  1.00  0.00     0.036 C 
ENDBRANCH   1   7
TORSDOF 3
BEGIN_RES ARG D 557
REMARK  4 active torsions:
REMARK  status: ('A' for Active; 'I' for Inactive)
REMARK    1  A    between atoms: CA   and  CB  
REMARK    2  A    between atoms: CB   and  CG  
REMARK    3  A    between atoms: CG   and  CD  
REMARK    4  A    between atoms: CD   and  NE  
REMARK       I    between atoms: NE   and  CZ  
REMARK       I    between atoms: CZ   and  NH1 
REMARK       I    between atoms: CZ   and  NH2 
ROOT
ATOM      1  CA  ARG D 557     -26.217   2.705 -17.014  1.00 35.49     0.159 C 
ENDROOT
BRANCH   1   2
ATOM      2  CB  ARG D 557     -26.789   1.319 -17.183  1.00 35.49     0.034 C 
BRANCH   2   3
ATOM      3  CG  ARG D 557     -25.838   0.202 -17.136  1.00 35.49     0.027 C 
BRANCH   3   4
ATOM      4  CD  ARG D 557     -24.757   0.422 -16.148  1.00 35.49     0.116 C 
BRANCH   4   5
ATOM      5  NE  ARG D 557     -24.869  -0.459 -15.016  1.00 35.49    -0.212 N 
ATOM      6  CZ  ARG D 557     -24.023  -1.414 -14.699  1.00 35.49     0.666 C 
ATOM      7  NH1 ARG D 557     -22.951  -1.681 -15.423  1.00 35.49    -0.235 N 
ATOM      8  NH2 ARG D 557     -24.271  -2.103 -13.623  1.00 35.49    -0.235 N 
ATOM      9  HH  ARG D 557     -22.767  -1.239 -16.133  1.00 35.49     0.174 HD
ATOM     10  HH  ARG D 557     -22.434  -2.313 -15.165  1.00 35.49     0.174 HD
ATOM     11  HH  ARG D 557     -24.966  -1.903 -13.172  1.00 35.49     0.174 HD
ATOM     12  HH  ARG D 557     -23.746  -2.724 -13.384  1.00 35.49     0.174 HD
ATOM     13  HE  ARG D 557     -25.568  -0.405 -14.536  1.00 35.49     0.178 HD
ENDBRANCH   4   5
ENDBRANCH   3   4
ENDBRANCH   2   3
ENDBRANCH   1   2
END_RES ARG D 557
BEGIN_RES GLU D 570
REMARK  3 active torsions:
REMARK  status: ('A' for Active; 'I' for Inactive)
REMARK    5  A    between atoms: CA   and  CB  
REMARK    6  A    between atoms: CB   and  CG  
REMARK    7  A    between atoms: CG   and  CD  
ROOT
ATOM     14  CA  GLU D 570     -18.033  -6.348 -13.375  1.00 32.92     0.160 C 
ENDROOT
BRANCH  14  15
ATOM     15  CB  GLU D 570     -19.500  -6.345 -13.794  1.00 32.92     0.043 C 
BRANCH  15  16
ATOM     16  CG  GLU D 570     -20.445  -5.545 -12.973  1.00 32.92     0.100 C 
BRANCH  16  17
ATOM     17  CD  GLU D 570     -21.645  -5.064 -13.755  1.00 32.92     0.185 C 
ATOM     18  OE1 GLU D 570     -21.583  -5.033 -14.999  1.00 32.92    -0.647 OA
ATOM     19  OE2 GLU D 570     -22.651  -4.699 -13.117  1.00 32.92    -0.647 OA
ENDBRANCH  16  17
ENDBRANCH  15  16
ENDBRANCH  14  15
END_RES GLU D 570
ENDMDL
MODEL 7
REMARK VINA RESULT:      -4.7      4.754      7.351
REMARK  3 active torsions:
REMARK  status: ('A' for Active; 'I' for Inactive)
REMARK    1  A    between atoms: C_3  and  C_4 
REMARK    2  A    between atoms: C_5  and  C_6 
REMARK    3  A    between atoms: C_6  and  O_8 
ROOT
HETATM    1  C   UNL     1     -29.939  -4.457 -17.947  1.00  0.00     0.006 C 
HETATM    2  C   UNL     1     -30.903  -4.819 -17.083  1.00  0.00     0.081 C 
ENDROOT
BRANCH   2   3
HETATM    3  C   UNL     1     -32.204  -4.120 -17.128  1.00  0.00     0.165 C 
HETATM    4  O   UNL     1     -32.391  -3.037 -17.657  1.00  0.00    -0.647 OA
BRANCH   3   5
HETATM    5  O   UNL     1     -33.183  -4.812 -16.514  1.00  0.00    -0.773 OA
HETATM    6  H   UNL     1     -33.108  -4.900 -15.548  1.00  0.00     0.167 HD
ENDBRANCH   3   5
ENDBRANCH   2   3
BRANCH   1   7
HETATM    7  C   UNL     1     -28.632  -5.077 -17.986  1.00  0.00    -0.004 C 
HETATM    8  C   UNL     1     -27.949  -5.409 -16.880  1.00  0.00    -0.031 C 
HETATM    9  C   UNL     1     -26.598  -6.051 -16.918  1.00  0.00     0.036 C 
ENDBRANCH   1   7
TORSDOF 3
BEGIN_RES ARG D 557
REMARK  4 active torsions:
REMARK  status: ('A' for Active; 'I' for Inactive)
REMARK    1  A    between atoms: CA   and  CB  
REMARK    2  A    between atoms: CB   and  CG  
REMARK    3  A    between atoms: CG   and  CD  
REMARK    4  A    between atoms: CD   and  NE  
REMARK       I    between atoms: NE   and  CZ  
REMARK       I    between atoms: CZ   and  NH1 
REMARK       I    between atoms: CZ   and  NH2 
ROOT
ATOM      1  CA  ARG D 557     -26.217   2.705 -17.014  1.00 35.49     0.159 C 
ENDROOT
BRANCH   1   2
ATOM      2  CB  ARG D 557     -26.789   1.319 -17.183  1.00 35.49     0.034 C 
BRANCH   2   3
ATOM      3  CG  ARG D 557     -25.865   0.195 -16.991  1.00 35.49     0.027 C 
BRANCH   3   4
ATOM      4  CD  ARG D 557     -26.302  -0.717 -15.909  1.00 35.49     0.116 C 
BRANCH   4   5
ATOM      5  NE  ARG D 557     -25.265  -0.942 -14.937  1.00 35.49    -0.212 N 
ATOM      6  CZ  ARG D 557     -24.989  -2.091 -14.361  1.00 35.49     0.666 C 
ATOM      7  NH1 ARG D 557     -25.670  -3.193 -14.614  1.00 35.49    -0.235 N 
ATOM      8  NH2 ARG D 557     -23.998  -2.116 -13.518  1.00 35.49    -0.235 N 
ATOM      9  HH  ARG D 557     -26.325  -3.199 -15.166  1.00 35.49     0.174 HD
ATOM     10  HH  ARG D 557     -25.443  -3.914 -14.209  1.00 35.49     0.174 HD
ATOM     11  HH  ARG D 557     -23.571  -1.391 -13.380  1.00 35.49     0.174 HD
ATOM     12  HH  ARG D 557     -23.788  -2.840 -13.129  1.00 35.49     0.174 HD
ATOM     13  HE  ARG D 557     -24.823  -0.270 -14.661  1.00 35.49     0.178 HD
ENDBRANCH   4   5
ENDBRANCH   3   4
ENDBRANCH   2   3
ENDBRANCH   1   2
END_RES ARG D 557
BEGIN_RES GLU D 570
REMARK  3 active torsions:
REMARK  status: ('A' for Active; 'I' for Inactive)
REMARK    5  A    between atoms: CA   and  CB  
REMARK    6  A    between atoms: CB   and  CG  
REMARK    7  A    between atoms: CG   and  CD  
ROOT
ATOM     14  CA  GLU D 570     -18.033  -6.348 -13.375  1.00 32.92     0.160 C 
ENDROOT
BRANCH  14  15
ATOM     15  CB  GLU D 570     -19.500  -6.345 -13.794  1.00 32.92     0.043 C 
BRANCH  15  16
ATOM     16  CG  GLU D 570     -20.447  -5.555 -12.965  1.00 32.92     0.100 C 
BRANCH  16  17
ATOM     17  CD  GLU D 570     -21.681  -5.129 -13.725  1.00 32.92     0.185 C 
ATOM     18  OE1 GLU D 570     -21.619  -5.011 -14.964  1.00 32.92    -0.647 OA
ATOM     19  OE2 GLU D 570     -22.718  -4.895 -13.073  1.00 32.92    -0.647 OA
ENDBRANCH  16  17
ENDBRANCH  15  16
ENDBRANCH  14  15
END_RES GLU D 570
ENDMDL
MODEL 8
REMARK VINA RESULT:      -4.5      6.870      8.335
REMARK  3 active torsions:
REMARK  status: ('A' for Active; 'I' for Inactive)
REMARK    1  A    between atoms: C_3  and  C_4 
REMARK    2  A    between atoms: C_5  and  C_6 
REMARK    3  A    between atoms: C_6  and  O_8 
ROOT
HETATM    1  C   UNL     1     -24.692   8.420 -11.500  1.00  0.00     0.006 C 
HETATM    2  C   UNL     1     -24.719   7.111 -11.199  1.00  0.00     0.081 C 
ENDROOT
BRANCH   2   3
HETATM    3  C   UNL     1     -26.002   6.492 -10.804  1.00  0.00     0.165 C 
HETATM    4  O   UNL     1     -27.099   6.983 -11.008  1.00  0.00    -0.647 OA
BRANCH   3   5
HETATM    5  O   UNL     1     -25.834   5.308 -10.184  1.00  0.00    -0.773 OA
HETATM    6  H   UNL     1     -26.432   4.590 -10.457  1.00  0.00     0.167 HD
ENDBRANCH   3   5
ENDBRANCH   2   3
BRANCH   1   7
HETATM    7  C   UNL     1     -23.490   9.121 -11.898  1.00  0.00    -0.004 C 
HETATM    8  C   UNL     1     -22.730   9.812 -11.035  1.00  0.00    -0.031 C 
HETATM    9  C   UNL     1     -21.487  10.537 -11.444  1.00  0.00     0.036 C 
ENDBRANCH   1   7
TORSDOF 3
BEGIN_RES ARG D 557
REMARK  4 active torsions:
REMARK  status: ('A' for Active; 'I' for Inactive)
REMARK    1  A    between atoms: CA   and  CB  
REMARK    2  A    between atoms: CB   and  CG  
REMARK    3  A    between atoms: CG   and  CD  
REMARK    4  A    between atoms: CD   and  NE  
REMARK       I    between atoms: NE   and  CZ  
REMARK       I    between atoms: CZ   and  NH1 
REMARK       I    between atoms: CZ   and  NH2 
ROOT
ATOM      1  CA  ARG D 557     -26.217   2.705 -17.014  1.00 35.49     0.159 C 
ENDROOT
BRANCH   1   2
ATOM      2  CB  ARG D 557     -26.789   1.319 -17.183  1.00 35.49     0.034 C 
BRANCH   2   3
ATOM      3  CG  ARG D 557     -25.838   0.202 -17.141  1.00 35.49     0.027 C 
BRANCH   3   4
ATOM      4  CD  ARG D 557     -24.757   0.418 -16.151  1.00 35.49     0.116 C 
BRANCH   4   5
ATOM      5  NE  ARG D 557     -24.896  -0.437 -15.001  1.00 35.49    -0.212 N 
ATOM      6  CZ  ARG D 557     -24.080  -1.411 -14.665  1.00 35.49     0.666 C 
ATOM      7  NH1 ARG D 557     -23.018  -1.725 -15.383  1.00 35.49    -0.235 N 
ATOM      8  NH2 ARG D 557     -24.349  -2.070 -13.576  1.00 35.49    -0.235 N 
ATOM      9  HH  ARG D 557     -22.821  -1.303 -16.103  1.00 35.49     0.174 HD
ATOM     10  HH  ARG D 557     -22.520  -2.369 -15.114  1.00 35.49     0.174 HD
ATOM     11  HH  ARG D 557     -25.038  -1.840 -13.129  1.00 35.49     0.174 HD
ATOM     12  HH  ARG D 557     -23.844  -2.703 -13.325  1.00 35.49     0.174 HD
ATOM     13  HE  ARG D 557     -25.594  -0.351 -14.522  1.00 35.49     0.178 HD
ENDBRANCH   4   5
ENDBRANCH   3   4
ENDBRANCH   2   3
ENDBRANCH   1   2
END_RES ARG D 557
BEGIN_RES GLU D 570
REMARK  3 active torsions:
REMARK  status: ('A' for Active; 'I' for Inactive)
REMARK    5  A    between atoms: CA   and  CB  
REMARK    6  A    between atoms: CB   and  CG  
REMARK    7  A    between atoms: CG   and  CD  
ROOT
ATOM     14  CA  GLU D 570     -18.033  -6.348 -13.375  1.00 32.92     0.160 C 
ENDROOT
BRANCH  14  15
ATOM     15  CB  GLU D 570     -19.500  -6.345 -13.794  1.00 32.92     0.043 C 
BRANCH  15  16
ATOM     16  CG  GLU D 570     -20.446  -5.548 -12.970  1.00 32.92     0.100 C 
BRANCH  16  17
ATOM     17  CD  GLU D 570     -21.743  -5.250 -13.685  1.00 32.92     0.185 C 
ATOM     18  OE1 GLU D 570     -22.253  -6.129 -14.405  1.00 32.92    -0.647 OA
ATOM     19  OE2 GLU D 570     -22.245  -4.118 -13.537  1.00 32.92    -0.647 OA
ENDBRANCH  16  17
ENDBRANCH  15  16
ENDBRANCH  14  15
END_RES GLU D 570
ENDMDL
MODEL 9
REMARK VINA RESULT:      -4.5      5.524      6.357
REMARK  3 active torsions:
REMARK  status: ('A' for Active; 'I' for Inactive)
REMARK    1  A    between atoms: C_3  and  C_4 
REMARK    2  A    between atoms: C_5  and  C_6 
REMARK    3  A    between atoms: C_6  and  O_8 
ROOT
HETATM    1  C   UNL     1     -22.205  -6.491  -1.547  1.00  0.00     0.006 C 
HETATM    2  C   UNL     1     -21.918  -7.651  -0.931  1.00  0.00     0.081 C 
ENDROOT
BRANCH   2   3
HETATM    3  C   UNL     1     -22.431  -7.883   0.436  1.00  0.00     0.165 C 
HETATM    4  O   UNL     1     -21.743  -8.220   1.384  1.00  0.00    -0.647 OA
BRANCH   3   5
HETATM    5  O   UNL     1     -23.758  -7.680   0.531  1.00  0.00    -0.773 OA
HETATM    6  H   UNL     1     -24.131  -6.988  -0.043  1.00  0.00     0.167 HD
ENDBRANCH   3   5
ENDBRANCH   2   3
BRANCH   1   7
HETATM    7  C   UNL     1     -21.754  -6.166  -2.883  1.00  0.00    -0.004 C 
HETATM    8  C   UNL     1     -21.487  -7.100  -3.809  1.00  0.00    -0.031 C 
HETATM    9  C   UNL     1     -21.020  -6.767  -5.191  1.00  0.00     0.036 C 
ENDBRANCH   1   7
TORSDOF 3
BEGIN_RES ARG D 557
REMARK  4 active torsions:
REMARK  status: ('A' for Active; 'I' for Inactive)
REMARK    1  A    between atoms: CA   and  CB  
REMARK    2  A    between atoms: CB   and  CG  
REMARK    3  A    between atoms: CG   and  CD  
REMARK    4  A    between atoms: CD   and  NE  
REMARK       I    between atoms: NE   and  CZ  
REMARK       I    between atoms: CZ   and  NH1 
REMARK       I    between atoms: CZ   and  NH2 
ROOT
ATOM      1  CA  ARG D 557     -26.217   2.705 -17.014  1.00 35.49     0.159 C 
ENDROOT
BRANCH   1   2
ATOM      2  CB  ARG D 557     -26.789   1.319 -17.183  1.00 35.49     0.034 C 
BRANCH   2   3
ATOM      3  CG  ARG D 557     -25.863   0.195 -16.999  1.00 35.49     0.027 C 
BRANCH   3   4
ATOM      4  CD  ARG D 557     -26.269  -0.694 -15.887  1.00 35.49     0.116 C 
BRANCH   4   5
ATOM      5  NE  ARG D 557     -25.200  -0.910 -14.947  1.00 35.49    -0.212 N 
ATOM      6  CZ  ARG D 557     -24.902  -2.053 -14.372  1.00 35.49     0.666 C 
ATOM      7  NH1 ARG D 557     -25.587  -3.159 -14.596  1.00 35.49    -0.235 N 
ATOM      8  NH2 ARG D 557     -23.885  -2.070 -13.561  1.00 35.49    -0.235 N 
ATOM      9  HH  ARG D 557     -26.259  -3.172 -15.128  1.00 35.49     0.174 HD
ATOM     10  HH  ARG D 557     -25.344  -3.877 -14.194  1.00 35.49     0.174 HD
ATOM     11  HH  ARG D 557     -23.456  -1.342 -13.441  1.00 35.49     0.174 HD
ATOM     12  HH  ARG D 557     -23.659  -2.790 -13.174  1.00 35.49     0.174 HD
ATOM     13  HE  ARG D 557     -24.753  -0.234 -14.689  1.00 35.49     0.178 HD
ENDBRANCH   4   5
ENDBRANCH   3   4
ENDBRANCH   2   3
ENDBRANCH   1   2
END_RES ARG D 557
BEGIN_RES GLU D 570
REMARK  3 active torsions:
REMARK  status: ('A' for Active; 'I' for Inactive)
REMARK    5  A    between atoms: CA   and  CB  
REMARK    6  A    between atoms: CB   and  CG  
REMARK    7  A    between atoms: CG   and  CD  
ROOT
ATOM     14  CA  GLU D 570     -18.033  -6.348 -13.375  1.00 32.92     0.160 C 
ENDROOT
BRANCH  14  15
ATOM     15  CB  GLU D 570     -19.500  -6.345 -13.794  1.00 32.92     0.043 C 
BRANCH  15  16
ATOM     16  CG  GLU D 570     -20.442  -5.530 -12.984  1.00 32.92     0.100 C 
BRANCH  16  17
ATOM     17  CD  GLU D 570     -21.682  -5.129 -13.748  1.00 32.92     0.185 C 
ATOM     18  OE1 GLU D 570     -21.614  -4.993 -14.984  1.00 32.92    -0.647 OA
ATOM     19  OE2 GLU D 570     -22.730  -4.934 -13.100  1.00 32.92    -0.647 OA
ENDBRANCH  16  17
ENDBRANCH  15  16
ENDBRANCH  14  15
END_RES GLU D 570
ENDMDL
