MODEL 1
REMARK VINA RESULT:      -6.9      0.000      0.000
REMARK  5 active torsions:
REMARK  status: ('A' for Active; 'I' for Inactive)
REMARK    1  A    between atoms: CG_4  and  CB_7 
REMARK    2  A    between atoms: CB_7  and  CA_8 
REMARK    3  A    between atoms: CA_8  and  C_9 
REMARK    4  A    between atoms: CA_8  and  N_12 
REMARK    5  A    between atoms: C_9  and  OXT_11 
ROOT
ATOM      1  CA  PHE A   1     -24.052  -2.983 -13.554  1.00  0.00     0.318 C 
ENDROOT
BRANCH   1   2
ATOM      2  CB  PHE A   1     -22.701  -2.926 -12.822  1.00  0.00     0.085 C 
BRANCH   2   3
ATOM      3  CG  PHE A   1     -22.733  -3.406 -11.389  1.00  0.00    -0.056 A 
ATOM      4  CD1 PHE A   1     -23.912  -3.363 -10.631  1.00  0.00     0.007 A 
ATOM      5  CE1 PHE A   1     -23.896  -3.736  -9.286  1.00  0.00     0.001 A 
ATOM      6  CZ  PHE A   1     -22.714  -4.182  -8.696  1.00  0.00     0.000 A 
ATOM      7  CE2 PHE A   1     -21.549  -4.268  -9.453  1.00  0.00     0.001 A 
ATOM      8  CD2 PHE A   1     -21.557  -3.883 -10.792  1.00  0.00     0.007 A 
ENDBRANCH   2   3
ENDBRANCH   1   2
BRANCH   1   9
ATOM      9  C   PHE A   1     -24.164  -1.970 -14.717  1.00  0.00     0.174 C 
ATOM     10  O   PHE A   1     -25.150  -1.268 -14.904  1.00  0.00    -0.648 OA
BRANCH   9  11
ATOM     11  OXT PHE A   1     -23.061  -1.849 -15.487  1.00  0.00    -0.775 OA
ATOM     12  HXT PHE A   1     -22.587  -2.683 -15.675  1.00  0.00     0.167 HD
ENDBRANCH   9  11
ENDBRANCH   1   9
BRANCH   1  13
ATOM     13  N   PHE A   1     -24.224  -4.358 -14.101  1.00  0.00     0.093 N 
ATOM     14  H1  PHE A   1     -23.537  -4.477 -14.855  1.00  0.00     0.314 HD
ATOM     15  H2  PHE A   1     -25.114  -4.383 -14.608  1.00  0.00     0.314 HD
ENDBRANCH   1  13
TORSDOF 5
BEGIN_RES ARG D 557
REMARK  4 active torsions:
REMARK  status: ('A' for Active; 'I' for Inactive)
REMARK    1  A    between atoms: CA   and  CB  
REMARK    2  A    between atoms: CB   and  CG  
REMARK    3  A    between atoms: CG   and  CD  
REMARK    4  A    between atoms: CD   and  NE  
REMARK       I    between atoms: NE   and  CZ  
REMARK       I    between atoms: CZ   and  NH1 
REMARK       I    between atoms: CZ   and  NH2 
ROOT
ATOM      1  CA  ARG D 557     -26.217   2.705 -17.014  1.00 35.49     0.159 C 
ENDROOT
BRANCH   1   2
ATOM      2  CB  ARG D 557     -26.789   1.319 -17.183  1.00 35.49     0.034 C 
BRANCH   2   3
ATOM      3  CG  ARG D 557     -28.187   1.128 -16.779  1.00 35.49     0.027 C 
BRANCH   3   4
ATOM      4  CD  ARG D 557     -28.689  -0.226 -17.108  1.00 35.49     0.116 C 
BRANCH   4   5
ATOM      5  NE  ARG D 557     -27.902  -1.261 -16.491  1.00 35.49    -0.212 N 
ATOM      6  CZ  ARG D 557     -28.066  -2.554 -16.661  1.00 35.49     0.666 C 
ATOM      7  NH1 ARG D 557     -29.013  -3.054 -17.432  1.00 35.49    -0.235 N 
ATOM      8  NH2 ARG D 557     -27.245  -3.349 -16.038  1.00 35.49    -0.235 N 
ATOM      9  HH  ARG D 557     -29.563  -2.550 -17.853  1.00 35.49     0.174 HD
ATOM     10  HH  ARG D 557     -29.070  -3.906 -17.506  1.00 35.49     0.174 HD
ATOM     11  HH  ARG D 557     -26.638  -2.998 -15.553  1.00 35.49     0.174 HD
ATOM     12  HH  ARG D 557     -27.316  -4.190 -16.126  1.00 35.49     0.174 HD
ATOM     13  HE  ARG D 557     -27.315  -1.030 -15.921  1.00 35.49     0.178 HD
ENDBRANCH   4   5
ENDBRANCH   3   4
ENDBRANCH   2   3
ENDBRANCH   1   2
END_RES ARG D 557
BEGIN_RES GLU D 570
REMARK  3 active torsions:
REMARK  status: ('A' for Active; 'I' for Inactive)
REMARK    5  A    between atoms: CA   and  CB  
REMARK    6  A    between atoms: CB   and  CG  
REMARK    7  A    between atoms: CG   and  CD  
ROOT
ATOM     14  CA  GLU D 570     -18.033  -6.348 -13.375  1.00 32.92     0.160 C 
ENDROOT
BRANCH  14  15
ATOM     15  CB  GLU D 570     -19.500  -6.345 -13.794  1.00 32.92     0.043 C 
BRANCH  15  16
ATOM     16  CG  GLU D 570     -19.820  -5.868 -15.164  1.00 32.92     0.100 C 
BRANCH  16  17
ATOM     17  CD  GLU D 570     -21.291  -5.588 -15.363  1.00 32.92     0.185 C 
ATOM     18  OE1 GLU D 570     -22.121  -6.463 -15.048  1.00 32.92    -0.647 OA
ATOM     19  OE2 GLU D 570     -21.617  -4.489 -15.854  1.00 32.92    -0.647 OA
ENDBRANCH  16  17
ENDBRANCH  15  16
ENDBRANCH  14  15
END_RES GLU D 570
ENDMDL
MODEL 2
REMARK VINA RESULT:      -6.9      2.620      3.687
REMARK  5 active torsions:
REMARK  status: ('A' for Active; 'I' for Inactive)
REMARK    1  A    between atoms: CG_4  and  CB_7 
REMARK    2  A    between atoms: CB_7  and  CA_8 
REMARK    3  A    between atoms: CA_8  and  C_9 
REMARK    4  A    between atoms: CA_8  and  N_12 
REMARK    5  A    between atoms: C_9  and  OXT_11 
ROOT
ATOM      1  CA  PHE A   1     -23.829  -4.317  -9.737  1.00  0.00     0.318 C 
ENDROOT
BRANCH   1   2
ATOM      2  CB  PHE A   1     -22.446  -3.644  -9.713  1.00  0.00     0.085 C 
BRANCH   2   3
ATOM      3  CG  PHE A   1     -21.537  -4.098  -8.594  1.00  0.00    -0.056 A 
ATOM      4  CD1 PHE A   1     -22.050  -4.477  -7.345  1.00  0.00     0.007 A 
ATOM      5  CE1 PHE A   1     -21.184  -4.813  -6.303  1.00  0.00     0.001 A 
ATOM      6  CZ  PHE A   1     -19.805  -4.803  -6.506  1.00  0.00     0.000 A 
ATOM      7  CE2 PHE A   1     -19.289  -4.469  -7.755  1.00  0.00     0.001 A 
ATOM      8  CD2 PHE A   1     -20.150  -4.118  -8.795  1.00  0.00     0.007 A 
ENDBRANCH   2   3
ENDBRANCH   1   2
BRANCH   1   9
ATOM      9  C   PHE A   1     -24.941  -3.415 -10.319  1.00  0.00     0.174 C 
ATOM     10  O   PHE A   1     -24.961  -3.038 -11.484  1.00  0.00    -0.648 OA
BRANCH   9  11
ATOM     11  OXT PHE A   1     -25.949  -3.120  -9.469  1.00  0.00    -0.775 OA
ATOM     12  HXT PHE A   1     -26.758  -2.762  -9.886  1.00  0.00     0.167 HD
ENDBRANCH   9  11
ENDBRANCH   1   9
BRANCH   1  13
ATOM     13  N   PHE A   1     -23.729  -5.548 -10.570  1.00  0.00     0.093 N 
ATOM     14  H1  PHE A   1     -23.093  -6.194 -10.089  1.00  0.00     0.314 HD
ATOM     15  H2  PHE A   1     -23.202  -5.309 -11.417  1.00  0.00     0.314 HD
ENDBRANCH   1  13
TORSDOF 5
BEGIN_RES ARG D 557
REMARK  4 active torsions:
REMARK  status: ('A' for Active; 'I' for Inactive)
REMARK    1  A    between atoms: CA   and  CB  
REMARK    2  A    between atoms: CB   and  CG  
REMARK    3  A    between atoms: CG   and  CD  
REMARK    4  A    between atoms: CD   and  NE  
REMARK       I    between atoms: NE   and  CZ  
REMARK       I    between atoms: CZ   and  NH1 
REMARK       I    between atoms: CZ   and  NH2 
ROOT
ATOM      1  CA  ARG D 557     -26.217   2.705 -17.014  1.00 35.49     0.159 C 
ENDROOT
BRANCH   1   2
ATOM      2  CB  ARG D 557     -26.789   1.319 -17.183  1.00 35.49     0.034 C 
BRANCH   2   3
ATOM      3  CG  ARG D 557     -25.855   0.196 -17.034  1.00 35.49     0.027 C 
BRANCH   3   4
ATOM      4  CD  ARG D 557     -26.145  -0.623 -15.835  1.00 35.49     0.116 C 
BRANCH   4   5
ATOM      5  NE  ARG D 557     -25.003  -0.739 -14.968  1.00 35.49    -0.212 N 
ATOM      6  CZ  ARG D 557     -24.564  -1.850 -14.420  1.00 35.49     0.666 C 
ATOM      7  NH1 ARG D 557     -25.157  -3.015 -14.605  1.00 35.49    -0.235 N 
ATOM      8  NH2 ARG D 557     -23.499  -1.773 -13.676  1.00 35.49    -0.235 N 
ATOM      9  HH  ARG D 557     -25.858  -3.090 -15.092  1.00 35.49     0.174 HD
ATOM     10  HH  ARG D 557     -24.824  -3.707 -14.224  1.00 35.49     0.174 HD
ATOM     11  HH  ARG D 557     -23.132  -1.009 -13.581  1.00 35.49     0.174 HD
ATOM     12  HH  ARG D 557     -23.183  -2.469 -13.309  1.00 35.49     0.174 HD
ATOM     13  HE  ARG D 557     -24.603  -0.025 -14.736  1.00 35.49     0.178 HD
ENDBRANCH   4   5
ENDBRANCH   3   4
ENDBRANCH   2   3
ENDBRANCH   1   2
END_RES ARG D 557
BEGIN_RES GLU D 570
REMARK  3 active torsions:
REMARK  status: ('A' for Active; 'I' for Inactive)
REMARK    5  A    between atoms: CA   and  CB  
REMARK    6  A    between atoms: CB   and  CG  
REMARK    7  A    between atoms: CG   and  CD  
ROOT
ATOM     14  CA  GLU D 570     -18.033  -6.348 -13.375  1.00 32.92     0.160 C 
ENDROOT
BRANCH  14  15
ATOM     15  CB  GLU D 570     -19.500  -6.345 -13.794  1.00 32.92     0.043 C 
BRANCH  15  16
ATOM     16  CG  GLU D 570     -20.441  -5.526 -12.987  1.00 32.92     0.100 C 
BRANCH  16  17
ATOM     17  CD  GLU D 570     -21.646  -5.066 -13.774  1.00 32.92     0.185 C 
ATOM     18  OE1 GLU D 570     -22.638  -4.628 -13.160  1.00 32.92    -0.647 OA
ATOM     19  OE2 GLU D 570     -21.604  -5.161 -15.016  1.00 32.92    -0.647 OA
ENDBRANCH  16  17
ENDBRANCH  15  16
ENDBRANCH  14  15
END_RES GLU D 570
ENDMDL
MODEL 3
REMARK VINA RESULT:      -6.6      1.945      2.694
REMARK  5 active torsions:
REMARK  status: ('A' for Active; 'I' for Inactive)
REMARK    1  A    between atoms: CG_4  and  CB_7 
REMARK    2  A    between atoms: CB_7  and  CA_8 
REMARK    3  A    between atoms: CA_8  and  C_9 
REMARK    4  A    between atoms: CA_8  and  N_12 
REMARK    5  A    between atoms: C_9  and  OXT_11 
ROOT
ATOM      1  CA  PHE A   1     -24.238  -3.359 -10.144  1.00  0.00     0.318 C 
ENDROOT
BRANCH   1   2
ATOM      2  CB  PHE A   1     -23.438  -4.645  -9.880  1.00  0.00     0.085 C 
BRANCH   2   3
ATOM      3  CG  PHE A   1     -22.216  -4.467  -9.009  1.00  0.00    -0.056 A 
ATOM      4  CD1 PHE A   1     -20.929  -4.390  -9.562  1.00  0.00     0.007 A 
ATOM      5  CE1 PHE A   1     -19.811  -4.309  -8.731  1.00  0.00     0.001 A 
ATOM      6  CZ  PHE A   1     -19.967  -4.272  -7.347  1.00  0.00     0.000 A 
ATOM      7  CE2 PHE A   1     -21.243  -4.304  -6.791  1.00  0.00     0.001 A 
ATOM      8  CD2 PHE A   1     -22.362  -4.401  -7.616  1.00  0.00     0.007 A 
ENDBRANCH   2   3
ENDBRANCH   1   2
BRANCH   1   9
ATOM      9  C   PHE A   1     -24.228  -2.922 -11.627  1.00  0.00     0.174 C 
ATOM     10  O   PHE A   1     -25.189  -3.057 -12.375  1.00  0.00    -0.648 OA
BRANCH   9  11
ATOM     11  OXT PHE A   1     -23.100  -2.304 -12.040  1.00  0.00    -0.775 OA
ATOM     12  HXT PHE A   1     -22.386  -2.896 -12.347  1.00  0.00     0.167 HD
ENDBRANCH   9  11
ENDBRANCH   1   9
BRANCH   1  13
ATOM     13  N   PHE A   1     -25.648  -3.598  -9.727  1.00  0.00     0.093 N 
ATOM     14  H1  PHE A   1     -25.719  -4.578  -9.430  1.00  0.00     0.314 HD
ATOM     15  H2  PHE A   1     -26.230  -3.581 -10.571  1.00  0.00     0.314 HD
ENDBRANCH   1  13
TORSDOF 5
BEGIN_RES ARG D 557
REMARK  4 active torsions:
REMARK  status: ('A' for Active; 'I' for Inactive)
REMARK    1  A    between atoms: CA   and  CB  
REMARK    2  A    between atoms: CB   and  CG  
REMARK    3  A    between atoms: CG   and  CD  
REMARK    4  A    between atoms: CD   and  NE  
REMARK       I    between atoms: NE   and  CZ  
REMARK       I    between atoms: CZ   and  NH1 
REMARK       I    between atoms: CZ   and  NH2 
ROOT
ATOM      1  CA  ARG D 557     -26.217   2.705 -17.014  1.00 35.49     0.159 C 
ENDROOT
BRANCH   1   2
ATOM      2  CB  ARG D 557     -26.789   1.319 -17.183  1.00 35.49     0.034 C 
BRANCH   2   3
ATOM      3  CG  ARG D 557     -28.215   1.151 -16.877  1.00 35.49     0.027 C 
BRANCH   3   4
ATOM      4  CD  ARG D 557     -28.571  -0.260 -16.602  1.00 35.49     0.116 C 
BRANCH   4   5
ATOM      5  NE  ARG D 557     -27.531  -0.951 -15.886  1.00 35.49    -0.212 N 
ATOM      6  CZ  ARG D 557     -27.282  -2.240 -15.949  1.00 35.49     0.666 C 
ATOM      7  NH1 ARG D 557     -27.994  -3.065 -16.693  1.00 35.49    -0.235 N 
ATOM      8  NH2 ARG D 557     -26.284  -2.693 -15.246  1.00 35.49    -0.235 N 
ATOM      9  HH  ARG D 557     -28.654  -2.788 -17.166  1.00 35.49     0.174 HD
ATOM     10  HH  ARG D 557     -27.783  -3.895 -16.697  1.00 35.49     0.174 HD
ATOM     11  HH  ARG D 557     -25.837  -2.136 -14.780  1.00 35.49     0.174 HD
ATOM     12  HH  ARG D 557     -26.090  -3.519 -15.264  1.00 35.49     0.174 HD
ATOM     13  HE  ARG D 557     -27.070  -0.508 -15.326  1.00 35.49     0.178 HD
ENDBRANCH   4   5
ENDBRANCH   3   4
ENDBRANCH   2   3
ENDBRANCH   1   2
END_RES ARG D 557
BEGIN_RES GLU D 570
REMARK  3 active torsions:
REMARK  status: ('A' for Active; 'I' for Inactive)
REMARK    5  A    between atoms: CA   and  CB  
REMARK    6  A    between atoms: CB   and  CG  
REMARK    7  A    between atoms: CG   and  CD  
ROOT
ATOM     14  CA  GLU D 570     -18.033  -6.348 -13.375  1.00 32.92     0.160 C 
ENDROOT
BRANCH  14  15
ATOM     15  CB  GLU D 570     -19.500  -6.345 -13.794  1.00 32.92     0.043 C 
BRANCH  15  16
ATOM     16  CG  GLU D 570     -20.433  -5.492 -13.014  1.00 32.92     0.100 C 
BRANCH  16  17
ATOM     17  CD  GLU D 570     -21.731  -5.221 -13.739  1.00 32.92     0.185 C 
ATOM     18  OE1 GLU D 570     -22.428  -6.184 -14.112  1.00 32.92    -0.647 OA
ATOM     19  OE2 GLU D 570     -22.045  -4.034 -13.951  1.00 32.92    -0.647 OA
ENDBRANCH  16  17
ENDBRANCH  15  16
ENDBRANCH  14  15
END_RES GLU D 570
ENDMDL
MODEL 4
REMARK VINA RESULT:      -6.5      3.107      6.412
REMARK  5 active torsions:
REMARK  status: ('A' for Active; 'I' for Inactive)
REMARK    1  A    between atoms: CG_4  and  CB_7 
REMARK    2  A    between atoms: CB_7  and  CA_8 
REMARK    3  A    between atoms: CA_8  and  C_9 
REMARK    4  A    between atoms: CA_8  and  N_12 
REMARK    5  A    between atoms: C_9  and  OXT_11 
ROOT
ATOM      1  CA  PHE A   1     -26.183  -6.218 -16.605  1.00  0.00     0.318 C 
ENDROOT
BRANCH   1   2
ATOM      2  CB  PHE A   1     -27.615  -6.465 -16.102  1.00  0.00     0.085 C 
BRANCH   2   3
ATOM      3  CG  PHE A   1     -28.648  -5.489 -16.617  1.00  0.00    -0.056 A 
ATOM      4  CD1 PHE A   1     -28.296  -4.185 -16.995  1.00  0.00     0.007 A 
ATOM      5  CE1 PHE A   1     -29.281  -3.279 -17.390  1.00  0.00     0.001 A 
ATOM      6  CZ  PHE A   1     -30.617  -3.672 -17.439  1.00  0.00     0.000 A 
ATOM      7  CE2 PHE A   1     -30.970  -4.976 -17.107  1.00  0.00     0.001 A 
ATOM      8  CD2 PHE A   1     -29.991  -5.881 -16.698  1.00  0.00     0.007 A 
ENDBRANCH   2   3
ENDBRANCH   1   2
BRANCH   1   9
ATOM      9  C   PHE A   1     -25.104  -6.943 -15.769  1.00  0.00     0.174 C 
ATOM     10  O   PHE A   1     -24.624  -8.025 -16.083  1.00  0.00    -0.648 OA
BRANCH   9  11
ATOM     11  OXT PHE A   1     -24.659  -6.267 -14.687  1.00  0.00    -0.775 OA
ATOM     12  HXT PHE A   1     -25.340  -6.048 -14.020  1.00  0.00     0.167 HD
ENDBRANCH   9  11
ENDBRANCH   1   9
BRANCH   1  13
ATOM     13  N   PHE A   1     -26.099  -6.699 -18.013  1.00  0.00     0.093 N 
ATOM     14  H1  PHE A   1     -26.430  -7.670 -18.026  1.00  0.00     0.314 HD
ATOM     15  H2  PHE A   1     -25.106  -6.801 -18.248  1.00  0.00     0.314 HD
ENDBRANCH   1  13
TORSDOF 5
BEGIN_RES ARG D 557
REMARK  4 active torsions:
REMARK  status: ('A' for Active; 'I' for Inactive)
REMARK    1  A    between atoms: CA   and  CB  
REMARK    2  A    between atoms: CB   and  CG  
REMARK    3  A    between atoms: CG   and  CD  
REMARK    4  A    between atoms: CD   and  NE  
REMARK       I    between atoms: NE   and  CZ  
REMARK       I    between atoms: CZ   and  NH1 
REMARK       I    between atoms: CZ   and  NH2 
ROOT
ATOM      1  CA  ARG D 557     -26.217   2.705 -17.014  1.00 35.49     0.159 C 
ENDROOT
BRANCH   1   2
ATOM      2  CB  ARG D 557     -26.789   1.319 -17.183  1.00 35.49     0.034 C 
BRANCH   2   3
ATOM      3  CG  ARG D 557     -25.865   0.195 -16.989  1.00 35.49     0.027 C 
BRANCH   3   4
ATOM      4  CD  ARG D 557     -26.313  -0.726 -15.920  1.00 35.49     0.116 C 
BRANCH   4   5
ATOM      5  NE  ARG D 557     -25.296  -0.935 -14.923  1.00 35.49    -0.212 N 
ATOM      6  CZ  ARG D 557     -24.992  -2.086 -14.366  1.00 35.49     0.666 C 
ATOM      7  NH1 ARG D 557     -25.621  -3.207 -14.665  1.00 35.49    -0.235 N 
ATOM      8  NH2 ARG D 557     -24.025  -2.093 -13.494  1.00 35.49    -0.235 N 
ATOM      9  HH  ARG D 557     -26.258  -3.225 -15.237  1.00 35.49     0.174 HD
ATOM     10  HH  ARG D 557     -25.377  -3.928 -14.271  1.00 35.49     0.174 HD
ATOM     11  HH  ARG D 557     -23.632  -1.355 -13.326  1.00 35.49     0.174 HD
ATOM     12  HH  ARG D 557     -23.797  -2.817 -13.116  1.00 35.49     0.174 HD
ATOM     13  HE  ARG D 557     -24.890  -0.253 -14.618  1.00 35.49     0.178 HD
ENDBRANCH   4   5
ENDBRANCH   3   4
ENDBRANCH   2   3
ENDBRANCH   1   2
END_RES ARG D 557
BEGIN_RES GLU D 570
REMARK  3 active torsions:
REMARK  status: ('A' for Active; 'I' for Inactive)
REMARK    5  A    between atoms: CA   and  CB  
REMARK    6  A    between atoms: CB   and  CG  
REMARK    7  A    between atoms: CG   and  CD  
ROOT
ATOM     14  CA  GLU D 570     -18.033  -6.348 -13.375  1.00 32.92     0.160 C 
ENDROOT
BRANCH  14  15
ATOM     15  CB  GLU D 570     -19.500  -6.345 -13.794  1.00 32.92     0.043 C 
BRANCH  15  16
ATOM     16  CG  GLU D 570     -20.445  -5.545 -12.973  1.00 32.92     0.100 C 
BRANCH  16  17
ATOM     17  CD  GLU D 570     -21.715  -5.192 -13.711  1.00 32.92     0.185 C 
ATOM     18  OE1 GLU D 570     -22.687  -4.754 -13.068  1.00 32.92    -0.647 OA
ATOM     19  OE2 GLU D 570     -21.743  -5.372 -14.945  1.00 32.92    -0.647 OA
ENDBRANCH  16  17
ENDBRANCH  15  16
ENDBRANCH  14  15
END_RES GLU D 570
ENDMDL
MODEL 5
REMARK VINA RESULT:      -6.4      1.697      2.065
REMARK  5 active torsions:
REMARK  status: ('A' for Active; 'I' for Inactive)
REMARK    1  A    between atoms: CG_4  and  CB_7 
REMARK    2  A    between atoms: CB_7  and  CA_8 
REMARK    3  A    between atoms: CA_8  and  C_9 
REMARK    4  A    between atoms: CA_8  and  N_12 
REMARK    5  A    between atoms: C_9  and  OXT_11 
ROOT
ATOM      1  CA  PHE A   1     -22.431  -4.484 -13.830  1.00  0.00     0.318 C 
ENDROOT
BRANCH   1   2
ATOM      2  CB  PHE A   1     -22.717  -3.405 -12.772  1.00  0.00     0.085 C 
BRANCH   2   3
ATOM      3  CG  PHE A   1     -22.228  -3.734 -11.380  1.00  0.00    -0.056 A 
ATOM      4  CD1 PHE A   1     -23.090  -3.688 -10.274  1.00  0.00     0.007 A 
ATOM      5  CE1 PHE A   1     -22.595  -3.916  -8.989  1.00  0.00     0.001 A 
ATOM      6  CZ  PHE A   1     -21.248  -4.218  -8.799  1.00  0.00     0.000 A 
ATOM      7  CE2 PHE A   1     -20.395  -4.308  -9.895  1.00  0.00     0.001 A 
ATOM      8  CD2 PHE A   1     -20.882  -4.067 -11.180  1.00  0.00     0.007 A 
ENDBRANCH   2   3
ENDBRANCH   1   2
BRANCH   1   9
ATOM      9  C   PHE A   1     -23.672  -5.327 -14.200  1.00  0.00     0.174 C 
ATOM     10  O   PHE A   1     -23.881  -6.448 -13.752  1.00  0.00    -0.648 OA
BRANCH   9  11
ATOM     11  OXT PHE A   1     -24.568  -4.716 -15.005  1.00  0.00    -0.775 OA
ATOM     12  HXT PHE A   1     -25.283  -5.287 -15.348  1.00  0.00     0.167 HD
ENDBRANCH   9  11
ENDBRANCH   1   9
BRANCH   1  13
ATOM     13  N   PHE A   1     -21.932  -3.805 -15.059  1.00  0.00     0.093 N 
ATOM     14  H1  PHE A   1     -22.243  -2.827 -15.018  1.00  0.00     0.314 HD
ATOM     15  H2  PHE A   1     -22.463  -4.172 -15.855  1.00  0.00     0.314 HD
ENDBRANCH   1  13
TORSDOF 5
BEGIN_RES ARG D 557
REMARK  4 active torsions:
REMARK  status: ('A' for Active; 'I' for Inactive)
REMARK    1  A    between atoms: CA   and  CB  
REMARK    2  A    between atoms: CB   and  CG  
REMARK    3  A    between atoms: CG   and  CD  
REMARK    4  A    between atoms: CD   and  NE  
REMARK       I    between atoms: NE   and  CZ  
REMARK       I    between atoms: CZ   and  NH1 
REMARK       I    between atoms: CZ   and  NH2 
ROOT
ATOM      1  CA  ARG D 557     -26.217   2.705 -17.014  1.00 35.49     0.159 C 
ENDROOT
BRANCH   1   2
ATOM      2  CB  ARG D 557     -26.789   1.319 -17.183  1.00 35.49     0.034 C 
BRANCH   2   3
ATOM      3  CG  ARG D 557     -28.243   1.182 -17.037  1.00 35.49     0.027 C 
BRANCH   3   4
ATOM      4  CD  ARG D 557     -28.661  -0.225 -16.845  1.00 35.49     0.116 C 
BRANCH   4   5
ATOM      5  NE  ARG D 557     -27.678  -0.989 -16.122  1.00 35.49    -0.212 N 
ATOM      6  CZ  ARG D 557     -27.530  -2.294 -16.173  1.00 35.49     0.666 C 
ATOM      7  NH1 ARG D 557     -28.306  -3.068 -16.909  1.00 35.49    -0.235 N 
ATOM      8  NH2 ARG D 557     -26.570  -2.817 -15.467  1.00 35.49    -0.235 N 
ATOM      9  HH  ARG D 557     -28.942  -2.745 -17.383  1.00 35.49     0.174 HD
ATOM     10  HH  ARG D 557     -28.160  -3.912 -16.905  1.00 35.49     0.174 HD
ATOM     11  HH  ARG D 557     -26.079  -2.292 -15.007  1.00 35.49     0.174 HD
ATOM     12  HH  ARG D 557     -26.441  -3.655 -15.478  1.00 35.49     0.174 HD
ATOM     13  HE  ARG D 557     -27.182  -0.578 -15.567  1.00 35.49     0.178 HD
ENDBRANCH   4   5
ENDBRANCH   3   4
ENDBRANCH   2   3
ENDBRANCH   1   2
END_RES ARG D 557
BEGIN_RES GLU D 570
REMARK  3 active torsions:
REMARK  status: ('A' for Active; 'I' for Inactive)
REMARK    5  A    between atoms: CA   and  CB  
REMARK    6  A    between atoms: CB   and  CG  
REMARK    7  A    between atoms: CG   and  CD  
ROOT
ATOM     14  CA  GLU D 570     -18.033  -6.348 -13.375  1.00 32.92     0.160 C 
ENDROOT
BRANCH  14  15
ATOM     15  CB  GLU D 570     -19.500  -6.345 -13.794  1.00 32.92     0.043 C 
BRANCH  15  16
ATOM     16  CG  GLU D 570     -20.088  -7.636 -14.235  1.00 32.92     0.100 C 
BRANCH  16  17
ATOM     17  CD  GLU D 570     -20.716  -7.559 -15.608  1.00 32.92     0.185 C 
ATOM     18  OE1 GLU D 570     -21.180  -8.595 -16.120  1.00 32.92    -0.647 OA
ATOM     19  OE2 GLU D 570     -20.728  -6.453 -16.184  1.00 32.92    -0.647 OA
ENDBRANCH  16  17
ENDBRANCH  15  16
ENDBRANCH  14  15
END_RES GLU D 570
ENDMDL
MODEL 6
REMARK VINA RESULT:      -6.1      2.512      3.326
REMARK  5 active torsions:
REMARK  status: ('A' for Active; 'I' for Inactive)
REMARK    1  A    between atoms: CG_4  and  CB_7 
REMARK    2  A    between atoms: CB_7  and  CA_8 
REMARK    3  A    between atoms: CA_8  and  C_9 
REMARK    4  A    between atoms: CA_8  and  N_12 
REMARK    5  A    between atoms: C_9  and  OXT_11 
ROOT
ATOM      1  CA  PHE A   1     -24.429  -6.982 -15.483  1.00  0.00     0.318 C 
ENDROOT
BRANCH   1   2
ATOM      2  CB  PHE A   1     -23.528  -5.747 -15.318  1.00  0.00     0.085 C 
BRANCH   2   3
ATOM      3  CG  PHE A   1     -23.792  -4.928 -14.076  1.00  0.00    -0.056 A 
ATOM      4  CD1 PHE A   1     -24.481  -3.708 -14.139  1.00  0.00     0.007 A 
ATOM      5  CE1 PHE A   1     -24.640  -2.931 -12.990  1.00  0.00     0.001 A 
ATOM      6  CZ  PHE A   1     -24.141  -3.377 -11.767  1.00  0.00     0.000 A 
ATOM      7  CE2 PHE A   1     -23.493  -4.606 -11.688  1.00  0.00     0.001 A 
ATOM      8  CD2 PHE A   1     -23.319  -5.379 -12.836  1.00  0.00     0.007 A 
ENDBRANCH   2   3
ENDBRANCH   1   2
BRANCH   1   9
ATOM      9  C   PHE A   1     -25.875  -6.636 -15.907  1.00  0.00     0.174 C 
ATOM     10  O   PHE A   1     -26.156  -5.683 -16.625  1.00  0.00    -0.648 OA
BRANCH   9  11
ATOM     11  OXT PHE A   1     -26.823  -7.503 -15.490  1.00  0.00    -0.775 OA
ATOM     12  HXT PHE A   1     -27.743  -7.257 -15.711  1.00  0.00     0.167 HD
ENDBRANCH   9  11
ENDBRANCH   1   9
BRANCH   1  13
ATOM     13  N   PHE A   1     -23.825  -7.859 -16.524  1.00  0.00     0.093 N 
ATOM     14  H1  PHE A   1     -23.391  -8.655 -16.042  1.00  0.00     0.314 HD
ATOM     15  H2  PHE A   1     -23.013  -7.368 -16.913  1.00  0.00     0.314 HD
ENDBRANCH   1  13
TORSDOF 5
BEGIN_RES ARG D 557
REMARK  4 active torsions:
REMARK  status: ('A' for Active; 'I' for Inactive)
REMARK    1  A    between atoms: CA   and  CB  
REMARK    2  A    between atoms: CB   and  CG  
REMARK    3  A    between atoms: CG   and  CD  
REMARK    4  A    between atoms: CD   and  NE  
REMARK       I    between atoms: NE   and  CZ  
REMARK       I    between atoms: CZ   and  NH1 
REMARK       I    between atoms: CZ   and  NH2 
ROOT
ATOM      1  CA  ARG D 557     -26.217   2.705 -17.014  1.00 35.49     0.159 C 
ENDROOT
BRANCH   1   2
ATOM      2  CB  ARG D 557     -26.789   1.319 -17.183  1.00 35.49     0.034 C 
BRANCH   2   3
ATOM      3  CG  ARG D 557     -28.231   1.226 -17.441  1.00 35.49     0.027 C 
BRANCH   3   4
ATOM      4  CD  ARG D 557     -28.913   0.302 -16.507  1.00 35.49     0.116 C 
BRANCH   4   5
ATOM      5  NE  ARG D 557     -28.129  -0.874 -16.238  1.00 35.49    -0.212 N 
ATOM      6  CZ  ARG D 557     -28.363  -2.078 -16.709  1.00 35.49     0.666 C 
ATOM      7  NH1 ARG D 557     -29.389  -2.345 -17.496  1.00 35.49    -0.235 N 
ATOM      8  NH2 ARG D 557     -27.533  -3.025 -16.378  1.00 35.49    -0.235 N 
ATOM      9  HH  ARG D 557     -29.947  -1.737 -17.728  1.00 35.49     0.174 HD
ATOM     10  HH  ARG D 557     -29.490  -3.148 -17.775  1.00 35.49     0.174 HD
ATOM     11  HH  ARG D 557     -26.875  -2.822 -15.875  1.00 35.49     0.174 HD
ATOM     12  HH  ARG D 557     -27.650  -3.814 -16.666  1.00 35.49     0.174 HD
ATOM     13  HE  ARG D 557     -27.489  -0.809 -15.681  1.00 35.49     0.178 HD
ENDBRANCH   4   5
ENDBRANCH   3   4
ENDBRANCH   2   3
ENDBRANCH   1   2
END_RES ARG D 557
BEGIN_RES GLU D 570
REMARK  3 active torsions:
REMARK  status: ('A' for Active; 'I' for Inactive)
REMARK    5  A    between atoms: CA   and  CB  
REMARK    6  A    between atoms: CB   and  CG  
REMARK    7  A    between atoms: CG   and  CD  
ROOT
ATOM     14  CA  GLU D 570     -18.033  -6.348 -13.375  1.00 32.92     0.160 C 
ENDROOT
BRANCH  14  15
ATOM     15  CB  GLU D 570     -19.500  -6.345 -13.794  1.00 32.92     0.043 C 
BRANCH  15  16
ATOM     16  CG  GLU D 570     -20.086  -7.634 -14.243  1.00 32.92     0.100 C 
BRANCH  16  17
ATOM     17  CD  GLU D 570     -20.466  -7.632 -15.705  1.00 32.92     0.185 C 
ATOM     18  OE1 GLU D 570     -20.842  -8.695 -16.234  1.00 32.92    -0.647 OA
ATOM     19  OE2 GLU D 570     -20.370  -6.559 -16.332  1.00 32.92    -0.647 OA
ENDBRANCH  16  17
ENDBRANCH  15  16
ENDBRANCH  14  15
END_RES GLU D 570
ENDMDL
MODEL 7
REMARK VINA RESULT:      -6.0      4.526      6.265
REMARK  5 active torsions:
REMARK  status: ('A' for Active; 'I' for Inactive)
REMARK    1  A    between atoms: CG_4  and  CB_7 
REMARK    2  A    between atoms: CB_7  and  CA_8 
REMARK    3  A    between atoms: CA_8  and  C_9 
REMARK    4  A    between atoms: CA_8  and  N_12 
REMARK    5  A    between atoms: C_9  and  OXT_11 
ROOT
ATOM      1  CA  PHE A   1     -20.540  -6.085  -5.300  1.00  0.00     0.318 C 
ENDROOT
BRANCH   1   2
ATOM      2  CB  PHE A   1     -20.225  -4.694  -5.875  1.00  0.00     0.085 C 
BRANCH   2   3
ATOM      3  CG  PHE A   1     -20.737  -4.454  -7.276  1.00  0.00    -0.056 A 
ATOM      4  CD1 PHE A   1     -19.884  -4.522  -8.387  1.00  0.00     0.007 A 
ATOM      5  CE1 PHE A   1     -20.364  -4.215  -9.661  1.00  0.00     0.001 A 
ATOM      6  CZ  PHE A   1     -21.701  -3.868  -9.842  1.00  0.00     0.000 A 
ATOM      7  CE2 PHE A   1     -22.565  -3.839  -8.752  1.00  0.00     0.001 A 
ATOM      8  CD2 PHE A   1     -22.086  -4.130  -7.475  1.00  0.00     0.007 A 
ENDBRANCH   2   3
ENDBRANCH   1   2
BRANCH   1   9
ATOM      9  C   PHE A   1     -21.845  -6.127  -4.473  1.00  0.00     0.174 C 
ATOM     10  O   PHE A   1     -22.946  -6.352  -4.963  1.00  0.00    -0.648 OA
BRANCH   9  11
ATOM     11  OXT PHE A   1     -21.691  -5.968  -3.140  1.00  0.00    -0.775 OA
ATOM     12  HXT PHE A   1     -21.982  -5.106  -2.783  1.00  0.00     0.167 HD
ENDBRANCH   9  11
ENDBRANCH   1   9
BRANCH   1  13
ATOM     13  N   PHE A   1     -20.667  -7.038  -6.438  1.00  0.00     0.093 N 
ATOM     14  H1  PHE A   1     -19.775  -7.031  -6.946  1.00  0.00     0.314 HD
ATOM     15  H2  PHE A   1     -21.312  -6.626  -7.120  1.00  0.00     0.314 HD
ENDBRANCH   1  13
TORSDOF 5
BEGIN_RES ARG D 557
REMARK  4 active torsions:
REMARK  status: ('A' for Active; 'I' for Inactive)
REMARK    1  A    between atoms: CA   and  CB  
REMARK    2  A    between atoms: CB   and  CG  
REMARK    3  A    between atoms: CG   and  CD  
REMARK    4  A    between atoms: CD   and  NE  
REMARK       I    between atoms: NE   and  CZ  
REMARK       I    between atoms: CZ   and  NH1 
REMARK       I    between atoms: CZ   and  NH2 
ROOT
ATOM      1  CA  ARG D 557     -26.217   2.705 -17.014  1.00 35.49     0.159 C 
ENDROOT
BRANCH   1   2
ATOM      2  CB  ARG D 557     -26.789   1.319 -17.183  1.00 35.49     0.034 C 
BRANCH   2   3
ATOM      3  CG  ARG D 557     -25.837   0.202 -17.145  1.00 35.49     0.027 C 
BRANCH   3   4
ATOM      4  CD  ARG D 557     -24.755   0.416 -16.157  1.00 35.49     0.116 C 
BRANCH   4   5
ATOM      5  NE  ARG D 557     -24.895  -0.436 -15.007  1.00 35.49    -0.212 N 
ATOM      6  CZ  ARG D 557     -24.077  -1.407 -14.666  1.00 35.49     0.666 C 
ATOM      7  NH1 ARG D 557     -23.011  -1.720 -15.380  1.00 35.49    -0.235 N 
ATOM      8  NH2 ARG D 557     -24.347  -2.065 -13.576  1.00 35.49    -0.235 N 
ATOM      9  HH  ARG D 557     -22.813  -1.299 -16.099  1.00 35.49     0.174 HD
ATOM     10  HH  ARG D 557     -22.513  -2.361 -15.107  1.00 35.49     0.174 HD
ATOM     11  HH  ARG D 557     -25.038  -1.836 -13.131  1.00 35.49     0.174 HD
ATOM     12  HH  ARG D 557     -23.841  -2.696 -13.322  1.00 35.49     0.174 HD
ATOM     13  HE  ARG D 557     -25.594  -0.352 -14.530  1.00 35.49     0.178 HD
ENDBRANCH   4   5
ENDBRANCH   3   4
ENDBRANCH   2   3
ENDBRANCH   1   2
END_RES ARG D 557
BEGIN_RES GLU D 570
REMARK  3 active torsions:
REMARK  status: ('A' for Active; 'I' for Inactive)
REMARK    5  A    between atoms: CA   and  CB  
REMARK    6  A    between atoms: CB   and  CG  
REMARK    7  A    between atoms: CG   and  CD  
ROOT
ATOM     14  CA  GLU D 570     -18.033  -6.348 -13.375  1.00 32.92     0.160 C 
ENDROOT
BRANCH  14  15
ATOM     15  CB  GLU D 570     -19.500  -6.345 -13.794  1.00 32.92     0.043 C 
BRANCH  15  16
ATOM     16  CG  GLU D 570     -20.446  -5.552 -12.968  1.00 32.92     0.100 C 
BRANCH  16  17
ATOM     17  CD  GLU D 570     -21.737  -5.238 -13.688  1.00 32.92     0.185 C 
ATOM     18  OE1 GLU D 570     -22.269  -4.124 -13.518  1.00 32.92    -0.647 OA
ATOM     19  OE2 GLU D 570     -22.230  -6.122 -14.416  1.00 32.92    -0.647 OA
ENDBRANCH  16  17
ENDBRANCH  15  16
ENDBRANCH  14  15
END_RES GLU D 570
ENDMDL
MODEL 8
REMARK VINA RESULT:      -5.9      4.606      8.117
REMARK  5 active torsions:
REMARK  status: ('A' for Active; 'I' for Inactive)
REMARK    1  A    between atoms: CG_4  and  CB_7 
REMARK    2  A    between atoms: CB_7  and  CA_8 
REMARK    3  A    between atoms: CA_8  and  C_9 
REMARK    4  A    between atoms: CA_8  and  N_12 
REMARK    5  A    between atoms: C_9  and  OXT_11 
ROOT
ATOM      1  CA  PHE A   1     -33.075  -4.430 -16.779  1.00  0.00     0.318 C 
ENDROOT
BRANCH   1   2
ATOM      2  CB  PHE A   1     -31.631  -4.526 -16.257  1.00  0.00     0.085 C 
BRANCH   2   3
ATOM      3  CG  PHE A   1     -30.681  -5.292 -17.149  1.00  0.00    -0.056 A 
ATOM      4  CD1 PHE A   1     -30.821  -6.673 -17.349  1.00  0.00     0.007 A 
ATOM      5  CE1 PHE A   1     -29.882  -7.370 -18.111  1.00  0.00     0.001 A 
ATOM      6  CZ  PHE A   1     -28.817  -6.694 -18.703  1.00  0.00     0.000 A 
ATOM      7  CE2 PHE A   1     -28.695  -5.316 -18.545  1.00  0.00     0.001 A 
ATOM      8  CD2 PHE A   1     -29.622  -4.618 -17.771  1.00  0.00     0.007 A 
ENDBRANCH   2   3
ENDBRANCH   1   2
BRANCH   1   9
ATOM      9  C   PHE A   1     -34.136  -4.435 -15.655  1.00  0.00     0.174 C 
ATOM     10  O   PHE A   1     -34.246  -3.537 -14.829  1.00  0.00    -0.648 OA
BRANCH   9  11
ATOM     11  OXT PHE A   1     -35.001  -5.473 -15.681  1.00  0.00    -0.775 OA
ATOM     12  HXT PHE A   1     -34.624  -6.339 -15.430  1.00  0.00     0.167 HD
ENDBRANCH   9  11
ENDBRANCH   1   9
BRANCH   1  13
ATOM     13  N   PHE A   1     -33.204  -3.163 -17.551  1.00  0.00     0.093 N 
ATOM     14  H1  PHE A   1     -32.439  -3.141 -18.236  1.00  0.00     0.314 HD
ATOM     15  H2  PHE A   1     -32.961  -2.390 -16.924  1.00  0.00     0.314 HD
ENDBRANCH   1  13
TORSDOF 5
BEGIN_RES ARG D 557
REMARK  4 active torsions:
REMARK  status: ('A' for Active; 'I' for Inactive)
REMARK    1  A    between atoms: CA   and  CB  
REMARK    2  A    between atoms: CB   and  CG  
REMARK    3  A    between atoms: CG   and  CD  
REMARK    4  A    between atoms: CD   and  NE  
REMARK       I    between atoms: NE   and  CZ  
REMARK       I    between atoms: CZ   and  NH1 
REMARK       I    between atoms: CZ   and  NH2 
ROOT
ATOM      1  CA  ARG D 557     -26.217   2.705 -17.014  1.00 35.49     0.159 C 
ENDROOT
BRANCH   1   2
ATOM      2  CB  ARG D 557     -26.789   1.319 -17.183  1.00 35.49     0.034 C 
BRANCH   2   3
ATOM      3  CG  ARG D 557     -25.864   0.195 -16.994  1.00 35.49     0.027 C 
BRANCH   3   4
ATOM      4  CD  ARG D 557     -26.280  -0.698 -15.889  1.00 35.49     0.116 C 
BRANCH   4   5
ATOM      5  NE  ARG D 557     -25.224  -0.908 -14.934  1.00 35.49    -0.212 N 
ATOM      6  CZ  ARG D 557     -24.925  -2.051 -14.358  1.00 35.49     0.666 C 
ATOM      7  NH1 ARG D 557     -25.596  -3.162 -14.596  1.00 35.49    -0.235 N 
ATOM      8  NH2 ARG D 557     -23.919  -2.061 -13.531  1.00 35.49    -0.235 N 
ATOM      9  HH  ARG D 557     -26.260  -3.179 -15.138  1.00 35.49     0.174 HD
ATOM     10  HH  ARG D 557     -25.354  -3.878 -14.193  1.00 35.49     0.174 HD
ATOM     11  HH  ARG D 557     -23.499  -1.330 -13.403  1.00 35.49     0.174 HD
ATOM     12  HH  ARG D 557     -23.694  -2.781 -13.144  1.00 35.49     0.174 HD
ATOM     13  HE  ARG D 557     -24.786  -0.229 -14.667  1.00 35.49     0.178 HD
ENDBRANCH   4   5
ENDBRANCH   3   4
ENDBRANCH   2   3
ENDBRANCH   1   2
END_RES ARG D 557
BEGIN_RES GLU D 570
REMARK  3 active torsions:
REMARK  status: ('A' for Active; 'I' for Inactive)
REMARK    5  A    between atoms: CA   and  CB  
REMARK    6  A    between atoms: CB   and  CG  
REMARK    7  A    between atoms: CG   and  CD  
ROOT
ATOM     14  CA  GLU D 570     -18.033  -6.348 -13.375  1.00 32.92     0.160 C 
ENDROOT
BRANCH  14  15
ATOM     15  CB  GLU D 570     -19.500  -6.345 -13.794  1.00 32.92     0.043 C 
BRANCH  15  16
ATOM     16  CG  GLU D 570     -20.448  -5.560 -12.962  1.00 32.92     0.100 C 
BRANCH  16  17
ATOM     17  CD  GLU D 570     -21.682  -5.131 -13.720  1.00 32.92     0.185 C 
ATOM     18  OE1 GLU D 570     -22.715  -4.847 -13.084  1.00 32.92    -0.647 OA
ATOM     19  OE2 GLU D 570     -21.620  -5.093 -14.965  1.00 32.92    -0.647 OA
ENDBRANCH  16  17
ENDBRANCH  15  16
ENDBRANCH  14  15
END_RES GLU D 570
ENDMDL
MODEL 9
REMARK VINA RESULT:      -5.6      5.585      7.047
REMARK  5 active torsions:
REMARK  status: ('A' for Active; 'I' for Inactive)
REMARK    1  A    between atoms: CG_4  and  CB_7 
REMARK    2  A    between atoms: CB_7  and  CA_8 
REMARK    3  A    between atoms: CA_8  and  C_9 
REMARK    4  A    between atoms: CA_8  and  N_12 
REMARK    5  A    between atoms: C_9  and  OXT_11 
ROOT
ATOM      1  CA  PHE A   1     -21.916  -6.358  -5.500  1.00  0.00     0.318 C 
ENDROOT
BRANCH   1   2
ATOM      2  CB  PHE A   1     -21.095  -5.877  -4.291  1.00  0.00     0.085 C 
BRANCH   2   3
ATOM      3  CG  PHE A   1     -21.326  -6.655  -3.016  1.00  0.00    -0.056 A 
ATOM      4  CD1 PHE A   1     -22.223  -6.203  -2.037  1.00  0.00     0.007 A 
ATOM      5  CE1 PHE A   1     -22.356  -6.896  -0.833  1.00  0.00     0.001 A 
ATOM      6  CZ  PHE A   1     -21.621  -8.058  -0.607  1.00  0.00     0.000 A 
ATOM      7  CE2 PHE A   1     -20.760  -8.537  -1.590  1.00  0.00     0.001 A 
ATOM      8  CD2 PHE A   1     -20.612  -7.840  -2.789  1.00  0.00     0.007 A 
ENDBRANCH   2   3
ENDBRANCH   1   2
BRANCH   1   9
ATOM      9  C   PHE A   1     -22.356  -5.211  -6.438  1.00  0.00     0.174 C 
ATOM     10  O   PHE A   1     -21.598  -4.657  -7.225  1.00  0.00    -0.648 OA
BRANCH   9  11
ATOM     11  OXT PHE A   1     -23.670  -4.899  -6.392  1.00  0.00    -0.775 OA
ATOM     12  HXT PHE A   1     -24.219  -5.286  -7.102  1.00  0.00     0.167 HD
ENDBRANCH   9  11
ENDBRANCH   1   9
BRANCH   1  13
ATOM     13  N   PHE A   1     -21.078  -7.314  -6.276  1.00  0.00     0.093 N 
ATOM     14  H1  PHE A   1     -21.663  -8.129  -6.495  1.00  0.00     0.314 HD
ATOM     15  H2  PHE A   1     -20.381  -7.709  -5.636  1.00  0.00     0.314 HD
ENDBRANCH   1  13
TORSDOF 5
BEGIN_RES ARG D 557
REMARK  4 active torsions:
REMARK  status: ('A' for Active; 'I' for Inactive)
REMARK    1  A    between atoms: CA   and  CB  
REMARK    2  A    between atoms: CB   and  CG  
REMARK    3  A    between atoms: CG   and  CD  
REMARK    4  A    between atoms: CD   and  NE  
REMARK       I    between atoms: NE   and  CZ  
REMARK       I    between atoms: CZ   and  NH1 
REMARK       I    between atoms: CZ   and  NH2 
ROOT
ATOM      1  CA  ARG D 557     -26.217   2.705 -17.014  1.00 35.49     0.159 C 
ENDROOT
BRANCH   1   2
ATOM      2  CB  ARG D 557     -26.789   1.319 -17.183  1.00 35.49     0.034 C 
BRANCH   2   3
ATOM      3  CG  ARG D 557     -25.865   0.195 -16.990  1.00 35.49     0.027 C 
BRANCH   3   4
ATOM      4  CD  ARG D 557     -26.302  -0.716 -15.907  1.00 35.49     0.116 C 
BRANCH   4   5
ATOM      5  NE  ARG D 557     -25.265  -0.939 -14.935  1.00 35.49    -0.212 N 
ATOM      6  CZ  ARG D 557     -24.984  -2.088 -14.362  1.00 35.49     0.666 C 
ATOM      7  NH1 ARG D 557     -25.660  -3.193 -14.619  1.00 35.49    -0.235 N 
ATOM      8  NH2 ARG D 557     -23.995  -2.111 -13.517  1.00 35.49    -0.235 N 
ATOM      9  HH  ARG D 557     -26.313  -3.201 -15.173  1.00 35.49     0.174 HD
ATOM     10  HH  ARG D 557     -25.429  -3.914 -14.217  1.00 35.49     0.174 HD
ATOM     11  HH  ARG D 557     -23.572  -1.384 -13.376  1.00 35.49     0.174 HD
ATOM     12  HH  ARG D 557     -23.781  -2.835 -13.130  1.00 35.49     0.174 HD
ATOM     13  HE  ARG D 557     -24.828  -0.266 -14.656  1.00 35.49     0.178 HD
ENDBRANCH   4   5
ENDBRANCH   3   4
ENDBRANCH   2   3
ENDBRANCH   1   2
END_RES ARG D 557
BEGIN_RES GLU D 570
REMARK  3 active torsions:
REMARK  status: ('A' for Active; 'I' for Inactive)
REMARK    5  A    between atoms: CA   and  CB  
REMARK    6  A    between atoms: CB   and  CG  
REMARK    7  A    between atoms: CG   and  CD  
ROOT
ATOM     14  CA  GLU D 570     -18.033  -6.348 -13.375  1.00 32.92     0.160 C 
ENDROOT
BRANCH  14  15
ATOM     15  CB  GLU D 570     -19.500  -6.345 -13.794  1.00 32.92     0.043 C 
BRANCH  15  16
ATOM     16  CG  GLU D 570     -20.451  -5.573 -12.953  1.00 32.92     0.100 C 
BRANCH  16  17
ATOM     17  CD  GLU D 570     -21.675  -5.118 -13.713  1.00 32.92     0.185 C 
ATOM     18  OE1 GLU D 570     -21.615  -5.020 -14.953  1.00 32.92    -0.647 OA
ATOM     19  OE2 GLU D 570     -22.699  -4.840 -13.058  1.00 32.92    -0.647 OA
ENDBRANCH  16  17
ENDBRANCH  15  16
ENDBRANCH  14  15
END_RES GLU D 570
ENDMDL
