MODEL 1
REMARK VINA RESULT:      -4.7      0.000      0.000
REMARK  22 active torsions:
REMARK  status: ('A' for Active; 'I' for Inactive)
REMARK    1  A    between atoms: C_2  and  C_4 
REMARK    2  A    between atoms: C_4  and  C_5 
REMARK    3  A    between atoms: C_5  and  C_6 
REMARK    4  A    between atoms: C_6  and  C_7 
REMARK    5  A    between atoms: C_7  and  C_8 
REMARK    6  A    between atoms: C_8  and  C_9 
REMARK    7  A    between atoms: C_9  and  C_10 
REMARK    8  A    between atoms: C_10  and  C_11 
REMARK    9  A    between atoms: C_11  and  C_12 
REMARK   10  A    between atoms: C_12  and  C_13 
REMARK   11  A    between atoms: C_13  and  C_14 
REMARK   12  A    between atoms: C_14  and  C_15 
REMARK   13  A    between atoms: C_15  and  C_16 
REMARK   14  A    between atoms: C_16  and  C_17 
REMARK   15  A    between atoms: C_17  and  C_18 
REMARK       I    between atoms: C_18  and  N_20 
REMARK   16  A    between atoms: N_20  and  C_21 
REMARK   17  A    between atoms: C_21  and  C_22 
REMARK   18  A    between atoms: C_22  and  C_23 
REMARK   19  A    between atoms: C_23  and  N_24 
REMARK   20  A    between atoms: C_32  and  C_33 
REMARK   21  A    between atoms: C_32  and  O_36 
REMARK   22  A    between atoms: C_33  and  O_35 
ROOT
HETATM    1  C   UNL     2     -22.857  -4.729  -9.885  1.00  0.00     0.050 C 
HETATM    2  C   UNL     2     -23.712  -3.667  -9.208  1.00  0.00     0.211 C 
ENDROOT
BRANCH   2   3
HETATM    3  C   UNL     2     -24.911  -3.354 -10.137  1.00  0.00     0.169 C 
HETATM    4  O   UNL     2     -24.834  -3.206 -11.349  1.00  0.00    -0.648 OA
BRANCH   3   5
HETATM    5  O   UNL     2     -26.112  -3.259  -9.535  1.00  0.00    -0.775 OA
HETATM    6  H   UNL     2     -26.390  -2.322  -9.680  1.00  0.00     0.167 HD
ENDBRANCH   3   5
ENDBRANCH   2   3
BRANCH   2   7
HETATM    7  O   UNL     2     -23.914  -4.096  -7.867  1.00  0.00    -0.385 OA
HETATM    8  H   UNL     2     -24.866  -4.020  -7.679  1.00  0.00     0.210 HD
ENDBRANCH   2   7
TORSDOF 22
BEGIN_RES ARG D 557
REMARK  4 active torsions:
REMARK  status: ('A' for Active; 'I' for Inactive)
REMARK    1  A    between atoms: CA   and  CB  
REMARK    2  A    between atoms: CB   and  CG  
REMARK    3  A    between atoms: CG   and  CD  
REMARK    4  A    between atoms: CD   and  NE  
REMARK       I    between atoms: NE   and  CZ  
REMARK       I    between atoms: CZ   and  NH1 
REMARK       I    between atoms: CZ   and  NH2 
ROOT
ATOM      1  CA  ARG D 557     -26.217   2.705 -17.014  1.00 35.49     0.159 C 
ENDROOT
BRANCH   1   2
ATOM      2  CB  ARG D 557     -26.789   1.319 -17.183  1.00 35.49     0.034 C 
BRANCH   2   3
ATOM      3  CG  ARG D 557     -25.851   0.197 -17.053  1.00 35.49     0.027 C 
BRANCH   3   4
ATOM      4  CD  ARG D 557     -26.179  -0.682 -15.907  1.00 35.49     0.116 C 
BRANCH   4   5
ATOM      5  NE  ARG D 557     -25.093  -0.778 -14.969  1.00 35.49    -0.212 N 
ATOM      6  CZ  ARG D 557     -24.697  -1.874 -14.361  1.00 35.49     0.666 C 
ATOM      7  NH1 ARG D 557     -25.287  -3.040 -14.547  1.00 35.49    -0.235 N 
ATOM      8  NH2 ARG D 557     -23.678  -1.780 -13.557  1.00 35.49    -0.235 N 
ATOM      9  HH  ARG D 557     -25.958  -3.126 -15.073  1.00 35.49     0.174 HD
ATOM     10  HH  ARG D 557     -24.984  -3.722 -14.125  1.00 35.49     0.174 HD
ATOM     11  HH  ARG D 557     -23.312  -1.016 -13.462  1.00 35.49     0.174 HD
ATOM     12  HH  ARG D 557     -23.391  -2.467 -13.150  1.00 35.49     0.174 HD
ATOM     13  HE  ARG D 557     -24.702  -0.060 -14.735  1.00 35.49     0.178 HD
ENDBRANCH   4   5
ENDBRANCH   3   4
ENDBRANCH   2   3
ENDBRANCH   1   2
END_RES ARG D 557
BEGIN_RES GLU D 570
REMARK  3 active torsions:
REMARK  status: ('A' for Active; 'I' for Inactive)
REMARK    5  A    between atoms: CA   and  CB  
REMARK    6  A    between atoms: CB   and  CG  
REMARK    7  A    between atoms: CG   and  CD  
ROOT
ATOM     14  CA  GLU D 570     -18.033  -6.348 -13.375  1.00 32.92     0.160 C 
ENDROOT
BRANCH  14  15
ATOM     15  CB  GLU D 570     -19.500  -6.345 -13.794  1.00 32.92     0.043 C 
BRANCH  15  16
ATOM     16  CG  GLU D 570     -20.438  -5.514 -12.996  1.00 32.92     0.100 C 
BRANCH  16  17
ATOM     17  CD  GLU D 570     -21.780  -5.330 -13.667  1.00 32.92     0.185 C 
ATOM     18  OE1 GLU D 570     -22.185  -6.203 -14.458  1.00 32.92    -0.647 OA
ATOM     19  OE2 GLU D 570     -22.425  -4.295 -13.411  1.00 32.92    -0.647 OA
ENDBRANCH  16  17
ENDBRANCH  15  16
ENDBRANCH  14  15
END_RES GLU D 570
ENDMDL
MODEL 2
REMARK VINA RESULT:      -4.6      3.700      4.441
REMARK  22 active torsions:
REMARK  status: ('A' for Active; 'I' for Inactive)
REMARK    1  A    between atoms: C_2  and  C_4 
REMARK    2  A    between atoms: C_4  and  C_5 
REMARK    3  A    between atoms: C_5  and  C_6 
REMARK    4  A    between atoms: C_6  and  C_7 
REMARK    5  A    between atoms: C_7  and  C_8 
REMARK    6  A    between atoms: C_8  and  C_9 
REMARK    7  A    between atoms: C_9  and  C_10 
REMARK    8  A    between atoms: C_10  and  C_11 
REMARK    9  A    between atoms: C_11  and  C_12 
REMARK   10  A    between atoms: C_12  and  C_13 
REMARK   11  A    between atoms: C_13  and  C_14 
REMARK   12  A    between atoms: C_14  and  C_15 
REMARK   13  A    between atoms: C_15  and  C_16 
REMARK   14  A    between atoms: C_16  and  C_17 
REMARK   15  A    between atoms: C_17  and  C_18 
REMARK       I    between atoms: C_18  and  N_20 
REMARK   16  A    between atoms: N_20  and  C_21 
REMARK   17  A    between atoms: C_21  and  C_22 
REMARK   18  A    between atoms: C_22  and  C_23 
REMARK   19  A    between atoms: C_23  and  N_24 
REMARK   20  A    between atoms: C_32  and  C_33 
REMARK   21  A    between atoms: C_32  and  O_36 
REMARK   22  A    between atoms: C_33  and  O_35 
ROOT
HETATM    1  C   UNL     2     -23.252  -2.470 -13.063  1.00  0.00     0.050 C 
HETATM    2  C   UNL     2     -23.675  -2.562 -14.523  1.00  0.00     0.211 C 
ENDROOT
BRANCH   2   3
HETATM    3  C   UNL     2     -24.887  -1.621 -14.731  1.00  0.00     0.169 C 
HETATM    4  O   UNL     2     -26.047  -1.993 -14.852  1.00  0.00    -0.648 OA
BRANCH   3   5
HETATM    5  O   UNL     2     -24.610  -0.304 -14.761  1.00  0.00    -0.775 OA
HETATM    6  H   UNL     2     -24.936  -0.000 -15.644  1.00  0.00     0.167 HD
ENDBRANCH   3   5
ENDBRANCH   2   3
BRANCH   2   7
HETATM    7  O   UNL     2     -22.494  -2.423 -15.303  1.00  0.00    -0.385 OA
HETATM    8  H   UNL     2     -21.747  -2.344 -14.684  1.00  0.00     0.210 HD
ENDBRANCH   2   7
TORSDOF 22
BEGIN_RES ARG D 557
REMARK  4 active torsions:
REMARK  status: ('A' for Active; 'I' for Inactive)
REMARK    1  A    between atoms: CA   and  CB  
REMARK    2  A    between atoms: CB   and  CG  
REMARK    3  A    between atoms: CG   and  CD  
REMARK    4  A    between atoms: CD   and  NE  
REMARK       I    between atoms: NE   and  CZ  
REMARK       I    between atoms: CZ   and  NH1 
REMARK       I    between atoms: CZ   and  NH2 
ROOT
ATOM      1  CA  ARG D 557     -26.217   2.705 -17.014  1.00 35.49     0.159 C 
ENDROOT
BRANCH   1   2
ATOM      2  CB  ARG D 557     -26.789   1.319 -17.183  1.00 35.49     0.034 C 
BRANCH   2   3
ATOM      3  CG  ARG D 557     -28.135   1.089 -16.644  1.00 35.49     0.027 C 
BRANCH   3   4
ATOM      4  CD  ARG D 557     -28.797  -0.084 -17.259  1.00 35.49     0.116 C 
BRANCH   4   5
ATOM      5  NE  ARG D 557     -28.193  -1.324 -16.848  1.00 35.49    -0.212 N 
ATOM      6  CZ  ARG D 557     -28.691  -2.524 -17.047  1.00 35.49     0.666 C 
ATOM      7  NH1 ARG D 557     -29.847  -2.720 -17.654  1.00 35.49    -0.235 N 
ATOM      8  NH2 ARG D 557     -27.996  -3.540 -16.625  1.00 35.49    -0.235 N 
ATOM      9  HH  ARG D 557     -30.320  -2.066 -17.941  1.00 35.49     0.174 HD
ATOM     10  HH  ARG D 557     -30.120  -3.526 -17.757  1.00 35.49     0.174 HD
ATOM     11  HH  ARG D 557     -27.249  -3.383 -16.243  1.00 35.49     0.174 HD
ATOM     12  HH  ARG D 557     -28.283  -4.330 -16.738  1.00 35.49     0.174 HD
ATOM     13  HE  ARG D 557     -27.480  -1.287 -16.385  1.00 35.49     0.178 HD
ENDBRANCH   4   5
ENDBRANCH   3   4
ENDBRANCH   2   3
ENDBRANCH   1   2
END_RES ARG D 557
BEGIN_RES GLU D 570
REMARK  3 active torsions:
REMARK  status: ('A' for Active; 'I' for Inactive)
REMARK    5  A    between atoms: CA   and  CB  
REMARK    6  A    between atoms: CB   and  CG  
REMARK    7  A    between atoms: CG   and  CD  
ROOT
ATOM     14  CA  GLU D 570     -18.033  -6.348 -13.375  1.00 32.92     0.160 C 
ENDROOT
BRANCH  14  15
ATOM     15  CB  GLU D 570     -19.500  -6.345 -13.794  1.00 32.92     0.043 C 
BRANCH  15  16
ATOM     16  CG  GLU D 570     -19.800  -6.147 -15.236  1.00 32.92     0.100 C 
BRANCH  16  17
ATOM     17  CD  GLU D 570     -21.151  -5.515 -15.475  1.00 32.92     0.185 C 
ATOM     18  OE1 GLU D 570     -21.399  -5.020 -16.592  1.00 32.92    -0.647 OA
ATOM     19  OE2 GLU D 570     -21.965  -5.499 -14.531  1.00 32.92    -0.647 OA
ENDBRANCH  16  17
ENDBRANCH  15  16
ENDBRANCH  14  15
END_RES GLU D 570
ENDMDL
MODEL 3
REMARK VINA RESULT:      -4.6      1.036      1.746
REMARK  22 active torsions:
REMARK  status: ('A' for Active; 'I' for Inactive)
REMARK    1  A    between atoms: C_2  and  C_4 
REMARK    2  A    between atoms: C_4  and  C_5 
REMARK    3  A    between atoms: C_5  and  C_6 
REMARK    4  A    between atoms: C_6  and  C_7 
REMARK    5  A    between atoms: C_7  and  C_8 
REMARK    6  A    between atoms: C_8  and  C_9 
REMARK    7  A    between atoms: C_9  and  C_10 
REMARK    8  A    between atoms: C_10  and  C_11 
REMARK    9  A    between atoms: C_11  and  C_12 
REMARK   10  A    between atoms: C_12  and  C_13 
REMARK   11  A    between atoms: C_13  and  C_14 
REMARK   12  A    between atoms: C_14  and  C_15 
REMARK   13  A    between atoms: C_15  and  C_16 
REMARK   14  A    between atoms: C_16  and  C_17 
REMARK   15  A    between atoms: C_17  and  C_18 
REMARK       I    between atoms: C_18  and  N_20 
REMARK   16  A    between atoms: N_20  and  C_21 
REMARK   17  A    between atoms: C_21  and  C_22 
REMARK   18  A    between atoms: C_22  and  C_23 
REMARK   19  A    between atoms: C_23  and  N_24 
REMARK   20  A    between atoms: C_32  and  C_33 
REMARK   21  A    between atoms: C_32  and  O_36 
REMARK   22  A    between atoms: C_33  and  O_35 
ROOT
HETATM    1  C   UNL     2     -21.915  -4.095  -9.485  1.00  0.00     0.050 C 
HETATM    2  C   UNL     2     -23.054  -3.768 -10.441  1.00  0.00     0.211 C 
ENDROOT
BRANCH   2   3
HETATM    3  C   UNL     2     -24.336  -3.547  -9.601  1.00  0.00     0.169 C 
HETATM    4  O   UNL     2     -25.404  -3.151 -10.049  1.00  0.00    -0.648 OA
BRANCH   3   5
HETATM    5  O   UNL     2     -24.237  -3.836  -8.290  1.00  0.00    -0.775 OA
HETATM    6  H   UNL     2     -23.801  -4.722  -8.262  1.00  0.00     0.167 HD
ENDBRANCH   3   5
ENDBRANCH   2   3
BRANCH   2   7
HETATM    7  O   UNL     2     -22.572  -2.763 -11.325  1.00  0.00    -0.385 OA
HETATM    8  H   UNL     2     -21.991  -2.178 -10.808  1.00  0.00     0.210 HD
ENDBRANCH   2   7
TORSDOF 22
BEGIN_RES ARG D 557
REMARK  4 active torsions:
REMARK  status: ('A' for Active; 'I' for Inactive)
REMARK    1  A    between atoms: CA   and  CB  
REMARK    2  A    between atoms: CB   and  CG  
REMARK    3  A    between atoms: CG   and  CD  
REMARK    4  A    between atoms: CD   and  NE  
REMARK       I    between atoms: NE   and  CZ  
REMARK       I    between atoms: CZ   and  NH1 
REMARK       I    between atoms: CZ   and  NH2 
ROOT
ATOM      1  CA  ARG D 557     -26.217   2.705 -17.014  1.00 35.49     0.159 C 
ENDROOT
BRANCH   1   2
ATOM      2  CB  ARG D 557     -26.789   1.319 -17.183  1.00 35.49     0.034 C 
BRANCH   2   3
ATOM      3  CG  ARG D 557     -25.836   0.203 -17.154  1.00 35.49     0.027 C 
BRANCH   3   4
ATOM      4  CD  ARG D 557     -24.753   0.411 -16.166  1.00 35.49     0.116 C 
BRANCH   4   5
ATOM      5  NE  ARG D 557     -24.899  -0.438 -15.013  1.00 35.49    -0.212 N 
ATOM      6  CZ  ARG D 557     -24.082  -1.406 -14.664  1.00 35.49     0.666 C 
ATOM      7  NH1 ARG D 557     -23.011  -1.720 -15.370  1.00 35.49    -0.235 N 
ATOM      8  NH2 ARG D 557     -24.359  -2.062 -13.574  1.00 35.49    -0.235 N 
ATOM      9  HH  ARG D 557     -22.809  -1.301 -16.089  1.00 35.49     0.174 HD
ATOM     10  HH  ARG D 557     -22.514  -2.359 -15.092  1.00 35.49     0.174 HD
ATOM     11  HH  ARG D 557     -25.053  -1.832 -13.135  1.00 35.49     0.174 HD
ATOM     12  HH  ARG D 557     -23.853  -2.691 -13.315  1.00 35.49     0.174 HD
ATOM     13  HE  ARG D 557     -25.602  -0.354 -14.542  1.00 35.49     0.178 HD
ENDBRANCH   4   5
ENDBRANCH   3   4
ENDBRANCH   2   3
ENDBRANCH   1   2
END_RES ARG D 557
BEGIN_RES GLU D 570
REMARK  3 active torsions:
REMARK  status: ('A' for Active; 'I' for Inactive)
REMARK    5  A    between atoms: CA   and  CB  
REMARK    6  A    between atoms: CB   and  CG  
REMARK    7  A    between atoms: CG   and  CD  
ROOT
ATOM     14  CA  GLU D 570     -18.033  -6.348 -13.375  1.00 32.92     0.160 C 
ENDROOT
BRANCH  14  15
ATOM     15  CB  GLU D 570     -19.500  -6.345 -13.794  1.00 32.92     0.043 C 
BRANCH  15  16
ATOM     16  CG  GLU D 570     -20.434  -5.497 -13.009  1.00 32.92     0.100 C 
BRANCH  16  17
ATOM     17  CD  GLU D 570     -21.737  -5.234 -13.728  1.00 32.92     0.185 C 
ATOM     18  OE1 GLU D 570     -22.199  -4.077 -13.741  1.00 32.92    -0.647 OA
ATOM     19  OE2 GLU D 570     -22.310  -6.199 -14.271  1.00 32.92    -0.647 OA
ENDBRANCH  16  17
ENDBRANCH  15  16
ENDBRANCH  14  15
END_RES GLU D 570
ENDMDL
MODEL 4
REMARK VINA RESULT:      -4.0      2.371      2.769
REMARK  22 active torsions:
REMARK  status: ('A' for Active; 'I' for Inactive)
REMARK    1  A    between atoms: C_2  and  C_4 
REMARK    2  A    between atoms: C_4  and  C_5 
REMARK    3  A    between atoms: C_5  and  C_6 
REMARK    4  A    between atoms: C_6  and  C_7 
REMARK    5  A    between atoms: C_7  and  C_8 
REMARK    6  A    between atoms: C_8  and  C_9 
REMARK    7  A    between atoms: C_9  and  C_10 
REMARK    8  A    between atoms: C_10  and  C_11 
REMARK    9  A    between atoms: C_11  and  C_12 
REMARK   10  A    between atoms: C_12  and  C_13 
REMARK   11  A    between atoms: C_13  and  C_14 
REMARK   12  A    between atoms: C_14  and  C_15 
REMARK   13  A    between atoms: C_15  and  C_16 
REMARK   14  A    between atoms: C_16  and  C_17 
REMARK   15  A    between atoms: C_17  and  C_18 
REMARK       I    between atoms: C_18  and  N_20 
REMARK   16  A    between atoms: N_20  and  C_21 
REMARK   17  A    between atoms: C_21  and  C_22 
REMARK   18  A    between atoms: C_22  and  C_23 
REMARK   19  A    between atoms: C_23  and  N_24 
REMARK   20  A    between atoms: C_32  and  C_33 
REMARK   21  A    between atoms: C_32  and  O_36 
REMARK   22  A    between atoms: C_33  and  O_35 
ROOT
HETATM    1  C   UNL     2     -22.711  -4.732  -9.779  1.00  0.00     0.050 C 
HETATM    2  C   UNL     2     -23.573  -3.662  -9.124  1.00  0.00     0.211 C 
ENDROOT
BRANCH   2   3
HETATM    3  C   UNL     2     -24.692  -3.272 -10.120  1.00  0.00     0.169 C 
HETATM    4  O   UNL     2     -25.883  -3.212  -9.844  1.00  0.00    -0.648 OA
BRANCH   3   5
HETATM    5  O   UNL     2     -24.289  -2.969 -11.368  1.00  0.00    -0.775 OA
HETATM    6  H   UNL     2     -24.428  -1.993 -11.446  1.00  0.00     0.167 HD
ENDBRANCH   3   5
ENDBRANCH   2   3
BRANCH   2   7
HETATM    7  O   UNL     2     -23.882  -4.128  -7.816  1.00  0.00    -0.385 OA
HETATM    8  H   UNL     2     -24.042  -3.346  -7.261  1.00  0.00     0.210 HD
ENDBRANCH   2   7
TORSDOF 22
BEGIN_RES ARG D 557
REMARK  4 active torsions:
REMARK  status: ('A' for Active; 'I' for Inactive)
REMARK    1  A    between atoms: CA   and  CB  
REMARK    2  A    between atoms: CB   and  CG  
REMARK    3  A    between atoms: CG   and  CD  
REMARK    4  A    between atoms: CD   and  NE  
REMARK       I    between atoms: NE   and  CZ  
REMARK       I    between atoms: CZ   and  NH1 
REMARK       I    between atoms: CZ   and  NH2 
ROOT
ATOM      1  CA  ARG D 557     -26.217   2.705 -17.014  1.00 35.49     0.159 C 
ENDROOT
BRANCH   1   2
ATOM      2  CB  ARG D 557     -26.789   1.319 -17.183  1.00 35.49     0.034 C 
BRANCH   2   3
ATOM      3  CG  ARG D 557     -28.153   1.102 -16.687  1.00 35.49     0.027 C 
BRANCH   3   4
ATOM      4  CD  ARG D 557     -28.790  -0.092 -17.288  1.00 35.49     0.116 C 
BRANCH   4   5
ATOM      5  NE  ARG D 557     -28.167  -1.315 -16.854  1.00 35.49    -0.212 N 
ATOM      6  CZ  ARG D 557     -28.648  -2.525 -17.027  1.00 35.49     0.666 C 
ATOM      7  NH1 ARG D 557     -29.802  -2.751 -17.629  1.00 35.49    -0.235 N 
ATOM      8  NH2 ARG D 557     -27.937  -3.523 -16.587  1.00 35.49    -0.235 N 
ATOM      9  HH  ARG D 557     -30.285  -2.110 -17.929  1.00 35.49     0.174 HD
ATOM     10  HH  ARG D 557     -30.063  -3.562 -17.716  1.00 35.49     0.174 HD
ATOM     11  HH  ARG D 557     -27.193  -3.347 -16.209  1.00 35.49     0.174 HD
ATOM     12  HH  ARG D 557     -28.213  -4.318 -16.684  1.00 35.49     0.174 HD
ATOM     13  HE  ARG D 557     -27.455  -1.258 -16.393  1.00 35.49     0.178 HD
ENDBRANCH   4   5
ENDBRANCH   3   4
ENDBRANCH   2   3
ENDBRANCH   1   2
END_RES ARG D 557
BEGIN_RES GLU D 570
REMARK  3 active torsions:
REMARK  status: ('A' for Active; 'I' for Inactive)
REMARK    5  A    between atoms: CA   and  CB  
REMARK    6  A    between atoms: CB   and  CG  
REMARK    7  A    between atoms: CG   and  CD  
ROOT
ATOM     14  CA  GLU D 570     -18.033  -6.348 -13.375  1.00 32.92     0.160 C 
ENDROOT
BRANCH  14  15
ATOM     15  CB  GLU D 570     -19.500  -6.345 -13.794  1.00 32.92     0.043 C 
BRANCH  15  16
ATOM     16  CG  GLU D 570     -20.441  -5.528 -12.986  1.00 32.92     0.100 C 
BRANCH  16  17
ATOM     17  CD  GLU D 570     -21.718  -5.196 -13.723  1.00 32.92     0.185 C 
ATOM     18  OE1 GLU D 570     -21.981  -5.802 -14.780  1.00 32.92    -0.647 OA
ATOM     19  OE2 GLU D 570     -22.454  -4.310 -13.248  1.00 32.92    -0.647 OA
ENDBRANCH  16  17
ENDBRANCH  15  16
ENDBRANCH  14  15
END_RES GLU D 570
ENDMDL
MODEL 5
REMARK VINA RESULT:      -3.9     10.060     11.930
REMARK  22 active torsions:
REMARK  status: ('A' for Active; 'I' for Inactive)
REMARK    1  A    between atoms: C_2  and  C_4 
REMARK    2  A    between atoms: C_4  and  C_5 
REMARK    3  A    between atoms: C_5  and  C_6 
REMARK    4  A    between atoms: C_6  and  C_7 
REMARK    5  A    between atoms: C_7  and  C_8 
REMARK    6  A    between atoms: C_8  and  C_9 
REMARK    7  A    between atoms: C_9  and  C_10 
REMARK    8  A    between atoms: C_10  and  C_11 
REMARK    9  A    between atoms: C_11  and  C_12 
REMARK   10  A    between atoms: C_12  and  C_13 
REMARK   11  A    between atoms: C_13  and  C_14 
REMARK   12  A    between atoms: C_14  and  C_15 
REMARK   13  A    between atoms: C_15  and  C_16 
REMARK   14  A    between atoms: C_16  and  C_17 
REMARK   15  A    between atoms: C_17  and  C_18 
REMARK       I    between atoms: C_18  and  N_20 
REMARK   16  A    between atoms: N_20  and  C_21 
REMARK   17  A    between atoms: C_21  and  C_22 
REMARK   18  A    between atoms: C_22  and  C_23 
REMARK   19  A    between atoms: C_23  and  N_24 
REMARK   20  A    between atoms: C_32  and  C_33 
REMARK   21  A    between atoms: C_32  and  O_36 
REMARK   22  A    between atoms: C_33  and  O_35 
ROOT
HETATM    1  C   UNL     2     -11.054   4.294 -20.768  1.00  0.00     0.050 C 
HETATM    2  C   UNL     2     -11.170   4.990 -19.419  1.00  0.00     0.211 C 
ENDROOT
BRANCH   2   3
HETATM    3  C   UNL     2      -9.796   5.621 -19.085  1.00  0.00     0.169 C 
HETATM    4  O   UNL     2      -8.978   5.992 -19.916  1.00  0.00    -0.648 OA
BRANCH   3   5
HETATM    5  O   UNL     2      -9.520   5.770 -17.775  1.00  0.00    -0.775 OA
HETATM    6  H   UNL     2     -10.284   6.285 -17.417  1.00  0.00     0.167 HD
ENDBRANCH   3   5
ENDBRANCH   2   3
BRANCH   2   7
HETATM    7  O   UNL     2     -12.351   5.781 -19.466  1.00  0.00    -0.385 OA
HETATM    8  H   UNL     2     -12.974   5.409 -18.818  1.00  0.00     0.210 HD
ENDBRANCH   2   7
TORSDOF 22
BEGIN_RES ARG D 557
REMARK  4 active torsions:
REMARK  status: ('A' for Active; 'I' for Inactive)
REMARK    1  A    between atoms: CA   and  CB  
REMARK    2  A    between atoms: CB   and  CG  
REMARK    3  A    between atoms: CG   and  CD  
REMARK    4  A    between atoms: CD   and  NE  
REMARK       I    between atoms: NE   and  CZ  
REMARK       I    between atoms: CZ   and  NH1 
REMARK       I    between atoms: CZ   and  NH2 
ROOT
ATOM      1  CA  ARG D 557     -26.217   2.705 -17.014  1.00 35.49     0.159 C 
ENDROOT
BRANCH   1   2
ATOM      2  CB  ARG D 557     -26.789   1.319 -17.183  1.00 35.49     0.034 C 
BRANCH   2   3
ATOM      3  CG  ARG D 557     -25.837   0.202 -17.145  1.00 35.49     0.027 C 
BRANCH   3   4
ATOM      4  CD  ARG D 557     -24.755   0.416 -16.157  1.00 35.49     0.116 C 
BRANCH   4   5
ATOM      5  NE  ARG D 557     -24.894  -0.439 -15.008  1.00 35.49    -0.212 N 
ATOM      6  CZ  ARG D 557     -24.075  -1.409 -14.669  1.00 35.49     0.666 C 
ATOM      7  NH1 ARG D 557     -23.009  -1.720 -15.383  1.00 35.49    -0.235 N 
ATOM      8  NH2 ARG D 557     -24.344  -2.069 -13.580  1.00 35.49    -0.235 N 
ATOM      9  HH  ARG D 557     -22.812  -1.297 -16.102  1.00 35.49     0.174 HD
ATOM     10  HH  ARG D 557     -22.510  -2.361 -15.112  1.00 35.49     0.174 HD
ATOM     11  HH  ARG D 557     -25.035  -1.842 -13.135  1.00 35.49     0.174 HD
ATOM     12  HH  ARG D 557     -23.837  -2.700 -13.327  1.00 35.49     0.174 HD
ATOM     13  HE  ARG D 557     -25.593  -0.356 -14.531  1.00 35.49     0.178 HD
ENDBRANCH   4   5
ENDBRANCH   3   4
ENDBRANCH   2   3
ENDBRANCH   1   2
END_RES ARG D 557
BEGIN_RES GLU D 570
REMARK  3 active torsions:
REMARK  status: ('A' for Active; 'I' for Inactive)
REMARK    5  A    between atoms: CA   and  CB  
REMARK    6  A    between atoms: CB   and  CG  
REMARK    7  A    between atoms: CG   and  CD  
ROOT
ATOM     14  CA  GLU D 570     -18.033  -6.348 -13.375  1.00 32.92     0.160 C 
ENDROOT
BRANCH  14  15
ATOM     15  CB  GLU D 570     -19.500  -6.345 -13.794  1.00 32.92     0.043 C 
BRANCH  15  16
ATOM     16  CG  GLU D 570     -20.447  -5.553 -12.967  1.00 32.92     0.100 C 
BRANCH  16  17
ATOM     17  CD  GLU D 570     -21.741  -5.246 -13.683  1.00 32.92     0.185 C 
ATOM     18  OE1 GLU D 570     -22.263  -6.127 -14.394  1.00 32.92    -0.647 OA
ATOM     19  OE2 GLU D 570     -22.229  -4.107 -13.546  1.00 32.92    -0.647 OA
ENDBRANCH  16  17
ENDBRANCH  15  16
ENDBRANCH  14  15
END_RES GLU D 570
ENDMDL
MODEL 6
REMARK VINA RESULT:      -3.9      2.085      2.628
REMARK  22 active torsions:
REMARK  status: ('A' for Active; 'I' for Inactive)
REMARK    1  A    between atoms: C_2  and  C_4 
REMARK    2  A    between atoms: C_4  and  C_5 
REMARK    3  A    between atoms: C_5  and  C_6 
REMARK    4  A    between atoms: C_6  and  C_7 
REMARK    5  A    between atoms: C_7  and  C_8 
REMARK    6  A    between atoms: C_8  and  C_9 
REMARK    7  A    between atoms: C_9  and  C_10 
REMARK    8  A    between atoms: C_10  and  C_11 
REMARK    9  A    between atoms: C_11  and  C_12 
REMARK   10  A    between atoms: C_12  and  C_13 
REMARK   11  A    between atoms: C_13  and  C_14 
REMARK   12  A    between atoms: C_14  and  C_15 
REMARK   13  A    between atoms: C_15  and  C_16 
REMARK   14  A    between atoms: C_16  and  C_17 
REMARK   15  A    between atoms: C_17  and  C_18 
REMARK       I    between atoms: C_18  and  N_20 
REMARK   16  A    between atoms: N_20  and  C_21 
REMARK   17  A    between atoms: C_21  and  C_22 
REMARK   18  A    between atoms: C_22  and  C_23 
REMARK   19  A    between atoms: C_23  and  N_24 
REMARK   20  A    between atoms: C_32  and  C_33 
REMARK   21  A    between atoms: C_32  and  O_36 
REMARK   22  A    between atoms: C_33  and  O_35 
ROOT
HETATM    1  C   UNL     2     -23.831  -4.871 -10.319  1.00  0.00     0.050 C 
HETATM    2  C   UNL     2     -24.286  -3.429 -10.507  1.00  0.00     0.211 C 
ENDROOT
BRANCH   2   3
HETATM    3  C   UNL     2     -24.069  -3.048 -11.992  1.00  0.00     0.169 C 
HETATM    4  O   UNL     2     -24.964  -2.912 -12.816  1.00  0.00    -0.648 OA
BRANCH   3   5
HETATM    5  O   UNL     2     -22.791  -2.846 -12.367  1.00  0.00    -0.775 OA
HETATM    6  H   UNL     2     -22.255  -3.357 -11.713  1.00  0.00     0.167 HD
ENDBRANCH   3   5
ENDBRANCH   2   3
BRANCH   2   7
HETATM    7  O   UNL     2     -25.567  -3.321  -9.900  1.00  0.00    -0.385 OA
HETATM    8  H   UNL     2     -25.537  -3.827  -9.070  1.00  0.00     0.210 HD
ENDBRANCH   2   7
TORSDOF 22
BEGIN_RES ARG D 557
REMARK  4 active torsions:
REMARK  status: ('A' for Active; 'I' for Inactive)
REMARK    1  A    between atoms: CA   and  CB  
REMARK    2  A    between atoms: CB   and  CG  
REMARK    3  A    between atoms: CG   and  CD  
REMARK    4  A    between atoms: CD   and  NE  
REMARK       I    between atoms: NE   and  CZ  
REMARK       I    between atoms: CZ   and  NH1 
REMARK       I    between atoms: CZ   and  NH2 
ROOT
ATOM      1  CA  ARG D 557     -26.217   2.705 -17.014  1.00 35.49     0.159 C 
ENDROOT
BRANCH   1   2
ATOM      2  CB  ARG D 557     -26.789   1.319 -17.183  1.00 35.49     0.034 C 
BRANCH   2   3
ATOM      3  CG  ARG D 557     -28.215   1.151 -16.878  1.00 35.49     0.027 C 
BRANCH   3   4
ATOM      4  CD  ARG D 557     -28.598  -0.272 -16.734  1.00 35.49     0.116 C 
BRANCH   4   5
ATOM      5  NE  ARG D 557     -27.607  -1.030 -16.016  1.00 35.49    -0.212 N 
ATOM      6  CZ  ARG D 557     -27.431  -2.330 -16.092  1.00 35.49     0.666 C 
ATOM      7  NH1 ARG D 557     -28.182  -3.104 -16.853  1.00 35.49    -0.235 N 
ATOM      8  NH2 ARG D 557     -26.468  -2.848 -15.386  1.00 35.49    -0.235 N 
ATOM      9  HH  ARG D 557     -28.819  -2.785 -17.329  1.00 35.49     0.174 HD
ATOM     10  HH  ARG D 557     -28.018  -3.945 -16.865  1.00 35.49     0.174 HD
ATOM     11  HH  ARG D 557     -25.995  -2.322 -14.909  1.00 35.49     0.174 HD
ATOM     12  HH  ARG D 557     -26.321  -3.682 -15.412  1.00 35.49     0.174 HD
ATOM     13  HE  ARG D 557     -27.126  -0.620 -15.447  1.00 35.49     0.178 HD
ENDBRANCH   4   5
ENDBRANCH   3   4
ENDBRANCH   2   3
ENDBRANCH   1   2
END_RES ARG D 557
BEGIN_RES GLU D 570
REMARK  3 active torsions:
REMARK  status: ('A' for Active; 'I' for Inactive)
REMARK    5  A    between atoms: CA   and  CB  
REMARK    6  A    between atoms: CB   and  CG  
REMARK    7  A    between atoms: CG   and  CD  
ROOT
ATOM     14  CA  GLU D 570     -18.033  -6.348 -13.375  1.00 32.92     0.160 C 
ENDROOT
BRANCH  14  15
ATOM     15  CB  GLU D 570     -19.500  -6.345 -13.794  1.00 32.92     0.043 C 
BRANCH  15  16
ATOM     16  CG  GLU D 570     -19.807  -6.018 -15.210  1.00 32.92     0.100 C 
BRANCH  16  17
ATOM     17  CD  GLU D 570     -21.122  -5.292 -15.376  1.00 32.92     0.185 C 
ATOM     18  OE1 GLU D 570     -21.535  -5.043 -16.525  1.00 32.92    -0.647 OA
ATOM     19  OE2 GLU D 570     -21.737  -4.954 -14.346  1.00 32.92    -0.647 OA
ENDBRANCH  16  17
ENDBRANCH  15  16
ENDBRANCH  14  15
END_RES GLU D 570
ENDMDL
MODEL 7
REMARK VINA RESULT:      -3.9      2.557      3.236
REMARK  22 active torsions:
REMARK  status: ('A' for Active; 'I' for Inactive)
REMARK    1  A    between atoms: C_2  and  C_4 
REMARK    2  A    between atoms: C_4  and  C_5 
REMARK    3  A    between atoms: C_5  and  C_6 
REMARK    4  A    between atoms: C_6  and  C_7 
REMARK    5  A    between atoms: C_7  and  C_8 
REMARK    6  A    between atoms: C_8  and  C_9 
REMARK    7  A    between atoms: C_9  and  C_10 
REMARK    8  A    between atoms: C_10  and  C_11 
REMARK    9  A    between atoms: C_11  and  C_12 
REMARK   10  A    between atoms: C_12  and  C_13 
REMARK   11  A    between atoms: C_13  and  C_14 
REMARK   12  A    between atoms: C_14  and  C_15 
REMARK   13  A    between atoms: C_15  and  C_16 
REMARK   14  A    between atoms: C_16  and  C_17 
REMARK   15  A    between atoms: C_17  and  C_18 
REMARK       I    between atoms: C_18  and  N_20 
REMARK   16  A    between atoms: N_20  and  C_21 
REMARK   17  A    between atoms: C_21  and  C_22 
REMARK   18  A    between atoms: C_22  and  C_23 
REMARK   19  A    between atoms: C_23  and  N_24 
REMARK   20  A    between atoms: C_32  and  C_33 
REMARK   21  A    between atoms: C_32  and  O_36 
REMARK   22  A    between atoms: C_33  and  O_35 
ROOT
HETATM    1  C   UNL     2     -22.055  -4.166 -10.276  1.00  0.00     0.050 C 
HETATM    2  C   UNL     2     -23.452  -4.711 -10.540  1.00  0.00     0.211 C 
ENDROOT
BRANCH   2   3
HETATM    3  C   UNL     2     -24.464  -3.833  -9.762  1.00  0.00     0.169 C 
HETATM    4  O   UNL     2     -25.430  -3.272 -10.262  1.00  0.00    -0.648 OA
BRANCH   3   5
HETATM    5  O   UNL     2     -24.242  -3.712  -8.440  1.00  0.00    -0.775 OA
HETATM    6  H   UNL     2     -24.250  -2.738  -8.273  1.00  0.00     0.167 HD
ENDBRANCH   3   5
ENDBRANCH   2   3
BRANCH   2   7
HETATM    7  O   UNL     2     -23.564  -4.891 -11.946  1.00  0.00    -0.385 OA
HETATM    8  H   UNL     2     -23.379  -4.032 -12.363  1.00  0.00     0.210 HD
ENDBRANCH   2   7
TORSDOF 22
BEGIN_RES ARG D 557
REMARK  4 active torsions:
REMARK  status: ('A' for Active; 'I' for Inactive)
REMARK    1  A    between atoms: CA   and  CB  
REMARK    2  A    between atoms: CB   and  CG  
REMARK    3  A    between atoms: CG   and  CD  
REMARK    4  A    between atoms: CD   and  NE  
REMARK       I    between atoms: NE   and  CZ  
REMARK       I    between atoms: CZ   and  NH1 
REMARK       I    between atoms: CZ   and  NH2 
ROOT
ATOM      1  CA  ARG D 557     -26.217   2.705 -17.014  1.00 35.49     0.159 C 
ENDROOT
BRANCH   1   2
ATOM      2  CB  ARG D 557     -26.789   1.319 -17.183  1.00 35.49     0.034 C 
BRANCH   2   3
ATOM      3  CG  ARG D 557     -28.233   1.226 -17.432  1.00 35.49     0.027 C 
BRANCH   3   4
ATOM      4  CD  ARG D 557     -28.908   0.298 -16.496  1.00 35.49     0.116 C 
BRANCH   4   5
ATOM      5  NE  ARG D 557     -29.276  -0.940 -17.131  1.00 35.49    -0.212 N 
ATOM      6  CZ  ARG D 557     -28.631  -2.080 -17.022  1.00 35.49     0.666 C 
ATOM      7  NH1 ARG D 557     -27.531  -2.207 -16.303  1.00 35.49    -0.235 N 
ATOM      8  NH2 ARG D 557     -29.120  -3.109 -17.651  1.00 35.49    -0.235 N 
ATOM      9  HH  ARG D 557     -27.192  -1.544 -15.879  1.00 35.49     0.174 HD
ATOM     10  HH  ARG D 557     -27.155  -2.976 -16.267  1.00 35.49     0.174 HD
ATOM     11  HH  ARG D 557     -29.836  -2.999 -18.101  1.00 35.49     0.174 HD
ATOM     12  HH  ARG D 557     -28.734  -3.862 -17.602  1.00 35.49     0.174 HD
ATOM     13  HE  ARG D 557     -29.932  -0.932 -17.671  1.00 35.49     0.178 HD
ENDBRANCH   4   5
ENDBRANCH   3   4
ENDBRANCH   2   3
ENDBRANCH   1   2
END_RES ARG D 557
BEGIN_RES GLU D 570
REMARK  3 active torsions:
REMARK  status: ('A' for Active; 'I' for Inactive)
REMARK    5  A    between atoms: CA   and  CB  
REMARK    6  A    between atoms: CB   and  CG  
REMARK    7  A    between atoms: CG   and  CD  
ROOT
ATOM     14  CA  GLU D 570     -18.033  -6.348 -13.375  1.00 32.92     0.160 C 
ENDROOT
BRANCH  14  15
ATOM     15  CB  GLU D 570     -19.500  -6.345 -13.794  1.00 32.92     0.043 C 
BRANCH  15  16
ATOM     16  CG  GLU D 570     -19.804  -6.067 -15.222  1.00 32.92     0.100 C 
BRANCH  16  17
ATOM     17  CD  GLU D 570     -21.140  -5.390 -15.419  1.00 32.92     0.185 C 
ATOM     18  OE1 GLU D 570     -21.880  -5.213 -14.432  1.00 32.92    -0.647 OA
ATOM     19  OE2 GLU D 570     -21.458  -5.049 -16.575  1.00 32.92    -0.647 OA
ENDBRANCH  16  17
ENDBRANCH  15  16
ENDBRANCH  14  15
END_RES GLU D 570
ENDMDL
MODEL 8
REMARK VINA RESULT:      -3.9      5.559      6.311
REMARK  22 active torsions:
REMARK  status: ('A' for Active; 'I' for Inactive)
REMARK    1  A    between atoms: C_2  and  C_4 
REMARK    2  A    between atoms: C_4  and  C_5 
REMARK    3  A    between atoms: C_5  and  C_6 
REMARK    4  A    between atoms: C_6  and  C_7 
REMARK    5  A    between atoms: C_7  and  C_8 
REMARK    6  A    between atoms: C_8  and  C_9 
REMARK    7  A    between atoms: C_9  and  C_10 
REMARK    8  A    between atoms: C_10  and  C_11 
REMARK    9  A    between atoms: C_11  and  C_12 
REMARK   10  A    between atoms: C_12  and  C_13 
REMARK   11  A    between atoms: C_13  and  C_14 
REMARK   12  A    between atoms: C_14  and  C_15 
REMARK   13  A    between atoms: C_15  and  C_16 
REMARK   14  A    between atoms: C_16  and  C_17 
REMARK   15  A    between atoms: C_17  and  C_18 
REMARK       I    between atoms: C_18  and  N_20 
REMARK   16  A    between atoms: N_20  and  C_21 
REMARK   17  A    between atoms: C_21  and  C_22 
REMARK   18  A    between atoms: C_22  and  C_23 
REMARK   19  A    between atoms: C_23  and  N_24 
REMARK   20  A    between atoms: C_32  and  C_33 
REMARK   21  A    between atoms: C_32  and  O_36 
REMARK   22  A    between atoms: C_33  and  O_35 
ROOT
HETATM    1  C   UNL     2     -33.881  -4.102 -10.612  1.00  0.00     0.050 C 
HETATM    2  C   UNL     2     -33.539  -2.868 -11.437  1.00  0.00     0.211 C 
ENDROOT
BRANCH   2   3
HETATM    3  C   UNL     2     -34.549  -2.779 -12.607  1.00  0.00     0.169 C 
HETATM    4  O   UNL     2     -34.372  -3.257 -13.720  1.00  0.00    -0.648 OA
BRANCH   3   5
HETATM    5  O   UNL     2     -35.702  -2.135 -12.341  1.00  0.00    -0.775 OA
HETATM    6  H   UNL     2     -35.421  -1.262 -11.973  1.00  0.00     0.167 HD
ENDBRANCH   3   5
ENDBRANCH   2   3
BRANCH   2   7
HETATM    7  O   UNL     2     -33.380  -1.793 -10.520  1.00  0.00    -0.385 OA
HETATM    8  H   UNL     2     -33.997  -1.947  -9.783  1.00  0.00     0.210 HD
ENDBRANCH   2   7
TORSDOF 22
BEGIN_RES ARG D 557
REMARK  4 active torsions:
REMARK  status: ('A' for Active; 'I' for Inactive)
REMARK    1  A    between atoms: CA   and  CB  
REMARK    2  A    between atoms: CB   and  CG  
REMARK    3  A    between atoms: CG   and  CD  
REMARK    4  A    between atoms: CD   and  NE  
REMARK       I    between atoms: NE   and  CZ  
REMARK       I    between atoms: CZ   and  NH1 
REMARK       I    between atoms: CZ   and  NH2 
ROOT
ATOM      1  CA  ARG D 557     -26.217   2.705 -17.014  1.00 35.49     0.159 C 
ENDROOT
BRANCH   1   2
ATOM      2  CB  ARG D 557     -26.789   1.319 -17.183  1.00 35.49     0.034 C 
BRANCH   2   3
ATOM      3  CG  ARG D 557     -25.836   0.203 -17.154  1.00 35.49     0.027 C 
BRANCH   3   4
ATOM      4  CD  ARG D 557     -24.771   0.397 -16.143  1.00 35.49     0.116 C 
BRANCH   4   5
ATOM      5  NE  ARG D 557     -24.941  -0.466 -15.004  1.00 35.49    -0.212 N 
ATOM      6  CZ  ARG D 557     -24.133  -1.440 -14.650  1.00 35.49     0.666 C 
ATOM      7  NH1 ARG D 557     -23.050  -1.748 -15.339  1.00 35.49    -0.235 N 
ATOM      8  NH2 ARG D 557     -24.432  -2.107 -13.573  1.00 35.49    -0.235 N 
ATOM      9  HH  ARG D 557     -22.833  -1.321 -16.050  1.00 35.49     0.174 HD
ATOM     10  HH  ARG D 557     -22.559  -2.392 -15.059  1.00 35.49     0.174 HD
ATOM     11  HH  ARG D 557     -25.134  -1.881 -13.145  1.00 35.49     0.174 HD
ATOM     12  HH  ARG D 557     -23.933  -2.741 -13.312  1.00 35.49     0.174 HD
ATOM     13  HE  ARG D 557     -25.652  -0.385 -14.544  1.00 35.49     0.178 HD
ENDBRANCH   4   5
ENDBRANCH   3   4
ENDBRANCH   2   3
ENDBRANCH   1   2
END_RES ARG D 557
BEGIN_RES GLU D 570
REMARK  3 active torsions:
REMARK  status: ('A' for Active; 'I' for Inactive)
REMARK    5  A    between atoms: CA   and  CB  
REMARK    6  A    between atoms: CB   and  CG  
REMARK    7  A    between atoms: CG   and  CD  
ROOT
ATOM     14  CA  GLU D 570     -18.033  -6.348 -13.375  1.00 32.92     0.160 C 
ENDROOT
BRANCH  14  15
ATOM     15  CB  GLU D 570     -19.500  -6.345 -13.794  1.00 32.92     0.043 C 
BRANCH  15  16
ATOM     16  CG  GLU D 570     -20.438  -5.514 -12.996  1.00 32.92     0.100 C 
BRANCH  16  17
ATOM     17  CD  GLU D 570     -21.581  -4.963 -13.816  1.00 32.92     0.185 C 
ATOM     18  OE1 GLU D 570     -21.664  -5.268 -15.021  1.00 32.92    -0.647 OA
ATOM     19  OE2 GLU D 570     -22.393  -4.203 -13.252  1.00 32.92    -0.647 OA
ENDBRANCH  16  17
ENDBRANCH  15  16
ENDBRANCH  14  15
END_RES GLU D 570
ENDMDL
MODEL 9
REMARK VINA RESULT:      -3.8      7.170      8.795
REMARK  22 active torsions:
REMARK  status: ('A' for Active; 'I' for Inactive)
REMARK    1  A    between atoms: C_2  and  C_4 
REMARK    2  A    between atoms: C_4  and  C_5 
REMARK    3  A    between atoms: C_5  and  C_6 
REMARK    4  A    between atoms: C_6  and  C_7 
REMARK    5  A    between atoms: C_7  and  C_8 
REMARK    6  A    between atoms: C_8  and  C_9 
REMARK    7  A    between atoms: C_9  and  C_10 
REMARK    8  A    between atoms: C_10  and  C_11 
REMARK    9  A    between atoms: C_11  and  C_12 
REMARK   10  A    between atoms: C_12  and  C_13 
REMARK   11  A    between atoms: C_13  and  C_14 
REMARK   12  A    between atoms: C_14  and  C_15 
REMARK   13  A    between atoms: C_15  and  C_16 
REMARK   14  A    between atoms: C_16  and  C_17 
REMARK   15  A    between atoms: C_17  and  C_18 
REMARK       I    between atoms: C_18  and  N_20 
REMARK   16  A    between atoms: N_20  and  C_21 
REMARK   17  A    between atoms: C_21  and  C_22 
REMARK   18  A    between atoms: C_22  and  C_23 
REMARK   19  A    between atoms: C_23  and  N_24 
REMARK   20  A    between atoms: C_32  and  C_33 
REMARK   21  A    between atoms: C_32  and  O_36 
REMARK   22  A    between atoms: C_33  and  O_35 
ROOT
HETATM    1  C   UNL     2     -35.145   1.014 -14.360  1.00  0.00     0.050 C 
HETATM    2  C   UNL     2     -35.844   0.932 -15.710  1.00  0.00     0.211 C 
ENDROOT
BRANCH   2   3
HETATM    3  C   UNL     2     -36.884  -0.213 -15.642  1.00  0.00     0.169 C 
HETATM    4  O   UNL     2     -37.353  -0.670 -14.608  1.00  0.00    -0.648 OA
BRANCH   3   5
HETATM    5  O   UNL     2     -37.293  -0.708 -16.826  1.00  0.00    -0.775 OA
HETATM    6  H   UNL     2     -36.810  -0.171 -17.501  1.00  0.00     0.167 HD
ENDBRANCH   3   5
ENDBRANCH   2   3
BRANCH   2   7
HETATM    7  O   UNL     2     -36.230   2.257 -16.054  1.00  0.00    -0.385 OA
HETATM    8  H   UNL     2     -37.154   2.219 -16.356  1.00  0.00     0.210 HD
ENDBRANCH   2   7
TORSDOF 22
BEGIN_RES ARG D 557
REMARK  4 active torsions:
REMARK  status: ('A' for Active; 'I' for Inactive)
REMARK    1  A    between atoms: CA   and  CB  
REMARK    2  A    between atoms: CB   and  CG  
REMARK    3  A    between atoms: CG   and  CD  
REMARK    4  A    between atoms: CD   and  NE  
REMARK       I    between atoms: NE   and  CZ  
REMARK       I    between atoms: CZ   and  NH1 
REMARK       I    between atoms: CZ   and  NH2 
ROOT
ATOM      1  CA  ARG D 557     -26.217   2.705 -17.014  1.00 35.49     0.159 C 
ENDROOT
BRANCH   1   2
ATOM      2  CB  ARG D 557     -26.789   1.319 -17.183  1.00 35.49     0.034 C 
BRANCH   2   3
ATOM      3  CG  ARG D 557     -25.834   0.204 -17.169  1.00 35.49     0.027 C 
BRANCH   3   4
ATOM      4  CD  ARG D 557     -24.747   0.404 -16.184  1.00 35.49     0.116 C 
BRANCH   4   5
ATOM      5  NE  ARG D 557     -24.898  -0.445 -15.031  1.00 35.49    -0.212 N 
ATOM      6  CZ  ARG D 557     -24.079  -1.409 -14.675  1.00 35.49     0.666 C 
ATOM      7  NH1 ARG D 557     -23.001  -1.718 -15.372  1.00 35.49    -0.235 N 
ATOM      8  NH2 ARG D 557     -24.360  -2.064 -13.586  1.00 35.49    -0.235 N 
ATOM      9  HH  ARG D 557     -22.796  -1.299 -16.091  1.00 35.49     0.174 HD
ATOM     10  HH  ARG D 557     -22.502  -2.355 -15.090  1.00 35.49     0.174 HD
ATOM     11  HH  ARG D 557     -25.058  -1.837 -13.152  1.00 35.49     0.174 HD
ATOM     12  HH  ARG D 557     -23.853  -2.690 -13.322  1.00 35.49     0.174 HD
ATOM     13  HE  ARG D 557     -25.604  -0.363 -14.564  1.00 35.49     0.178 HD
ENDBRANCH   4   5
ENDBRANCH   3   4
ENDBRANCH   2   3
ENDBRANCH   1   2
END_RES ARG D 557
BEGIN_RES GLU D 570
REMARK  3 active torsions:
REMARK  status: ('A' for Active; 'I' for Inactive)
REMARK    5  A    between atoms: CA   and  CB  
REMARK    6  A    between atoms: CB   and  CG  
REMARK    7  A    between atoms: CG   and  CD  
ROOT
ATOM     14  CA  GLU D 570     -18.033  -6.348 -13.375  1.00 32.92     0.160 C 
ENDROOT
BRANCH  14  15
ATOM     15  CB  GLU D 570     -19.500  -6.345 -13.794  1.00 32.92     0.043 C 
BRANCH  15  16
ATOM     16  CG  GLU D 570     -20.442  -5.531 -12.983  1.00 32.92     0.100 C 
BRANCH  16  17
ATOM     17  CD  GLU D 570     -21.740  -5.242 -13.701  1.00 32.92     0.185 C 
ATOM     18  OE1 GLU D 570     -22.293  -4.139 -13.530  1.00 32.92    -0.647 OA
ATOM     19  OE2 GLU D 570     -22.216  -6.135 -14.429  1.00 32.92    -0.647 OA
ENDBRANCH  16  17
ENDBRANCH  15  16
ENDBRANCH  14  15
END_RES GLU D 570
ENDMDL
