MODEL 1
REMARK VINA RESULT:      -7.7      0.000      0.000
REMARK  14 active torsions:
REMARK  status: ('A' for Active; 'I' for Inactive)
REMARK    1  A    between atoms: C_2  and  C_3 
REMARK    2  A    between atoms: C_4  and  C_5 
REMARK    3  A    between atoms: C_5  and  C_6 
REMARK    4  A    between atoms: C_7  and  C_8 
REMARK    5  A    between atoms: C_8  and  C_9 
REMARK    6  A    between atoms: C_10  and  C_11 
REMARK    7  A    between atoms: C_11  and  C_12 
REMARK    8  A    between atoms: C_12  and  C_13 
REMARK    9  A    between atoms: C_13  and  C_14 
REMARK   10  A    between atoms: C_14  and  C_15 
REMARK   11  A    between atoms: C_15  and  C_16 
REMARK   12  A    between atoms: C_16  and  C_17 
REMARK   13  A    between atoms: C_17  and  C_18 
REMARK   14  A    between atoms: C_18  and  O_20 
ROOT
HETATM    1  C   UNL     1     -21.067  -7.095  -5.697  1.00  0.00     0.027 C 
ENDROOT
BRANCH   1   2
HETATM    2  C   UNL     1     -21.570  -6.301  -4.535  1.00  0.00    -0.030 C 
HETATM    3  C   UNL     1     -21.662  -6.810  -3.298  1.00  0.00    -0.027 C 
BRANCH   3   4
HETATM    4  C   UNL     1     -22.169  -6.024  -2.132  1.00  0.00     0.053 C 
BRANCH   4   5
HETATM    5  C   UNL     1     -22.253  -6.868  -0.899  1.00  0.00    -0.027 C 
HETATM    6  C   UNL     1     -21.425  -7.897  -0.663  1.00  0.00    -0.027 C 
BRANCH   6   7
HETATM    7  C   UNL     1     -21.506  -8.741   0.569  1.00  0.00     0.053 C 
BRANCH   7   8
HETATM    8  C   UNL     1     -22.171 -10.056   0.293  1.00  0.00    -0.027 C 
HETATM    9  C   UNL     1     -23.393 -10.157  -0.253  1.00  0.00    -0.031 C 
BRANCH   9  10
HETATM   10  C   UNL     1     -24.053 -11.471  -0.533  1.00  0.00     0.022 C 
HETATM   11  C   UNL     1     -23.429 -12.584   0.293  1.00  0.00     0.009 C 
ENDBRANCH   9  10
ENDBRANCH   7   8
ENDBRANCH   6   7
ENDBRANCH   4   5
ENDBRANCH   3   4
ENDBRANCH   1   2
BRANCH   1  12
HETATM   12  C   UNL     1     -19.920  -6.368  -6.387  1.00  0.00     0.004 C 
BRANCH  12  13
HETATM   13  C   UNL     1     -19.966  -4.881  -6.062  1.00  0.00     0.000 C 
BRANCH  13  14
HETATM   14  C   UNL     1     -20.218  -4.065  -7.322  1.00  0.00     0.000 C 
BRANCH  14  15
HETATM   15  C   UNL     1     -21.703  -3.739  -7.461  1.00  0.00     0.001 C 
BRANCH  15  16
HETATM   16  C   UNL     1     -22.247  -4.283  -8.774  1.00  0.00     0.010 C 
BRANCH  16  17
HETATM   17  C   UNL     1     -23.750  -4.053  -8.921  1.00  0.00     0.110 C 
BRANCH  17  18
HETATM   18  C   UNL     1     -24.042  -3.426 -10.265  1.00  0.00     0.139 C 
HETATM   19  O   UNL     1     -25.154  -3.206 -10.706  1.00  0.00    -0.650 OA
BRANCH  18  20
HETATM   20  O   UNL     1     -22.926  -3.117 -10.969  1.00  0.00    -0.776 OA
HETATM   21  H   UNL     1     -22.232  -2.652 -10.460  1.00  0.00     0.167 HD
ENDBRANCH  18  20
ENDBRANCH  17  18
ENDBRANCH  16  17
ENDBRANCH  15  16
ENDBRANCH  14  15
ENDBRANCH  13  14
ENDBRANCH  12  13
ENDBRANCH   1  12
TORSDOF 14
BEGIN_RES ARG D 557
REMARK  4 active torsions:
REMARK  status: ('A' for Active; 'I' for Inactive)
REMARK    1  A    between atoms: CA   and  CB  
REMARK    2  A    between atoms: CB   and  CG  
REMARK    3  A    between atoms: CG   and  CD  
REMARK    4  A    between atoms: CD   and  NE  
REMARK       I    between atoms: NE   and  CZ  
REMARK       I    between atoms: CZ   and  NH1 
REMARK       I    between atoms: CZ   and  NH2 
ROOT
ATOM      1  CA  ARG D 557     -26.217   2.705 -17.014  1.00 35.49     0.159 C 
ENDROOT
BRANCH   1   2
ATOM      2  CB  ARG D 557     -26.789   1.319 -17.183  1.00 35.49     0.034 C 
BRANCH   2   3
ATOM      3  CG  ARG D 557     -25.864   0.195 -16.994  1.00 35.49     0.027 C 
BRANCH   3   4
ATOM      4  CD  ARG D 557     -26.277  -0.695 -15.885  1.00 35.49     0.116 C 
BRANCH   4   5
ATOM      5  NE  ARG D 557     -25.210  -0.924 -14.947  1.00 35.49    -0.212 N 
ATOM      6  CZ  ARG D 557     -24.979  -2.048 -14.306  1.00 35.49     0.666 C 
ATOM      7  NH1 ARG D 557     -25.739  -3.118 -14.453  1.00 35.49    -0.235 N 
ATOM      8  NH2 ARG D 557     -23.951  -2.084 -13.508  1.00 35.49    -0.235 N 
ATOM      9  HH  ARG D 557     -26.419  -3.118 -14.974  1.00 35.49     0.174 HD
ATOM     10  HH  ARG D 557     -25.538  -3.824 -14.011  1.00 35.49     0.174 HD
ATOM     11  HH  ARG D 557     -23.474  -1.380 -13.439  1.00 35.49     0.174 HD
ATOM     12  HH  ARG D 557     -23.768  -2.792 -13.080  1.00 35.49     0.174 HD
ATOM     13  HE  ARG D 557     -24.715  -0.266 -14.737  1.00 35.49     0.178 HD
ENDBRANCH   4   5
ENDBRANCH   3   4
ENDBRANCH   2   3
ENDBRANCH   1   2
END_RES ARG D 557
BEGIN_RES GLU D 570
REMARK  3 active torsions:
REMARK  status: ('A' for Active; 'I' for Inactive)
REMARK    5  A    between atoms: CA   and  CB  
REMARK    6  A    between atoms: CB   and  CG  
REMARK    7  A    between atoms: CG   and  CD  
ROOT
ATOM     14  CA  GLU D 570     -18.033  -6.348 -13.375  1.00 32.92     0.160 C 
ENDROOT
BRANCH  14  15
ATOM     15  CB  GLU D 570     -19.500  -6.345 -13.794  1.00 32.92     0.043 C 
BRANCH  15  16
ATOM     16  CG  GLU D 570     -20.444  -5.540 -12.977  1.00 32.92     0.100 C 
BRANCH  16  17
ATOM     17  CD  GLU D 570     -21.686  -5.137 -13.737  1.00 32.92     0.185 C 
ATOM     18  OE1 GLU D 570     -21.626  -5.021 -14.976  1.00 32.92    -0.647 OA
ATOM     19  OE2 GLU D 570     -22.725  -4.918 -13.084  1.00 32.92    -0.647 OA
ENDBRANCH  16  17
ENDBRANCH  15  16
ENDBRANCH  14  15
END_RES GLU D 570
ENDMDL
MODEL 2
REMARK VINA RESULT:      -7.4      2.239      3.697
REMARK  14 active torsions:
REMARK  status: ('A' for Active; 'I' for Inactive)
REMARK    1  A    between atoms: C_2  and  C_3 
REMARK    2  A    between atoms: C_4  and  C_5 
REMARK    3  A    between atoms: C_5  and  C_6 
REMARK    4  A    between atoms: C_7  and  C_8 
REMARK    5  A    between atoms: C_8  and  C_9 
REMARK    6  A    between atoms: C_10  and  C_11 
REMARK    7  A    between atoms: C_11  and  C_12 
REMARK    8  A    between atoms: C_12  and  C_13 
REMARK    9  A    between atoms: C_13  and  C_14 
REMARK   10  A    between atoms: C_14  and  C_15 
REMARK   11  A    between atoms: C_15  and  C_16 
REMARK   12  A    between atoms: C_16  and  C_17 
REMARK   13  A    between atoms: C_17  and  C_18 
REMARK   14  A    between atoms: C_18  and  O_20 
ROOT
HETATM    1  C   UNL     1     -19.473  -4.169  -7.965  1.00  0.00     0.027 C 
ENDROOT
BRANCH   1   2
HETATM    2  C   UNL     1     -19.624  -5.086  -6.795  1.00  0.00    -0.030 C 
HETATM    3  C   UNL     1     -20.617  -5.983  -6.704  1.00  0.00    -0.027 C 
BRANCH   3   4
HETATM    4  C   UNL     1     -20.779  -6.901  -5.535  1.00  0.00     0.053 C 
BRANCH   4   5
HETATM    5  C   UNL     1     -21.388  -6.195  -4.365  1.00  0.00    -0.027 C 
HETATM    6  C   UNL     1     -21.572  -6.784  -3.174  1.00  0.00    -0.027 C 
BRANCH   6   7
HETATM    7  C   UNL     1     -22.180  -6.080  -2.003  1.00  0.00     0.053 C 
BRANCH   7   8
HETATM    8  C   UNL     1     -22.317  -6.992  -0.821  1.00  0.00    -0.027 C 
HETATM    9  C   UNL     1     -22.179  -8.324  -0.905  1.00  0.00    -0.031 C 
BRANCH   9  10
HETATM   10  C   UNL     1     -22.312  -9.233   0.277  1.00  0.00     0.022 C 
HETATM   11  C   UNL     1     -20.995  -9.926   0.584  1.00  0.00     0.009 C 
ENDBRANCH   9  10
ENDBRANCH   7   8
ENDBRANCH   6   7
ENDBRANCH   4   5
ENDBRANCH   3   4
ENDBRANCH   1   2
BRANCH   1  12
HETATM   12  C   UNL     1     -20.715  -4.214  -8.846  1.00  0.00     0.004 C 
BRANCH  12  13
HETATM   13  C   UNL     1     -20.329  -4.527 -10.286  1.00  0.00     0.000 C 
BRANCH  13  14
HETATM   14  C   UNL     1     -20.849  -3.449 -11.227  1.00  0.00     0.000 C 
BRANCH  14  15
HETATM   15  C   UNL     1     -22.243  -3.808 -11.734  1.00  0.00     0.001 C 
BRANCH  15  16
HETATM   16  C   UNL     1     -23.006  -2.550 -12.127  1.00  0.00     0.010 C 
BRANCH  16  17
HETATM   17  C   UNL     1     -24.207  -2.854 -13.020  1.00  0.00     0.110 C 
BRANCH  17  18
HETATM   18  C   UNL     1     -24.083  -2.095 -14.321  1.00  0.00     0.139 C 
HETATM   19  O   UNL     1     -23.218  -2.277 -15.156  1.00  0.00    -0.650 OA
BRANCH  18  20
HETATM   20  O   UNL     1     -25.049  -1.161 -14.494  1.00  0.00    -0.776 OA
HETATM   21  H   UNL     1     -25.434  -1.125 -15.391  1.00  0.00     0.167 HD
ENDBRANCH  18  20
ENDBRANCH  17  18
ENDBRANCH  16  17
ENDBRANCH  15  16
ENDBRANCH  14  15
ENDBRANCH  13  14
ENDBRANCH  12  13
ENDBRANCH   1  12
TORSDOF 14
BEGIN_RES ARG D 557
REMARK  4 active torsions:
REMARK  status: ('A' for Active; 'I' for Inactive)
REMARK    1  A    between atoms: CA   and  CB  
REMARK    2  A    between atoms: CB   and  CG  
REMARK    3  A    between atoms: CG   and  CD  
REMARK    4  A    between atoms: CD   and  NE  
REMARK       I    between atoms: NE   and  CZ  
REMARK       I    between atoms: CZ   and  NH1 
REMARK       I    between atoms: CZ   and  NH2 
ROOT
ATOM      1  CA  ARG D 557     -26.217   2.705 -17.014  1.00 35.49     0.159 C 
ENDROOT
BRANCH   1   2
ATOM      2  CB  ARG D 557     -26.789   1.319 -17.183  1.00 35.49     0.034 C 
BRANCH   2   3
ATOM      3  CG  ARG D 557     -28.235   1.225 -17.419  1.00 35.49     0.027 C 
BRANCH   3   4
ATOM      4  CD  ARG D 557     -28.900   0.289 -16.484  1.00 35.49     0.116 C 
BRANCH   4   5
ATOM      5  NE  ARG D 557     -29.236  -0.960 -17.114  1.00 35.49    -0.212 N 
ATOM      6  CZ  ARG D 557     -28.571  -2.087 -16.989  1.00 35.49     0.666 C 
ATOM      7  NH1 ARG D 557     -27.478  -2.187 -16.256  1.00 35.49    -0.235 N 
ATOM      8  NH2 ARG D 557     -29.033  -3.129 -17.617  1.00 35.49    -0.235 N 
ATOM      9  HH  ARG D 557     -27.157  -1.515 -15.833  1.00 35.49     0.174 HD
ATOM     10  HH  ARG D 557     -27.087  -2.949 -16.210  1.00 35.49     0.174 HD
ATOM     11  HH  ARG D 557     -29.745  -3.036 -18.077  1.00 35.49     0.174 HD
ATOM     12  HH  ARG D 557     -28.633  -3.874 -17.557  1.00 35.49     0.174 HD
ATOM     13  HE  ARG D 557     -29.885  -0.968 -17.663  1.00 35.49     0.178 HD
ENDBRANCH   4   5
ENDBRANCH   3   4
ENDBRANCH   2   3
ENDBRANCH   1   2
END_RES ARG D 557
BEGIN_RES GLU D 570
REMARK  3 active torsions:
REMARK  status: ('A' for Active; 'I' for Inactive)
REMARK    5  A    between atoms: CA   and  CB  
REMARK    6  A    between atoms: CB   and  CG  
REMARK    7  A    between atoms: CG   and  CD  
ROOT
ATOM     14  CA  GLU D 570     -18.033  -6.348 -13.375  1.00 32.92     0.160 C 
ENDROOT
BRANCH  14  15
ATOM     15  CB  GLU D 570     -19.500  -6.345 -13.794  1.00 32.92     0.043 C 
BRANCH  15  16
ATOM     16  CG  GLU D 570     -19.798  -6.197 -15.242  1.00 32.92     0.100 C 
BRANCH  16  17
ATOM     17  CD  GLU D 570     -21.145  -5.566 -15.505  1.00 32.92     0.185 C 
ATOM     18  OE1 GLU D 570     -21.362  -5.042 -16.614  1.00 32.92    -0.647 OA
ATOM     19  OE2 GLU D 570     -21.988  -5.581 -14.586  1.00 32.92    -0.647 OA
ENDBRANCH  16  17
ENDBRANCH  15  16
ENDBRANCH  14  15
END_RES GLU D 570
ENDMDL
MODEL 3
REMARK VINA RESULT:      -7.2      1.826      2.210
REMARK  14 active torsions:
REMARK  status: ('A' for Active; 'I' for Inactive)
REMARK    1  A    between atoms: C_2  and  C_3 
REMARK    2  A    between atoms: C_4  and  C_5 
REMARK    3  A    between atoms: C_5  and  C_6 
REMARK    4  A    between atoms: C_7  and  C_8 
REMARK    5  A    between atoms: C_8  and  C_9 
REMARK    6  A    between atoms: C_10  and  C_11 
REMARK    7  A    between atoms: C_11  and  C_12 
REMARK    8  A    between atoms: C_12  and  C_13 
REMARK    9  A    between atoms: C_13  and  C_14 
REMARK   10  A    between atoms: C_14  and  C_15 
REMARK   11  A    between atoms: C_15  and  C_16 
REMARK   12  A    between atoms: C_16  and  C_17 
REMARK   13  A    between atoms: C_17  and  C_18 
REMARK   14  A    between atoms: C_18  and  O_20 
ROOT
HETATM    1  C   UNL     1     -20.947  -6.306  -6.020  1.00  0.00     0.027 C 
ENDROOT
BRANCH   1   2
HETATM    2  C   UNL     1     -21.700  -6.520  -4.748  1.00  0.00    -0.030 C 
HETATM    3  C   UNL     1     -21.311  -5.987  -3.580  1.00  0.00    -0.027 C 
BRANCH   3   4
HETATM    4  C   UNL     1     -22.056  -6.201  -2.302  1.00  0.00     0.053 C 
BRANCH   4   5
HETATM    5  C   UNL     1     -21.463  -7.320  -1.504  1.00  0.00    -0.027 C 
HETATM    6  C   UNL     1     -22.058  -7.834  -0.417  1.00  0.00    -0.027 C 
BRANCH   6   7
HETATM    7  C   UNL     1     -21.469  -8.953   0.381  1.00  0.00     0.053 C 
BRANCH   7   8
HETATM    8  C   UNL     1     -22.249 -10.221   0.214  1.00  0.00    -0.027 C 
HETATM    9  C   UNL     1     -23.446 -10.269  -0.391  1.00  0.00    -0.031 C 
BRANCH   9  10
HETATM   10  C   UNL     1     -24.222 -11.538  -0.562  1.00  0.00     0.022 C 
HETATM   11  C   UNL     1     -23.456 -12.537  -1.413  1.00  0.00     0.009 C 
ENDBRANCH   9  10
ENDBRANCH   7   8
ENDBRANCH   6   7
ENDBRANCH   4   5
ENDBRANCH   3   4
ENDBRANCH   1   2
BRANCH   1  12
HETATM   12  C   UNL     1     -20.254  -4.949  -6.012  1.00  0.00     0.004 C 
BRANCH  12  13
HETATM   13  C   UNL     1     -20.873  -4.033  -7.059  1.00  0.00     0.000 C 
BRANCH  13  14
HETATM   14  C   UNL     1     -20.100  -4.115  -8.368  1.00  0.00     0.000 C 
BRANCH  14  15
HETATM   15  C   UNL     1     -21.058  -4.246  -9.549  1.00  0.00     0.001 C 
BRANCH  15  16
HETATM   16  C   UNL     1     -22.483  -3.931  -9.114  1.00  0.00     0.010 C 
BRANCH  16  17
HETATM   17  C   UNL     1     -23.523  -4.483 -10.088  1.00  0.00     0.110 C 
BRANCH  17  18
HETATM   18  C   UNL     1     -24.496  -3.392 -10.470  1.00  0.00     0.139 C 
HETATM   19  O   UNL     1     -25.523  -3.132  -9.875  1.00  0.00    -0.650 OA
BRANCH  18  20
HETATM   20  O   UNL     1     -24.120  -2.698 -11.572  1.00  0.00    -0.776 OA
HETATM   21  H   UNL     1     -23.251  -2.255 -11.505  1.00  0.00     0.167 HD
ENDBRANCH  18  20
ENDBRANCH  17  18
ENDBRANCH  16  17
ENDBRANCH  15  16
ENDBRANCH  14  15
ENDBRANCH  13  14
ENDBRANCH  12  13
ENDBRANCH   1  12
TORSDOF 14
BEGIN_RES ARG D 557
REMARK  4 active torsions:
REMARK  status: ('A' for Active; 'I' for Inactive)
REMARK    1  A    between atoms: CA   and  CB  
REMARK    2  A    between atoms: CB   and  CG  
REMARK    3  A    between atoms: CG   and  CD  
REMARK    4  A    between atoms: CD   and  NE  
REMARK       I    between atoms: NE   and  CZ  
REMARK       I    between atoms: CZ   and  NH1 
REMARK       I    between atoms: CZ   and  NH2 
ROOT
ATOM      1  CA  ARG D 557     -26.217   2.705 -17.014  1.00 35.49     0.159 C 
ENDROOT
BRANCH   1   2
ATOM      2  CB  ARG D 557     -26.789   1.319 -17.183  1.00 35.49     0.034 C 
BRANCH   2   3
ATOM      3  CG  ARG D 557     -28.252   1.207 -17.207  1.00 35.49     0.027 C 
BRANCH   3   4
ATOM      4  CD  ARG D 557     -28.749   0.115 -16.338  1.00 35.49     0.116 C 
BRANCH   4   5
ATOM      5  NE  ARG D 557     -29.371  -0.940 -17.094  1.00 35.49    -0.212 N 
ATOM      6  CZ  ARG D 557     -28.958  -2.186 -17.157  1.00 35.49     0.666 C 
ATOM      7  NH1 ARG D 557     -27.882  -2.609 -16.521  1.00 35.49    -0.235 N 
ATOM      8  NH2 ARG D 557     -29.659  -3.014 -17.876  1.00 35.49    -0.235 N 
ATOM      9  HH  ARG D 557     -27.407  -2.082 -16.041  1.00 35.49     0.174 HD
ATOM     10  HH  ARG D 557     -27.662  -3.434 -16.597  1.00 35.49     0.174 HD
ATOM     11  HH  ARG D 557     -30.353  -2.714 -18.270  1.00 35.49     0.174 HD
ATOM     12  HH  ARG D 557     -29.426  -3.827 -17.938  1.00 35.49     0.174 HD
ATOM     13  HE  ARG D 557     -30.030  -0.738 -17.592  1.00 35.49     0.178 HD
ENDBRANCH   4   5
ENDBRANCH   3   4
ENDBRANCH   2   3
ENDBRANCH   1   2
END_RES ARG D 557
BEGIN_RES GLU D 570
REMARK  3 active torsions:
REMARK  status: ('A' for Active; 'I' for Inactive)
REMARK    5  A    between atoms: CA   and  CB  
REMARK    6  A    between atoms: CB   and  CG  
REMARK    7  A    between atoms: CG   and  CD  
ROOT
ATOM     14  CA  GLU D 570     -18.033  -6.348 -13.375  1.00 32.92     0.160 C 
ENDROOT
BRANCH  14  15
ATOM     15  CB  GLU D 570     -19.500  -6.345 -13.794  1.00 32.92     0.043 C 
BRANCH  15  16
ATOM     16  CG  GLU D 570     -20.449  -5.564 -12.959  1.00 32.92     0.100 C 
BRANCH  16  17
ATOM     17  CD  GLU D 570     -21.756  -5.279 -13.662  1.00 32.92     0.185 C 
ATOM     18  OE1 GLU D 570     -22.231  -6.140 -14.427  1.00 32.92    -0.647 OA
ATOM     19  OE2 GLU D 570     -22.302  -4.177 -13.457  1.00 32.92    -0.647 OA
ENDBRANCH  16  17
ENDBRANCH  15  16
ENDBRANCH  14  15
END_RES GLU D 570
ENDMDL
MODEL 4
REMARK VINA RESULT:      -6.9      1.373      2.066
REMARK  14 active torsions:
REMARK  status: ('A' for Active; 'I' for Inactive)
REMARK    1  A    between atoms: C_2  and  C_3 
REMARK    2  A    between atoms: C_4  and  C_5 
REMARK    3  A    between atoms: C_5  and  C_6 
REMARK    4  A    between atoms: C_7  and  C_8 
REMARK    5  A    between atoms: C_8  and  C_9 
REMARK    6  A    between atoms: C_10  and  C_11 
REMARK    7  A    between atoms: C_11  and  C_12 
REMARK    8  A    between atoms: C_12  and  C_13 
REMARK    9  A    between atoms: C_13  and  C_14 
REMARK   10  A    between atoms: C_14  and  C_15 
REMARK   11  A    between atoms: C_15  and  C_16 
REMARK   12  A    between atoms: C_16  and  C_17 
REMARK   13  A    between atoms: C_17  and  C_18 
REMARK   14  A    between atoms: C_18  and  O_20 
ROOT
HETATM    1  C   UNL     1     -19.740  -4.897  -6.652  1.00  0.00     0.027 C 
ENDROOT
BRANCH   1   2
HETATM    2  C   UNL     1     -20.908  -5.131  -5.749  1.00  0.00    -0.030 C 
HETATM    3  C   UNL     1     -20.978  -6.180  -4.918  1.00  0.00    -0.027 C 
BRANCH   3   4
HETATM    4  C   UNL     1     -22.145  -6.425  -4.015  1.00  0.00     0.053 C 
BRANCH   4   5
HETATM    5  C   UNL     1     -21.708  -6.973  -2.693  1.00  0.00    -0.027 C 
HETATM    6  C   UNL     1     -22.407  -6.791  -1.562  1.00  0.00    -0.027 C 
BRANCH   6   7
HETATM    7  C   UNL     1     -21.972  -7.339  -0.240  1.00  0.00     0.053 C 
BRANCH   7   8
HETATM    8  C   UNL     1     -22.866  -8.452   0.217  1.00  0.00    -0.027 C 
HETATM    9  C   UNL     1     -22.911  -9.649  -0.389  1.00  0.00    -0.031 C 
BRANCH   9  10
HETATM   10  C   UNL     1     -23.801 -10.762   0.072  1.00  0.00     0.022 C 
HETATM   11  C   UNL     1     -24.072 -11.746  -1.053  1.00  0.00     0.009 C 
ENDBRANCH   9  10
ENDBRANCH   7   8
ENDBRANCH   6   7
ENDBRANCH   4   5
ENDBRANCH   3   4
ENDBRANCH   1   2
BRANCH   1  12
HETATM   12  C   UNL     1     -20.070  -5.322  -8.077  1.00  0.00     0.004 C 
BRANCH  12  13
HETATM   13  C   UNL     1     -20.321  -4.098  -8.948  1.00  0.00     0.000 C 
BRANCH  13  14
HETATM   14  C   UNL     1     -20.160  -4.446 -10.422  1.00  0.00     0.000 C 
BRANCH  14  15
HETATM   15  C   UNL     1     -21.186  -3.694 -11.265  1.00  0.00     0.001 C 
BRANCH  15  16
HETATM   16  C   UNL     1     -22.563  -4.326 -11.115  1.00  0.00     0.010 C 
BRANCH  16  17
HETATM   17  C   UNL     1     -23.670  -3.283 -10.969  1.00  0.00     0.110 C 
BRANCH  17  18
HETATM   18  C   UNL     1     -24.423  -3.512  -9.679  1.00  0.00     0.139 C 
HETATM   19  O   UNL     1     -23.930  -3.920  -8.646  1.00  0.00    -0.650 OA
BRANCH  18  20
HETATM   20  O   UNL     1     -25.743  -3.216  -9.767  1.00  0.00    -0.776 OA
HETATM   21  H   UNL     1     -26.169  -2.973  -8.922  1.00  0.00     0.167 HD
ENDBRANCH  18  20
ENDBRANCH  17  18
ENDBRANCH  16  17
ENDBRANCH  15  16
ENDBRANCH  14  15
ENDBRANCH  13  14
ENDBRANCH  12  13
ENDBRANCH   1  12
TORSDOF 14
BEGIN_RES ARG D 557
REMARK  4 active torsions:
REMARK  status: ('A' for Active; 'I' for Inactive)
REMARK    1  A    between atoms: CA   and  CB  
REMARK    2  A    between atoms: CB   and  CG  
REMARK    3  A    between atoms: CG   and  CD  
REMARK    4  A    between atoms: CD   and  NE  
REMARK       I    between atoms: NE   and  CZ  
REMARK       I    between atoms: CZ   and  NH1 
REMARK       I    between atoms: CZ   and  NH2 
ROOT
ATOM      1  CA  ARG D 557     -26.217   2.705 -17.014  1.00 35.49     0.159 C 
ENDROOT
BRANCH   1   2
ATOM      2  CB  ARG D 557     -26.789   1.319 -17.183  1.00 35.49     0.034 C 
BRANCH   2   3
ATOM      3  CG  ARG D 557     -25.875   0.194 -16.949  1.00 35.49     0.027 C 
BRANCH   3   4
ATOM      4  CD  ARG D 557     -25.635  -0.047 -15.508  1.00 35.49     0.116 C 
BRANCH   4   5
ATOM      5  NE  ARG D 557     -24.378  -0.707 -15.271  1.00 35.49    -0.212 N 
ATOM      6  CZ  ARG D 557     -24.220  -1.864 -14.668  1.00 35.49     0.666 C 
ATOM      7  NH1 ARG D 557     -25.235  -2.558 -14.186  1.00 35.49    -0.235 N 
ATOM      8  NH2 ARG D 557     -23.007  -2.323 -14.559  1.00 35.49    -0.235 N 
ATOM      9  HH  ARG D 557     -26.041  -2.275 -14.249  1.00 35.49     0.174 HD
ATOM     10  HH  ARG D 557     -25.071  -3.307 -13.805  1.00 35.49     0.174 HD
ATOM     11  HH  ARG D 557     -22.372  -1.857 -14.886  1.00 35.49     0.174 HD
ATOM     12  HH  ARG D 557     -22.865  -3.068 -14.179  1.00 35.49     0.174 HD
ATOM     13  HE  ARG D 557     -23.665  -0.296 -15.484  1.00 35.49     0.178 HD
ENDBRANCH   4   5
ENDBRANCH   3   4
ENDBRANCH   2   3
ENDBRANCH   1   2
END_RES ARG D 557
BEGIN_RES GLU D 570
REMARK  3 active torsions:
REMARK  status: ('A' for Active; 'I' for Inactive)
REMARK    5  A    between atoms: CA   and  CB  
REMARK    6  A    between atoms: CB   and  CG  
REMARK    7  A    between atoms: CG   and  CD  
ROOT
ATOM     14  CA  GLU D 570     -18.033  -6.348 -13.375  1.00 32.92     0.160 C 
ENDROOT
BRANCH  14  15
ATOM     15  CB  GLU D 570     -19.500  -6.345 -13.794  1.00 32.92     0.043 C 
BRANCH  15  16
ATOM     16  CG  GLU D 570     -19.800  -6.139 -15.235  1.00 32.92     0.100 C 
BRANCH  16  17
ATOM     17  CD  GLU D 570     -21.107  -5.418 -15.467  1.00 32.92     0.185 C 
ATOM     18  OE1 GLU D 570     -21.827  -5.138 -14.489  1.00 32.92    -0.647 OA
ATOM     19  OE2 GLU D 570     -21.424  -5.145 -16.642  1.00 32.92    -0.647 OA
ENDBRANCH  16  17
ENDBRANCH  15  16
ENDBRANCH  14  15
END_RES GLU D 570
ENDMDL
MODEL 5
REMARK VINA RESULT:      -6.8      1.802      2.884
REMARK  14 active torsions:
REMARK  status: ('A' for Active; 'I' for Inactive)
REMARK    1  A    between atoms: C_2  and  C_3 
REMARK    2  A    between atoms: C_4  and  C_5 
REMARK    3  A    between atoms: C_5  and  C_6 
REMARK    4  A    between atoms: C_7  and  C_8 
REMARK    5  A    between atoms: C_8  and  C_9 
REMARK    6  A    between atoms: C_10  and  C_11 
REMARK    7  A    between atoms: C_11  and  C_12 
REMARK    8  A    between atoms: C_12  and  C_13 
REMARK    9  A    between atoms: C_13  and  C_14 
REMARK   10  A    between atoms: C_14  and  C_15 
REMARK   11  A    between atoms: C_15  and  C_16 
REMARK   12  A    between atoms: C_16  and  C_17 
REMARK   13  A    between atoms: C_17  and  C_18 
REMARK   14  A    between atoms: C_18  and  O_20 
ROOT
HETATM    1  C   UNL     1     -21.614  -6.083  -2.893  1.00  0.00     0.027 C 
ENDROOT
BRANCH   1   2
HETATM    2  C   UNL     1     -22.214  -6.552  -1.608  1.00  0.00    -0.030 C 
HETATM    3  C   UNL     1     -21.689  -7.556  -0.890  1.00  0.00    -0.027 C 
BRANCH   3   4
HETATM    4  C   UNL     1     -22.285  -8.035   0.395  1.00  0.00     0.053 C 
BRANCH   4   5
HETATM    5  C   UNL     1     -23.302  -9.107   0.159  1.00  0.00    -0.027 C 
HETATM    6  C   UNL     1     -23.008 -10.269  -0.445  1.00  0.00    -0.027 C 
BRANCH   6   7
HETATM    7  C   UNL     1     -24.022 -11.343  -0.681  1.00  0.00     0.053 C 
BRANCH   7   8
HETATM    8  C   UNL     1     -23.704 -12.583   0.097  1.00  0.00    -0.027 C 
HETATM    9  C   UNL     1     -22.700 -12.652   0.985  1.00  0.00    -0.031 C 
BRANCH   9  10
HETATM   10  C   UNL     1     -22.387 -13.891   1.766  1.00  0.00     0.022 C 
HETATM   11  C   UNL     1     -23.569 -14.310   2.624  1.00  0.00     0.009 C 
ENDBRANCH   9  10
ENDBRANCH   7   8
ENDBRANCH   6   7
ENDBRANCH   4   5
ENDBRANCH   3   4
ENDBRANCH   1   2
BRANCH   1  12
HETATM   12  C   UNL     1     -21.427  -7.249  -3.856  1.00  0.00     0.004 C 
BRANCH  12  13
HETATM   13  C   UNL     1     -21.000  -6.739  -5.226  1.00  0.00     0.000 C 
BRANCH  13  14
HETATM   14  C   UNL     1     -20.505  -5.302  -5.133  1.00  0.00     0.000 C 
BRANCH  14  15
HETATM   15  C   UNL     1     -19.869  -4.869  -6.450  1.00  0.00     0.001 C 
BRANCH  15  16
HETATM   16  C   UNL     1     -20.858  -5.031  -7.597  1.00  0.00     0.010 C 
BRANCH  16  17
HETATM   17  C   UNL     1     -21.876  -3.893  -7.652  1.00  0.00     0.110 C 
BRANCH  17  18
HETATM   18  C   UNL     1     -22.895  -4.170  -8.733  1.00  0.00     0.139 C 
HETATM   19  O   UNL     1     -22.654  -4.696  -9.802  1.00  0.00    -0.650 OA
BRANCH  18  20
HETATM   20  O   UNL     1     -24.148  -3.771  -8.406  1.00  0.00    -0.776 OA
HETATM   21  H   UNL     1     -24.346  -2.833  -8.597  1.00  0.00     0.167 HD
ENDBRANCH  18  20
ENDBRANCH  17  18
ENDBRANCH  16  17
ENDBRANCH  15  16
ENDBRANCH  14  15
ENDBRANCH  13  14
ENDBRANCH  12  13
ENDBRANCH   1  12
TORSDOF 14
BEGIN_RES ARG D 557
REMARK  4 active torsions:
REMARK  status: ('A' for Active; 'I' for Inactive)
REMARK    1  A    between atoms: CA   and  CB  
REMARK    2  A    between atoms: CB   and  CG  
REMARK    3  A    between atoms: CG   and  CD  
REMARK    4  A    between atoms: CD   and  NE  
REMARK       I    between atoms: NE   and  CZ  
REMARK       I    between atoms: CZ   and  NH1 
REMARK       I    between atoms: CZ   and  NH2 
ROOT
ATOM      1  CA  ARG D 557     -26.217   2.705 -17.014  1.00 35.49     0.159 C 
ENDROOT
BRANCH   1   2
ATOM      2  CB  ARG D 557     -26.789   1.319 -17.183  1.00 35.49     0.034 C 
BRANCH   2   3
ATOM      3  CG  ARG D 557     -28.187   1.127 -16.778  1.00 35.49     0.027 C 
BRANCH   3   4
ATOM      4  CD  ARG D 557     -28.719  -0.190 -17.195  1.00 35.49     0.116 C 
BRANCH   4   5
ATOM      5  NE  ARG D 557     -27.995  -1.281 -16.598  1.00 35.49    -0.212 N 
ATOM      6  CZ  ARG D 557     -28.244  -2.559 -16.779  1.00 35.49     0.666 C 
ATOM      7  NH1 ARG D 557     -29.230  -2.988 -17.546  1.00 35.49    -0.235 N 
ATOM      8  NH2 ARG D 557     -27.471  -3.413 -16.174  1.00 35.49    -0.235 N 
ATOM      9  HH  ARG D 557     -29.750  -2.443 -17.955  1.00 35.49     0.174 HD
ATOM     10  HH  ARG D 557     -29.343  -3.833 -17.629  1.00 35.49     0.174 HD
ATOM     11  HH  ARG D 557     -26.837  -3.107 -15.691  1.00 35.49     0.174 HD
ATOM     12  HH  ARG D 557     -27.598  -4.246 -16.270  1.00 35.49     0.174 HD
ATOM     13  HE  ARG D 557     -27.389  -1.095 -16.031  1.00 35.49     0.178 HD
ENDBRANCH   4   5
ENDBRANCH   3   4
ENDBRANCH   2   3
ENDBRANCH   1   2
END_RES ARG D 557
BEGIN_RES GLU D 570
REMARK  3 active torsions:
REMARK  status: ('A' for Active; 'I' for Inactive)
REMARK    5  A    between atoms: CA   and  CB  
REMARK    6  A    between atoms: CB   and  CG  
REMARK    7  A    between atoms: CG   and  CD  
ROOT
ATOM     14  CA  GLU D 570     -18.033  -6.348 -13.375  1.00 32.92     0.160 C 
ENDROOT
BRANCH  14  15
ATOM     15  CB  GLU D 570     -19.500  -6.345 -13.794  1.00 32.92     0.043 C 
BRANCH  15  16
ATOM     16  CG  GLU D 570     -20.444  -5.543 -12.974  1.00 32.92     0.100 C 
BRANCH  16  17
ATOM     17  CD  GLU D 570     -21.741  -5.244 -13.691  1.00 32.92     0.185 C 
ATOM     18  OE1 GLU D 570     -22.167  -6.057 -14.534  1.00 32.92    -0.647 OA
ATOM     19  OE2 GLU D 570     -22.327  -4.179 -13.419  1.00 32.92    -0.647 OA
ENDBRANCH  16  17
ENDBRANCH  15  16
ENDBRANCH  14  15
END_RES GLU D 570
ENDMDL
MODEL 6
REMARK VINA RESULT:      -6.7      4.807      9.404
REMARK  14 active torsions:
REMARK  status: ('A' for Active; 'I' for Inactive)
REMARK    1  A    between atoms: C_2  and  C_3 
REMARK    2  A    between atoms: C_4  and  C_5 
REMARK    3  A    between atoms: C_5  and  C_6 
REMARK    4  A    between atoms: C_7  and  C_8 
REMARK    5  A    between atoms: C_8  and  C_9 
REMARK    6  A    between atoms: C_10  and  C_11 
REMARK    7  A    between atoms: C_11  and  C_12 
REMARK    8  A    between atoms: C_12  and  C_13 
REMARK    9  A    between atoms: C_13  and  C_14 
REMARK   10  A    between atoms: C_14  and  C_15 
REMARK   11  A    between atoms: C_15  and  C_16 
REMARK   12  A    between atoms: C_16  and  C_17 
REMARK   13  A    between atoms: C_17  and  C_18 
REMARK   14  A    between atoms: C_18  and  O_20 
ROOT
HETATM    1  C   UNL     1     -25.154  -7.036 -15.504  1.00  0.00     0.027 C 
ENDROOT
BRANCH   1   2
HETATM    2  C   UNL     1     -24.110  -5.979 -15.340  1.00  0.00    -0.030 C 
HETATM    3  C   UNL     1     -23.666  -5.583 -14.138  1.00  0.00    -0.027 C 
BRANCH   3   4
HETATM    4  C   UNL     1     -22.625  -4.523 -13.965  1.00  0.00     0.053 C 
BRANCH   4   5
HETATM    5  C   UNL     1     -22.658  -3.945 -12.585  1.00  0.00    -0.027 C 
HETATM    6  C   UNL     1     -21.800  -4.313 -11.621  1.00  0.00    -0.027 C 
BRANCH   6   7
HETATM    7  C   UNL     1     -21.830  -3.736 -10.241  1.00  0.00     0.053 C 
BRANCH   7   8
HETATM    8  C   UNL     1     -20.747  -4.310  -9.379  1.00  0.00    -0.027 C 
HETATM    9  C   UNL     1     -20.835  -4.376  -8.042  1.00  0.00    -0.031 C 
BRANCH   9  10
HETATM   10  C   UNL     1     -19.754  -4.954  -7.182  1.00  0.00     0.022 C 
HETATM   11  C   UNL     1     -20.052  -4.736  -5.709  1.00  0.00     0.009 C 
ENDBRANCH   9  10
ENDBRANCH   7   8
ENDBRANCH   6   7
ENDBRANCH   4   5
ENDBRANCH   3   4
ENDBRANCH   1   2
BRANCH   1  12
HETATM   12  C   UNL     1     -26.353  -6.491 -16.270  1.00  0.00     0.004 C 
BRANCH  12  13
HETATM   13  C   UNL     1     -27.645  -7.061 -15.701  1.00  0.00     0.000 C 
BRANCH  13  14
HETATM   14  C   UNL     1     -28.824  -6.159 -16.040  1.00  0.00     0.000 C 
BRANCH  14  15
HETATM   15  C   UNL     1     -29.656  -6.766 -17.167  1.00  0.00     0.001 C 
BRANCH  15  16
HETATM   16  C   UNL     1     -31.011  -6.078 -17.257  1.00  0.00     0.010 C 
BRANCH  16  17
HETATM   17  C   UNL     1     -31.035  -4.741 -16.517  1.00  0.00     0.110 C 
BRANCH  17  18
HETATM   18  C   UNL     1     -31.423  -3.635 -17.471  1.00  0.00     0.139 C 
HETATM   19  O   UNL     1     -32.546  -3.188 -17.602  1.00  0.00    -0.650 OA
BRANCH  18  20
HETATM   20  O   UNL     1     -30.382  -3.160 -18.196  1.00  0.00    -0.776 OA
HETATM   21  H   UNL     1     -29.531  -3.619 -18.048  1.00  0.00     0.167 HD
ENDBRANCH  18  20
ENDBRANCH  17  18
ENDBRANCH  16  17
ENDBRANCH  15  16
ENDBRANCH  14  15
ENDBRANCH  13  14
ENDBRANCH  12  13
ENDBRANCH   1  12
TORSDOF 14
BEGIN_RES ARG D 557
REMARK  4 active torsions:
REMARK  status: ('A' for Active; 'I' for Inactive)
REMARK    1  A    between atoms: CA   and  CB  
REMARK    2  A    between atoms: CB   and  CG  
REMARK    3  A    between atoms: CG   and  CD  
REMARK    4  A    between atoms: CD   and  NE  
REMARK       I    between atoms: NE   and  CZ  
REMARK       I    between atoms: CZ   and  NH1 
REMARK       I    between atoms: CZ   and  NH2 
ROOT
ATOM      1  CA  ARG D 557     -26.217   2.705 -17.014  1.00 35.49     0.159 C 
ENDROOT
BRANCH   1   2
ATOM      2  CB  ARG D 557     -26.789   1.319 -17.183  1.00 35.49     0.034 C 
BRANCH   2   3
ATOM      3  CG  ARG D 557     -28.240   1.178 -17.012  1.00 35.49     0.027 C 
BRANCH   3   4
ATOM      4  CD  ARG D 557     -28.622  -0.165 -16.518  1.00 35.49     0.116 C 
BRANCH   4   5
ATOM      5  NE  ARG D 557     -27.528  -0.833 -15.864  1.00 35.49    -0.212 N 
ATOM      6  CZ  ARG D 557     -27.234  -2.110 -15.971  1.00 35.49     0.666 C 
ATOM      7  NH1 ARG D 557     -27.949  -2.943 -16.704  1.00 35.49    -0.235 N 
ATOM      8  NH2 ARG D 557     -26.191  -2.542 -15.323  1.00 35.49    -0.235 N 
ATOM      9  HH  ARG D 557     -28.638  -2.680 -17.141  1.00 35.49     0.174 HD
ATOM     10  HH  ARG D 557     -27.708  -3.765 -16.738  1.00 35.49     0.174 HD
ATOM     11  HH  ARG D 557     -25.744  -1.980 -14.863  1.00 35.49     0.174 HD
ATOM     12  HH  ARG D 557     -25.968  -3.359 -15.371  1.00 35.49     0.174 HD
ATOM     13  HE  ARG D 557     -27.058  -0.387 -15.314  1.00 35.49     0.178 HD
ENDBRANCH   4   5
ENDBRANCH   3   4
ENDBRANCH   2   3
ENDBRANCH   1   2
END_RES ARG D 557
BEGIN_RES GLU D 570
REMARK  3 active torsions:
REMARK  status: ('A' for Active; 'I' for Inactive)
REMARK    5  A    between atoms: CA   and  CB  
REMARK    6  A    between atoms: CB   and  CG  
REMARK    7  A    between atoms: CG   and  CD  
ROOT
ATOM     14  CA  GLU D 570     -18.033  -6.348 -13.375  1.00 32.92     0.160 C 
ENDROOT
BRANCH  14  15
ATOM     15  CB  GLU D 570     -19.500  -6.345 -13.794  1.00 32.92     0.043 C 
BRANCH  15  16
ATOM     16  CG  GLU D 570     -20.091  -7.638 -14.227  1.00 32.92     0.100 C 
BRANCH  16  17
ATOM     17  CD  GLU D 570     -20.689  -7.578 -15.613  1.00 32.92     0.185 C 
ATOM     18  OE1 GLU D 570     -20.609  -6.517 -16.261  1.00 32.92    -0.647 OA
ATOM     19  OE2 GLU D 570     -21.259  -8.598 -16.048  1.00 32.92    -0.647 OA
ENDBRANCH  16  17
ENDBRANCH  15  16
ENDBRANCH  14  15
END_RES GLU D 570
ENDMDL
MODEL 7
REMARK VINA RESULT:      -6.7      1.256      2.439
REMARK  14 active torsions:
REMARK  status: ('A' for Active; 'I' for Inactive)
REMARK    1  A    between atoms: C_2  and  C_3 
REMARK    2  A    between atoms: C_4  and  C_5 
REMARK    3  A    between atoms: C_5  and  C_6 
REMARK    4  A    between atoms: C_7  and  C_8 
REMARK    5  A    between atoms: C_8  and  C_9 
REMARK    6  A    between atoms: C_10  and  C_11 
REMARK    7  A    between atoms: C_11  and  C_12 
REMARK    8  A    between atoms: C_12  and  C_13 
REMARK    9  A    between atoms: C_13  and  C_14 
REMARK   10  A    between atoms: C_14  and  C_15 
REMARK   11  A    between atoms: C_15  and  C_16 
REMARK   12  A    between atoms: C_16  and  C_17 
REMARK   13  A    between atoms: C_17  and  C_18 
REMARK   14  A    between atoms: C_18  and  O_20 
ROOT
HETATM    1  C   UNL     1     -21.403  -5.983  -2.761  1.00  0.00     0.027 C 
ENDROOT
BRANCH   1   2
HETATM    2  C   UNL     1     -22.283  -6.576  -1.709  1.00  0.00    -0.030 C 
HETATM    3  C   UNL     1     -21.880  -7.572  -0.907  1.00  0.00    -0.027 C 
BRANCH   3   4
HETATM    4  C   UNL     1     -22.756  -8.173   0.145  1.00  0.00     0.053 C 
BRANCH   4   5
HETATM    5  C   UNL     1     -22.726  -9.668   0.091  1.00  0.00    -0.027 C 
HETATM    6  C   UNL     1     -23.770 -10.403  -0.324  1.00  0.00    -0.027 C 
BRANCH   6   7
HETATM    7  C   UNL     1     -23.744 -11.897  -0.380  1.00  0.00     0.053 C 
BRANCH   7   8
HETATM    8  C   UNL     1     -23.217 -12.487   0.893  1.00  0.00    -0.027 C 
HETATM    9  C   UNL     1     -23.404 -13.771   1.236  1.00  0.00    -0.031 C 
BRANCH   9  10
HETATM   10  C   UNL     1     -22.872 -14.360   2.506  1.00  0.00     0.022 C 
HETATM   11  C   UNL     1     -24.000 -14.885   3.378  1.00  0.00     0.009 C 
ENDBRANCH   9  10
ENDBRANCH   7   8
ENDBRANCH   6   7
ENDBRANCH   4   5
ENDBRANCH   3   4
ENDBRANCH   1   2
BRANCH   1  12
HETATM   12  C   UNL     1     -21.612  -6.689  -4.096  1.00  0.00     0.004 C 
BRANCH  12  13
HETATM   13  C   UNL     1     -21.296  -5.744  -5.247  1.00  0.00     0.000 C 
BRANCH  13  14
HETATM   14  C   UNL     1     -20.356  -6.409  -6.244  1.00  0.00     0.000 C 
BRANCH  14  15
HETATM   15  C   UNL     1     -20.319  -5.623  -7.552  1.00  0.00     0.001 C 
BRANCH  15  16
HETATM   16  C   UNL     1     -21.641  -4.901  -7.775  1.00  0.00     0.010 C 
BRANCH  16  17
HETATM   17  C   UNL     1     -21.831  -4.473  -9.230  1.00  0.00     0.110 C 
BRANCH  17  18
HETATM   18  C   UNL     1     -23.306  -4.362  -9.542  1.00  0.00     0.139 C 
HETATM   19  O   UNL     1     -24.076  -3.586  -9.010  1.00  0.00    -0.650 OA
BRANCH  18  20
HETATM   20  O   UNL     1     -23.720  -5.228 -10.499  1.00  0.00    -0.776 OA
HETATM   21  H   UNL     1     -23.035  -5.846 -10.822  1.00  0.00     0.167 HD
ENDBRANCH  18  20
ENDBRANCH  17  18
ENDBRANCH  16  17
ENDBRANCH  15  16
ENDBRANCH  14  15
ENDBRANCH  13  14
ENDBRANCH  12  13
ENDBRANCH   1  12
TORSDOF 14
BEGIN_RES ARG D 557
REMARK  4 active torsions:
REMARK  status: ('A' for Active; 'I' for Inactive)
REMARK    1  A    between atoms: CA   and  CB  
REMARK    2  A    between atoms: CB   and  CG  
REMARK    3  A    between atoms: CG   and  CD  
REMARK    4  A    between atoms: CD   and  NE  
REMARK       I    between atoms: NE   and  CZ  
REMARK       I    between atoms: CZ   and  NH1 
REMARK       I    between atoms: CZ   and  NH2 
ROOT
ATOM      1  CA  ARG D 557     -26.217   2.705 -17.014  1.00 35.49     0.159 C 
ENDROOT
BRANCH   1   2
ATOM      2  CB  ARG D 557     -26.789   1.319 -17.183  1.00 35.49     0.034 C 
BRANCH   2   3
ATOM      3  CG  ARG D 557     -25.864   0.195 -16.992  1.00 35.49     0.027 C 
BRANCH   3   4
ATOM      4  CD  ARG D 557     -26.289  -0.706 -15.896  1.00 35.49     0.116 C 
BRANCH   4   5
ATOM      5  NE  ARG D 557     -25.245  -0.911 -14.927  1.00 35.49    -0.212 N 
ATOM      6  CZ  ARG D 557     -24.949  -2.052 -14.347  1.00 35.49     0.666 C 
ATOM      7  NH1 ARG D 557     -25.614  -3.166 -14.593  1.00 35.49    -0.235 N 
ATOM      8  NH2 ARG D 557     -23.955  -2.059 -13.508  1.00 35.49    -0.235 N 
ATOM      9  HH  ARG D 557     -26.270  -3.185 -15.144  1.00 35.49     0.174 HD
ATOM     10  HH  ARG D 557     -25.374  -3.882 -14.187  1.00 35.49     0.174 HD
ATOM     11  HH  ARG D 557     -23.539  -1.326 -13.374  1.00 35.49     0.174 HD
ATOM     12  HH  ARG D 557     -23.732  -2.778 -13.117  1.00 35.49     0.174 HD
ATOM     13  HE  ARG D 557     -24.813  -0.231 -14.655  1.00 35.49     0.178 HD
ENDBRANCH   4   5
ENDBRANCH   3   4
ENDBRANCH   2   3
ENDBRANCH   1   2
END_RES ARG D 557
BEGIN_RES GLU D 570
REMARK  3 active torsions:
REMARK  status: ('A' for Active; 'I' for Inactive)
REMARK    5  A    between atoms: CA   and  CB  
REMARK    6  A    between atoms: CB   and  CG  
REMARK    7  A    between atoms: CG   and  CD  
ROOT
ATOM     14  CA  GLU D 570     -18.033  -6.348 -13.375  1.00 32.92     0.160 C 
ENDROOT
BRANCH  14  15
ATOM     15  CB  GLU D 570     -19.500  -6.345 -13.794  1.00 32.92     0.043 C 
BRANCH  15  16
ATOM     16  CG  GLU D 570     -20.449  -5.566 -12.958  1.00 32.92     0.100 C 
BRANCH  16  17
ATOM     17  CD  GLU D 570     -21.733  -5.231 -13.680  1.00 32.92     0.185 C 
ATOM     18  OE1 GLU D 570     -22.623  -4.603 -13.074  1.00 32.92    -0.647 OA
ATOM     19  OE2 GLU D 570     -21.858  -5.616 -14.859  1.00 32.92    -0.647 OA
ENDBRANCH  16  17
ENDBRANCH  15  16
ENDBRANCH  14  15
END_RES GLU D 570
ENDMDL
MODEL 8
REMARK VINA RESULT:      -6.4      9.427     13.373
REMARK  14 active torsions:
REMARK  status: ('A' for Active; 'I' for Inactive)
REMARK    1  A    between atoms: C_2  and  C_3 
REMARK    2  A    between atoms: C_4  and  C_5 
REMARK    3  A    between atoms: C_5  and  C_6 
REMARK    4  A    between atoms: C_7  and  C_8 
REMARK    5  A    between atoms: C_8  and  C_9 
REMARK    6  A    between atoms: C_10  and  C_11 
REMARK    7  A    between atoms: C_11  and  C_12 
REMARK    8  A    between atoms: C_12  and  C_13 
REMARK    9  A    between atoms: C_13  and  C_14 
REMARK   10  A    between atoms: C_14  and  C_15 
REMARK   11  A    between atoms: C_15  and  C_16 
REMARK   12  A    between atoms: C_16  and  C_17 
REMARK   13  A    between atoms: C_17  and  C_18 
REMARK   14  A    between atoms: C_18  and  O_20 
ROOT
HETATM    1  C   UNL     1     -34.705   0.969 -13.923  1.00  0.00     0.027 C 
ENDROOT
BRANCH   1   2
HETATM    2  C   UNL     1     -35.290  -0.098 -13.057  1.00  0.00    -0.030 C 
HETATM    3  C   UNL     1     -35.526   0.082 -11.749  1.00  0.00    -0.027 C 
BRANCH   3   4
HETATM    4  C   UNL     1     -36.106  -0.982 -10.874  1.00  0.00     0.053 C 
BRANCH   4   5
HETATM    5  C   UNL     1     -35.424  -2.296 -11.086  1.00  0.00    -0.027 C 
HETATM    6  C   UNL     1     -34.145  -2.516 -10.743  1.00  0.00    -0.027 C 
BRANCH   6   7
HETATM    7  C   UNL     1     -33.460  -3.829 -10.954  1.00  0.00     0.053 C 
BRANCH   7   8
HETATM    8  C   UNL     1     -34.264  -4.966 -10.398  1.00  0.00    -0.027 C 
HETATM    9  C   UNL     1     -33.989  -6.252 -10.661  1.00  0.00    -0.031 C 
BRANCH   9  10
HETATM   10  C   UNL     1     -34.790  -7.387 -10.101  1.00  0.00     0.022 C 
HETATM   11  C   UNL     1     -33.929  -8.626  -9.917  1.00  0.00     0.009 C 
ENDBRANCH   9  10
ENDBRANCH   7   8
ENDBRANCH   6   7
ENDBRANCH   4   5
ENDBRANCH   3   4
ENDBRANCH   1   2
BRANCH   1  12
HETATM   12  C   UNL     1     -35.408   1.009 -15.274  1.00  0.00     0.004 C 
BRANCH  12  13
HETATM   13  C   UNL     1     -36.759   0.311 -15.187  1.00  0.00     0.000 C 
BRANCH  13  14
HETATM   14  C   UNL     1     -36.840  -0.829 -16.193  1.00  0.00     0.000 C 
BRANCH  14  15
HETATM   15  C   UNL     1     -35.463  -1.122 -16.782  1.00  0.00     0.001 C 
BRANCH  15  16
HETATM   16  C   UNL     1     -34.994  -2.511 -16.371  1.00  0.00     0.010 C 
BRANCH  16  17
HETATM   17  C   UNL     1     -33.826  -3.007 -17.223  1.00  0.00     0.110 C 
BRANCH  17  18
HETATM   18  C   UNL     1     -33.035  -4.041 -16.455  1.00  0.00     0.139 C 
HETATM   19  O   UNL     1     -32.012  -4.568 -16.845  1.00  0.00    -0.650 OA
BRANCH  18  20
HETATM   20  O   UNL     1     -33.576  -4.346 -15.251  1.00  0.00    -0.776 OA
HETATM   21  H   UNL     1     -33.221  -3.836 -14.497  1.00  0.00     0.167 HD
ENDBRANCH  18  20
ENDBRANCH  17  18
ENDBRANCH  16  17
ENDBRANCH  15  16
ENDBRANCH  14  15
ENDBRANCH  13  14
ENDBRANCH  12  13
ENDBRANCH   1  12
TORSDOF 14
BEGIN_RES ARG D 557
REMARK  4 active torsions:
REMARK  status: ('A' for Active; 'I' for Inactive)
REMARK    1  A    between atoms: CA   and  CB  
REMARK    2  A    between atoms: CB   and  CG  
REMARK    3  A    between atoms: CG   and  CD  
REMARK    4  A    between atoms: CD   and  NE  
REMARK       I    between atoms: NE   and  CZ  
REMARK       I    between atoms: CZ   and  NH1 
REMARK       I    between atoms: CZ   and  NH2 
ROOT
ATOM      1  CA  ARG D 557     -26.217   2.705 -17.014  1.00 35.49     0.159 C 
ENDROOT
BRANCH   1   2
ATOM      2  CB  ARG D 557     -26.789   1.319 -17.183  1.00 35.49     0.034 C 
BRANCH   2   3
ATOM      3  CG  ARG D 557     -28.170   1.114 -16.729  1.00 35.49     0.027 C 
BRANCH   3   4
ATOM      4  CD  ARG D 557     -28.790  -0.088 -17.332  1.00 35.49     0.116 C 
BRANCH   4   5
ATOM      5  NE  ARG D 557     -28.165  -1.304 -16.882  1.00 35.49    -0.212 N 
ATOM      6  CZ  ARG D 557     -28.643  -2.518 -17.040  1.00 35.49     0.666 C 
ATOM      7  NH1 ARG D 557     -29.795  -2.753 -17.640  1.00 35.49    -0.235 N 
ATOM      8  NH2 ARG D 557     -27.930  -3.507 -16.586  1.00 35.49    -0.235 N 
ATOM      9  HH  ARG D 557     -30.280  -2.117 -17.948  1.00 35.49     0.174 HD
ATOM     10  HH  ARG D 557     -30.055  -3.566 -17.717  1.00 35.49     0.174 HD
ATOM     11  HH  ARG D 557     -27.187  -3.326 -16.210  1.00 35.49     0.174 HD
ATOM     12  HH  ARG D 557     -28.204  -4.305 -16.674  1.00 35.49     0.174 HD
ATOM     13  HE  ARG D 557     -27.453  -1.240 -16.421  1.00 35.49     0.178 HD
ENDBRANCH   4   5
ENDBRANCH   3   4
ENDBRANCH   2   3
ENDBRANCH   1   2
END_RES ARG D 557
BEGIN_RES GLU D 570
REMARK  3 active torsions:
REMARK  status: ('A' for Active; 'I' for Inactive)
REMARK    5  A    between atoms: CA   and  CB  
REMARK    6  A    between atoms: CB   and  CG  
REMARK    7  A    between atoms: CG   and  CD  
ROOT
ATOM     14  CA  GLU D 570     -18.033  -6.348 -13.375  1.00 32.92     0.160 C 
ENDROOT
BRANCH  14  15
ATOM     15  CB  GLU D 570     -19.500  -6.345 -13.794  1.00 32.92     0.043 C 
BRANCH  15  16
ATOM     16  CG  GLU D 570     -19.808  -6.005 -15.207  1.00 32.92     0.100 C 
BRANCH  16  17
ATOM     17  CD  GLU D 570     -21.172  -5.378 -15.379  1.00 32.92     0.185 C 
ATOM     18  OE1 GLU D 570     -21.862  -5.144 -14.368  1.00 32.92    -0.647 OA
ATOM     19  OE2 GLU D 570     -21.562  -5.135 -16.538  1.00 32.92    -0.647 OA
ENDBRANCH  16  17
ENDBRANCH  15  16
ENDBRANCH  14  15
END_RES GLU D 570
ENDMDL
MODEL 9
REMARK VINA RESULT:      -6.4      5.552      9.701
REMARK  14 active torsions:
REMARK  status: ('A' for Active; 'I' for Inactive)
REMARK    1  A    between atoms: C_2  and  C_3 
REMARK    2  A    between atoms: C_4  and  C_5 
REMARK    3  A    between atoms: C_5  and  C_6 
REMARK    4  A    between atoms: C_7  and  C_8 
REMARK    5  A    between atoms: C_8  and  C_9 
REMARK    6  A    between atoms: C_10  and  C_11 
REMARK    7  A    between atoms: C_11  and  C_12 
REMARK    8  A    between atoms: C_12  and  C_13 
REMARK    9  A    between atoms: C_13  and  C_14 
REMARK   10  A    between atoms: C_14  and  C_15 
REMARK   11  A    between atoms: C_15  and  C_16 
REMARK   12  A    between atoms: C_16  and  C_17 
REMARK   13  A    between atoms: C_17  and  C_18 
REMARK   14  A    between atoms: C_18  and  O_20 
ROOT
HETATM    1  C   UNL     1     -26.015  -6.911 -16.078  1.00  0.00     0.027 C 
ENDROOT
BRANCH   1   2
HETATM    2  C   UNL     1     -25.159  -6.211 -15.072  1.00  0.00    -0.030 C 
HETATM    3  C   UNL     1     -23.840  -6.038 -15.242  1.00  0.00    -0.027 C 
BRANCH   3   4
HETATM    4  C   UNL     1     -22.976  -5.343 -14.240  1.00  0.00     0.053 C 
BRANCH   4   5
HETATM    5  C   UNL     1     -23.638  -5.277 -12.900  1.00  0.00    -0.027 C 
HETATM    6  C   UNL     1     -23.011  -4.834 -11.799  1.00  0.00    -0.027 C 
BRANCH   6   7
HETATM    7  C   UNL     1     -23.671  -4.766 -10.458  1.00  0.00     0.053 C 
BRANCH   7   8
HETATM    8  C   UNL     1     -22.815  -4.053  -9.457  1.00  0.00    -0.027 C 
HETATM    9  C   UNL     1     -21.980  -4.691  -8.622  1.00  0.00    -0.031 C 
BRANCH   9  10
HETATM   10  C   UNL     1     -21.121  -3.977  -7.625  1.00  0.00     0.022 C 
HETATM   11  C   UNL     1     -19.656  -4.041  -8.021  1.00  0.00     0.009 C 
ENDBRANCH   9  10
ENDBRANCH   7   8
ENDBRANCH   6   7
ENDBRANCH   4   5
ENDBRANCH   3   4
ENDBRANCH   1   2
BRANCH   1  12
HETATM   12  C   UNL     1     -26.719  -5.904 -16.978  1.00  0.00     0.004 C 
BRANCH  12  13
HETATM   13  C   UNL     1     -27.732  -5.098 -16.175  1.00  0.00     0.000 C 
BRANCH  13  14
HETATM   14  C   UNL     1     -28.403  -4.051 -17.055  1.00  0.00     0.000 C 
BRANCH  14  15
HETATM   15  C   UNL     1     -29.420  -4.706 -17.986  1.00  0.00     0.001 C 
BRANCH  15  16
HETATM   16  C   UNL     1     -30.343  -5.627 -17.201  1.00  0.00     0.010 C 
BRANCH  16  17
HETATM   17  C   UNL     1     -30.850  -6.797 -18.043  1.00  0.00     0.110 C 
BRANCH  17  18
HETATM   18  C   UNL     1     -29.889  -7.958 -17.938  1.00  0.00     0.139 C 
HETATM   19  O   UNL     1     -29.306  -8.293 -16.926  1.00  0.00    -0.650 OA
BRANCH  18  20
HETATM   20  O   UNL     1     -29.720  -8.623 -19.107  1.00  0.00    -0.776 OA
HETATM   21  H   UNL     1     -28.790  -8.744 -19.383  1.00  0.00     0.167 HD
ENDBRANCH  18  20
ENDBRANCH  17  18
ENDBRANCH  16  17
ENDBRANCH  15  16
ENDBRANCH  14  15
ENDBRANCH  13  14
ENDBRANCH  12  13
ENDBRANCH   1  12
TORSDOF 14
BEGIN_RES ARG D 557
REMARK  4 active torsions:
REMARK  status: ('A' for Active; 'I' for Inactive)
REMARK    1  A    between atoms: CA   and  CB  
REMARK    2  A    between atoms: CB   and  CG  
REMARK    3  A    between atoms: CG   and  CD  
REMARK    4  A    between atoms: CD   and  NE  
REMARK       I    between atoms: NE   and  CZ  
REMARK       I    between atoms: CZ   and  NH1 
REMARK       I    between atoms: CZ   and  NH2 
ROOT
ATOM      1  CA  ARG D 557     -26.217   2.705 -17.014  1.00 35.49     0.159 C 
ENDROOT
BRANCH   1   2
ATOM      2  CB  ARG D 557     -26.789   1.319 -17.183  1.00 35.49     0.034 C 
BRANCH   2   3
ATOM      3  CG  ARG D 557     -25.834   0.204 -17.168  1.00 35.49     0.027 C 
BRANCH   3   4
ATOM      4  CD  ARG D 557     -24.720   0.428 -16.219  1.00 35.49     0.116 C 
BRANCH   4   5
ATOM      5  NE  ARG D 557     -24.843  -0.385 -15.037  1.00 35.49    -0.212 N 
ATOM      6  CZ  ARG D 557     -24.029  -1.355 -14.684  1.00 35.49     0.666 C 
ATOM      7  NH1 ARG D 557     -22.985  -1.705 -15.413  1.00 35.49    -0.235 N 
ATOM      8  NH2 ARG D 557     -24.281  -1.973 -13.567  1.00 35.49    -0.235 N 
ATOM      9  HH  ARG D 557     -22.799  -1.310 -16.150  1.00 35.49     0.174 HD
ATOM     10  HH  ARG D 557     -22.488  -2.343 -15.131  1.00 35.49     0.174 HD
ATOM     11  HH  ARG D 557     -24.958  -1.720 -13.114  1.00 35.49     0.174 HD
ATOM     12  HH  ARG D 557     -23.776  -2.601 -13.304  1.00 35.49     0.174 HD
ATOM     13  HE  ARG D 557     -25.529  -0.276 -14.547  1.00 35.49     0.178 HD
ENDBRANCH   4   5
ENDBRANCH   3   4
ENDBRANCH   2   3
ENDBRANCH   1   2
END_RES ARG D 557
BEGIN_RES GLU D 570
REMARK  3 active torsions:
REMARK  status: ('A' for Active; 'I' for Inactive)
REMARK    5  A    between atoms: CA   and  CB  
REMARK    6  A    between atoms: CB   and  CG  
REMARK    7  A    between atoms: CG   and  CD  
ROOT
ATOM     14  CA  GLU D 570     -18.033  -6.348 -13.375  1.00 32.92     0.160 C 
ENDROOT
BRANCH  14  15
ATOM     15  CB  GLU D 570     -19.500  -6.345 -13.794  1.00 32.92     0.043 C 
BRANCH  15  16
ATOM     16  CG  GLU D 570     -20.089  -7.636 -14.233  1.00 32.92     0.100 C 
BRANCH  16  17
ATOM     17  CD  GLU D 570     -20.487  -7.637 -15.691  1.00 32.92     0.185 C 
ATOM     18  OE1 GLU D 570     -20.817  -8.712 -16.228  1.00 32.92    -0.647 OA
ATOM     19  OE2 GLU D 570     -20.452  -6.553 -16.307  1.00 32.92    -0.647 OA
ENDBRANCH  16  17
ENDBRANCH  15  16
ENDBRANCH  14  15
END_RES GLU D 570
ENDMDL
