MODEL 1
REMARK VINA RESULT:      -7.2      0.000      0.000
REMARK  21 active torsions:
REMARK  status: ('A' for Active; 'I' for Inactive)
REMARK    1  A    between atoms: C_2  and  C_3 
REMARK    2  A    between atoms: C_3  and  C_4 
REMARK    3  A    between atoms: C_4  and  C_5 
REMARK    4  A    between atoms: C_5  and  C_6 
REMARK    5  A    between atoms: C_6  and  C_7 
REMARK    6  A    between atoms: C_7  and  C_8 
REMARK    7  A    between atoms: C_8  and  C_9 
REMARK    8  A    between atoms: C_9  and  C_10 
REMARK    9  A    between atoms: C_10  and  C_11 
REMARK   10  A    between atoms: C_11  and  C_12 
REMARK   11  A    between atoms: C_11  and  C_20 
REMARK   12  A    between atoms: C_12  and  C_13 
REMARK   13  A    between atoms: C_13  and  C_14 
REMARK   14  A    between atoms: C_14  and  C_15 
REMARK   15  A    between atoms: C_15  and  C_16 
REMARK   16  A    between atoms: C_16  and  C_17 
REMARK   17  A    between atoms: C_17  and  C_18 
REMARK   18  A    between atoms: C_20  and  O_21 
REMARK   19  A    between atoms: O_21  and  C_22 
REMARK   20  A    between atoms: C_22  and  C_24 
REMARK   21  A    between atoms: C_24  and  O_26 
ROOT
HETATM    1  C   UNL     1     -22.725  -4.712 -12.506  1.00  0.00     0.010 C 
ENDROOT
BRANCH   1   2
HETATM    2  C   UNL     1     -23.586  -4.027 -11.421  1.00  0.00     0.007 C 
BRANCH   2   3
HETATM    3  C   UNL     1     -22.743  -3.439 -10.289  1.00  0.00     0.000 C 
BRANCH   3   4
HETATM    4  C   UNL     1     -21.952  -4.496  -9.520  1.00  0.00     0.000 C 
BRANCH   4   5
HETATM    5  C   UNL     1     -20.456  -4.215  -9.670  1.00  0.00     0.000 C 
BRANCH   5   6
HETATM    6  C   UNL     1     -19.768  -4.005  -8.326  1.00  0.00     0.000 C 
BRANCH   6   7
HETATM    7  C   UNL     1     -20.792  -4.017  -7.188  1.00  0.00     0.000 C 
BRANCH   7   8
HETATM    8  C   UNL     1     -20.215  -4.689  -5.947  1.00  0.00     0.000 C 
BRANCH   8   9
HETATM    9  C   UNL     1     -20.180  -6.209  -6.095  1.00  0.00    -0.000 C 
BRANCH   9  10
HETATM   10  C   UNL     1     -20.864  -6.880  -4.905  1.00  0.00    -0.005 C 
HETATM   11  C   UNL     1     -22.365  -6.645  -4.915  1.00  0.00     0.005 C 
ENDBRANCH   9  10
ENDBRANCH   8   9
ENDBRANCH   7   8
ENDBRANCH   6   7
ENDBRANCH   5   6
ENDBRANCH   4   5
ENDBRANCH   3   4
ENDBRANCH   2   3
ENDBRANCH   1   2
BRANCH   1  12
HETATM   12  C   UNL     1     -23.418  -5.908 -13.200  1.00  0.00     0.007 C 
BRANCH  12  13
HETATM   13  C   UNL     1     -24.057  -5.572 -14.552  1.00  0.00     0.000 C 
BRANCH  13  14
HETATM   14  C   UNL     1     -24.048  -6.745 -15.536  1.00  0.00     0.000 C 
BRANCH  14  15
HETATM   15  C   UNL     1     -25.444  -7.109 -16.036  1.00  0.00     0.000 C 
BRANCH  15  16
HETATM   16  C   UNL     1     -26.373  -5.898 -16.044  1.00  0.00     0.000 C 
BRANCH  16  17
HETATM   17  C   UNL     1     -27.341  -5.979 -17.223  1.00  0.00    -0.000 C 
BRANCH  17  18
HETATM   18  C   UNL     1     -28.766  -6.224 -16.745  1.00  0.00    -0.005 C 
HETATM   19  C   UNL     1     -28.962  -5.734 -15.321  1.00  0.00     0.005 C 
ENDBRANCH  17  18
ENDBRANCH  16  17
ENDBRANCH  15  16
ENDBRANCH  14  15
ENDBRANCH  13  14
ENDBRANCH  12  13
ENDBRANCH   1  12
BRANCH   1  20
HETATM   20  C   UNL     1     -22.231  -3.666 -13.521  1.00  0.00     0.183 C 
BRANCH  20  21
HETATM   21  O   UNL     1     -23.114  -2.533 -13.557  1.00  0.00    -0.319 OA
BRANCH  21  22
HETATM   22  C   UNL     1     -23.356  -2.011 -14.790  1.00  0.00     0.287 C 
HETATM   23  O   UNL     1     -22.531  -1.897 -15.690  1.00  0.00    -0.262 OA
BRANCH  22  24
HETATM   24  C   UNL     1     -24.812  -1.562 -14.918  1.00  0.00     0.213 C 
HETATM   25  C   UNL     1     -25.690  -2.292 -13.917  1.00  0.00     0.050 C 
BRANCH  24  26
HETATM   26  O   UNL     1     -24.949  -0.158 -14.689  1.00  0.00    -0.386 OA
HETATM   27  H   UNL     1     -25.598   0.168 -15.342  1.00  0.00     0.210 HD
ENDBRANCH  24  26
ENDBRANCH  22  24
ENDBRANCH  21  22
ENDBRANCH  20  21
ENDBRANCH   1  20
TORSDOF 21
BEGIN_RES ARG D 557
REMARK  4 active torsions:
REMARK  status: ('A' for Active; 'I' for Inactive)
REMARK    1  A    between atoms: CA   and  CB  
REMARK    2  A    between atoms: CB   and  CG  
REMARK    3  A    between atoms: CG   and  CD  
REMARK    4  A    between atoms: CD   and  NE  
REMARK       I    between atoms: NE   and  CZ  
REMARK       I    between atoms: CZ   and  NH1 
REMARK       I    between atoms: CZ   and  NH2 
ROOT
ATOM      1  CA  ARG D 557     -26.217   2.705 -17.014  1.00 35.49     0.159 C 
ENDROOT
BRANCH   1   2
ATOM      2  CB  ARG D 557     -26.789   1.319 -17.183  1.00 35.49     0.034 C 
BRANCH   2   3
ATOM      3  CG  ARG D 557     -28.249   1.216 -17.293  1.00 35.49     0.027 C 
BRANCH   3   4
ATOM      4  CD  ARG D 557     -28.812   0.189 -16.387  1.00 35.49     0.116 C 
BRANCH   4   5
ATOM      5  NE  ARG D 557     -29.447  -0.882 -17.109  1.00 35.49    -0.212 N 
ATOM      6  CZ  ARG D 557     -29.019  -2.123 -17.176  1.00 35.49     0.666 C 
ATOM      7  NH1 ARG D 557     -27.913  -2.525 -16.577  1.00 35.49    -0.235 N 
ATOM      8  NH2 ARG D 557     -29.733  -2.969 -17.861  1.00 35.49    -0.235 N 
ATOM      9  HH  ARG D 557     -27.428  -1.986 -16.120  1.00 35.49     0.174 HD
ATOM     10  HH  ARG D 557     -27.684  -3.347 -16.654  1.00 35.49     0.174 HD
ATOM     11  HH  ARG D 557     -30.446  -2.682 -18.231  1.00 35.49     0.174 HD
ATOM     12  HH  ARG D 557     -29.491  -3.779 -17.924  1.00 35.49     0.174 HD
ATOM     13  HE  ARG D 557     -30.127  -0.696 -17.584  1.00 35.49     0.178 HD
ENDBRANCH   4   5
ENDBRANCH   3   4
ENDBRANCH   2   3
ENDBRANCH   1   2
END_RES ARG D 557
BEGIN_RES GLU D 570
REMARK  3 active torsions:
REMARK  status: ('A' for Active; 'I' for Inactive)
REMARK    5  A    between atoms: CA   and  CB  
REMARK    6  A    between atoms: CB   and  CG  
REMARK    7  A    between atoms: CG   and  CD  
ROOT
ATOM     14  CA  GLU D 570     -18.033  -6.348 -13.375  1.00 32.92     0.160 C 
ENDROOT
BRANCH  14  15
ATOM     15  CB  GLU D 570     -19.500  -6.345 -13.794  1.00 32.92     0.043 C 
BRANCH  15  16
ATOM     16  CG  GLU D 570     -20.094  -7.640 -14.217  1.00 32.92     0.100 C 
BRANCH  16  17
ATOM     17  CD  GLU D 570     -20.627  -7.609 -15.631  1.00 32.92     0.185 C 
ATOM     18  OE1 GLU D 570     -20.622  -6.532 -16.256  1.00 32.92    -0.647 OA
ATOM     19  OE2 GLU D 570     -21.071  -8.671 -16.111  1.00 32.92    -0.647 OA
ENDBRANCH  16  17
ENDBRANCH  15  16
ENDBRANCH  14  15
END_RES GLU D 570
ENDMDL
MODEL 2
REMARK VINA RESULT:      -7.0      4.922      9.209
REMARK  21 active torsions:
REMARK  status: ('A' for Active; 'I' for Inactive)
REMARK    1  A    between atoms: C_2  and  C_3 
REMARK    2  A    between atoms: C_3  and  C_4 
REMARK    3  A    between atoms: C_4  and  C_5 
REMARK    4  A    between atoms: C_5  and  C_6 
REMARK    5  A    between atoms: C_6  and  C_7 
REMARK    6  A    between atoms: C_7  and  C_8 
REMARK    7  A    between atoms: C_8  and  C_9 
REMARK    8  A    between atoms: C_9  and  C_10 
REMARK    9  A    between atoms: C_10  and  C_11 
REMARK   10  A    between atoms: C_11  and  C_12 
REMARK   11  A    between atoms: C_11  and  C_20 
REMARK   12  A    between atoms: C_12  and  C_13 
REMARK   13  A    between atoms: C_13  and  C_14 
REMARK   14  A    between atoms: C_14  and  C_15 
REMARK   15  A    between atoms: C_15  and  C_16 
REMARK   16  A    between atoms: C_16  and  C_17 
REMARK   17  A    between atoms: C_17  and  C_18 
REMARK   18  A    between atoms: C_20  and  O_21 
REMARK   19  A    between atoms: O_21  and  C_22 
REMARK   20  A    between atoms: C_22  and  C_24 
REMARK   21  A    between atoms: C_24  and  O_26 
ROOT
HETATM    1  C   UNL     1     -21.642  -7.605  -4.763  1.00  0.00     0.010 C 
ENDROOT
BRANCH   1   2
HETATM    2  C   UNL     1     -21.473  -7.658  -3.228  1.00  0.00     0.007 C 
BRANCH   2   3
HETATM    3  C   UNL     1     -21.820  -6.330  -2.554  1.00  0.00     0.000 C 
BRANCH   3   4
HETATM    4  C   UNL     1     -22.207  -6.489  -1.084  1.00  0.00     0.000 C 
BRANCH   4   5
HETATM    5  C   UNL     1     -21.552  -7.753  -0.524  1.00  0.00     0.000 C 
BRANCH   5   6
HETATM    6  C   UNL     1     -22.286  -8.293   0.698  1.00  0.00     0.000 C 
BRANCH   6   7
HETATM    7  C   UNL     1     -23.539  -9.065   0.278  1.00  0.00     0.000 C 
BRANCH   7   8
HETATM    8  C   UNL     1     -23.172 -10.254  -0.603  1.00  0.00     0.000 C 
BRANCH   8   9
HETATM    9  C   UNL     1     -23.956 -11.506  -0.214  1.00  0.00    -0.000 C 
BRANCH   9  10
HETATM   10  C   UNL     1     -23.117 -12.407   0.690  1.00  0.00    -0.005 C 
HETATM   11  C   UNL     1     -21.630 -12.208   0.457  1.00  0.00     0.005 C 
ENDBRANCH   9  10
ENDBRANCH   8   9
ENDBRANCH   7   8
ENDBRANCH   6   7
ENDBRANCH   5   6
ENDBRANCH   4   5
ENDBRANCH   3   4
ENDBRANCH   2   3
ENDBRANCH   1   2
BRANCH   1  12
HETATM   12  C   UNL     1     -21.543  -6.181  -5.360  1.00  0.00     0.007 C 
BRANCH  12  13
HETATM   13  C   UNL     1     -21.037  -6.134  -6.806  1.00  0.00     0.000 C 
BRANCH  13  14
HETATM   14  C   UNL     1     -19.741  -5.336  -6.971  1.00  0.00     0.000 C 
BRANCH  14  15
HETATM   15  C   UNL     1     -19.884  -4.173  -7.950  1.00  0.00     0.000 C 
BRANCH  15  16
HETATM   16  C   UNL     1     -20.198  -4.661  -9.362  1.00  0.00     0.000 C 
BRANCH  16  17
HETATM   17  C   UNL     1     -21.368  -3.873  -9.947  1.00  0.00    -0.000 C 
BRANCH  17  18
HETATM   18  C   UNL     1     -22.670  -4.656  -9.826  1.00  0.00    -0.005 C 
HETATM   19  C   UNL     1     -23.589  -4.039  -8.786  1.00  0.00     0.005 C 
ENDBRANCH  17  18
ENDBRANCH  16  17
ENDBRANCH  15  16
ENDBRANCH  14  15
ENDBRANCH  13  14
ENDBRANCH  12  13
ENDBRANCH   1  12
BRANCH   1  20
HETATM   20  C   UNL     1     -20.656  -8.578  -5.433  1.00  0.00     0.183 C 
BRANCH  20  21
HETATM   21  O   UNL     1     -19.359  -8.494  -4.821  1.00  0.00    -0.319 OA
BRANCH  21  22
HETATM   22  C   UNL     1     -18.456  -9.431  -5.218  1.00  0.00     0.287 C 
HETATM   23  O   UNL     1     -18.207  -9.733  -6.381  1.00  0.00    -0.262 OA
BRANCH  22  24
HETATM   24  C   UNL     1     -17.782 -10.088  -4.013  1.00  0.00     0.213 C 
HETATM   25  C   UNL     1     -18.219  -9.419  -2.722  1.00  0.00     0.050 C 
BRANCH  24  26
HETATM   26  O   UNL     1     -18.106 -11.478  -3.925  1.00  0.00    -0.386 OA
HETATM   27  H   UNL     1     -18.261 -11.668  -2.980  1.00  0.00     0.210 HD
ENDBRANCH  24  26
ENDBRANCH  22  24
ENDBRANCH  21  22
ENDBRANCH  20  21
ENDBRANCH   1  20
TORSDOF 21
BEGIN_RES ARG D 557
REMARK  4 active torsions:
REMARK  status: ('A' for Active; 'I' for Inactive)
REMARK    1  A    between atoms: CA   and  CB  
REMARK    2  A    between atoms: CB   and  CG  
REMARK    3  A    between atoms: CG   and  CD  
REMARK    4  A    between atoms: CD   and  NE  
REMARK       I    between atoms: NE   and  CZ  
REMARK       I    between atoms: CZ   and  NH1 
REMARK       I    between atoms: CZ   and  NH2 
ROOT
ATOM      1  CA  ARG D 557     -26.217   2.705 -17.014  1.00 35.49     0.159 C 
ENDROOT
BRANCH   1   2
ATOM      2  CB  ARG D 557     -26.789   1.319 -17.183  1.00 35.49     0.034 C 
BRANCH   2   3
ATOM      3  CG  ARG D 557     -25.835   0.203 -17.159  1.00 35.49     0.027 C 
BRANCH   3   4
ATOM      4  CD  ARG D 557     -24.745   0.414 -16.179  1.00 35.49     0.116 C 
BRANCH   4   5
ATOM      5  NE  ARG D 557     -24.885  -0.431 -15.022  1.00 35.49    -0.212 N 
ATOM      6  CZ  ARG D 557     -24.069  -1.401 -14.676  1.00 35.49     0.666 C 
ATOM      7  NH1 ARG D 557     -23.005  -1.721 -15.390  1.00 35.49    -0.235 N 
ATOM      8  NH2 ARG D 557     -24.339  -2.051 -13.582  1.00 35.49    -0.235 N 
ATOM      9  HH  ARG D 557     -22.807  -1.305 -16.112  1.00 35.49     0.174 HD
ATOM     10  HH  ARG D 557     -22.507  -2.361 -15.113  1.00 35.49     0.174 HD
ATOM     11  HH  ARG D 557     -25.028  -1.818 -13.137  1.00 35.49     0.174 HD
ATOM     12  HH  ARG D 557     -23.833  -2.681 -13.324  1.00 35.49     0.174 HD
ATOM     13  HE  ARG D 557     -25.583  -0.342 -14.545  1.00 35.49     0.178 HD
ENDBRANCH   4   5
ENDBRANCH   3   4
ENDBRANCH   2   3
ENDBRANCH   1   2
END_RES ARG D 557
BEGIN_RES GLU D 570
REMARK  3 active torsions:
REMARK  status: ('A' for Active; 'I' for Inactive)
REMARK    5  A    between atoms: CA   and  CB  
REMARK    6  A    between atoms: CB   and  CG  
REMARK    7  A    between atoms: CG   and  CD  
ROOT
ATOM     14  CA  GLU D 570     -18.033  -6.348 -13.375  1.00 32.92     0.160 C 
ENDROOT
BRANCH  14  15
ATOM     15  CB  GLU D 570     -19.500  -6.345 -13.794  1.00 32.92     0.043 C 
BRANCH  15  16
ATOM     16  CG  GLU D 570     -20.443  -5.534 -12.981  1.00 32.92     0.100 C 
BRANCH  16  17
ATOM     17  CD  GLU D 570     -21.749  -5.262 -13.690  1.00 32.92     0.185 C 
ATOM     18  OE1 GLU D 570     -22.299  -4.154 -13.541  1.00 32.92    -0.647 OA
ATOM     19  OE2 GLU D 570     -22.236  -6.173 -14.387  1.00 32.92    -0.647 OA
ENDBRANCH  16  17
ENDBRANCH  15  16
ENDBRANCH  14  15
END_RES GLU D 570
ENDMDL
MODEL 3
REMARK VINA RESULT:      -6.9      4.430      9.600
REMARK  21 active torsions:
REMARK  status: ('A' for Active; 'I' for Inactive)
REMARK    1  A    between atoms: C_2  and  C_3 
REMARK    2  A    between atoms: C_3  and  C_4 
REMARK    3  A    between atoms: C_4  and  C_5 
REMARK    4  A    between atoms: C_5  and  C_6 
REMARK    5  A    between atoms: C_6  and  C_7 
REMARK    6  A    between atoms: C_7  and  C_8 
REMARK    7  A    between atoms: C_8  and  C_9 
REMARK    8  A    between atoms: C_9  and  C_10 
REMARK    9  A    between atoms: C_10  and  C_11 
REMARK   10  A    between atoms: C_11  and  C_12 
REMARK   11  A    between atoms: C_11  and  C_20 
REMARK   12  A    between atoms: C_12  and  C_13 
REMARK   13  A    between atoms: C_13  and  C_14 
REMARK   14  A    between atoms: C_14  and  C_15 
REMARK   15  A    between atoms: C_15  and  C_16 
REMARK   16  A    between atoms: C_16  and  C_17 
REMARK   17  A    between atoms: C_17  and  C_18 
REMARK   18  A    between atoms: C_20  and  O_21 
REMARK   19  A    between atoms: O_21  and  C_22 
REMARK   20  A    between atoms: C_22  and  C_24 
REMARK   21  A    between atoms: C_24  and  O_26 
ROOT
HETATM    1  C   UNL     1     -21.617  -6.692  -4.204  1.00  0.00     0.010 C 
ENDROOT
BRANCH   1   2
HETATM    2  C   UNL     1     -21.399  -8.094  -4.817  1.00  0.00     0.007 C 
BRANCH   2   3
HETATM    3  C   UNL     1     -19.921  -8.476  -4.896  1.00  0.00     0.000 C 
BRANCH   3   4
HETATM    4  C   UNL     1     -19.568  -9.684  -4.030  1.00  0.00     0.000 C 
BRANCH   4   5
HETATM    5  C   UNL     1     -18.642  -9.238  -2.897  1.00  0.00     0.000 C 
BRANCH   5   6
HETATM    6  C   UNL     1     -17.655 -10.328  -2.493  1.00  0.00     0.000 C 
BRANCH   6   7
HETATM    7  C   UNL     1     -16.214  -9.842  -2.665  1.00  0.00     0.000 C 
BRANCH   7   8
HETATM    8  C   UNL     1     -15.518 -10.600  -3.790  1.00  0.00     0.000 C 
BRANCH   8   9
HETATM    9  C   UNL     1     -15.696  -9.899  -5.135  1.00  0.00    -0.000 C 
BRANCH   9  10
HETATM   10  C   UNL     1     -15.856 -10.923  -6.258  1.00  0.00    -0.005 C 
HETATM   11  C   UNL     1     -17.260 -11.502  -6.294  1.00  0.00     0.005 C 
ENDBRANCH   9  10
ENDBRANCH   8   9
ENDBRANCH   7   8
ENDBRANCH   6   7
ENDBRANCH   5   6
ENDBRANCH   4   5
ENDBRANCH   3   4
ENDBRANCH   2   3
ENDBRANCH   1   2
BRANCH   1  12
HETATM   12  C   UNL     1     -21.175  -6.574  -2.727  1.00  0.00     0.007 C 
BRANCH  12  13
HETATM   13  C   UNL     1     -22.307  -6.227  -1.753  1.00  0.00     0.000 C 
BRANCH  13  14
HETATM   14  C   UNL     1     -22.361  -7.149  -0.532  1.00  0.00     0.000 C 
BRANCH  14  15
HETATM   15  C   UNL     1     -21.305  -8.250  -0.576  1.00  0.00     0.000 C 
BRANCH  15  16
HETATM   16  C   UNL     1     -21.810  -9.541   0.065  1.00  0.00     0.000 C 
BRANCH  16  17
HETATM   17  C   UNL     1     -23.333  -9.622  -0.036  1.00  0.00    -0.000 C 
BRANCH  17  18
HETATM   18  C   UNL     1     -23.811 -11.066   0.049  1.00  0.00    -0.005 C 
HETATM   19  C   UNL     1     -24.008 -11.664  -1.333  1.00  0.00     0.005 C 
ENDBRANCH  17  18
ENDBRANCH  16  17
ENDBRANCH  15  16
ENDBRANCH  14  15
ENDBRANCH  13  14
ENDBRANCH  12  13
ENDBRANCH   1  12
BRANCH   1  20
HETATM   20  C   UNL     1     -20.951  -5.624  -5.090  1.00  0.00     0.183 C 
BRANCH  20  21
HETATM   21  O   UNL     1     -21.749  -5.356  -6.254  1.00  0.00    -0.319 OA
BRANCH  21  22
HETATM   22  C   UNL     1     -21.067  -5.244  -7.426  1.00  0.00     0.287 C 
HETATM   23  O   UNL     1     -20.178  -5.998  -7.808  1.00  0.00    -0.262 OA
BRANCH  22  24
HETATM   24  C   UNL     1     -21.542  -4.028  -8.223  1.00  0.00     0.213 C 
HETATM   25  C   UNL     1     -21.453  -4.295  -9.715  1.00  0.00     0.050 C 
BRANCH  24  26
HETATM   26  O   UNL     1     -22.897  -3.695  -7.911  1.00  0.00    -0.386 OA
HETATM   27  H   UNL     1     -23.458  -4.228  -8.507  1.00  0.00     0.210 HD
ENDBRANCH  24  26
ENDBRANCH  22  24
ENDBRANCH  21  22
ENDBRANCH  20  21
ENDBRANCH   1  20
TORSDOF 21
BEGIN_RES ARG D 557
REMARK  4 active torsions:
REMARK  status: ('A' for Active; 'I' for Inactive)
REMARK    1  A    between atoms: CA   and  CB  
REMARK    2  A    between atoms: CB   and  CG  
REMARK    3  A    between atoms: CG   and  CD  
REMARK    4  A    between atoms: CD   and  NE  
REMARK       I    between atoms: NE   and  CZ  
REMARK       I    between atoms: CZ   and  NH1 
REMARK       I    between atoms: CZ   and  NH2 
ROOT
ATOM      1  CA  ARG D 557     -26.217   2.705 -17.014  1.00 35.49     0.159 C 
ENDROOT
BRANCH   1   2
ATOM      2  CB  ARG D 557     -26.789   1.319 -17.183  1.00 35.49     0.034 C 
BRANCH   2   3
ATOM      3  CG  ARG D 557     -25.834   0.204 -17.171  1.00 35.49     0.027 C 
BRANCH   3   4
ATOM      4  CD  ARG D 557     -24.748   0.402 -16.184  1.00 35.49     0.116 C 
BRANCH   4   5
ATOM      5  NE  ARG D 557     -24.907  -0.441 -15.028  1.00 35.49    -0.212 N 
ATOM      6  CZ  ARG D 557     -24.096  -1.410 -14.667  1.00 35.49     0.666 C 
ATOM      7  NH1 ARG D 557     -23.020  -1.731 -15.362  1.00 35.49    -0.235 N 
ATOM      8  NH2 ARG D 557     -24.383  -2.058 -13.575  1.00 35.49    -0.235 N 
ATOM      9  HH  ARG D 557     -22.811  -1.316 -16.082  1.00 35.49     0.174 HD
ATOM     10  HH  ARG D 557     -22.527  -2.370 -15.076  1.00 35.49     0.174 HD
ATOM     11  HH  ARG D 557     -25.080  -1.824 -13.143  1.00 35.49     0.174 HD
ATOM     12  HH  ARG D 557     -23.882  -2.687 -13.308  1.00 35.49     0.174 HD
ATOM     13  HE  ARG D 557     -25.613  -0.352 -14.562  1.00 35.49     0.178 HD
ENDBRANCH   4   5
ENDBRANCH   3   4
ENDBRANCH   2   3
ENDBRANCH   1   2
END_RES ARG D 557
BEGIN_RES GLU D 570
REMARK  3 active torsions:
REMARK  status: ('A' for Active; 'I' for Inactive)
REMARK    5  A    between atoms: CA   and  CB  
REMARK    6  A    between atoms: CB   and  CG  
REMARK    7  A    between atoms: CG   and  CD  
ROOT
ATOM     14  CA  GLU D 570     -18.033  -6.348 -13.375  1.00 32.92     0.160 C 
ENDROOT
BRANCH  14  15
ATOM     15  CB  GLU D 570     -19.500  -6.345 -13.794  1.00 32.92     0.043 C 
BRANCH  15  16
ATOM     16  CG  GLU D 570     -20.434  -5.498 -13.009  1.00 32.92     0.100 C 
BRANCH  16  17
ATOM     17  CD  GLU D 570     -21.575  -4.954 -13.838  1.00 32.92     0.185 C 
ATOM     18  OE1 GLU D 570     -21.627  -5.231 -15.051  1.00 32.92    -0.647 OA
ATOM     19  OE2 GLU D 570     -22.416  -4.229 -13.271  1.00 32.92    -0.647 OA
ENDBRANCH  16  17
ENDBRANCH  15  16
ENDBRANCH  14  15
END_RES GLU D 570
ENDMDL
MODEL 4
REMARK VINA RESULT:      -6.8      4.303      9.559
REMARK  21 active torsions:
REMARK  status: ('A' for Active; 'I' for Inactive)
REMARK    1  A    between atoms: C_2  and  C_3 
REMARK    2  A    between atoms: C_3  and  C_4 
REMARK    3  A    between atoms: C_4  and  C_5 
REMARK    4  A    between atoms: C_5  and  C_6 
REMARK    5  A    between atoms: C_6  and  C_7 
REMARK    6  A    between atoms: C_7  and  C_8 
REMARK    7  A    between atoms: C_8  and  C_9 
REMARK    8  A    between atoms: C_9  and  C_10 
REMARK    9  A    between atoms: C_10  and  C_11 
REMARK   10  A    between atoms: C_11  and  C_12 
REMARK   11  A    between atoms: C_11  and  C_20 
REMARK   12  A    between atoms: C_12  and  C_13 
REMARK   13  A    between atoms: C_13  and  C_14 
REMARK   14  A    between atoms: C_14  and  C_15 
REMARK   15  A    between atoms: C_15  and  C_16 
REMARK   16  A    between atoms: C_16  and  C_17 
REMARK   17  A    between atoms: C_17  and  C_18 
REMARK   18  A    between atoms: C_20  and  O_21 
REMARK   19  A    between atoms: O_21  and  C_22 
REMARK   20  A    between atoms: C_22  and  C_24 
REMARK   21  A    between atoms: C_24  and  O_26 
ROOT
HETATM    1  C   UNL     1     -21.737  -6.467  -4.289  1.00  0.00     0.010 C 
ENDROOT
BRANCH   1   2
HETATM    2  C   UNL     1     -21.357  -7.922  -4.646  1.00  0.00     0.007 C 
BRANCH   2   3
HETATM    3  C   UNL     1     -19.915  -8.046  -5.142  1.00  0.00     0.000 C 
BRANCH   3   4
HETATM    4  C   UNL     1     -19.189  -9.263  -4.570  1.00  0.00     0.000 C 
BRANCH   4   5
HETATM    5  C   UNL     1     -19.021  -9.085  -3.060  1.00  0.00     0.000 C 
BRANCH   5   6
HETATM    6  C   UNL     1     -19.744 -10.167  -2.266  1.00  0.00     0.000 C 
BRANCH   6   7
HETATM    7  C   UNL     1     -19.577 -11.532  -2.938  1.00  0.00     0.000 C 
BRANCH   7   8
HETATM    8  C   UNL     1     -20.888 -12.311  -2.915  1.00  0.00     0.000 C 
BRANCH   8   9
HETATM    9  C   UNL     1     -21.972 -11.613  -3.733  1.00  0.00    -0.000 C 
BRANCH   9  10
HETATM   10  C   UNL     1     -21.766 -11.866  -5.225  1.00  0.00    -0.005 C 
HETATM   11  C   UNL     1     -22.884 -12.711  -5.811  1.00  0.00     0.005 C 
ENDBRANCH   9  10
ENDBRANCH   8   9
ENDBRANCH   7   8
ENDBRANCH   6   7
ENDBRANCH   5   6
ENDBRANCH   4   5
ENDBRANCH   3   4
ENDBRANCH   2   3
ENDBRANCH   1   2
BRANCH   1  12
HETATM   12  C   UNL     1     -21.290  -6.027  -2.875  1.00  0.00     0.007 C 
BRANCH  12  13
HETATM   13  C   UNL     1     -22.241  -6.448  -1.750  1.00  0.00     0.000 C 
BRANCH  13  14
HETATM   14  C   UNL     1     -21.734  -7.644  -0.941  1.00  0.00     0.000 C 
BRANCH  14  15
HETATM   15  C   UNL     1     -22.418  -7.772   0.418  1.00  0.00     0.000 C 
BRANCH  15  16
HETATM   16  C   UNL     1     -23.487  -8.861   0.410  1.00  0.00     0.000 C 
BRANCH  16  17
HETATM   17  C   UNL     1     -23.128  -9.950  -0.599  1.00  0.00    -0.000 C 
BRANCH  17  18
HETATM   18  C   UNL     1     -23.736 -11.288  -0.201  1.00  0.00    -0.005 C 
HETATM   19  C   UNL     1     -22.705 -12.188   0.458  1.00  0.00     0.005 C 
ENDBRANCH  17  18
ENDBRANCH  16  17
ENDBRANCH  15  16
ENDBRANCH  14  15
ENDBRANCH  13  14
ENDBRANCH  12  13
ENDBRANCH   1  12
BRANCH   1  20
HETATM   20  C   UNL     1     -21.224  -5.509  -5.378  1.00  0.00     0.183 C 
BRANCH  20  21
HETATM   21  O   UNL     1     -22.092  -5.526  -6.523  1.00  0.00    -0.319 OA
BRANCH  21  22
HETATM   22  C   UNL     1     -21.552  -5.058  -7.681  1.00  0.00     0.287 C 
HETATM   23  O   UNL     1     -20.416  -5.290  -8.082  1.00  0.00    -0.262 OA
BRANCH  22  24
HETATM   24  C   UNL     1     -22.549  -4.178  -8.435  1.00  0.00     0.213 C 
HETATM   25  C   UNL     1     -22.827  -4.742  -9.817  1.00  0.00     0.050 C 
BRANCH  24  26
HETATM   26  O   UNL     1     -23.793  -4.080  -7.737  1.00  0.00    -0.386 OA
HETATM   27  H   UNL     1     -24.449  -3.753  -8.382  1.00  0.00     0.210 HD
ENDBRANCH  24  26
ENDBRANCH  22  24
ENDBRANCH  21  22
ENDBRANCH  20  21
ENDBRANCH   1  20
TORSDOF 21
BEGIN_RES ARG D 557
REMARK  4 active torsions:
REMARK  status: ('A' for Active; 'I' for Inactive)
REMARK    1  A    between atoms: CA   and  CB  
REMARK    2  A    between atoms: CB   and  CG  
REMARK    3  A    between atoms: CG   and  CD  
REMARK    4  A    between atoms: CD   and  NE  
REMARK       I    between atoms: NE   and  CZ  
REMARK       I    between atoms: CZ   and  NH1 
REMARK       I    between atoms: CZ   and  NH2 
ROOT
ATOM      1  CA  ARG D 557     -26.217   2.705 -17.014  1.00 35.49     0.159 C 
ENDROOT
BRANCH   1   2
ATOM      2  CB  ARG D 557     -26.789   1.319 -17.183  1.00 35.49     0.034 C 
BRANCH   2   3
ATOM      3  CG  ARG D 557     -25.835   0.204 -17.163  1.00 35.49     0.027 C 
BRANCH   3   4
ATOM      4  CD  ARG D 557     -24.759   0.399 -16.164  1.00 35.49     0.116 C 
BRANCH   4   5
ATOM      5  NE  ARG D 557     -24.921  -0.455 -15.017  1.00 35.49    -0.212 N 
ATOM      6  CZ  ARG D 557     -24.114  -1.430 -14.666  1.00 35.49     0.666 C 
ATOM      7  NH1 ARG D 557     -23.038  -1.747 -15.363  1.00 35.49    -0.235 N 
ATOM      8  NH2 ARG D 557     -24.405  -2.089 -13.582  1.00 35.49    -0.235 N 
ATOM      9  HH  ARG D 557     -22.827  -1.325 -16.078  1.00 35.49     0.174 HD
ATOM     10  HH  ARG D 557     -22.547  -2.391 -15.084  1.00 35.49     0.174 HD
ATOM     11  HH  ARG D 557     -25.102  -1.858 -13.147  1.00 35.49     0.174 HD
ATOM     12  HH  ARG D 557     -23.905  -2.723 -13.321  1.00 35.49     0.174 HD
ATOM     13  HE  ARG D 557     -25.628  -0.368 -14.552  1.00 35.49     0.178 HD
ENDBRANCH   4   5
ENDBRANCH   3   4
ENDBRANCH   2   3
ENDBRANCH   1   2
END_RES ARG D 557
BEGIN_RES GLU D 570
REMARK  3 active torsions:
REMARK  status: ('A' for Active; 'I' for Inactive)
REMARK    5  A    between atoms: CA   and  CB  
REMARK    6  A    between atoms: CB   and  CG  
REMARK    7  A    between atoms: CG   and  CD  
ROOT
ATOM     14  CA  GLU D 570     -18.033  -6.348 -13.375  1.00 32.92     0.160 C 
ENDROOT
BRANCH  14  15
ATOM     15  CB  GLU D 570     -19.500  -6.345 -13.794  1.00 32.92     0.043 C 
BRANCH  15  16
ATOM     16  CG  GLU D 570     -20.445  -5.544 -12.973  1.00 32.92     0.100 C 
BRANCH  16  17
ATOM     17  CD  GLU D 570     -21.749  -5.262 -13.683  1.00 32.92     0.185 C 
ATOM     18  OE1 GLU D 570     -22.234  -6.136 -14.427  1.00 32.92    -0.647 OA
ATOM     19  OE2 GLU D 570     -22.282  -4.149 -13.505  1.00 32.92    -0.647 OA
ENDBRANCH  16  17
ENDBRANCH  15  16
ENDBRANCH  14  15
END_RES GLU D 570
ENDMDL
MODEL 5
REMARK VINA RESULT:      -6.8      1.676      2.661
REMARK  21 active torsions:
REMARK  status: ('A' for Active; 'I' for Inactive)
REMARK    1  A    between atoms: C_2  and  C_3 
REMARK    2  A    between atoms: C_3  and  C_4 
REMARK    3  A    between atoms: C_4  and  C_5 
REMARK    4  A    between atoms: C_5  and  C_6 
REMARK    5  A    between atoms: C_6  and  C_7 
REMARK    6  A    between atoms: C_7  and  C_8 
REMARK    7  A    between atoms: C_8  and  C_9 
REMARK    8  A    between atoms: C_9  and  C_10 
REMARK    9  A    between atoms: C_10  and  C_11 
REMARK   10  A    between atoms: C_11  and  C_12 
REMARK   11  A    between atoms: C_11  and  C_20 
REMARK   12  A    between atoms: C_12  and  C_13 
REMARK   13  A    between atoms: C_13  and  C_14 
REMARK   14  A    between atoms: C_14  and  C_15 
REMARK   15  A    between atoms: C_15  and  C_16 
REMARK   16  A    between atoms: C_16  and  C_17 
REMARK   17  A    between atoms: C_17  and  C_18 
REMARK   18  A    between atoms: C_20  and  O_21 
REMARK   19  A    between atoms: O_21  and  C_22 
REMARK   20  A    between atoms: C_22  and  C_24 
REMARK   21  A    between atoms: C_24  and  O_26 
ROOT
HETATM    1  C   UNL     1     -23.061  -3.514 -12.896  1.00  0.00     0.010 C 
ENDROOT
BRANCH   1   2
HETATM    2  C   UNL     1     -21.877  -3.075 -12.004  1.00  0.00     0.007 C 
BRANCH   2   3
HETATM    3  C   UNL     1     -21.003  -4.253 -11.569  1.00  0.00     0.000 C 
BRANCH   3   4
HETATM    4  C   UNL     1     -19.937  -3.862 -10.547  1.00  0.00     0.000 C 
BRANCH   4   5
HETATM    5  C   UNL     1     -20.089  -4.736  -9.301  1.00  0.00     0.000 C 
BRANCH   5   6
HETATM    6  C   UNL     1     -19.532  -4.064  -8.051  1.00  0.00     0.000 C 
BRANCH   6   7
HETATM    7  C   UNL     1     -19.547  -5.033  -6.865  1.00  0.00     0.000 C 
BRANCH   7   8
HETATM    8  C   UNL     1     -20.885  -4.977  -6.137  1.00  0.00     0.000 C 
BRANCH   8   9
HETATM    9  C   UNL     1     -21.494  -6.368  -5.970  1.00  0.00    -0.000 C 
BRANCH   9  10
HETATM   10  C   UNL     1     -22.025  -6.555  -4.550  1.00  0.00    -0.005 C 
HETATM   11  C   UNL     1     -21.124  -7.463  -3.730  1.00  0.00     0.005 C 
ENDBRANCH   9  10
ENDBRANCH   8   9
ENDBRANCH   7   8
ENDBRANCH   6   7
ENDBRANCH   5   6
ENDBRANCH   4   5
ENDBRANCH   3   4
ENDBRANCH   2   3
ENDBRANCH   1   2
BRANCH   1  12
HETATM   12  C   UNL     1     -23.027  -5.005 -13.302  1.00  0.00     0.007 C 
BRANCH  12  13
HETATM   13  C   UNL     1     -23.615  -5.299 -14.687  1.00  0.00     0.000 C 
BRANCH  13  14
HETATM   14  C   UNL     1     -24.186  -6.713 -14.817  1.00  0.00     0.000 C 
BRANCH  14  15
HETATM   15  C   UNL     1     -24.577  -7.063 -16.251  1.00  0.00     0.000 C 
BRANCH  15  16
HETATM   16  C   UNL     1     -25.932  -6.469 -16.626  1.00  0.00     0.000 C 
BRANCH  16  17
HETATM   17  C   UNL     1     -27.027  -7.031 -15.723  1.00  0.00    -0.000 C 
BRANCH  17  18
HETATM   18  C   UNL     1     -28.410  -6.640 -16.229  1.00  0.00    -0.005 C 
HETATM   19  C   UNL     1     -29.117  -5.722 -15.247  1.00  0.00     0.005 C 
ENDBRANCH  17  18
ENDBRANCH  16  17
ENDBRANCH  15  16
ENDBRANCH  14  15
ENDBRANCH  13  14
ENDBRANCH  12  13
ENDBRANCH   1  12
BRANCH   1  20
HETATM   20  C   UNL     1     -24.391  -3.131 -12.225  1.00  0.00     0.183 C 
BRANCH  20  21
HETATM   21  O   UNL     1     -24.174  -2.675 -10.880  1.00  0.00    -0.319 OA
BRANCH  21  22
HETATM   22  C   UNL     1     -24.941  -3.266  -9.924  1.00  0.00     0.287 C 
HETATM   23  O   UNL     1     -26.164  -3.199  -9.850  1.00  0.00    -0.262 OA
BRANCH  22  24
HETATM   24  C   UNL     1     -24.075  -4.030  -8.922  1.00  0.00     0.213 C 
HETATM   25  C   UNL     1     -23.568  -5.326  -9.529  1.00  0.00     0.050 C 
BRANCH  24  26
HETATM   26  O   UNL     1     -22.943  -3.259  -8.512  1.00  0.00    -0.386 OA
HETATM   27  H   UNL     1     -23.295  -2.457  -8.080  1.00  0.00     0.210 HD
ENDBRANCH  24  26
ENDBRANCH  22  24
ENDBRANCH  21  22
ENDBRANCH  20  21
ENDBRANCH   1  20
TORSDOF 21
BEGIN_RES ARG D 557
REMARK  4 active torsions:
REMARK  status: ('A' for Active; 'I' for Inactive)
REMARK    1  A    between atoms: CA   and  CB  
REMARK    2  A    between atoms: CB   and  CG  
REMARK    3  A    between atoms: CG   and  CD  
REMARK    4  A    between atoms: CD   and  NE  
REMARK       I    between atoms: NE   and  CZ  
REMARK       I    between atoms: CZ   and  NH1 
REMARK       I    between atoms: CZ   and  NH2 
ROOT
ATOM      1  CA  ARG D 557     -26.217   2.705 -17.014  1.00 35.49     0.159 C 
ENDROOT
BRANCH   1   2
ATOM      2  CB  ARG D 557     -26.789   1.319 -17.183  1.00 35.49     0.034 C 
BRANCH   2   3
ATOM      3  CG  ARG D 557     -28.236   1.225 -17.409  1.00 35.49     0.027 C 
BRANCH   3   4
ATOM      4  CD  ARG D 557     -28.892   0.276 -16.479  1.00 35.49     0.116 C 
BRANCH   4   5
ATOM      5  NE  ARG D 557     -29.314  -0.929 -17.143  1.00 35.49    -0.212 N 
ATOM      6  CZ  ARG D 557     -28.719  -2.098 -17.064  1.00 35.49     0.666 C 
ATOM      7  NH1 ARG D 557     -27.624  -2.290 -16.353  1.00 35.49    -0.235 N 
ATOM      8  NH2 ARG D 557     -29.254  -3.089 -17.717  1.00 35.49    -0.235 N 
ATOM      9  HH  ARG D 557     -27.256  -1.653 -15.914  1.00 35.49     0.174 HD
ATOM     10  HH  ARG D 557     -27.281  -3.075 -16.337  1.00 35.49     0.174 HD
ATOM     11  HH  ARG D 557     -29.966  -2.937 -18.162  1.00 35.49     0.174 HD
ATOM     12  HH  ARG D 557     -28.901  -3.859 -17.687  1.00 35.49     0.174 HD
ATOM     13  HE  ARG D 557     -29.971  -0.879 -17.681  1.00 35.49     0.178 HD
ENDBRANCH   4   5
ENDBRANCH   3   4
ENDBRANCH   2   3
ENDBRANCH   1   2
END_RES ARG D 557
BEGIN_RES GLU D 570
REMARK  3 active torsions:
REMARK  status: ('A' for Active; 'I' for Inactive)
REMARK    5  A    between atoms: CA   and  CB  
REMARK    6  A    between atoms: CB   and  CG  
REMARK    7  A    between atoms: CG   and  CD  
ROOT
ATOM     14  CA  GLU D 570     -18.033  -6.348 -13.375  1.00 32.92     0.160 C 
ENDROOT
BRANCH  14  15
ATOM     15  CB  GLU D 570     -19.500  -6.345 -13.794  1.00 32.92     0.043 C 
BRANCH  15  16
ATOM     16  CG  GLU D 570     -20.090  -7.637 -14.231  1.00 32.92     0.100 C 
BRANCH  16  17
ATOM     17  CD  GLU D 570     -20.687  -7.573 -15.617  1.00 32.92     0.185 C 
ATOM     18  OE1 GLU D 570     -20.642  -6.499 -16.247  1.00 32.92    -0.647 OA
ATOM     19  OE2 GLU D 570     -21.222  -8.603 -16.072  1.00 32.92    -0.647 OA
ENDBRANCH  16  17
ENDBRANCH  15  16
ENDBRANCH  14  15
END_RES GLU D 570
ENDMDL
MODEL 6
REMARK VINA RESULT:      -6.8      4.607     10.273
REMARK  21 active torsions:
REMARK  status: ('A' for Active; 'I' for Inactive)
REMARK    1  A    between atoms: C_2  and  C_3 
REMARK    2  A    between atoms: C_3  and  C_4 
REMARK    3  A    between atoms: C_4  and  C_5 
REMARK    4  A    between atoms: C_5  and  C_6 
REMARK    5  A    between atoms: C_6  and  C_7 
REMARK    6  A    between atoms: C_7  and  C_8 
REMARK    7  A    between atoms: C_8  and  C_9 
REMARK    8  A    between atoms: C_9  and  C_10 
REMARK    9  A    between atoms: C_10  and  C_11 
REMARK   10  A    between atoms: C_11  and  C_12 
REMARK   11  A    between atoms: C_11  and  C_20 
REMARK   12  A    between atoms: C_12  and  C_13 
REMARK   13  A    between atoms: C_13  and  C_14 
REMARK   14  A    between atoms: C_14  and  C_15 
REMARK   15  A    between atoms: C_15  and  C_16 
REMARK   16  A    between atoms: C_16  and  C_17 
REMARK   17  A    between atoms: C_17  and  C_18 
REMARK   18  A    between atoms: C_20  and  O_21 
REMARK   19  A    between atoms: O_21  and  C_22 
REMARK   20  A    between atoms: C_22  and  C_24 
REMARK   21  A    between atoms: C_24  and  O_26 
ROOT
HETATM    1  C   UNL     1     -20.346  -8.090  -4.300  1.00  0.00     0.010 C 
ENDROOT
BRANCH   1   2
HETATM    2  C   UNL     1     -20.638  -7.207  -5.535  1.00  0.00     0.007 C 
BRANCH   2   3
HETATM    3  C   UNL     1     -21.011  -5.773  -5.154  1.00  0.00     0.000 C 
BRANCH   3   4
HETATM    4  C   UNL     1     -20.070  -4.731  -5.758  1.00  0.00     0.000 C 
BRANCH   4   5
HETATM    5  C   UNL     1     -19.707  -5.147  -7.185  1.00  0.00     0.000 C 
BRANCH   5   6
HETATM    6  C   UNL     1     -19.453  -3.947  -8.090  1.00  0.00     0.000 C 
BRANCH   6   7
HETATM    7  C   UNL     1     -20.127  -4.145  -9.450  1.00  0.00     0.000 C 
BRANCH   7   8
HETATM    8  C   UNL     1     -21.441  -4.904  -9.298  1.00  0.00     0.000 C 
BRANCH   8   9
HETATM    9  C   UNL     1     -22.598  -4.166  -9.968  1.00  0.00    -0.000 C 
BRANCH   9  10
HETATM   10  C   UNL     1     -23.734  -3.932  -8.974  1.00  0.00    -0.005 C 
HETATM   11  C   UNL     1     -23.340  -4.339  -7.565  1.00  0.00     0.005 C 
ENDBRANCH   9  10
ENDBRANCH   8   9
ENDBRANCH   7   8
ENDBRANCH   6   7
ENDBRANCH   5   6
ENDBRANCH   4   5
ENDBRANCH   3   4
ENDBRANCH   2   3
ENDBRANCH   1   2
BRANCH   1  12
HETATM   12  C   UNL     1     -21.471  -8.083  -3.239  1.00  0.00     0.007 C 
BRANCH  12  13
HETATM   13  C   UNL     1     -21.029  -7.608  -1.850  1.00  0.00     0.000 C 
BRANCH  13  14
HETATM   14  C   UNL     1     -22.194  -7.173  -0.958  1.00  0.00     0.000 C 
BRANCH  14  15
HETATM   15  C   UNL     1     -22.251  -7.943   0.359  1.00  0.00     0.000 C 
BRANCH  15  16
HETATM   16  C   UNL     1     -22.264  -9.452   0.128  1.00  0.00     0.000 C 
BRANCH  16  17
HETATM   17  C   UNL     1     -23.700  -9.957   0.002  1.00  0.00    -0.000 C 
BRANCH  17  18
HETATM   18  C   UNL     1     -23.746 -11.306  -0.705  1.00  0.00    -0.005 C 
HETATM   19  C   UNL     1     -23.180 -11.210  -2.111  1.00  0.00     0.005 C 
ENDBRANCH  17  18
ENDBRANCH  16  17
ENDBRANCH  15  16
ENDBRANCH  14  15
ENDBRANCH  13  14
ENDBRANCH  12  13
ENDBRANCH   1  12
BRANCH   1  20
HETATM   20  C   UNL     1     -19.989  -9.517  -4.750  1.00  0.00     0.183 C 
BRANCH  20  21
HETATM   21  O   UNL     1     -18.994  -9.493  -5.786  1.00  0.00    -0.319 OA
BRANCH  21  22
HETATM   22  C   UNL     1     -18.069 -10.490  -5.742  1.00  0.00     0.287 C 
HETATM   23  O   UNL     1     -18.308 -11.689  -5.848  1.00  0.00    -0.262 OA
BRANCH  22  24
HETATM   24  C   UNL     1     -16.664  -9.926  -5.524  1.00  0.00     0.213 C 
HETATM   25  C   UNL     1     -16.339  -9.848  -4.043  1.00  0.00     0.050 C 
BRANCH  24  26
HETATM   26  O   UNL     1     -15.671 -10.737  -6.155  1.00  0.00    -0.386 OA
HETATM   27  H   UNL     1     -16.012 -10.953  -7.045  1.00  0.00     0.210 HD
ENDBRANCH  24  26
ENDBRANCH  22  24
ENDBRANCH  21  22
ENDBRANCH  20  21
ENDBRANCH   1  20
TORSDOF 21
BEGIN_RES ARG D 557
REMARK  4 active torsions:
REMARK  status: ('A' for Active; 'I' for Inactive)
REMARK    1  A    between atoms: CA   and  CB  
REMARK    2  A    between atoms: CB   and  CG  
REMARK    3  A    between atoms: CG   and  CD  
REMARK    4  A    between atoms: CD   and  NE  
REMARK       I    between atoms: NE   and  CZ  
REMARK       I    between atoms: CZ   and  NH1 
REMARK       I    between atoms: CZ   and  NH2 
ROOT
ATOM      1  CA  ARG D 557     -26.217   2.705 -17.014  1.00 35.49     0.159 C 
ENDROOT
BRANCH   1   2
ATOM      2  CB  ARG D 557     -26.789   1.319 -17.183  1.00 35.49     0.034 C 
BRANCH   2   3
ATOM      3  CG  ARG D 557     -25.837   0.202 -17.147  1.00 35.49     0.027 C 
BRANCH   3   4
ATOM      4  CD  ARG D 557     -24.756   0.415 -16.157  1.00 35.49     0.116 C 
BRANCH   4   5
ATOM      5  NE  ARG D 557     -24.897  -0.440 -15.008  1.00 35.49    -0.212 N 
ATOM      6  CZ  ARG D 557     -24.080  -1.412 -14.669  1.00 35.49     0.666 C 
ATOM      7  NH1 ARG D 557     -23.014  -1.724 -15.382  1.00 35.49    -0.235 N 
ATOM      8  NH2 ARG D 557     -24.351  -2.072 -13.580  1.00 35.49    -0.235 N 
ATOM      9  HH  ARG D 557     -22.815  -1.302 -16.101  1.00 35.49     0.174 HD
ATOM     10  HH  ARG D 557     -22.516  -2.366 -15.110  1.00 35.49     0.174 HD
ATOM     11  HH  ARG D 557     -25.042  -1.844 -13.136  1.00 35.49     0.174 HD
ATOM     12  HH  ARG D 557     -23.845  -2.703 -13.327  1.00 35.49     0.174 HD
ATOM     13  HE  ARG D 557     -25.596  -0.357 -14.532  1.00 35.49     0.178 HD
ENDBRANCH   4   5
ENDBRANCH   3   4
ENDBRANCH   2   3
ENDBRANCH   1   2
END_RES ARG D 557
BEGIN_RES GLU D 570
REMARK  3 active torsions:
REMARK  status: ('A' for Active; 'I' for Inactive)
REMARK    5  A    between atoms: CA   and  CB  
REMARK    6  A    between atoms: CB   and  CG  
REMARK    7  A    between atoms: CG   and  CD  
ROOT
ATOM     14  CA  GLU D 570     -18.033  -6.348 -13.375  1.00 32.92     0.160 C 
ENDROOT
BRANCH  14  15
ATOM     15  CB  GLU D 570     -19.500  -6.345 -13.794  1.00 32.92     0.043 C 
BRANCH  15  16
ATOM     16  CG  GLU D 570     -20.448  -5.561 -12.961  1.00 32.92     0.100 C 
BRANCH  16  17
ATOM     17  CD  GLU D 570     -21.735  -5.235 -13.682  1.00 32.92     0.185 C 
ATOM     18  OE1 GLU D 570     -22.238  -4.103 -13.542  1.00 32.92    -0.647 OA
ATOM     19  OE2 GLU D 570     -22.256  -6.126 -14.381  1.00 32.92    -0.647 OA
ENDBRANCH  16  17
ENDBRANCH  15  16
ENDBRANCH  14  15
END_RES GLU D 570
ENDMDL
MODEL 7
REMARK VINA RESULT:      -6.8      4.586      8.846
REMARK  21 active torsions:
REMARK  status: ('A' for Active; 'I' for Inactive)
REMARK    1  A    between atoms: C_2  and  C_3 
REMARK    2  A    between atoms: C_3  and  C_4 
REMARK    3  A    between atoms: C_4  and  C_5 
REMARK    4  A    between atoms: C_5  and  C_6 
REMARK    5  A    between atoms: C_6  and  C_7 
REMARK    6  A    between atoms: C_7  and  C_8 
REMARK    7  A    between atoms: C_8  and  C_9 
REMARK    8  A    between atoms: C_9  and  C_10 
REMARK    9  A    between atoms: C_10  and  C_11 
REMARK   10  A    between atoms: C_11  and  C_12 
REMARK   11  A    between atoms: C_11  and  C_20 
REMARK   12  A    between atoms: C_12  and  C_13 
REMARK   13  A    between atoms: C_13  and  C_14 
REMARK   14  A    between atoms: C_14  and  C_15 
REMARK   15  A    between atoms: C_15  and  C_16 
REMARK   16  A    between atoms: C_16  and  C_17 
REMARK   17  A    between atoms: C_17  and  C_18 
REMARK   18  A    between atoms: C_20  and  O_21 
REMARK   19  A    between atoms: O_21  and  C_22 
REMARK   20  A    between atoms: C_22  and  C_24 
REMARK   21  A    between atoms: C_24  and  O_26 
ROOT
HETATM    1  C   UNL     1     -21.594  -7.158  -4.549  1.00  0.00     0.010 C 
ENDROOT
BRANCH   1   2
HETATM    2  C   UNL     1     -21.126  -6.851  -3.109  1.00  0.00     0.007 C 
BRANCH   2   3
HETATM    3  C   UNL     1     -22.237  -6.250  -2.247  1.00  0.00     0.000 C 
BRANCH   3   4
HETATM    4  C   UNL     1     -22.297  -6.851  -0.843  1.00  0.00     0.000 C 
BRANCH   4   5
HETATM    5  C   UNL     1     -21.440  -8.117  -0.801  1.00  0.00     0.000 C 
BRANCH   5   6
HETATM    6  C   UNL     1     -21.913  -9.101   0.263  1.00  0.00     0.000 C 
BRANCH   6   7
HETATM    7  C   UNL     1     -23.399  -9.421   0.080  1.00  0.00     0.000 C 
BRANCH   7   8
HETATM    8  C   UNL     1     -23.631 -10.928   0.073  1.00  0.00     0.000 C 
BRANCH   8   9
HETATM    9  C   UNL     1     -24.100 -11.420  -1.295  1.00  0.00    -0.000 C 
BRANCH   9  10
HETATM   10  C   UNL     1     -22.907 -11.844  -2.151  1.00  0.00    -0.005 C 
HETATM   11  C   UNL     1     -22.661 -10.871  -3.291  1.00  0.00     0.005 C 
ENDBRANCH   9  10
ENDBRANCH   8   9
ENDBRANCH   7   8
ENDBRANCH   6   7
ENDBRANCH   5   6
ENDBRANCH   4   5
ENDBRANCH   3   4
ENDBRANCH   2   3
ENDBRANCH   1   2
BRANCH   1  12
HETATM   12  C   UNL     1     -21.593  -5.929  -5.489  1.00  0.00     0.007 C 
BRANCH  12  13
HETATM   13  C   UNL     1     -20.349  -5.041  -5.369  1.00  0.00     0.000 C 
BRANCH  13  14
HETATM   14  C   UNL     1     -19.784  -4.602  -6.722  1.00  0.00     0.000 C 
BRANCH  14  15
HETATM   15  C   UNL     1     -20.425  -5.338  -7.897  1.00  0.00     0.000 C 
BRANCH  15  16
HETATM   16  C   UNL     1     -20.366  -4.510  -9.179  1.00  0.00     0.000 C 
BRANCH  16  17
HETATM   17  C   UNL     1     -21.759  -4.381  -9.791  1.00  0.00    -0.000 C 
BRANCH  17  18
HETATM   18  C   UNL     1     -22.777  -3.936  -8.749  1.00  0.00    -0.005 C 
HETATM   19  C   UNL     1     -24.107  -3.584  -9.392  1.00  0.00     0.005 C 
ENDBRANCH  17  18
ENDBRANCH  16  17
ENDBRANCH  15  16
ENDBRANCH  14  15
ENDBRANCH  13  14
ENDBRANCH  12  13
ENDBRANCH   1  12
BRANCH   1  20
HETATM   20  C   UNL     1     -20.775  -8.325  -5.129  1.00  0.00     0.183 C 
BRANCH  20  21
HETATM   21  O   UNL     1     -19.593  -8.558  -4.346  1.00  0.00    -0.319 OA
BRANCH  21  22
HETATM   22  C   UNL     1     -18.572  -9.186  -4.991  1.00  0.00     0.287 C 
HETATM   23  O   UNL     1     -18.407  -9.214  -6.206  1.00  0.00    -0.262 OA
BRANCH  22  24
HETATM   24  C   UNL     1     -17.641  -9.879  -3.996  1.00  0.00     0.213 C 
HETATM   25  C   UNL     1     -16.223  -9.937  -4.537  1.00  0.00     0.050 C 
BRANCH  24  26
HETATM   26  O   UNL     1     -17.610  -9.194  -2.742  1.00  0.00    -0.386 OA
HETATM   27  H   UNL     1     -18.151  -8.388  -2.852  1.00  0.00     0.210 HD
ENDBRANCH  24  26
ENDBRANCH  22  24
ENDBRANCH  21  22
ENDBRANCH  20  21
ENDBRANCH   1  20
TORSDOF 21
BEGIN_RES ARG D 557
REMARK  4 active torsions:
REMARK  status: ('A' for Active; 'I' for Inactive)
REMARK    1  A    between atoms: CA   and  CB  
REMARK    2  A    between atoms: CB   and  CG  
REMARK    3  A    between atoms: CG   and  CD  
REMARK    4  A    between atoms: CD   and  NE  
REMARK       I    between atoms: NE   and  CZ  
REMARK       I    between atoms: CZ   and  NH1 
REMARK       I    between atoms: CZ   and  NH2 
ROOT
ATOM      1  CA  ARG D 557     -26.217   2.705 -17.014  1.00 35.49     0.159 C 
ENDROOT
BRANCH   1   2
ATOM      2  CB  ARG D 557     -26.789   1.319 -17.183  1.00 35.49     0.034 C 
BRANCH   2   3
ATOM      3  CG  ARG D 557     -28.230   1.227 -17.449  1.00 35.49     0.027 C 
BRANCH   3   4
ATOM      4  CD  ARG D 557     -28.918   0.306 -16.515  1.00 35.49     0.116 C 
BRANCH   4   5
ATOM      5  NE  ARG D 557     -29.304  -0.925 -17.153  1.00 35.49    -0.212 N 
ATOM      6  CZ  ARG D 557     -28.675  -2.074 -17.048  1.00 35.49     0.666 C 
ATOM      7  NH1 ARG D 557     -27.577  -2.218 -16.330  1.00 35.49    -0.235 N 
ATOM      8  NH2 ARG D 557     -29.180  -3.094 -17.679  1.00 35.49    -0.235 N 
ATOM      9  HH  ARG D 557     -27.228  -1.561 -15.905  1.00 35.49     0.174 HD
ATOM     10  HH  ARG D 557     -27.211  -2.993 -16.297  1.00 35.49     0.174 HD
ATOM     11  HH  ARG D 557     -29.895  -2.973 -18.129  1.00 35.49     0.174 HD
ATOM     12  HH  ARG D 557     -28.805  -3.853 -17.632  1.00 35.49     0.174 HD
ATOM     13  HE  ARG D 557     -29.961  -0.906 -17.693  1.00 35.49     0.178 HD
ENDBRANCH   4   5
ENDBRANCH   3   4
ENDBRANCH   2   3
ENDBRANCH   1   2
END_RES ARG D 557
BEGIN_RES GLU D 570
REMARK  3 active torsions:
REMARK  status: ('A' for Active; 'I' for Inactive)
REMARK    5  A    between atoms: CA   and  CB  
REMARK    6  A    between atoms: CB   and  CG  
REMARK    7  A    between atoms: CG   and  CD  
ROOT
ATOM     14  CA  GLU D 570     -18.033  -6.348 -13.375  1.00 32.92     0.160 C 
ENDROOT
BRANCH  14  15
ATOM     15  CB  GLU D 570     -19.500  -6.345 -13.794  1.00 32.92     0.043 C 
BRANCH  15  16
ATOM     16  CG  GLU D 570     -20.098  -7.642 -14.203  1.00 32.92     0.100 C 
BRANCH  16  17
ATOM     17  CD  GLU D 570     -20.646  -7.621 -15.611  1.00 32.92     0.185 C 
ATOM     18  OE1 GLU D 570     -20.764  -6.528 -16.198  1.00 32.92    -0.647 OA
ATOM     19  OE2 GLU D 570     -20.976  -8.707 -16.126  1.00 32.92    -0.647 OA
ENDBRANCH  16  17
ENDBRANCH  15  16
ENDBRANCH  14  15
END_RES GLU D 570
ENDMDL
MODEL 8
REMARK VINA RESULT:      -6.6      4.442      9.736
REMARK  21 active torsions:
REMARK  status: ('A' for Active; 'I' for Inactive)
REMARK    1  A    between atoms: C_2  and  C_3 
REMARK    2  A    between atoms: C_3  and  C_4 
REMARK    3  A    between atoms: C_4  and  C_5 
REMARK    4  A    between atoms: C_5  and  C_6 
REMARK    5  A    between atoms: C_6  and  C_7 
REMARK    6  A    between atoms: C_7  and  C_8 
REMARK    7  A    between atoms: C_8  and  C_9 
REMARK    8  A    between atoms: C_9  and  C_10 
REMARK    9  A    between atoms: C_10  and  C_11 
REMARK   10  A    between atoms: C_11  and  C_12 
REMARK   11  A    between atoms: C_11  and  C_20 
REMARK   12  A    between atoms: C_12  and  C_13 
REMARK   13  A    between atoms: C_13  and  C_14 
REMARK   14  A    between atoms: C_14  and  C_15 
REMARK   15  A    between atoms: C_15  and  C_16 
REMARK   16  A    between atoms: C_16  and  C_17 
REMARK   17  A    between atoms: C_17  and  C_18 
REMARK   18  A    between atoms: C_20  and  O_21 
REMARK   19  A    between atoms: O_21  and  C_22 
REMARK   20  A    between atoms: C_22  and  C_24 
REMARK   21  A    between atoms: C_24  and  O_26 
ROOT
HETATM    1  C   UNL     1     -21.397  -7.306  -3.356  1.00  0.00     0.010 C 
ENDROOT
BRANCH   1   2
HETATM    2  C   UNL     1     -20.583  -8.502  -3.899  1.00  0.00     0.007 C 
BRANCH   2   3
HETATM    3  C   UNL     1     -19.478  -8.944  -2.938  1.00  0.00     0.000 C 
BRANCH   3   4
HETATM    4  C   UNL     1     -19.320 -10.462  -2.865  1.00  0.00     0.000 C 
BRANCH   4   5
HETATM    5  C   UNL     1     -17.848 -10.804  -2.628  1.00  0.00     0.000 C 
BRANCH   5   6
HETATM    6  C   UNL     1     -16.953  -9.571  -2.664  1.00  0.00     0.000 C 
BRANCH   6   7
HETATM    7  C   UNL     1     -15.982  -9.643  -3.845  1.00  0.00     0.000 C 
BRANCH   7   8
HETATM    8  C   UNL     1     -15.963 -11.045  -4.445  1.00  0.00     0.000 C 
BRANCH   8   9
HETATM    9  C   UNL     1     -16.208 -11.015  -5.952  1.00  0.00    -0.000 C 
BRANCH   9  10
HETATM   10  C   UNL     1     -17.541 -10.338  -6.267  1.00  0.00    -0.005 C 
HETATM   11  C   UNL     1     -18.675 -11.345  -6.357  1.00  0.00     0.005 C 
ENDBRANCH   9  10
ENDBRANCH   8   9
ENDBRANCH   7   8
ENDBRANCH   6   7
ENDBRANCH   5   6
ENDBRANCH   4   5
ENDBRANCH   3   4
ENDBRANCH   2   3
ENDBRANCH   1   2
BRANCH   1  12
HETATM   12  C   UNL     1     -21.148  -7.000  -1.860  1.00  0.00     0.007 C 
BRANCH  12  13
HETATM   13  C   UNL     1     -22.421  -6.748  -1.045  1.00  0.00     0.000 C 
BRANCH  13  14
HETATM   14  C   UNL     1     -22.709  -7.843  -0.014  1.00  0.00     0.000 C 
BRANCH  14  15
HETATM   15  C   UNL     1     -21.487  -8.708   0.286  1.00  0.00     0.000 C 
BRANCH  15  16
HETATM   16  C   UNL     1     -21.769 -10.187   0.037  1.00  0.00     0.000 C 
BRANCH  16  17
HETATM   17  C   UNL     1     -22.867 -10.348  -1.013  1.00  0.00    -0.000 C 
BRANCH  17  18
HETATM   18  C   UNL     1     -23.972 -11.270  -0.512  1.00  0.00    -0.005 C 
HETATM   19  C   UNL     1     -23.435 -12.286   0.480  1.00  0.00     0.005 C 
ENDBRANCH  17  18
ENDBRANCH  16  17
ENDBRANCH  15  16
ENDBRANCH  14  15
ENDBRANCH  13  14
ENDBRANCH  12  13
ENDBRANCH   1  12
BRANCH   1  20
HETATM   20  C   UNL     1     -21.164  -6.069  -4.242  1.00  0.00     0.183 C 
BRANCH  20  21
HETATM   21  O   UNL     1     -22.216  -5.929  -5.210  1.00  0.00    -0.319 OA
BRANCH  21  22
HETATM   22  C   UNL     1     -21.814  -5.726  -6.494  1.00  0.00     0.287 C 
HETATM   23  O   UNL     1     -21.047  -6.446  -7.123  1.00  0.00    -0.262 OA
BRANCH  22  24
HETATM   24  C   UNL     1     -22.439  -4.454  -7.069  1.00  0.00     0.213 C 
HETATM   25  C   UNL     1     -22.206  -4.369  -8.566  1.00  0.00     0.050 C 
BRANCH  24  26
HETATM   26  O   UNL     1     -23.849  -4.411  -6.835  1.00  0.00    -0.386 OA
HETATM   27  H   UNL     1     -24.142  -3.508  -7.065  1.00  0.00     0.210 HD
ENDBRANCH  24  26
ENDBRANCH  22  24
ENDBRANCH  21  22
ENDBRANCH  20  21
ENDBRANCH   1  20
TORSDOF 21
BEGIN_RES ARG D 557
REMARK  4 active torsions:
REMARK  status: ('A' for Active; 'I' for Inactive)
REMARK    1  A    between atoms: CA   and  CB  
REMARK    2  A    between atoms: CB   and  CG  
REMARK    3  A    between atoms: CG   and  CD  
REMARK    4  A    between atoms: CD   and  NE  
REMARK       I    between atoms: NE   and  CZ  
REMARK       I    between atoms: CZ   and  NH1 
REMARK       I    between atoms: CZ   and  NH2 
ROOT
ATOM      1  CA  ARG D 557     -26.217   2.705 -17.014  1.00 35.49     0.159 C 
ENDROOT
BRANCH   1   2
ATOM      2  CB  ARG D 557     -26.789   1.319 -17.183  1.00 35.49     0.034 C 
BRANCH   2   3
ATOM      3  CG  ARG D 557     -28.231   1.226 -17.439  1.00 35.49     0.027 C 
BRANCH   3   4
ATOM      4  CD  ARG D 557     -28.914   0.309 -16.498  1.00 35.49     0.116 C 
BRANCH   4   5
ATOM      5  NE  ARG D 557     -29.302  -0.925 -17.129  1.00 35.49    -0.212 N 
ATOM      6  CZ  ARG D 557     -28.665  -2.071 -17.031  1.00 35.49     0.666 C 
ATOM      7  NH1 ARG D 557     -27.555  -2.208 -16.329  1.00 35.49    -0.235 N 
ATOM      8  NH2 ARG D 557     -29.173  -3.094 -17.654  1.00 35.49    -0.235 N 
ATOM      9  HH  ARG D 557     -27.205  -1.548 -15.910  1.00 35.49     0.174 HD
ATOM     10  HH  ARG D 557     -27.186  -2.980 -16.300  1.00 35.49     0.174 HD
ATOM     11  HH  ARG D 557     -29.895  -2.978 -18.094  1.00 35.49     0.174 HD
ATOM     12  HH  ARG D 557     -28.793  -3.851 -17.612  1.00 35.49     0.174 HD
ATOM     13  HE  ARG D 557     -29.966  -0.911 -17.659  1.00 35.49     0.178 HD
ENDBRANCH   4   5
ENDBRANCH   3   4
ENDBRANCH   2   3
ENDBRANCH   1   2
END_RES ARG D 557
BEGIN_RES GLU D 570
REMARK  3 active torsions:
REMARK  status: ('A' for Active; 'I' for Inactive)
REMARK    5  A    between atoms: CA   and  CB  
REMARK    6  A    between atoms: CB   and  CG  
REMARK    7  A    between atoms: CG   and  CD  
ROOT
ATOM     14  CA  GLU D 570     -18.033  -6.348 -13.375  1.00 32.92     0.160 C 
ENDROOT
BRANCH  14  15
ATOM     15  CB  GLU D 570     -19.500  -6.345 -13.794  1.00 32.92     0.043 C 
BRANCH  15  16
ATOM     16  CG  GLU D 570     -20.069  -7.619 -14.304  1.00 32.92     0.100 C 
BRANCH  16  17
ATOM     17  CD  GLU D 570     -20.747  -7.467 -15.645  1.00 32.92     0.185 C 
ATOM     18  OE1 GLU D 570     -21.485  -8.382 -16.058  1.00 32.92    -0.647 OA
ATOM     19  OE2 GLU D 570     -20.524  -6.429 -16.299  1.00 32.92    -0.647 OA
ENDBRANCH  16  17
ENDBRANCH  15  16
ENDBRANCH  14  15
END_RES GLU D 570
ENDMDL
MODEL 9
REMARK VINA RESULT:      -6.6      4.296     10.100
REMARK  21 active torsions:
REMARK  status: ('A' for Active; 'I' for Inactive)
REMARK    1  A    between atoms: C_2  and  C_3 
REMARK    2  A    between atoms: C_3  and  C_4 
REMARK    3  A    between atoms: C_4  and  C_5 
REMARK    4  A    between atoms: C_5  and  C_6 
REMARK    5  A    between atoms: C_6  and  C_7 
REMARK    6  A    between atoms: C_7  and  C_8 
REMARK    7  A    between atoms: C_8  and  C_9 
REMARK    8  A    between atoms: C_9  and  C_10 
REMARK    9  A    between atoms: C_10  and  C_11 
REMARK   10  A    between atoms: C_11  and  C_12 
REMARK   11  A    between atoms: C_11  and  C_20 
REMARK   12  A    between atoms: C_12  and  C_13 
REMARK   13  A    between atoms: C_13  and  C_14 
REMARK   14  A    between atoms: C_14  and  C_15 
REMARK   15  A    between atoms: C_15  and  C_16 
REMARK   16  A    between atoms: C_16  and  C_17 
REMARK   17  A    between atoms: C_17  and  C_18 
REMARK   18  A    between atoms: C_20  and  O_21 
REMARK   19  A    between atoms: O_21  and  C_22 
REMARK   20  A    between atoms: C_22  and  C_24 
REMARK   21  A    between atoms: C_24  and  O_26 
ROOT
HETATM    1  C   UNL     1     -20.607  -7.174  -4.931  1.00  0.00     0.010 C 
ENDROOT
BRANCH   1   2
HETATM    2  C   UNL     1     -20.429  -6.310  -6.200  1.00  0.00     0.007 C 
BRANCH   2   3
HETATM    3  C   UNL     1     -20.340  -4.816  -5.884  1.00  0.00     0.000 C 
BRANCH   3   4
HETATM    4  C   UNL     1     -20.859  -3.932  -7.017  1.00  0.00     0.000 C 
BRANCH   4   5
HETATM    5  C   UNL     1     -19.884  -3.998  -8.194  1.00  0.00     0.000 C 
BRANCH   5   6
HETATM    6  C   UNL     1     -20.578  -4.366  -9.501  1.00  0.00     0.000 C 
BRANCH   6   7
HETATM    7  C   UNL     1     -22.097  -4.415  -9.310  1.00  0.00     0.000 C 
BRANCH   7   8
HETATM    8  C   UNL     1     -22.816  -4.207 -10.638  1.00  0.00     0.000 C 
BRANCH   8   9
HETATM    9  C   UNL     1     -21.892  -3.597 -11.690  1.00  0.00    -0.000 C 
BRANCH   9  10
HETATM   10  C   UNL     1     -22.333  -4.004 -13.094  1.00  0.00    -0.005 C 
HETATM   11  C   UNL     1     -23.191  -5.257 -13.073  1.00  0.00     0.005 C 
ENDBRANCH   9  10
ENDBRANCH   8   9
ENDBRANCH   7   8
ENDBRANCH   6   7
ENDBRANCH   5   6
ENDBRANCH   4   5
ENDBRANCH   3   4
ENDBRANCH   2   3
ENDBRANCH   1   2
BRANCH   1  12
HETATM   12  C   UNL     1     -21.596  -6.585  -3.899  1.00  0.00     0.007 C 
BRANCH  12  13
HETATM   13  C   UNL     1     -21.229  -6.864  -2.438  1.00  0.00     0.000 C 
BRANCH  13  14
HETATM   14  C   UNL     1     -22.292  -6.392  -1.443  1.00  0.00     0.000 C 
BRANCH  14  15
HETATM   15  C   UNL     1     -22.586  -7.425  -0.357  1.00  0.00     0.000 C 
BRANCH  15  16
HETATM   16  C   UNL     1     -21.359  -8.279  -0.046  1.00  0.00     0.000 C 
BRANCH  16  17
HETATM   17  C   UNL     1     -21.762  -9.742   0.127  1.00  0.00    -0.000 C 
BRANCH  17  18
HETATM   18  C   UNL     1     -22.903 -10.111  -0.812  1.00  0.00    -0.005 C 
HETATM   19  C   UNL     1     -23.961 -10.934  -0.098  1.00  0.00     0.005 C 
ENDBRANCH  17  18
ENDBRANCH  16  17
ENDBRANCH  15  16
ENDBRANCH  14  15
ENDBRANCH  13  14
ENDBRANCH  12  13
ENDBRANCH   1  12
BRANCH   1  20
HETATM   20  C   UNL     1     -20.978  -8.614  -5.326  1.00  0.00     0.183 C 
BRANCH  20  21
HETATM   21  O   UNL     1     -20.099  -9.560  -4.695  1.00  0.00    -0.319 OA
BRANCH  21  22
HETATM   22  C   UNL     1     -18.803  -9.531  -5.109  1.00  0.00     0.287 C 
HETATM   23  O   UNL     1     -18.429  -9.492  -6.277  1.00  0.00    -0.262 OA
BRANCH  22  24
HETATM   24  C   UNL     1     -17.846  -9.566  -3.917  1.00  0.00     0.213 C 
HETATM   25  C   UNL     1     -18.611  -9.447  -2.611  1.00  0.00     0.050 C 
BRANCH  24  26
HETATM   26  O   UNL     1     -17.096 -10.781  -3.883  1.00  0.00    -0.386 OA
HETATM   27  H   UNL     1     -16.639 -10.850  -4.744  1.00  0.00     0.210 HD
ENDBRANCH  24  26
ENDBRANCH  22  24
ENDBRANCH  21  22
ENDBRANCH  20  21
ENDBRANCH   1  20
TORSDOF 21
BEGIN_RES ARG D 557
REMARK  4 active torsions:
REMARK  status: ('A' for Active; 'I' for Inactive)
REMARK    1  A    between atoms: CA   and  CB  
REMARK    2  A    between atoms: CB   and  CG  
REMARK    3  A    between atoms: CG   and  CD  
REMARK    4  A    between atoms: CD   and  NE  
REMARK       I    between atoms: NE   and  CZ  
REMARK       I    between atoms: CZ   and  NH1 
REMARK       I    between atoms: CZ   and  NH2 
ROOT
ATOM      1  CA  ARG D 557     -26.217   2.705 -17.014  1.00 35.49     0.159 C 
ENDROOT
BRANCH   1   2
ATOM      2  CB  ARG D 557     -26.789   1.319 -17.183  1.00 35.49     0.034 C 
BRANCH   2   3
ATOM      3  CG  ARG D 557     -26.159   0.245 -16.405  1.00 35.49     0.027 C 
BRANCH   3   4
ATOM      4  CD  ARG D 557     -27.048  -0.928 -16.240  1.00 35.49     0.116 C 
BRANCH   4   5
ATOM      5  NE  ARG D 557     -26.399  -2.006 -15.542  1.00 35.49    -0.212 N 
ATOM      6  CZ  ARG D 557     -26.733  -3.275 -15.609  1.00 35.49     0.666 C 
ATOM      7  NH1 ARG D 557     -27.745  -3.705 -16.340  1.00 35.49    -0.235 N 
ATOM      8  NH2 ARG D 557     -26.019  -4.121 -14.924  1.00 35.49    -0.235 N 
ATOM      9  HH  ARG D 557     -28.227  -3.166 -16.800  1.00 35.49     0.174 HD
ATOM     10  HH  ARG D 557     -27.914  -4.545 -16.347  1.00 35.49     0.174 HD
ATOM     11  HH  ARG D 557     -25.367  -3.816 -14.467  1.00 35.49     0.174 HD
ATOM     12  HH  ARG D 557     -26.201  -4.949 -14.945  1.00 35.49     0.174 HD
ATOM     13  HE  ARG D 557     -25.781  -1.811 -14.991  1.00 35.49     0.178 HD
ENDBRANCH   4   5
ENDBRANCH   3   4
ENDBRANCH   2   3
ENDBRANCH   1   2
END_RES ARG D 557
BEGIN_RES GLU D 570
REMARK  3 active torsions:
REMARK  status: ('A' for Active; 'I' for Inactive)
REMARK    5  A    between atoms: CA   and  CB  
REMARK    6  A    between atoms: CB   and  CG  
REMARK    7  A    between atoms: CG   and  CD  
ROOT
ATOM     14  CA  GLU D 570     -18.033  -6.348 -13.375  1.00 32.92     0.160 C 
ENDROOT
BRANCH  14  15
ATOM     15  CB  GLU D 570     -19.500  -6.345 -13.794  1.00 32.92     0.043 C 
BRANCH  15  16
ATOM     16  CG  GLU D 570     -20.107  -7.648 -14.169  1.00 32.92     0.100 C 
BRANCH  16  17
ATOM     17  CD  GLU D 570     -20.720  -7.637 -15.551  1.00 32.92     0.185 C 
ATOM     18  OE1 GLU D 570     -21.205  -6.576 -15.989  1.00 32.92    -0.647 OA
ATOM     19  OE2 GLU D 570     -20.729  -8.704 -16.195  1.00 32.92    -0.647 OA
ENDBRANCH  16  17
ENDBRANCH  15  16
ENDBRANCH  14  15
END_RES GLU D 570
ENDMDL
