MODEL 1
REMARK VINA RESULT:      -6.6      0.000      0.000
REMARK  16 active torsions:
REMARK  status: ('A' for Active; 'I' for Inactive)
REMARK    1  A    between atoms: C_2  and  C_3 
REMARK    2  A    between atoms: C_3  and  C_4 
REMARK    3  A    between atoms: C_4  and  C_5 
REMARK    4  A    between atoms: C_5  and  C_6 
REMARK    5  A    between atoms: C_6  and  C_7 
REMARK    6  A    between atoms: C_7  and  C_8 
REMARK    7  A    between atoms: C_8  and  C_9 
REMARK    8  A    between atoms: C_9  and  C_10 
REMARK    9  A    between atoms: C_10  and  C_11 
REMARK   10  A    between atoms: C_11  and  C_12 
REMARK   11  A    between atoms: C_12  and  C_13 
REMARK   12  A    between atoms: C_13  and  C_14 
REMARK   13  A    between atoms: C_14  and  C_15 
REMARK   14  A    between atoms: C_15  and  C_16 
REMARK   15  A    between atoms: C_16  and  C_17 
REMARK   16  A    between atoms: C_17  and  C_18 
ROOT
HETATM    1  C   UNL     1     -20.700  -7.493  -5.307  1.00  0.00     0.000 C 
ENDROOT
BRANCH   1   2
HETATM    2  C   UNL     1     -21.280  -6.287  -6.024  1.00  0.00     0.000 C 
BRANCH   2   3
HETATM    3  C   UNL     1     -20.341  -5.100  -5.893  1.00  0.00     0.000 C 
BRANCH   3   4
HETATM    4  C   UNL     1     -20.726  -4.015  -6.883  1.00  0.00     0.000 C 
BRANCH   4   5
HETATM    5  C   UNL     1     -19.734  -3.977  -8.034  1.00  0.00     0.000 C 
BRANCH   5   6
HETATM    6  C   UNL     1     -20.296  -4.713  -9.238  1.00  0.00     0.000 C 
BRANCH   6   7
HETATM    7  C   UNL     1     -21.371  -3.873  -9.919  1.00  0.00     0.000 C 
BRANCH   7   8
HETATM    8  C   UNL     1     -22.689  -4.636  -9.974  1.00  0.00    -0.000 C 
BRANCH   8   9
HETATM    9  C   UNL     1     -23.695  -4.055  -8.989  1.00  0.00    -0.005 C 
HETATM   10  C   UNL     1     -24.802  -3.318  -9.724  1.00  0.00     0.005 C 
ENDBRANCH   8   9
ENDBRANCH   7   8
ENDBRANCH   6   7
ENDBRANCH   5   6
ENDBRANCH   4   5
ENDBRANCH   3   4
ENDBRANCH   2   3
ENDBRANCH   1   2
BRANCH   1  11
HETATM   11  C   UNL     1     -21.591  -7.881  -4.141  1.00  0.00     0.000 C 
BRANCH  11  12
HETATM   12  C   UNL     1     -21.021  -7.340  -2.843  1.00  0.00     0.000 C 
BRANCH  12  13
HETATM   13  C   UNL     1     -22.069  -6.510  -2.122  1.00  0.00     0.000 C 
BRANCH  13  14
HETATM   14  C   UNL     1     -22.331  -7.086  -0.742  1.00  0.00     0.000 C 
BRANCH  14  15
HETATM   15  C   UNL     1     -21.249  -8.089  -0.372  1.00  0.00     0.000 C 
BRANCH  15  16
HETATM   16  C   UNL     1     -21.874  -9.257   0.377  1.00  0.00     0.000 C 
BRANCH  16  17
HETATM   17  C   UNL     1     -23.343  -9.427   0.006  1.00  0.00     0.004 C 
BRANCH  17  18
HETATM   18  C   UNL     1     -23.653 -10.838  -0.518  1.00  0.00    -0.023 C 
HETATM   19  C   UNL     1     -23.282 -11.003  -1.993  1.00  0.00     0.009 C 
HETATM   20  C   UNL     1     -22.907 -11.872   0.325  1.00  0.00     0.009 C 
ENDBRANCH  17  18
ENDBRANCH  16  17
ENDBRANCH  15  16
ENDBRANCH  14  15
ENDBRANCH  13  14
ENDBRANCH  12  13
ENDBRANCH  11  12
ENDBRANCH   1  11
TORSDOF 16
BEGIN_RES ARG D 557
REMARK  4 active torsions:
REMARK  status: ('A' for Active; 'I' for Inactive)
REMARK    1  A    between atoms: CA   and  CB  
REMARK    2  A    between atoms: CB   and  CG  
REMARK    3  A    between atoms: CG   and  CD  
REMARK    4  A    between atoms: CD   and  NE  
REMARK       I    between atoms: NE   and  CZ  
REMARK       I    between atoms: CZ   and  NH1 
REMARK       I    between atoms: CZ   and  NH2 
ROOT
ATOM      1  CA  ARG D 557     -26.217   2.705 -17.014  1.00 35.49     0.159 C 
ENDROOT
BRANCH   1   2
ATOM      2  CB  ARG D 557     -26.789   1.319 -17.183  1.00 35.49     0.034 C 
BRANCH   2   3
ATOM      3  CG  ARG D 557     -28.159   1.106 -16.701  1.00 35.49     0.027 C 
BRANCH   3   4
ATOM      4  CD  ARG D 557     -28.795  -0.082 -17.314  1.00 35.49     0.116 C 
BRANCH   4   5
ATOM      5  NE  ARG D 557     -28.189  -1.310 -16.872  1.00 35.49    -0.212 N 
ATOM      6  CZ  ARG D 557     -28.686  -2.515 -17.039  1.00 35.49     0.666 C 
ATOM      7  NH1 ARG D 557     -29.842  -2.729 -17.640  1.00 35.49    -0.235 N 
ATOM      8  NH2 ARG D 557     -27.989  -3.519 -16.592  1.00 35.49    -0.235 N 
ATOM      9  HH  ARG D 557     -30.316  -2.083 -17.944  1.00 35.49     0.174 HD
ATOM     10  HH  ARG D 557     -30.114  -3.537 -17.723  1.00 35.49     0.174 HD
ATOM     11  HH  ARG D 557     -27.243  -3.352 -16.215  1.00 35.49     0.174 HD
ATOM     12  HH  ARG D 557     -28.275  -4.312 -16.685  1.00 35.49     0.174 HD
ATOM     13  HE  ARG D 557     -27.476  -1.260 -16.411  1.00 35.49     0.178 HD
ENDBRANCH   4   5
ENDBRANCH   3   4
ENDBRANCH   2   3
ENDBRANCH   1   2
END_RES ARG D 557
BEGIN_RES GLU D 570
REMARK  3 active torsions:
REMARK  status: ('A' for Active; 'I' for Inactive)
REMARK    5  A    between atoms: CA   and  CB  
REMARK    6  A    between atoms: CB   and  CG  
REMARK    7  A    between atoms: CG   and  CD  
ROOT
ATOM     14  CA  GLU D 570     -18.033  -6.348 -13.375  1.00 32.92     0.160 C 
ENDROOT
BRANCH  14  15
ATOM     15  CB  GLU D 570     -19.500  -6.345 -13.794  1.00 32.92     0.043 C 
BRANCH  15  16
ATOM     16  CG  GLU D 570     -20.443  -5.538 -12.978  1.00 32.92     0.100 C 
BRANCH  16  17
ATOM     17  CD  GLU D 570     -21.753  -5.270 -13.683  1.00 32.92     0.185 C 
ATOM     18  OE1 GLU D 570     -22.305  -4.163 -13.534  1.00 32.92    -0.647 OA
ATOM     19  OE2 GLU D 570     -22.240  -6.183 -14.378  1.00 32.92    -0.647 OA
ENDBRANCH  16  17
ENDBRANCH  15  16
ENDBRANCH  14  15
END_RES GLU D 570
ENDMDL
MODEL 2
REMARK VINA RESULT:      -6.6      2.087      7.587
REMARK  16 active torsions:
REMARK  status: ('A' for Active; 'I' for Inactive)
REMARK    1  A    between atoms: C_2  and  C_3 
REMARK    2  A    between atoms: C_3  and  C_4 
REMARK    3  A    between atoms: C_4  and  C_5 
REMARK    4  A    between atoms: C_5  and  C_6 
REMARK    5  A    between atoms: C_6  and  C_7 
REMARK    6  A    between atoms: C_7  and  C_8 
REMARK    7  A    between atoms: C_8  and  C_9 
REMARK    8  A    between atoms: C_9  and  C_10 
REMARK    9  A    between atoms: C_10  and  C_11 
REMARK   10  A    between atoms: C_11  and  C_12 
REMARK   11  A    between atoms: C_12  and  C_13 
REMARK   12  A    between atoms: C_13  and  C_14 
REMARK   13  A    between atoms: C_14  and  C_15 
REMARK   14  A    between atoms: C_15  and  C_16 
REMARK   15  A    between atoms: C_16  and  C_17 
REMARK   16  A    between atoms: C_17  and  C_18 
ROOT
HETATM    1  C   UNL     1     -22.133  -6.162  -1.943  1.00  0.00     0.000 C 
ENDROOT
BRANCH   1   2
HETATM    2  C   UNL     1     -21.943  -7.487  -1.225  1.00  0.00     0.000 C 
BRANCH   2   3
HETATM    3  C   UNL     1     -22.832  -7.547   0.004  1.00  0.00     0.000 C 
BRANCH   3   4
HETATM    4  C   UNL     1     -22.152  -8.344   1.104  1.00  0.00     0.000 C 
BRANCH   4   5
HETATM    5  C   UNL     1     -20.880  -8.988   0.578  1.00  0.00     0.000 C 
BRANCH   5   6
HETATM    6  C   UNL     1     -20.761 -10.412   1.092  1.00  0.00     0.000 C 
BRANCH   6   7
HETATM    7  C   UNL     1     -21.740 -11.324   0.361  1.00  0.00     0.000 C 
BRANCH   7   8
HETATM    8  C   UNL     1     -21.570 -11.187  -1.148  1.00  0.00    -0.000 C 
BRANCH   8   9
HETATM    9  C   UNL     1     -22.917 -10.992  -1.832  1.00  0.00    -0.005 C 
HETATM   10  C   UNL     1     -24.055 -11.271  -0.865  1.00  0.00     0.005 C 
ENDBRANCH   8   9
ENDBRANCH   7   8
ENDBRANCH   6   7
ENDBRANCH   5   6
ENDBRANCH   4   5
ENDBRANCH   3   4
ENDBRANCH   2   3
ENDBRANCH   1   2
BRANCH   1  11
HETATM   11  C   UNL     1     -21.553  -6.242  -3.343  1.00  0.00     0.000 C 
BRANCH  11  12
HETATM   12  C   UNL     1     -21.051  -7.647  -3.622  1.00  0.00     0.000 C 
BRANCH  12  13
HETATM   13  C   UNL     1     -20.398  -7.702  -4.992  1.00  0.00     0.000 C 
BRANCH  13  14
HETATM   14  C   UNL     1     -21.061  -6.704  -5.925  1.00  0.00     0.000 C 
BRANCH  14  15
HETATM   15  C   UNL     1     -20.016  -5.999  -6.776  1.00  0.00     0.000 C 
BRANCH  15  16
HETATM   16  C   UNL     1     -20.245  -4.496  -6.720  1.00  0.00     0.000 C 
BRANCH  16  17
HETATM   17  C   UNL     1     -21.536  -4.108  -7.433  1.00  0.00     0.004 C 
BRANCH  17  18
HETATM   18  C   UNL     1     -21.578  -4.616  -8.882  1.00  0.00    -0.023 C 
HETATM   19  C   UNL     1     -22.959  -4.443  -9.518  1.00  0.00     0.009 C 
HETATM   20  C   UNL     1     -20.526  -3.881  -9.713  1.00  0.00     0.009 C 
ENDBRANCH  17  18
ENDBRANCH  16  17
ENDBRANCH  15  16
ENDBRANCH  14  15
ENDBRANCH  13  14
ENDBRANCH  12  13
ENDBRANCH  11  12
ENDBRANCH   1  11
TORSDOF 16
BEGIN_RES ARG D 557
REMARK  4 active torsions:
REMARK  status: ('A' for Active; 'I' for Inactive)
REMARK    1  A    between atoms: CA   and  CB  
REMARK    2  A    between atoms: CB   and  CG  
REMARK    3  A    between atoms: CG   and  CD  
REMARK    4  A    between atoms: CD   and  NE  
REMARK       I    between atoms: NE   and  CZ  
REMARK       I    between atoms: CZ   and  NH1 
REMARK       I    between atoms: CZ   and  NH2 
ROOT
ATOM      1  CA  ARG D 557     -26.217   2.705 -17.014  1.00 35.49     0.159 C 
ENDROOT
BRANCH   1   2
ATOM      2  CB  ARG D 557     -26.789   1.319 -17.183  1.00 35.49     0.034 C 
BRANCH   2   3
ATOM      3  CG  ARG D 557     -25.834   0.204 -17.171  1.00 35.49     0.027 C 
BRANCH   3   4
ATOM      4  CD  ARG D 557     -24.763   0.390 -16.165  1.00 35.49     0.116 C 
BRANCH   4   5
ATOM      5  NE  ARG D 557     -24.939  -0.465 -15.021  1.00 35.49    -0.212 N 
ATOM      6  CZ  ARG D 557     -24.132  -1.437 -14.657  1.00 35.49     0.666 C 
ATOM      7  NH1 ARG D 557     -23.045  -1.748 -15.338  1.00 35.49    -0.235 N 
ATOM      8  NH2 ARG D 557     -24.436  -2.097 -13.577  1.00 35.49    -0.235 N 
ATOM      9  HH  ARG D 557     -22.824  -1.326 -16.050  1.00 35.49     0.174 HD
ATOM     10  HH  ARG D 557     -22.555  -2.390 -15.051  1.00 35.49     0.174 HD
ATOM     11  HH  ARG D 557     -25.141  -1.869 -13.154  1.00 35.49     0.174 HD
ATOM     12  HH  ARG D 557     -23.938  -2.728 -13.309  1.00 35.49     0.174 HD
ATOM     13  HE  ARG D 557     -25.652  -0.382 -14.566  1.00 35.49     0.178 HD
ENDBRANCH   4   5
ENDBRANCH   3   4
ENDBRANCH   2   3
ENDBRANCH   1   2
END_RES ARG D 557
BEGIN_RES GLU D 570
REMARK  3 active torsions:
REMARK  status: ('A' for Active; 'I' for Inactive)
REMARK    5  A    between atoms: CA   and  CB  
REMARK    6  A    between atoms: CB   and  CG  
REMARK    7  A    between atoms: CG   and  CD  
ROOT
ATOM     14  CA  GLU D 570     -18.033  -6.348 -13.375  1.00 32.92     0.160 C 
ENDROOT
BRANCH  14  15
ATOM     15  CB  GLU D 570     -19.500  -6.345 -13.794  1.00 32.92     0.043 C 
BRANCH  15  16
ATOM     16  CG  GLU D 570     -20.448  -5.558 -12.963  1.00 32.92     0.100 C 
BRANCH  16  17
ATOM     17  CD  GLU D 570     -21.630  -5.039 -13.749  1.00 32.92     0.185 C 
ATOM     18  OE1 GLU D 570     -21.833  -5.479 -14.897  1.00 32.92    -0.647 OA
ATOM     19  OE2 GLU D 570     -22.350  -4.172 -13.217  1.00 32.92    -0.647 OA
ENDBRANCH  16  17
ENDBRANCH  15  16
ENDBRANCH  14  15
END_RES GLU D 570
ENDMDL
MODEL 3
REMARK VINA RESULT:      -6.5      1.867      2.531
REMARK  16 active torsions:
REMARK  status: ('A' for Active; 'I' for Inactive)
REMARK    1  A    between atoms: C_2  and  C_3 
REMARK    2  A    between atoms: C_3  and  C_4 
REMARK    3  A    between atoms: C_4  and  C_5 
REMARK    4  A    between atoms: C_5  and  C_6 
REMARK    5  A    between atoms: C_6  and  C_7 
REMARK    6  A    between atoms: C_7  and  C_8 
REMARK    7  A    between atoms: C_8  and  C_9 
REMARK    8  A    between atoms: C_9  and  C_10 
REMARK    9  A    between atoms: C_10  and  C_11 
REMARK   10  A    between atoms: C_11  and  C_12 
REMARK   11  A    between atoms: C_12  and  C_13 
REMARK   12  A    between atoms: C_13  and  C_14 
REMARK   13  A    between atoms: C_14  and  C_15 
REMARK   14  A    between atoms: C_15  and  C_16 
REMARK   15  A    between atoms: C_16  and  C_17 
REMARK   16  A    between atoms: C_17  and  C_18 
ROOT
HETATM    1  C   UNL     1     -21.038  -7.425  -3.153  1.00  0.00     0.000 C 
ENDROOT
BRANCH   1   2
HETATM    2  C   UNL     1     -20.770  -7.193  -4.630  1.00  0.00     0.000 C 
BRANCH   2   3
HETATM    3  C   UNL     1     -21.409  -5.890  -5.077  1.00  0.00     0.000 C 
BRANCH   3   4
HETATM    4  C   UNL     1     -20.347  -4.938  -5.601  1.00  0.00     0.000 C 
BRANCH   4   5
HETATM    5  C   UNL     1     -19.675  -5.525  -6.832  1.00  0.00     0.000 C 
BRANCH   5   6
HETATM    6  C   UNL     1     -19.710  -4.526  -7.976  1.00  0.00     0.000 C 
BRANCH   6   7
HETATM    7  C   UNL     1     -21.084  -3.871  -8.066  1.00  0.00     0.000 C 
BRANCH   7   8
HETATM    8  C   UNL     1     -22.035  -4.736  -8.884  1.00  0.00    -0.000 C 
BRANCH   8   9
HETATM    9  C   UNL     1     -23.223  -3.922  -9.379  1.00  0.00    -0.005 C 
HETATM   10  C   UNL     1     -23.876  -4.597 -10.573  1.00  0.00     0.005 C 
ENDBRANCH   8   9
ENDBRANCH   7   8
ENDBRANCH   6   7
ENDBRANCH   5   6
ENDBRANCH   4   5
ENDBRANCH   3   4
ENDBRANCH   2   3
ENDBRANCH   1   2
BRANCH   1  11
HETATM   11  C   UNL     1     -21.836  -6.268  -2.582  1.00  0.00     0.000 C 
BRANCH  11  12
HETATM   12  C   UNL     1     -22.308  -6.599  -1.178  1.00  0.00     0.000 C 
BRANCH  12  13
HETATM   13  C   UNL     1     -21.484  -7.742  -0.611  1.00  0.00     0.000 C 
BRANCH  13  14
HETATM   14  C   UNL     1     -22.145  -8.289   0.642  1.00  0.00     0.000 C 
BRANCH  14  15
HETATM   15  C   UNL     1     -23.462  -8.965   0.295  1.00  0.00     0.000 C 
BRANCH  15  16
HETATM   16  C   UNL     1     -23.195 -10.193  -0.561  1.00  0.00     0.000 C 
BRANCH  16  17
HETATM   17  C   UNL     1     -23.839 -11.436   0.043  1.00  0.00     0.004 C 
BRANCH  17  18
HETATM   18  C   UNL     1     -22.809 -12.530   0.364  1.00  0.00    -0.023 C 
HETATM   19  C   UNL     1     -21.436 -11.951   0.708  1.00  0.00     0.009 C 
HETATM   20  C   UNL     1     -23.318 -13.387   1.523  1.00  0.00     0.009 C 
ENDBRANCH  17  18
ENDBRANCH  16  17
ENDBRANCH  15  16
ENDBRANCH  14  15
ENDBRANCH  13  14
ENDBRANCH  12  13
ENDBRANCH  11  12
ENDBRANCH   1  11
TORSDOF 16
BEGIN_RES ARG D 557
REMARK  4 active torsions:
REMARK  status: ('A' for Active; 'I' for Inactive)
REMARK    1  A    between atoms: CA   and  CB  
REMARK    2  A    between atoms: CB   and  CG  
REMARK    3  A    between atoms: CG   and  CD  
REMARK    4  A    between atoms: CD   and  NE  
REMARK       I    between atoms: NE   and  CZ  
REMARK       I    between atoms: CZ   and  NH1 
REMARK       I    between atoms: CZ   and  NH2 
ROOT
ATOM      1  CA  ARG D 557     -26.217   2.705 -17.014  1.00 35.49     0.159 C 
ENDROOT
BRANCH   1   2
ATOM      2  CB  ARG D 557     -26.789   1.319 -17.183  1.00 35.49     0.034 C 
BRANCH   2   3
ATOM      3  CG  ARG D 557     -25.862   0.195 -17.004  1.00 35.49     0.027 C 
BRANCH   3   4
ATOM      4  CD  ARG D 557     -26.295  -0.728 -15.930  1.00 35.49     0.116 C 
BRANCH   4   5
ATOM      5  NE  ARG D 557     -25.283  -0.899 -14.921  1.00 35.49    -0.212 N 
ATOM      6  CZ  ARG D 557     -24.998  -2.023 -14.302  1.00 35.49     0.666 C 
ATOM      7  NH1 ARG D 557     -25.645  -3.148 -14.542  1.00 35.49    -0.235 N 
ATOM      8  NH2 ARG D 557     -24.033  -1.999 -13.429  1.00 35.49    -0.235 N 
ATOM      9  HH  ARG D 557     -26.282  -3.187 -15.113  1.00 35.49     0.174 HD
ATOM     10  HH  ARG D 557     -25.414  -3.851 -14.109  1.00 35.49     0.174 HD
ATOM     11  HH  ARG D 557     -23.628  -1.260 -13.300  1.00 35.49     0.174 HD
ATOM     12  HH  ARG D 557     -23.818  -2.706 -13.012  1.00 35.49     0.174 HD
ATOM     13  HE  ARG D 557     -24.866  -0.209 -14.653  1.00 35.49     0.178 HD
ENDBRANCH   4   5
ENDBRANCH   3   4
ENDBRANCH   2   3
ENDBRANCH   1   2
END_RES ARG D 557
BEGIN_RES GLU D 570
REMARK  3 active torsions:
REMARK  status: ('A' for Active; 'I' for Inactive)
REMARK    5  A    between atoms: CA   and  CB  
REMARK    6  A    between atoms: CB   and  CG  
REMARK    7  A    between atoms: CG   and  CD  
ROOT
ATOM     14  CA  GLU D 570     -18.033  -6.348 -13.375  1.00 32.92     0.160 C 
ENDROOT
BRANCH  14  15
ATOM     15  CB  GLU D 570     -19.500  -6.345 -13.794  1.00 32.92     0.043 C 
BRANCH  15  16
ATOM     16  CG  GLU D 570     -20.446  -5.550 -12.969  1.00 32.92     0.100 C 
BRANCH  16  17
ATOM     17  CD  GLU D 570     -21.739  -5.241 -13.687  1.00 32.92     0.185 C 
ATOM     18  OE1 GLU D 570     -22.328  -6.157 -14.293  1.00 32.92    -0.647 OA
ATOM     19  OE2 GLU D 570     -22.158  -4.067 -13.657  1.00 32.92    -0.647 OA
ENDBRANCH  16  17
ENDBRANCH  15  16
ENDBRANCH  14  15
END_RES GLU D 570
ENDMDL
MODEL 4
REMARK VINA RESULT:      -6.5      2.037      2.262
REMARK  16 active torsions:
REMARK  status: ('A' for Active; 'I' for Inactive)
REMARK    1  A    between atoms: C_2  and  C_3 
REMARK    2  A    between atoms: C_3  and  C_4 
REMARK    3  A    between atoms: C_4  and  C_5 
REMARK    4  A    between atoms: C_5  and  C_6 
REMARK    5  A    between atoms: C_6  and  C_7 
REMARK    6  A    between atoms: C_7  and  C_8 
REMARK    7  A    between atoms: C_8  and  C_9 
REMARK    8  A    between atoms: C_9  and  C_10 
REMARK    9  A    between atoms: C_10  and  C_11 
REMARK   10  A    between atoms: C_11  and  C_12 
REMARK   11  A    between atoms: C_12  and  C_13 
REMARK   12  A    between atoms: C_13  and  C_14 
REMARK   13  A    between atoms: C_14  and  C_15 
REMARK   14  A    between atoms: C_15  and  C_16 
REMARK   15  A    between atoms: C_16  and  C_17 
REMARK   16  A    between atoms: C_17  and  C_18 
ROOT
HETATM    1  C   UNL     1     -20.453  -6.795  -5.544  1.00  0.00     0.000 C 
ENDROOT
BRANCH   1   2
HETATM    2  C   UNL     1     -20.862  -6.093  -6.827  1.00  0.00     0.000 C 
BRANCH   2   3
HETATM    3  C   UNL     1     -21.259  -4.657  -6.533  1.00  0.00     0.000 C 
BRANCH   3   4
HETATM    4  C   UNL     1     -21.309  -3.854  -7.821  1.00  0.00     0.000 C 
BRANCH   4   5
HETATM    5  C   UNL     1     -20.074  -4.130  -8.663  1.00  0.00     0.000 C 
BRANCH   5   6
HETATM    6  C   UNL     1     -20.475  -4.485 -10.084  1.00  0.00     0.000 C 
BRANCH   6   7
HETATM    7  C   UNL     1     -21.682  -3.658 -10.516  1.00  0.00     0.000 C 
BRANCH   7   8
HETATM    8  C   UNL     1     -22.712  -4.540 -11.211  1.00  0.00    -0.000 C 
BRANCH   8   9
HETATM    9  C   UNL     1     -23.926  -4.764 -10.319  1.00  0.00    -0.005 C 
HETATM   10  C   UNL     1     -24.517  -3.438  -9.875  1.00  0.00     0.005 C 
ENDBRANCH   8   9
ENDBRANCH   7   8
ENDBRANCH   6   7
ENDBRANCH   5   6
ENDBRANCH   4   5
ENDBRANCH   3   4
ENDBRANCH   2   3
ENDBRANCH   1   2
BRANCH   1  11
HETATM   11  C   UNL     1     -21.668  -7.006  -4.659  1.00  0.00     0.000 C 
BRANCH  11  12
HETATM   12  C   UNL     1     -21.239  -7.168  -3.211  1.00  0.00     0.000 C 
BRANCH  12  13
HETATM   13  C   UNL     1     -22.030  -6.219  -2.327  1.00  0.00     0.000 C 
BRANCH  13  14
HETATM   14  C   UNL     1     -22.306  -6.869  -0.983  1.00  0.00     0.000 C 
BRANCH  14  15
HETATM   15  C   UNL     1     -21.285  -7.960  -0.701  1.00  0.00     0.000 C 
BRANCH  15  16
HETATM   16  C   UNL     1     -21.830  -8.905   0.359  1.00  0.00     0.000 C 
BRANCH  16  17
HETATM   17  C   UNL     1     -23.269  -9.306   0.052  1.00  0.00     0.004 C 
BRANCH  17  18
HETATM   18  C   UNL     1     -23.422 -10.821  -0.149  1.00  0.00    -0.023 C 
HETATM   19  C   UNL     1     -23.696 -11.188  -1.609  1.00  0.00     0.009 C 
HETATM   20  C   UNL     1     -22.161 -11.533   0.339  1.00  0.00     0.009 C 
ENDBRANCH  17  18
ENDBRANCH  16  17
ENDBRANCH  15  16
ENDBRANCH  14  15
ENDBRANCH  13  14
ENDBRANCH  12  13
ENDBRANCH  11  12
ENDBRANCH   1  11
TORSDOF 16
BEGIN_RES ARG D 557
REMARK  4 active torsions:
REMARK  status: ('A' for Active; 'I' for Inactive)
REMARK    1  A    between atoms: CA   and  CB  
REMARK    2  A    between atoms: CB   and  CG  
REMARK    3  A    between atoms: CG   and  CD  
REMARK    4  A    between atoms: CD   and  NE  
REMARK       I    between atoms: NE   and  CZ  
REMARK       I    between atoms: CZ   and  NH1 
REMARK       I    between atoms: CZ   and  NH2 
ROOT
ATOM      1  CA  ARG D 557     -26.217   2.705 -17.014  1.00 35.49     0.159 C 
ENDROOT
BRANCH   1   2
ATOM      2  CB  ARG D 557     -26.789   1.319 -17.183  1.00 35.49     0.034 C 
BRANCH   2   3
ATOM      3  CG  ARG D 557     -25.865   0.195 -16.988  1.00 35.49     0.027 C 
BRANCH   3   4
ATOM      4  CD  ARG D 557     -26.319  -0.730 -15.923  1.00 35.49     0.116 C 
BRANCH   4   5
ATOM      5  NE  ARG D 557     -25.303  -0.950 -14.928  1.00 35.49    -0.212 N 
ATOM      6  CZ  ARG D 557     -25.046  -2.093 -14.333  1.00 35.49     0.666 C 
ATOM      7  NH1 ARG D 557     -25.728  -3.195 -14.588  1.00 35.49    -0.235 N 
ATOM      8  NH2 ARG D 557     -24.073  -2.115 -13.469  1.00 35.49    -0.235 N 
ATOM      9  HH  ARG D 557     -26.370  -3.204 -15.155  1.00 35.49     0.174 HD
ATOM     10  HH  ARG D 557     -25.513  -3.912 -14.172  1.00 35.49     0.174 HD
ATOM     11  HH  ARG D 557     -23.645  -1.390 -13.330  1.00 35.49     0.174 HD
ATOM     12  HH  ARG D 557     -23.874  -2.835 -13.068  1.00 35.49     0.174 HD
ATOM     13  HE  ARG D 557     -24.864  -0.277 -14.650  1.00 35.49     0.178 HD
ENDBRANCH   4   5
ENDBRANCH   3   4
ENDBRANCH   2   3
ENDBRANCH   1   2
END_RES ARG D 557
BEGIN_RES GLU D 570
REMARK  3 active torsions:
REMARK  status: ('A' for Active; 'I' for Inactive)
REMARK    5  A    between atoms: CA   and  CB  
REMARK    6  A    between atoms: CB   and  CG  
REMARK    7  A    between atoms: CG   and  CD  
ROOT
ATOM     14  CA  GLU D 570     -18.033  -6.348 -13.375  1.00 32.92     0.160 C 
ENDROOT
BRANCH  14  15
ATOM     15  CB  GLU D 570     -19.500  -6.345 -13.794  1.00 32.92     0.043 C 
BRANCH  15  16
ATOM     16  CG  GLU D 570     -20.129  -7.657 -14.094  1.00 32.92     0.100 C 
BRANCH  16  17
ATOM     17  CD  GLU D 570     -20.837  -7.680 -15.429  1.00 32.92     0.185 C 
ATOM     18  OE1 GLU D 570     -21.586  -6.732 -15.733  1.00 32.92    -0.647 OA
ATOM     19  OE2 GLU D 570     -20.654  -8.665 -16.171  1.00 32.92    -0.647 OA
ENDBRANCH  16  17
ENDBRANCH  15  16
ENDBRANCH  14  15
END_RES GLU D 570
ENDMDL
MODEL 5
REMARK VINA RESULT:      -6.4      1.366      7.585
REMARK  16 active torsions:
REMARK  status: ('A' for Active; 'I' for Inactive)
REMARK    1  A    between atoms: C_2  and  C_3 
REMARK    2  A    between atoms: C_3  and  C_4 
REMARK    3  A    between atoms: C_4  and  C_5 
REMARK    4  A    between atoms: C_5  and  C_6 
REMARK    5  A    between atoms: C_6  and  C_7 
REMARK    6  A    between atoms: C_7  and  C_8 
REMARK    7  A    between atoms: C_8  and  C_9 
REMARK    8  A    between atoms: C_9  and  C_10 
REMARK    9  A    between atoms: C_10  and  C_11 
REMARK   10  A    between atoms: C_11  and  C_12 
REMARK   11  A    between atoms: C_12  and  C_13 
REMARK   12  A    between atoms: C_13  and  C_14 
REMARK   13  A    between atoms: C_14  and  C_15 
REMARK   14  A    between atoms: C_15  and  C_16 
REMARK   15  A    between atoms: C_16  and  C_17 
REMARK   16  A    between atoms: C_17  and  C_18 
ROOT
HETATM    1  C   UNL     1     -21.792  -6.168  -4.058  1.00  0.00     0.000 C 
ENDROOT
BRANCH   1   2
HETATM    2  C   UNL     1     -21.801  -6.418  -2.560  1.00  0.00     0.000 C 
BRANCH   2   3
HETATM    3  C   UNL     1     -20.811  -7.516  -2.209  1.00  0.00     0.000 C 
BRANCH   3   4
HETATM    4  C   UNL     1     -21.107  -8.064  -0.824  1.00  0.00     0.000 C 
BRANCH   4   5
HETATM    5  C   UNL     1     -22.352  -7.404  -0.251  1.00  0.00     0.000 C 
BRANCH   5   6
HETATM    6  C   UNL     1     -23.263  -8.451   0.367  1.00  0.00     0.000 C 
BRANCH   6   7
HETATM    7  C   UNL     1     -22.778  -9.853   0.013  1.00  0.00     0.000 C 
BRANCH   7   8
HETATM    8  C   UNL     1     -23.947 -10.830  -0.014  1.00  0.00    -0.000 C 
BRANCH   8   9
HETATM    9  C   UNL     1     -24.055 -11.513  -1.371  1.00  0.00    -0.005 C 
HETATM   10  C   UNL     1     -22.892 -11.117  -2.264  1.00  0.00     0.005 C 
ENDBRANCH   8   9
ENDBRANCH   7   8
ENDBRANCH   6   7
ENDBRANCH   5   6
ENDBRANCH   4   5
ENDBRANCH   3   4
ENDBRANCH   2   3
ENDBRANCH   1   2
BRANCH   1  11
HETATM   11  C   UNL     1     -21.432  -7.444  -4.796  1.00  0.00     0.000 C 
BRANCH  11  12
HETATM   12  C   UNL     1     -20.392  -7.156  -5.863  1.00  0.00     0.000 C 
BRANCH  12  13
HETATM   13  C   UNL     1     -20.743  -5.873  -6.597  1.00  0.00     0.000 C 
BRANCH  13  14
HETATM   14  C   UNL     1     -19.591  -4.889  -6.506  1.00  0.00     0.000 C 
BRANCH  14  15
HETATM   15  C   UNL     1     -19.332  -4.248  -7.860  1.00  0.00     0.000 C 
BRANCH  15  16
HETATM   16  C   UNL     1     -20.626  -4.204  -8.658  1.00  0.00     0.000 C 
BRANCH  16  17
HETATM   17  C   UNL     1     -20.372  -4.479 -10.136  1.00  0.00     0.004 C 
BRANCH  17  18
HETATM   18  C   UNL     1     -21.647  -4.347 -10.982  1.00  0.00    -0.023 C 
HETATM   19  C   UNL     1     -22.910  -4.681 -10.185  1.00  0.00     0.009 C 
HETATM   20  C   UNL     1     -21.745  -2.929 -11.543  1.00  0.00     0.009 C 
ENDBRANCH  17  18
ENDBRANCH  16  17
ENDBRANCH  15  16
ENDBRANCH  14  15
ENDBRANCH  13  14
ENDBRANCH  12  13
ENDBRANCH  11  12
ENDBRANCH   1  11
TORSDOF 16
BEGIN_RES ARG D 557
REMARK  4 active torsions:
REMARK  status: ('A' for Active; 'I' for Inactive)
REMARK    1  A    between atoms: CA   and  CB  
REMARK    2  A    between atoms: CB   and  CG  
REMARK    3  A    between atoms: CG   and  CD  
REMARK    4  A    between atoms: CD   and  NE  
REMARK       I    between atoms: NE   and  CZ  
REMARK       I    between atoms: CZ   and  NH1 
REMARK       I    between atoms: CZ   and  NH2 
ROOT
ATOM      1  CA  ARG D 557     -26.217   2.705 -17.014  1.00 35.49     0.159 C 
ENDROOT
BRANCH   1   2
ATOM      2  CB  ARG D 557     -26.789   1.319 -17.183  1.00 35.49     0.034 C 
BRANCH   2   3
ATOM      3  CG  ARG D 557     -28.234   1.225 -17.423  1.00 35.49     0.027 C 
BRANCH   3   4
ATOM      4  CD  ARG D 557     -28.901   0.286 -16.492  1.00 35.49     0.116 C 
BRANCH   4   5
ATOM      5  NE  ARG D 557     -29.305  -0.930 -17.146  1.00 35.49    -0.212 N 
ATOM      6  CZ  ARG D 557     -28.697  -2.092 -17.051  1.00 35.49     0.666 C 
ATOM      7  NH1 ARG D 557     -27.605  -2.264 -16.330  1.00 35.49    -0.235 N 
ATOM      8  NH2 ARG D 557     -29.216  -3.095 -17.697  1.00 35.49    -0.235 N 
ATOM      9  HH  ARG D 557     -27.248  -1.618 -15.895  1.00 35.49     0.174 HD
ATOM     10  HH  ARG D 557     -27.254  -3.045 -16.303  1.00 35.49     0.174 HD
ATOM     11  HH  ARG D 557     -29.926  -2.956 -18.149  1.00 35.49     0.174 HD
ATOM     12  HH  ARG D 557     -28.855  -3.861 -17.657  1.00 35.49     0.174 HD
ATOM     13  HE  ARG D 557     -29.958  -0.894 -17.690  1.00 35.49     0.178 HD
ENDBRANCH   4   5
ENDBRANCH   3   4
ENDBRANCH   2   3
ENDBRANCH   1   2
END_RES ARG D 557
BEGIN_RES GLU D 570
REMARK  3 active torsions:
REMARK  status: ('A' for Active; 'I' for Inactive)
REMARK    5  A    between atoms: CA   and  CB  
REMARK    6  A    between atoms: CB   and  CG  
REMARK    7  A    between atoms: CG   and  CD  
ROOT
ATOM     14  CA  GLU D 570     -18.033  -6.348 -13.375  1.00 32.92     0.160 C 
ENDROOT
BRANCH  14  15
ATOM     15  CB  GLU D 570     -19.500  -6.345 -13.794  1.00 32.92     0.043 C 
BRANCH  15  16
ATOM     16  CG  GLU D 570     -19.797  -6.401 -15.249  1.00 32.92     0.100 C 
BRANCH  16  17
ATOM     17  CD  GLU D 570     -20.908  -7.367 -15.587  1.00 32.92     0.185 C 
ATOM     18  OE1 GLU D 570     -22.062  -6.927 -15.753  1.00 32.92    -0.647 OA
ATOM     19  OE2 GLU D 570     -20.626  -8.578 -15.670  1.00 32.92    -0.647 OA
ENDBRANCH  16  17
ENDBRANCH  15  16
ENDBRANCH  14  15
END_RES GLU D 570
ENDMDL
MODEL 6
REMARK VINA RESULT:      -6.4      1.660      7.463
REMARK  16 active torsions:
REMARK  status: ('A' for Active; 'I' for Inactive)
REMARK    1  A    between atoms: C_2  and  C_3 
REMARK    2  A    between atoms: C_3  and  C_4 
REMARK    3  A    between atoms: C_4  and  C_5 
REMARK    4  A    between atoms: C_5  and  C_6 
REMARK    5  A    between atoms: C_6  and  C_7 
REMARK    6  A    between atoms: C_7  and  C_8 
REMARK    7  A    between atoms: C_8  and  C_9 
REMARK    8  A    between atoms: C_9  and  C_10 
REMARK    9  A    between atoms: C_10  and  C_11 
REMARK   10  A    between atoms: C_11  and  C_12 
REMARK   11  A    between atoms: C_12  and  C_13 
REMARK   12  A    between atoms: C_13  and  C_14 
REMARK   13  A    between atoms: C_14  and  C_15 
REMARK   14  A    between atoms: C_15  and  C_16 
REMARK   15  A    between atoms: C_16  and  C_17 
REMARK   16  A    between atoms: C_17  and  C_18 
ROOT
HETATM    1  C   UNL     1     -21.440  -7.310  -5.844  1.00  0.00     0.000 C 
ENDROOT
BRANCH   1   2
HETATM    2  C   UNL     1     -21.857  -7.865  -4.494  1.00  0.00     0.000 C 
BRANCH   2   3
HETATM    3  C   UNL     1     -20.646  -8.403  -3.754  1.00  0.00     0.000 C 
BRANCH   3   4
HETATM    4  C   UNL     1     -20.634  -7.889  -2.324  1.00  0.00     0.000 C 
BRANCH   4   5
HETATM    5  C   UNL     1     -21.353  -6.552  -2.240  1.00  0.00     0.000 C 
BRANCH   5   6
HETATM    6  C   UNL     1     -22.396  -6.586  -1.136  1.00  0.00     0.000 C 
BRANCH   6   7
HETATM    7  C   UNL     1     -22.007  -7.606  -0.070  1.00  0.00     0.000 C 
BRANCH   7   8
HETATM    8  C   UNL     1     -23.241  -8.342   0.438  1.00  0.00    -0.000 C 
BRANCH   8   9
HETATM    9  C   UNL     1     -23.292  -9.762  -0.111  1.00  0.00    -0.005 C 
HETATM   10  C   UNL     1     -21.934 -10.432   0.007  1.00  0.00     0.005 C 
ENDBRANCH   8   9
ENDBRANCH   7   8
ENDBRANCH   6   7
ENDBRANCH   5   6
ENDBRANCH   4   5
ENDBRANCH   3   4
ENDBRANCH   2   3
ENDBRANCH   1   2
BRANCH   1  11
HETATM   11  C   UNL     1     -19.970  -6.931  -5.818  1.00  0.00     0.000 C 
BRANCH  11  12
HETATM   12  C   UNL     1     -19.732  -5.699  -6.671  1.00  0.00     0.000 C 
BRANCH  12  13
HETATM   13  C   UNL     1     -20.672  -4.584  -6.246  1.00  0.00     0.000 C 
BRANCH  13  14
HETATM   14  C   UNL     1     -21.001  -3.698  -7.434  1.00  0.00     0.000 C 
BRANCH  14  15
HETATM   15  C   UNL     1     -20.133  -4.066  -8.627  1.00  0.00     0.000 C 
BRANCH  15  16
HETATM   16  C   UNL     1     -20.992  -4.134  -9.880  1.00  0.00     0.000 C 
BRANCH  16  17
HETATM   17  C   UNL     1     -22.384  -4.673  -9.565  1.00  0.00     0.004 C 
BRANCH  17  18
HETATM   18  C   UNL     1     -23.467  -4.049 -10.457  1.00  0.00    -0.023 C 
HETATM   19  C   UNL     1     -24.537  -3.316  -9.645  1.00  0.00     0.009 C 
HETATM   20  C   UNL     1     -22.819  -3.087 -11.452  1.00  0.00     0.009 C 
ENDBRANCH  17  18
ENDBRANCH  16  17
ENDBRANCH  15  16
ENDBRANCH  14  15
ENDBRANCH  13  14
ENDBRANCH  12  13
ENDBRANCH  11  12
ENDBRANCH   1  11
TORSDOF 16
BEGIN_RES ARG D 557
REMARK  4 active torsions:
REMARK  status: ('A' for Active; 'I' for Inactive)
REMARK    1  A    between atoms: CA   and  CB  
REMARK    2  A    between atoms: CB   and  CG  
REMARK    3  A    between atoms: CG   and  CD  
REMARK    4  A    between atoms: CD   and  NE  
REMARK       I    between atoms: NE   and  CZ  
REMARK       I    between atoms: CZ   and  NH1 
REMARK       I    between atoms: CZ   and  NH2 
ROOT
ATOM      1  CA  ARG D 557     -26.217   2.705 -17.014  1.00 35.49     0.159 C 
ENDROOT
BRANCH   1   2
ATOM      2  CB  ARG D 557     -26.789   1.319 -17.183  1.00 35.49     0.034 C 
BRANCH   2   3
ATOM      3  CG  ARG D 557     -25.946   0.199 -16.747  1.00 35.49     0.027 C 
BRANCH   3   4
ATOM      4  CD  ARG D 557     -26.722  -0.854 -16.053  1.00 35.49     0.116 C 
BRANCH   4   5
ATOM      5  NE  ARG D 557     -25.907  -1.622 -15.149  1.00 35.49    -0.212 N 
ATOM      6  CZ  ARG D 557     -26.037  -2.905 -14.898  1.00 35.49     0.666 C 
ATOM      7  NH1 ARG D 557     -26.973  -3.646 -15.462  1.00 35.49    -0.235 N 
ATOM      8  NH2 ARG D 557     -25.195  -3.443 -14.065  1.00 35.49    -0.235 N 
ATOM      9  HH  ARG D 557     -27.537  -3.314 -16.015  1.00 35.49     0.174 HD
ATOM     10  HH  ARG D 557     -27.008  -4.479 -15.262  1.00 35.49     0.174 HD
ATOM     11  HH  ARG D 557     -24.596  -2.941 -13.722  1.00 35.49     0.174 HD
ATOM     12  HH  ARG D 557     -25.244  -4.269 -13.881  1.00 35.49     0.174 HD
ATOM     13  HE  ARG D 557     -25.325  -1.208 -14.687  1.00 35.49     0.178 HD
ENDBRANCH   4   5
ENDBRANCH   3   4
ENDBRANCH   2   3
ENDBRANCH   1   2
END_RES ARG D 557
BEGIN_RES GLU D 570
REMARK  3 active torsions:
REMARK  status: ('A' for Active; 'I' for Inactive)
REMARK    5  A    between atoms: CA   and  CB  
REMARK    6  A    between atoms: CB   and  CG  
REMARK    7  A    between atoms: CG   and  CD  
ROOT
ATOM     14  CA  GLU D 570     -18.033  -6.348 -13.375  1.00 32.92     0.160 C 
ENDROOT
BRANCH  14  15
ATOM     15  CB  GLU D 570     -19.500  -6.345 -13.794  1.00 32.92     0.043 C 
BRANCH  15  16
ATOM     16  CG  GLU D 570     -19.808  -5.998 -15.205  1.00 32.92     0.100 C 
BRANCH  16  17
ATOM     17  CD  GLU D 570     -21.199  -5.435 -15.384  1.00 32.92     0.185 C 
ATOM     18  OE1 GLU D 570     -21.504  -4.907 -16.471  1.00 32.92    -0.647 OA
ATOM     19  OE2 GLU D 570     -21.987  -5.507 -14.420  1.00 32.92    -0.647 OA
ENDBRANCH  16  17
ENDBRANCH  15  16
ENDBRANCH  14  15
END_RES GLU D 570
ENDMDL
MODEL 7
REMARK VINA RESULT:      -6.3      1.518      7.961
REMARK  16 active torsions:
REMARK  status: ('A' for Active; 'I' for Inactive)
REMARK    1  A    between atoms: C_2  and  C_3 
REMARK    2  A    between atoms: C_3  and  C_4 
REMARK    3  A    between atoms: C_4  and  C_5 
REMARK    4  A    between atoms: C_5  and  C_6 
REMARK    5  A    between atoms: C_6  and  C_7 
REMARK    6  A    between atoms: C_7  and  C_8 
REMARK    7  A    between atoms: C_8  and  C_9 
REMARK    8  A    between atoms: C_9  and  C_10 
REMARK    9  A    between atoms: C_10  and  C_11 
REMARK   10  A    between atoms: C_11  and  C_12 
REMARK   11  A    between atoms: C_12  and  C_13 
REMARK   12  A    between atoms: C_13  and  C_14 
REMARK   13  A    between atoms: C_14  and  C_15 
REMARK   14  A    between atoms: C_15  and  C_16 
REMARK   15  A    between atoms: C_16  and  C_17 
REMARK   16  A    between atoms: C_17  and  C_18 
ROOT
HETATM    1  C   UNL     1     -20.376  -5.130  -5.566  1.00  0.00     0.000 C 
ENDROOT
BRANCH   1   2
HETATM    2  C   UNL     1     -20.986  -6.491  -5.858  1.00  0.00     0.000 C 
BRANCH   2   3
HETATM    3  C   UNL     1     -20.472  -7.517  -4.863  1.00  0.00     0.000 C 
BRANCH   3   4
HETATM    4  C   UNL     1     -21.570  -7.891  -3.883  1.00  0.00     0.000 C 
BRANCH   4   5
HETATM    5  C   UNL     1     -21.632  -6.879  -2.751  1.00  0.00     0.000 C 
BRANCH   5   6
HETATM    6  C   UNL     1     -21.398  -7.568  -1.417  1.00  0.00     0.000 C 
BRANCH   6   7
HETATM    7  C   UNL     1     -22.505  -7.207  -0.432  1.00  0.00     0.000 C 
BRANCH   7   8
HETATM    8  C   UNL     1     -22.939  -8.438   0.356  1.00  0.00    -0.000 C 
BRANCH   8   9
HETATM    9  C   UNL     1     -22.828  -9.696  -0.495  1.00  0.00    -0.005 C 
HETATM   10  C   UNL     1     -23.947 -10.668  -0.164  1.00  0.00     0.005 C 
ENDBRANCH   8   9
ENDBRANCH   7   8
ENDBRANCH   6   7
ENDBRANCH   5   6
ENDBRANCH   4   5
ENDBRANCH   3   4
ENDBRANCH   2   3
ENDBRANCH   1   2
BRANCH   1  11
HETATM   11  C   UNL     1     -20.015  -4.435  -6.866  1.00  0.00     0.000 C 
BRANCH  11  12
HETATM   12  C   UNL     1     -21.205  -3.651  -7.389  1.00  0.00     0.000 C 
BRANCH  12  13
HETATM   13  C   UNL     1     -21.533  -4.090  -8.805  1.00  0.00     0.000 C 
BRANCH  13  14
HETATM   14  C   UNL     1     -20.259  -4.452  -9.547  1.00  0.00     0.000 C 
BRANCH  14  15
HETATM   15  C   UNL     1     -20.370  -4.068 -11.014  1.00  0.00     0.000 C 
BRANCH  15  16
HETATM   16  C   UNL     1     -21.689  -3.349 -11.252  1.00  0.00     0.000 C 
BRANCH  16  17
HETATM   17  C   UNL     1     -22.203  -3.595 -12.667  1.00  0.00     0.004 C 
BRANCH  17  18
HETATM   18  C   UNL     1     -23.482  -4.445 -12.685  1.00  0.00    -0.023 C 
HETATM   19  C   UNL     1     -23.376  -5.633 -13.643  1.00  0.00     0.009 C 
HETATM   20  C   UNL     1     -23.785  -4.941 -11.272  1.00  0.00     0.009 C 
ENDBRANCH  17  18
ENDBRANCH  16  17
ENDBRANCH  15  16
ENDBRANCH  14  15
ENDBRANCH  13  14
ENDBRANCH  12  13
ENDBRANCH  11  12
ENDBRANCH   1  11
TORSDOF 16
BEGIN_RES ARG D 557
REMARK  4 active torsions:
REMARK  status: ('A' for Active; 'I' for Inactive)
REMARK    1  A    between atoms: CA   and  CB  
REMARK    2  A    between atoms: CB   and  CG  
REMARK    3  A    between atoms: CG   and  CD  
REMARK    4  A    between atoms: CD   and  NE  
REMARK       I    between atoms: NE   and  CZ  
REMARK       I    between atoms: CZ   and  NH1 
REMARK       I    between atoms: CZ   and  NH2 
ROOT
ATOM      1  CA  ARG D 557     -26.217   2.705 -17.014  1.00 35.49     0.159 C 
ENDROOT
BRANCH   1   2
ATOM      2  CB  ARG D 557     -26.789   1.319 -17.183  1.00 35.49     0.034 C 
BRANCH   2   3
ATOM      3  CG  ARG D 557     -28.225   1.228 -17.476  1.00 35.49     0.027 C 
BRANCH   3   4
ATOM      4  CD  ARG D 557     -28.916   0.247 -16.609  1.00 35.49     0.116 C 
BRANCH   4   5
ATOM      5  NE  ARG D 557     -28.045  -0.822 -16.197  1.00 35.49    -0.212 N 
ATOM      6  CZ  ARG D 557     -28.127  -2.074 -16.587  1.00 35.49     0.666 C 
ATOM      7  NH1 ARG D 557     -29.061  -2.498 -17.417  1.00 35.49    -0.235 N 
ATOM      8  NH2 ARG D 557     -27.237  -2.905 -16.127  1.00 35.49    -0.235 N 
ATOM      9  HH  ARG D 557     -29.655  -1.968 -17.733  1.00 35.49     0.174 HD
ATOM     10  HH  ARG D 557     -29.064  -3.326 -17.638  1.00 35.49     0.174 HD
ATOM     11  HH  ARG D 557     -26.641  -2.602 -15.598  1.00 35.49     0.174 HD
ATOM     12  HH  ARG D 557     -27.256  -3.721 -16.359  1.00 35.49     0.174 HD
ATOM     13  HE  ARG D 557     -27.458  -0.652 -15.605  1.00 35.49     0.178 HD
ENDBRANCH   4   5
ENDBRANCH   3   4
ENDBRANCH   2   3
ENDBRANCH   1   2
END_RES ARG D 557
BEGIN_RES GLU D 570
REMARK  3 active torsions:
REMARK  status: ('A' for Active; 'I' for Inactive)
REMARK    5  A    between atoms: CA   and  CB  
REMARK    6  A    between atoms: CB   and  CG  
REMARK    7  A    between atoms: CG   and  CD  
ROOT
ATOM     14  CA  GLU D 570     -18.033  -6.348 -13.375  1.00 32.92     0.160 C 
ENDROOT
BRANCH  14  15
ATOM     15  CB  GLU D 570     -19.500  -6.345 -13.794  1.00 32.92     0.043 C 
BRANCH  15  16
ATOM     16  CG  GLU D 570     -19.802  -6.099 -15.228  1.00 32.92     0.100 C 
BRANCH  16  17
ATOM     17  CD  GLU D 570     -20.688  -7.161 -15.834  1.00 32.92     0.185 C 
ATOM     18  OE1 GLU D 570     -20.670  -8.311 -15.354  1.00 32.92    -0.647 OA
ATOM     19  OE2 GLU D 570     -21.396  -6.845 -16.811  1.00 32.92    -0.647 OA
ENDBRANCH  16  17
ENDBRANCH  15  16
ENDBRANCH  14  15
END_RES GLU D 570
ENDMDL
MODEL 8
REMARK VINA RESULT:      -6.3      2.289      7.794
REMARK  16 active torsions:
REMARK  status: ('A' for Active; 'I' for Inactive)
REMARK    1  A    between atoms: C_2  and  C_3 
REMARK    2  A    between atoms: C_3  and  C_4 
REMARK    3  A    between atoms: C_4  and  C_5 
REMARK    4  A    between atoms: C_5  and  C_6 
REMARK    5  A    between atoms: C_6  and  C_7 
REMARK    6  A    between atoms: C_7  and  C_8 
REMARK    7  A    between atoms: C_8  and  C_9 
REMARK    8  A    between atoms: C_9  and  C_10 
REMARK    9  A    between atoms: C_10  and  C_11 
REMARK   10  A    between atoms: C_11  and  C_12 
REMARK   11  A    between atoms: C_12  and  C_13 
REMARK   12  A    between atoms: C_13  and  C_14 
REMARK   13  A    between atoms: C_14  and  C_15 
REMARK   14  A    between atoms: C_15  and  C_16 
REMARK   15  A    between atoms: C_16  and  C_17 
REMARK   16  A    between atoms: C_17  and  C_18 
ROOT
HETATM    1  C   UNL     1     -21.813  -6.596  -3.879  1.00  0.00     0.000 C 
ENDROOT
BRANCH   1   2
HETATM    2  C   UNL     1     -21.788  -6.681  -2.362  1.00  0.00     0.000 C 
BRANCH   2   3
HETATM    3  C   UNL     1     -20.749  -7.693  -1.914  1.00  0.00     0.000 C 
BRANCH   3   4
HETATM    4  C   UNL     1     -21.058  -8.171  -0.505  1.00  0.00     0.000 C 
BRANCH   4   5
HETATM    5  C   UNL     1     -22.321  -7.502   0.013  1.00  0.00     0.000 C 
BRANCH   5   6
HETATM    6  C   UNL     1     -23.356  -8.550   0.383  1.00  0.00     0.000 C 
BRANCH   6   7
HETATM    7  C   UNL     1     -22.853  -9.944   0.022  1.00  0.00     0.000 C 
BRANCH   7   8
HETATM    8  C   UNL     1     -24.022 -10.909  -0.136  1.00  0.00    -0.000 C 
BRANCH   8   9
HETATM    9  C   UNL     1     -23.833 -11.799  -1.357  1.00  0.00    -0.005 C 
HETATM   10  C   UNL     1     -22.985 -11.098  -2.405  1.00  0.00     0.005 C 
ENDBRANCH   8   9
ENDBRANCH   7   8
ENDBRANCH   6   7
ENDBRANCH   5   6
ENDBRANCH   4   5
ENDBRANCH   3   4
ENDBRANCH   2   3
ENDBRANCH   1   2
BRANCH   1  11
HETATM   11  C   UNL     1     -20.783  -7.542  -4.468  1.00  0.00     0.000 C 
BRANCH  11  12
HETATM   12  C   UNL     1     -20.198  -6.953  -5.740  1.00  0.00     0.000 C 
BRANCH  12  13
HETATM   13  C   UNL     1     -21.118  -5.873  -6.281  1.00  0.00     0.000 C 
BRANCH  13  14
HETATM   14  C   UNL     1     -20.385  -4.545  -6.341  1.00  0.00     0.000 C 
BRANCH  14  15
HETATM   15  C   UNL     1     -21.014  -3.637  -7.386  1.00  0.00     0.000 C 
BRANCH  15  16
HETATM   16  C   UNL     1     -21.844  -4.470  -8.350  1.00  0.00     0.000 C 
BRANCH  16  17
HETATM   17  C   UNL     1     -22.714  -3.584  -9.236  1.00  0.00     0.004 C 
BRANCH  17  18
HETATM   18  C   UNL     1     -22.455  -3.820 -10.731  1.00  0.00    -0.023 C 
HETATM   19  C   UNL     1     -21.034  -4.318 -11.003  1.00  0.00     0.009 C 
HETATM   20  C   UNL     1     -23.472  -4.825 -11.273  1.00  0.00     0.009 C 
ENDBRANCH  17  18
ENDBRANCH  16  17
ENDBRANCH  15  16
ENDBRANCH  14  15
ENDBRANCH  13  14
ENDBRANCH  12  13
ENDBRANCH  11  12
ENDBRANCH   1  11
TORSDOF 16
BEGIN_RES ARG D 557
REMARK  4 active torsions:
REMARK  status: ('A' for Active; 'I' for Inactive)
REMARK    1  A    between atoms: CA   and  CB  
REMARK    2  A    between atoms: CB   and  CG  
REMARK    3  A    between atoms: CG   and  CD  
REMARK    4  A    between atoms: CD   and  NE  
REMARK       I    between atoms: NE   and  CZ  
REMARK       I    between atoms: CZ   and  NH1 
REMARK       I    between atoms: CZ   and  NH2 
ROOT
ATOM      1  CA  ARG D 557     -26.217   2.705 -17.014  1.00 35.49     0.159 C 
ENDROOT
BRANCH   1   2
ATOM      2  CB  ARG D 557     -26.789   1.319 -17.183  1.00 35.49     0.034 C 
BRANCH   2   3
ATOM      3  CG  ARG D 557     -25.839   0.201 -17.126  1.00 35.49     0.027 C 
BRANCH   3   4
ATOM      4  CD  ARG D 557     -24.754   0.432 -16.146  1.00 35.49     0.116 C 
BRANCH   4   5
ATOM      5  NE  ARG D 557     -24.866  -0.431 -15.000  1.00 35.49    -0.212 N 
ATOM      6  CZ  ARG D 557     -24.038  -1.402 -14.686  1.00 35.49     0.666 C 
ATOM      7  NH1 ARG D 557     -22.987  -1.706 -15.426  1.00 35.49    -0.235 N 
ATOM      8  NH2 ARG D 557     -24.282  -2.070 -13.596  1.00 35.49    -0.235 N 
ATOM      9  HH  ARG D 557     -22.806  -1.278 -16.146  1.00 35.49     0.174 HD
ATOM     10  HH  ARG D 557     -22.481  -2.348 -15.170  1.00 35.49     0.174 HD
ATOM     11  HH  ARG D 557     -24.963  -1.847 -13.134  1.00 35.49     0.174 HD
ATOM     12  HH  ARG D 557     -23.768  -2.702 -13.359  1.00 35.49     0.174 HD
ATOM     13  HE  ARG D 557     -25.554  -0.353 -14.507  1.00 35.49     0.178 HD
ENDBRANCH   4   5
ENDBRANCH   3   4
ENDBRANCH   2   3
ENDBRANCH   1   2
END_RES ARG D 557
BEGIN_RES GLU D 570
REMARK  3 active torsions:
REMARK  status: ('A' for Active; 'I' for Inactive)
REMARK    5  A    between atoms: CA   and  CB  
REMARK    6  A    between atoms: CB   and  CG  
REMARK    7  A    between atoms: CG   and  CD  
ROOT
ATOM     14  CA  GLU D 570     -18.033  -6.348 -13.375  1.00 32.92     0.160 C 
ENDROOT
BRANCH  14  15
ATOM     15  CB  GLU D 570     -19.500  -6.345 -13.794  1.00 32.92     0.043 C 
BRANCH  15  16
ATOM     16  CG  GLU D 570     -19.796  -6.387 -15.249  1.00 32.92     0.100 C 
BRANCH  16  17
ATOM     17  CD  GLU D 570     -20.917  -7.340 -15.596  1.00 32.92     0.185 C 
ATOM     18  OE1 GLU D 570     -22.062  -6.885 -15.782  1.00 32.92    -0.647 OA
ATOM     19  OE2 GLU D 570     -20.649  -8.555 -15.665  1.00 32.92    -0.647 OA
ENDBRANCH  16  17
ENDBRANCH  15  16
ENDBRANCH  14  15
END_RES GLU D 570
ENDMDL
MODEL 9
REMARK VINA RESULT:      -6.0      1.763      3.225
REMARK  16 active torsions:
REMARK  status: ('A' for Active; 'I' for Inactive)
REMARK    1  A    between atoms: C_2  and  C_3 
REMARK    2  A    between atoms: C_3  and  C_4 
REMARK    3  A    between atoms: C_4  and  C_5 
REMARK    4  A    between atoms: C_5  and  C_6 
REMARK    5  A    between atoms: C_6  and  C_7 
REMARK    6  A    between atoms: C_7  and  C_8 
REMARK    7  A    between atoms: C_8  and  C_9 
REMARK    8  A    between atoms: C_9  and  C_10 
REMARK    9  A    between atoms: C_10  and  C_11 
REMARK   10  A    between atoms: C_11  and  C_12 
REMARK   11  A    between atoms: C_12  and  C_13 
REMARK   12  A    between atoms: C_13  and  C_14 
REMARK   13  A    between atoms: C_14  and  C_15 
REMARK   14  A    between atoms: C_15  and  C_16 
REMARK   15  A    between atoms: C_16  and  C_17 
REMARK   16  A    between atoms: C_17  and  C_18 
ROOT
HETATM    1  C   UNL     1     -20.621  -4.936  -7.844  1.00  0.00     0.000 C 
ENDROOT
BRANCH   1   2
HETATM    2  C   UNL     1     -22.018  -4.342  -7.792  1.00  0.00     0.000 C 
BRANCH   2   3
HETATM    3  C   UNL     1     -22.446  -3.896  -9.179  1.00  0.00     0.000 C 
BRANCH   3   4
HETATM    4  C   UNL     1     -21.228  -3.694 -10.063  1.00  0.00     0.000 C 
BRANCH   4   5
HETATM    5  C   UNL     1     -21.658  -3.395 -11.490  1.00  0.00     0.000 C 
BRANCH   5   6
HETATM    6  C   UNL     1     -22.249  -4.638 -12.132  1.00  0.00     0.000 C 
BRANCH   6   7
HETATM    7  C   UNL     1     -23.487  -4.277 -12.947  1.00  0.00     0.000 C 
BRANCH   7   8
HETATM    8  C   UNL     1     -23.880  -2.825 -12.705  1.00  0.00    -0.000 C 
BRANCH   8   9
HETATM    9  C   UNL     1     -23.753  -2.006 -13.983  1.00  0.00    -0.005 C 
HETATM   10  C   UNL     1     -22.882  -2.727 -14.998  1.00  0.00     0.005 C 
ENDBRANCH   8   9
ENDBRANCH   7   8
ENDBRANCH   6   7
ENDBRANCH   5   6
ENDBRANCH   4   5
ENDBRANCH   3   4
ENDBRANCH   2   3
ENDBRANCH   1   2
BRANCH   1  11
HETATM   11  C   UNL     1     -20.437  -5.929  -6.710  1.00  0.00     0.000 C 
BRANCH  11  12
HETATM   12  C   UNL     1     -21.255  -5.503  -5.504  1.00  0.00     0.000 C 
BRANCH  12  13
HETATM   13  C   UNL     1     -22.037  -6.687  -4.963  1.00  0.00     0.000 C 
BRANCH  13  14
HETATM   14  C   UNL     1     -21.390  -7.202  -3.690  1.00  0.00     0.000 C 
BRANCH  14  15
HETATM   15  C   UNL     1     -21.486  -6.159  -2.587  1.00  0.00     0.000 C 
BRANCH  15  16
HETATM   16  C   UNL     1     -22.124  -6.781  -1.354  1.00  0.00     0.000 C 
BRANCH  16  17
HETATM   17  C   UNL     1     -21.439  -8.091  -0.980  1.00  0.00     0.004 C 
BRANCH  17  18
HETATM   18  C   UNL     1     -22.031  -8.718   0.291  1.00  0.00    -0.023 C 
HETATM   19  C   UNL     1     -21.060  -8.664   1.472  1.00  0.00     0.009 C 
HETATM   20  C   UNL     1     -23.333  -8.003   0.655  1.00  0.00     0.009 C 
ENDBRANCH  17  18
ENDBRANCH  16  17
ENDBRANCH  15  16
ENDBRANCH  14  15
ENDBRANCH  13  14
ENDBRANCH  12  13
ENDBRANCH  11  12
ENDBRANCH   1  11
TORSDOF 16
BEGIN_RES ARG D 557
REMARK  4 active torsions:
REMARK  status: ('A' for Active; 'I' for Inactive)
REMARK    1  A    between atoms: CA   and  CB  
REMARK    2  A    between atoms: CB   and  CG  
REMARK    3  A    between atoms: CG   and  CD  
REMARK    4  A    between atoms: CD   and  NE  
REMARK       I    between atoms: NE   and  CZ  
REMARK       I    between atoms: CZ   and  NH1 
REMARK       I    between atoms: CZ   and  NH2 
ROOT
ATOM      1  CA  ARG D 557     -26.217   2.705 -17.014  1.00 35.49     0.159 C 
ENDROOT
BRANCH   1   2
ATOM      2  CB  ARG D 557     -26.789   1.319 -17.183  1.00 35.49     0.034 C 
BRANCH   2   3
ATOM      3  CG  ARG D 557     -28.232   1.226 -17.435  1.00 35.49     0.027 C 
BRANCH   3   4
ATOM      4  CD  ARG D 557     -28.909   0.295 -16.503  1.00 35.49     0.116 C 
BRANCH   4   5
ATOM      5  NE  ARG D 557     -28.122  -0.883 -16.246  1.00 35.49    -0.212 N 
ATOM      6  CZ  ARG D 557     -28.361  -2.085 -16.721  1.00 35.49     0.666 C 
ATOM      7  NH1 ARG D 557     -29.395  -2.347 -17.499  1.00 35.49    -0.235 N 
ATOM      8  NH2 ARG D 557     -27.529  -3.033 -16.402  1.00 35.49    -0.235 N 
ATOM      9  HH  ARG D 557     -29.955  -1.738 -17.723  1.00 35.49     0.174 HD
ATOM     10  HH  ARG D 557     -29.499  -3.150 -17.780  1.00 35.49     0.174 HD
ATOM     11  HH  ARG D 557     -26.866  -2.832 -15.904  1.00 35.49     0.174 HD
ATOM     12  HH  ARG D 557     -27.648  -3.821 -16.692  1.00 35.49     0.174 HD
ATOM     13  HE  ARG D 557     -27.477  -0.820 -15.696  1.00 35.49     0.178 HD
ENDBRANCH   4   5
ENDBRANCH   3   4
ENDBRANCH   2   3
ENDBRANCH   1   2
END_RES ARG D 557
BEGIN_RES GLU D 570
REMARK  3 active torsions:
REMARK  status: ('A' for Active; 'I' for Inactive)
REMARK    5  A    between atoms: CA   and  CB  
REMARK    6  A    between atoms: CB   and  CG  
REMARK    7  A    between atoms: CG   and  CD  
ROOT
ATOM     14  CA  GLU D 570     -18.033  -6.348 -13.375  1.00 32.92     0.160 C 
ENDROOT
BRANCH  14  15
ATOM     15  CB  GLU D 570     -19.500  -6.345 -13.794  1.00 32.92     0.043 C 
BRANCH  15  16
ATOM     16  CG  GLU D 570     -19.880  -5.492 -14.950  1.00 32.92     0.100 C 
BRANCH  16  17
ATOM     17  CD  GLU D 570     -20.521  -6.274 -16.073  1.00 32.92     0.185 C 
ATOM     18  OE1 GLU D 570     -20.654  -5.733 -17.188  1.00 32.92    -0.647 OA
ATOM     19  OE2 GLU D 570     -20.909  -7.434 -15.831  1.00 32.92    -0.647 OA
ENDBRANCH  16  17
ENDBRANCH  15  16
ENDBRANCH  14  15
END_RES GLU D 570
ENDMDL
