MODEL 1
REMARK VINA RESULT:      -7.0      0.000      0.000
REMARK  15 active torsions:
REMARK  status: ('A' for Active; 'I' for Inactive)
REMARK    1  A    between atoms: C_2  and  C_3 
REMARK    2  A    between atoms: C_3  and  C_4 
REMARK    3  A    between atoms: C_4  and  C_5 
REMARK    4  A    between atoms: C_5  and  C_6 
REMARK    5  A    between atoms: C_6  and  C_7 
REMARK    6  A    between atoms: C_7  and  C_8 
REMARK    7  A    between atoms: C_8  and  C_9 
REMARK    8  A    between atoms: C_9  and  C_10 
REMARK    9  A    between atoms: C_10  and  C_11 
REMARK   10  A    between atoms: C_11  and  C_12 
REMARK   11  A    between atoms: C_12  and  C_13 
REMARK   12  A    between atoms: C_13  and  C_14 
REMARK   13  A    between atoms: C_14  and  N_15 
REMARK   14  A    between atoms: N_15  and  C_18 
REMARK   15  A    between atoms: C_18  and  C_19 
ROOT
HETATM    1  C   UNL     1     -21.544  -3.641  -7.402  1.00  0.00     0.000 C 
ENDROOT
BRANCH   1   2
HETATM    2  C   UNL     1     -20.227  -4.394  -7.586  1.00  0.00     0.000 C 
BRANCH   2   3
HETATM    3  C   UNL     1     -19.621  -4.836  -6.266  1.00  0.00     0.000 C 
BRANCH   3   4
HETATM    4  C   UNL     1     -20.740  -5.249  -5.319  1.00  0.00     0.000 C 
BRANCH   4   5
HETATM    5  C   UNL     1     -20.852  -6.760  -5.255  1.00  0.00     0.000 C 
BRANCH   5   6
HETATM    6  C   UNL     1     -21.673  -7.185  -4.045  1.00  0.00     0.000 C 
BRANCH   6   7
HETATM    7  C   UNL     1     -21.519  -6.165  -2.927  1.00  0.00     0.000 C 
BRANCH   7   8
HETATM    8  C   UNL     1     -22.056  -6.718  -1.614  1.00  0.00     0.000 C 
BRANCH   8   9
HETATM    9  C   UNL     1     -21.164  -7.849  -1.112  1.00  0.00    -0.000 C 
BRANCH   9  10
HETATM   10  C   UNL     1     -21.718  -8.452   0.174  1.00  0.00    -0.005 C 
HETATM   11  C   UNL     1     -23.138  -7.974   0.427  1.00  0.00     0.005 C 
ENDBRANCH   9  10
ENDBRANCH   8   9
ENDBRANCH   7   8
ENDBRANCH   6   7
ENDBRANCH   5   6
ENDBRANCH   4   5
ENDBRANCH   3   4
ENDBRANCH   2   3
ENDBRANCH   1   2
BRANCH   1  12
HETATM   12  C   UNL     1     -22.693  -4.299  -8.177  1.00  0.00     0.002 C 
BRANCH  12  13
HETATM   13  C   UNL     1     -22.309  -4.489  -9.643  1.00  0.00     0.028 C 
BRANCH  13  14
HETATM   14  C   UNL     1     -23.497  -4.628 -10.587  1.00  0.00     0.237 C 
BRANCH  14  15
HETATM   15  N   UNL     1     -23.230  -3.862 -11.905  1.00  0.00    -0.065 N 
HETATM   16  C   UNL     1     -24.372  -2.977 -12.333  1.00  0.00     0.272 C 
HETATM   17  C   UNL     1     -21.928  -3.074 -11.814  1.00  0.00     0.272 C 
BRANCH  15  18
HETATM   18  C   UNL     1     -23.024  -4.966 -13.034  1.00  0.00     0.349 C 
BRANCH  18  19
HETATM   19  C   UNL     1     -23.330  -4.537 -14.492  1.00  0.00     0.199 C 
HETATM   20  O   UNL     1     -22.423  -3.838 -15.026  1.00  0.00    -0.647 OA
HETATM   21  O   UNL     1     -24.496  -4.816 -14.884  1.00  0.00    -0.647 OA
ENDBRANCH  18  19
ENDBRANCH  15  18
ENDBRANCH  14  15
ENDBRANCH  13  14
ENDBRANCH  12  13
ENDBRANCH   1  12
TORSDOF 15
BEGIN_RES ARG D 557
REMARK  4 active torsions:
REMARK  status: ('A' for Active; 'I' for Inactive)
REMARK    1  A    between atoms: CA   and  CB  
REMARK    2  A    between atoms: CB   and  CG  
REMARK    3  A    between atoms: CG   and  CD  
REMARK    4  A    between atoms: CD   and  NE  
REMARK       I    between atoms: NE   and  CZ  
REMARK       I    between atoms: CZ   and  NH1 
REMARK       I    between atoms: CZ   and  NH2 
ROOT
ATOM      1  CA  ARG D 557     -26.217   2.705 -17.014  1.00 35.49     0.159 C 
ENDROOT
BRANCH   1   2
ATOM      2  CB  ARG D 557     -26.789   1.319 -17.183  1.00 35.49     0.034 C 
BRANCH   2   3
ATOM      3  CG  ARG D 557     -28.216   1.152 -16.880  1.00 35.49     0.027 C 
BRANCH   3   4
ATOM      4  CD  ARG D 557     -28.690  -0.226 -17.143  1.00 35.49     0.116 C 
BRANCH   4   5
ATOM      5  NE  ARG D 557     -27.874  -1.215 -16.488  1.00 35.49    -0.212 N 
ATOM      6  CZ  ARG D 557     -27.982  -2.517 -16.631  1.00 35.49     0.666 C 
ATOM      7  NH1 ARG D 557     -28.894  -3.072 -17.409  1.00 35.49    -0.235 N 
ATOM      8  NH2 ARG D 557     -27.142  -3.264 -15.976  1.00 35.49    -0.235 N 
ATOM      9  HH  ARG D 557     -29.455  -2.599 -17.851  1.00 35.49     0.174 HD
ATOM     10  HH  ARG D 557     -28.915  -3.926 -17.465  1.00 35.49     0.174 HD
ATOM     11  HH  ARG D 557     -26.560  -2.878 -15.487  1.00 35.49     0.174 HD
ATOM     12  HH  ARG D 557     -27.179  -4.109 -16.046  1.00 35.49     0.174 HD
ATOM     13  HE  ARG D 557     -27.308  -0.948 -15.913  1.00 35.49     0.178 HD
ENDBRANCH   4   5
ENDBRANCH   3   4
ENDBRANCH   2   3
ENDBRANCH   1   2
END_RES ARG D 557
BEGIN_RES GLU D 570
REMARK  3 active torsions:
REMARK  status: ('A' for Active; 'I' for Inactive)
REMARK    5  A    between atoms: CA   and  CB  
REMARK    6  A    between atoms: CB   and  CG  
REMARK    7  A    between atoms: CG   and  CD  
ROOT
ATOM     14  CA  GLU D 570     -18.033  -6.348 -13.375  1.00 32.92     0.160 C 
ENDROOT
BRANCH  14  15
ATOM     15  CB  GLU D 570     -19.500  -6.345 -13.794  1.00 32.92     0.043 C 
BRANCH  15  16
ATOM     16  CG  GLU D 570     -20.093  -7.639 -14.221  1.00 32.92     0.100 C 
BRANCH  16  17
ATOM     17  CD  GLU D 570     -20.696  -7.583 -15.605  1.00 32.92     0.185 C 
ATOM     18  OE1 GLU D 570     -20.694  -6.500 -16.222  1.00 32.92    -0.647 OA
ATOM     19  OE2 GLU D 570     -21.189  -8.629 -16.071  1.00 32.92    -0.647 OA
ENDBRANCH  16  17
ENDBRANCH  15  16
ENDBRANCH  14  15
END_RES GLU D 570
ENDMDL
MODEL 2
REMARK VINA RESULT:      -7.0      1.168      2.199
REMARK  15 active torsions:
REMARK  status: ('A' for Active; 'I' for Inactive)
REMARK    1  A    between atoms: C_2  and  C_3 
REMARK    2  A    between atoms: C_3  and  C_4 
REMARK    3  A    between atoms: C_4  and  C_5 
REMARK    4  A    between atoms: C_5  and  C_6 
REMARK    5  A    between atoms: C_6  and  C_7 
REMARK    6  A    between atoms: C_7  and  C_8 
REMARK    7  A    between atoms: C_8  and  C_9 
REMARK    8  A    between atoms: C_9  and  C_10 
REMARK    9  A    between atoms: C_10  and  C_11 
REMARK   10  A    between atoms: C_11  and  C_12 
REMARK   11  A    between atoms: C_12  and  C_13 
REMARK   12  A    between atoms: C_13  and  C_14 
REMARK   13  A    between atoms: C_14  and  N_15 
REMARK   14  A    between atoms: N_15  and  C_18 
REMARK   15  A    between atoms: C_18  and  C_19 
ROOT
HETATM    1  C   UNL     1     -21.942  -4.288 -10.791  1.00  0.00     0.000 C 
ENDROOT
BRANCH   1   2
HETATM    2  C   UNL     1     -21.286  -3.824  -9.491  1.00  0.00     0.000 C 
BRANCH   2   3
HETATM    3  C   UNL     1     -20.161  -4.741  -9.048  1.00  0.00     0.000 C 
BRANCH   3   4
HETATM    4  C   UNL     1     -20.552  -5.411  -7.736  1.00  0.00     0.000 C 
BRANCH   4   5
HETATM    5  C   UNL     1     -20.726  -4.376  -6.641  1.00  0.00     0.000 C 
BRANCH   5   6
HETATM    6  C   UNL     1     -20.318  -4.950  -5.292  1.00  0.00     0.000 C 
BRANCH   6   7
HETATM    7  C   UNL     1     -20.693  -6.422  -5.218  1.00  0.00     0.000 C 
BRANCH   7   8
HETATM    8  C   UNL     1     -21.963  -6.616  -4.400  1.00  0.00     0.000 C 
BRANCH   8   9
HETATM    9  C   UNL     1     -21.762  -6.095  -2.981  1.00  0.00    -0.000 C 
BRANCH   9  10
HETATM   10  C   UNL     1     -21.474  -7.240  -2.015  1.00  0.00    -0.005 C 
HETATM   11  C   UNL     1     -22.317  -7.111  -0.758  1.00  0.00     0.005 C 
ENDBRANCH   9  10
ENDBRANCH   8   9
ENDBRANCH   7   8
ENDBRANCH   6   7
ENDBRANCH   5   6
ENDBRANCH   4   5
ENDBRANCH   3   4
ENDBRANCH   2   3
ENDBRANCH   1   2
BRANCH   1  12
HETATM   12  C   UNL     1     -23.467  -4.391 -10.657  1.00  0.00     0.002 C 
BRANCH  12  13
HETATM   13  C   UNL     1     -24.153  -3.329 -11.515  1.00  0.00     0.028 C 
BRANCH  13  14
HETATM   14  C   UNL     1     -23.227  -2.632 -12.504  1.00  0.00     0.237 C 
BRANCH  14  15
HETATM   15  N   UNL     1     -23.657  -2.946 -13.957  1.00  0.00    -0.065 N 
HETATM   16  C   UNL     1     -25.121  -3.277 -14.098  1.00  0.00     0.272 C 
HETATM   17  C   UNL     1     -23.258  -1.810 -14.893  1.00  0.00     0.272 C 
BRANCH  15  18
HETATM   18  C   UNL     1     -22.826  -4.229 -14.406  1.00  0.00     0.349 C 
BRANCH  18  19
HETATM   19  C   UNL     1     -23.620  -5.550 -14.571  1.00  0.00     0.199 C 
HETATM   20  O   UNL     1     -23.769  -6.201 -13.499  1.00  0.00    -0.647 OA
HETATM   21  O   UNL     1     -23.874  -5.860 -15.767  1.00  0.00    -0.647 OA
ENDBRANCH  18  19
ENDBRANCH  15  18
ENDBRANCH  14  15
ENDBRANCH  13  14
ENDBRANCH  12  13
ENDBRANCH   1  12
TORSDOF 15
BEGIN_RES ARG D 557
REMARK  4 active torsions:
REMARK  status: ('A' for Active; 'I' for Inactive)
REMARK    1  A    between atoms: CA   and  CB  
REMARK    2  A    between atoms: CB   and  CG  
REMARK    3  A    between atoms: CG   and  CD  
REMARK    4  A    between atoms: CD   and  NE  
REMARK       I    between atoms: NE   and  CZ  
REMARK       I    between atoms: CZ   and  NH1 
REMARK       I    between atoms: CZ   and  NH2 
ROOT
ATOM      1  CA  ARG D 557     -26.217   2.705 -17.014  1.00 35.49     0.159 C 
ENDROOT
BRANCH   1   2
ATOM      2  CB  ARG D 557     -26.789   1.319 -17.183  1.00 35.49     0.034 C 
BRANCH   2   3
ATOM      3  CG  ARG D 557     -28.159   1.106 -16.701  1.00 35.49     0.027 C 
BRANCH   3   4
ATOM      4  CD  ARG D 557     -28.795  -0.082 -17.314  1.00 35.49     0.116 C 
BRANCH   4   5
ATOM      5  NE  ARG D 557     -28.183  -1.310 -16.877  1.00 35.49    -0.212 N 
ATOM      6  CZ  ARG D 557     -28.669  -2.517 -17.060  1.00 35.49     0.666 C 
ATOM      7  NH1 ARG D 557     -29.818  -2.734 -17.673  1.00 35.49    -0.235 N 
ATOM      8  NH2 ARG D 557     -27.968  -3.520 -16.615  1.00 35.49    -0.235 N 
ATOM      9  HH  ARG D 557     -30.295  -2.090 -17.975  1.00 35.49     0.174 HD
ATOM     10  HH  ARG D 557     -30.083  -3.544 -17.765  1.00 35.49     0.174 HD
ATOM     11  HH  ARG D 557     -27.226  -3.350 -16.230  1.00 35.49     0.174 HD
ATOM     12  HH  ARG D 557     -28.247  -4.314 -16.717  1.00 35.49     0.174 HD
ATOM     13  HE  ARG D 557     -27.475  -1.259 -16.409  1.00 35.49     0.178 HD
ENDBRANCH   4   5
ENDBRANCH   3   4
ENDBRANCH   2   3
ENDBRANCH   1   2
END_RES ARG D 557
BEGIN_RES GLU D 570
REMARK  3 active torsions:
REMARK  status: ('A' for Active; 'I' for Inactive)
REMARK    5  A    between atoms: CA   and  CB  
REMARK    6  A    between atoms: CB   and  CG  
REMARK    7  A    between atoms: CG   and  CD  
ROOT
ATOM     14  CA  GLU D 570     -18.033  -6.348 -13.375  1.00 32.92     0.160 C 
ENDROOT
BRANCH  14  15
ATOM     15  CB  GLU D 570     -19.500  -6.345 -13.794  1.00 32.92     0.043 C 
BRANCH  15  16
ATOM     16  CG  GLU D 570     -20.089  -7.636 -14.235  1.00 32.92     0.100 C 
BRANCH  16  17
ATOM     17  CD  GLU D 570     -20.720  -7.558 -15.605  1.00 32.92     0.185 C 
ATOM     18  OE1 GLU D 570     -21.314  -8.557 -16.055  1.00 32.92    -0.647 OA
ATOM     19  OE2 GLU D 570     -20.606  -6.493 -16.242  1.00 32.92    -0.647 OA
ENDBRANCH  16  17
ENDBRANCH  15  16
ENDBRANCH  14  15
END_RES GLU D 570
ENDMDL
MODEL 3
REMARK VINA RESULT:      -6.7      1.862      2.345
REMARK  15 active torsions:
REMARK  status: ('A' for Active; 'I' for Inactive)
REMARK    1  A    between atoms: C_2  and  C_3 
REMARK    2  A    between atoms: C_3  and  C_4 
REMARK    3  A    between atoms: C_4  and  C_5 
REMARK    4  A    between atoms: C_5  and  C_6 
REMARK    5  A    between atoms: C_6  and  C_7 
REMARK    6  A    between atoms: C_7  and  C_8 
REMARK    7  A    between atoms: C_8  and  C_9 
REMARK    8  A    between atoms: C_9  and  C_10 
REMARK    9  A    between atoms: C_10  and  C_11 
REMARK   10  A    between atoms: C_11  and  C_12 
REMARK   11  A    between atoms: C_12  and  C_13 
REMARK   12  A    between atoms: C_13  and  C_14 
REMARK   13  A    between atoms: C_14  and  N_15 
REMARK   14  A    between atoms: N_15  and  C_18 
REMARK   15  A    between atoms: C_18  and  C_19 
ROOT
HETATM    1  C   UNL     1     -20.714  -4.956  -7.798  1.00  0.00     0.000 C 
ENDROOT
BRANCH   1   2
HETATM    2  C   UNL     1     -19.986  -4.535  -6.522  1.00  0.00     0.000 C 
BRANCH   2   3
HETATM    3  C   UNL     1     -20.565  -5.189  -5.280  1.00  0.00     0.000 C 
BRANCH   3   4
HETATM    4  C   UNL     1     -20.901  -6.641  -5.594  1.00  0.00     0.000 C 
BRANCH   4   5
HETATM    5  C   UNL     1     -21.966  -7.158  -4.645  1.00  0.00     0.000 C 
BRANCH   5   6
HETATM    6  C   UNL     1     -21.746  -6.605  -3.243  1.00  0.00     0.000 C 
BRANCH   6   7
HETATM    7  C   UNL     1     -20.771  -7.490  -2.481  1.00  0.00     0.000 C 
BRANCH   7   8
HETATM    8  C   UNL     1     -21.495  -8.294  -1.410  1.00  0.00     0.000 C 
BRANCH   8   9
HETATM    9  C   UNL     1     -22.201  -7.359  -0.434  1.00  0.00    -0.000 C 
BRANCH   9  10
HETATM   10  C   UNL     1     -23.166  -8.130   0.460  1.00  0.00    -0.005 C 
HETATM   11  C   UNL     1     -23.299  -9.570  -0.003  1.00  0.00     0.005 C 
ENDBRANCH   9  10
ENDBRANCH   8   9
ENDBRANCH   7   8
ENDBRANCH   6   7
ENDBRANCH   5   6
ENDBRANCH   4   5
ENDBRANCH   3   4
ENDBRANCH   2   3
ENDBRANCH   1   2
BRANCH   1  12
HETATM   12  C   UNL     1     -20.089  -4.323  -9.049  1.00  0.00     0.002 C 
BRANCH  12  13
HETATM   13  C   UNL     1     -20.800  -4.812 -10.309  1.00  0.00     0.028 C 
BRANCH  13  14
HETATM   14  C   UNL     1     -20.847  -3.789 -11.437  1.00  0.00     0.237 C 
BRANCH  14  15
HETATM   15  N   UNL     1     -22.265  -3.732 -12.053  1.00  0.00    -0.065 N 
HETATM   16  C   UNL     1     -22.789  -2.331 -12.241  1.00  0.00     0.272 C 
HETATM   17  C   UNL     1     -22.315  -4.516 -13.360  1.00  0.00     0.272 C 
BRANCH  15  18
HETATM   18  C   UNL     1     -23.232  -4.476 -11.030  1.00  0.00     0.349 C 
BRANCH  18  19
HETATM   19  C   UNL     1     -24.151  -3.580 -10.162  1.00  0.00     0.199 C 
HETATM   20  O   UNL     1     -23.737  -3.405  -8.981  1.00  0.00    -0.647 OA
HETATM   21  O   UNL     1     -25.249  -3.277 -10.705  1.00  0.00    -0.647 OA
ENDBRANCH  18  19
ENDBRANCH  15  18
ENDBRANCH  14  15
ENDBRANCH  13  14
ENDBRANCH  12  13
ENDBRANCH   1  12
TORSDOF 15
BEGIN_RES ARG D 557
REMARK  4 active torsions:
REMARK  status: ('A' for Active; 'I' for Inactive)
REMARK    1  A    between atoms: CA   and  CB  
REMARK    2  A    between atoms: CB   and  CG  
REMARK    3  A    between atoms: CG   and  CD  
REMARK    4  A    between atoms: CD   and  NE  
REMARK       I    between atoms: NE   and  CZ  
REMARK       I    between atoms: CZ   and  NH1 
REMARK       I    between atoms: CZ   and  NH2 
ROOT
ATOM      1  CA  ARG D 557     -26.217   2.705 -17.014  1.00 35.49     0.159 C 
ENDROOT
BRANCH   1   2
ATOM      2  CB  ARG D 557     -26.789   1.319 -17.183  1.00 35.49     0.034 C 
BRANCH   2   3
ATOM      3  CG  ARG D 557     -26.001   0.208 -16.637  1.00 35.49     0.027 C 
BRANCH   3   4
ATOM      4  CD  ARG D 557     -26.850  -0.919 -16.186  1.00 35.49     0.116 C 
BRANCH   4   5
ATOM      5  NE  ARG D 557     -26.301  -1.584 -15.034  1.00 35.49    -0.212 N 
ATOM      6  CZ  ARG D 557     -26.327  -2.879 -14.810  1.00 35.49     0.666 C 
ATOM      7  NH1 ARG D 557     -26.891  -3.732 -15.645  1.00 35.49    -0.235 N 
ATOM      8  NH2 ARG D 557     -25.761  -3.311 -13.721  1.00 35.49    -0.235 N 
ATOM      9  HH  ARG D 557     -27.268  -3.470 -16.369  1.00 35.49     0.174 HD
ATOM     10  HH  ARG D 557     -26.875  -4.565 -15.448  1.00 35.49     0.174 HD
ATOM     11  HH  ARG D 557     -25.397  -2.738 -13.204  1.00 35.49     0.174 HD
ATOM     12  HH  ARG D 557     -25.754  -4.140 -13.544  1.00 35.49     0.174 HD
ATOM     13  HE  ARG D 557     -25.982  -1.103 -14.409  1.00 35.49     0.178 HD
ENDBRANCH   4   5
ENDBRANCH   3   4
ENDBRANCH   2   3
ENDBRANCH   1   2
END_RES ARG D 557
BEGIN_RES GLU D 570
REMARK  3 active torsions:
REMARK  status: ('A' for Active; 'I' for Inactive)
REMARK    5  A    between atoms: CA   and  CB  
REMARK    6  A    between atoms: CB   and  CG  
REMARK    7  A    between atoms: CG   and  CD  
ROOT
ATOM     14  CA  GLU D 570     -18.033  -6.348 -13.375  1.00 32.92     0.160 C 
ENDROOT
BRANCH  14  15
ATOM     15  CB  GLU D 570     -19.500  -6.345 -13.794  1.00 32.92     0.043 C 
BRANCH  15  16
ATOM     16  CG  GLU D 570     -20.032  -7.576 -14.434  1.00 32.92     0.100 C 
BRANCH  16  17
ATOM     17  CD  GLU D 570     -20.780  -7.298 -15.716  1.00 32.92     0.185 C 
ATOM     18  OE1 GLU D 570     -20.499  -6.276 -16.371  1.00 32.92    -0.647 OA
ATOM     19  OE2 GLU D 570     -21.668  -8.102 -16.061  1.00 32.92    -0.647 OA
ENDBRANCH  16  17
ENDBRANCH  15  16
ENDBRANCH  14  15
END_RES GLU D 570
ENDMDL
MODEL 4
REMARK VINA RESULT:      -6.7      3.579      6.909
REMARK  15 active torsions:
REMARK  status: ('A' for Active; 'I' for Inactive)
REMARK    1  A    between atoms: C_2  and  C_3 
REMARK    2  A    between atoms: C_3  and  C_4 
REMARK    3  A    between atoms: C_4  and  C_5 
REMARK    4  A    between atoms: C_5  and  C_6 
REMARK    5  A    between atoms: C_6  and  C_7 
REMARK    6  A    between atoms: C_7  and  C_8 
REMARK    7  A    between atoms: C_8  and  C_9 
REMARK    8  A    between atoms: C_9  and  C_10 
REMARK    9  A    between atoms: C_10  and  C_11 
REMARK   10  A    between atoms: C_11  and  C_12 
REMARK   11  A    between atoms: C_12  and  C_13 
REMARK   12  A    between atoms: C_13  and  C_14 
REMARK   13  A    between atoms: C_14  and  N_15 
REMARK   14  A    between atoms: N_15  and  C_18 
REMARK   15  A    between atoms: C_18  and  C_19 
ROOT
HETATM    1  C   UNL     1     -24.445  -6.680 -15.490  1.00  0.00     0.000 C 
ENDROOT
BRANCH   1   2
HETATM    2  C   UNL     1     -24.330  -5.473 -14.559  1.00  0.00     0.000 C 
BRANCH   2   3
HETATM    3  C   UNL     1     -23.031  -5.466 -13.774  1.00  0.00     0.000 C 
BRANCH   3   4
HETATM    4  C   UNL     1     -23.285  -4.863 -12.398  1.00  0.00     0.000 C 
BRANCH   4   5
HETATM    5  C   UNL     1     -21.983  -4.401 -11.771  1.00  0.00     0.000 C 
BRANCH   5   6
HETATM    6  C   UNL     1     -22.253  -3.431 -10.630  1.00  0.00     0.000 C 
BRANCH   6   7
HETATM    7  C   UNL     1     -22.893  -4.165  -9.462  1.00  0.00     0.000 C 
BRANCH   7   8
HETATM    8  C   UNL     1     -22.047  -4.021  -8.204  1.00  0.00     0.000 C 
BRANCH   8   9
HETATM    9  C   UNL     1     -21.568  -5.389  -7.729  1.00  0.00    -0.000 C 
BRANCH   9  10
HETATM   10  C   UNL     1     -20.048  -5.425  -7.615  1.00  0.00    -0.005 C 
HETATM   11  C   UNL     1     -19.442  -4.102  -8.050  1.00  0.00     0.005 C 
ENDBRANCH   9  10
ENDBRANCH   8   9
ENDBRANCH   7   8
ENDBRANCH   6   7
ENDBRANCH   5   6
ENDBRANCH   4   5
ENDBRANCH   3   4
ENDBRANCH   2   3
ENDBRANCH   1   2
BRANCH   1  12
HETATM   12  C   UNL     1     -25.907  -7.037 -15.786  1.00  0.00     0.002 C 
BRANCH  12  13
HETATM   13  C   UNL     1     -26.704  -5.783 -16.140  1.00  0.00     0.028 C 
BRANCH  13  14
HETATM   14  C   UNL     1     -27.391  -5.841 -17.498  1.00  0.00     0.237 C 
BRANCH  14  15
HETATM   15  N   UNL     1     -28.928  -5.872 -17.324  1.00  0.00    -0.065 N 
HETATM   16  C   UNL     1     -29.564  -7.160 -17.778  1.00  0.00     0.272 C 
HETATM   17  C   UNL     1     -29.312  -5.547 -15.883  1.00  0.00     0.272 C 
BRANCH  15  18
HETATM   18  C   UNL     1     -29.509  -4.699 -18.232  1.00  0.00     0.349 C 
BRANCH  18  19
HETATM   19  C   UNL     1     -29.822  -3.358 -17.521  1.00  0.00     0.199 C 
HETATM   20  O   UNL     1     -31.054  -3.085 -17.452  1.00  0.00    -0.647 OA
HETATM   21  O   UNL     1     -28.806  -2.662 -17.247  1.00  0.00    -0.647 OA
ENDBRANCH  18  19
ENDBRANCH  15  18
ENDBRANCH  14  15
ENDBRANCH  13  14
ENDBRANCH  12  13
ENDBRANCH   1  12
TORSDOF 15
BEGIN_RES ARG D 557
REMARK  4 active torsions:
REMARK  status: ('A' for Active; 'I' for Inactive)
REMARK    1  A    between atoms: CA   and  CB  
REMARK    2  A    between atoms: CB   and  CG  
REMARK    3  A    between atoms: CG   and  CD  
REMARK    4  A    between atoms: CD   and  NE  
REMARK       I    between atoms: NE   and  CZ  
REMARK       I    between atoms: CZ   and  NH1 
REMARK       I    between atoms: CZ   and  NH2 
ROOT
ATOM      1  CA  ARG D 557     -26.217   2.705 -17.014  1.00 35.49     0.159 C 
ENDROOT
BRANCH   1   2
ATOM      2  CB  ARG D 557     -26.789   1.319 -17.183  1.00 35.49     0.034 C 
BRANCH   2   3
ATOM      3  CG  ARG D 557     -25.835   0.203 -17.161  1.00 35.49     0.027 C 
BRANCH   3   4
ATOM      4  CD  ARG D 557     -24.713   0.439 -16.224  1.00 35.49     0.116 C 
BRANCH   4   5
ATOM      5  NE  ARG D 557     -24.819  -0.367 -15.037  1.00 35.49    -0.212 N 
ATOM      6  CZ  ARG D 557     -24.002  -1.336 -14.690  1.00 35.49     0.666 C 
ATOM      7  NH1 ARG D 557     -22.968  -1.691 -15.431  1.00 35.49    -0.235 N 
ATOM      8  NH2 ARG D 557     -24.238  -1.948 -13.566  1.00 35.49    -0.235 N 
ATOM      9  HH  ARG D 557     -22.792  -1.301 -16.174  1.00 35.49     0.174 HD
ATOM     10  HH  ARG D 557     -22.468  -2.329 -15.153  1.00 35.49     0.174 HD
ATOM     11  HH  ARG D 557     -24.908  -1.692 -13.105  1.00 35.49     0.174 HD
ATOM     12  HH  ARG D 557     -23.730  -2.576 -13.308  1.00 35.49     0.174 HD
ATOM     13  HE  ARG D 557     -25.498  -0.255 -14.537  1.00 35.49     0.178 HD
ENDBRANCH   4   5
ENDBRANCH   3   4
ENDBRANCH   2   3
ENDBRANCH   1   2
END_RES ARG D 557
BEGIN_RES GLU D 570
REMARK  3 active torsions:
REMARK  status: ('A' for Active; 'I' for Inactive)
REMARK    5  A    between atoms: CA   and  CB  
REMARK    6  A    between atoms: CB   and  CG  
REMARK    7  A    between atoms: CG   and  CD  
ROOT
ATOM     14  CA  GLU D 570     -18.033  -6.348 -13.375  1.00 32.92     0.160 C 
ENDROOT
BRANCH  14  15
ATOM     15  CB  GLU D 570     -19.500  -6.345 -13.794  1.00 32.92     0.043 C 
BRANCH  15  16
ATOM     16  CG  GLU D 570     -20.084  -7.632 -14.252  1.00 32.92     0.100 C 
BRANCH  16  17
ATOM     17  CD  GLU D 570     -20.674  -7.550 -15.641  1.00 32.92     0.185 C 
ATOM     18  OE1 GLU D 570     -21.223  -8.558 -16.125  1.00 32.92    -0.647 OA
ATOM     19  OE2 GLU D 570     -20.572  -6.471 -16.257  1.00 32.92    -0.647 OA
ENDBRANCH  16  17
ENDBRANCH  15  16
ENDBRANCH  14  15
END_RES GLU D 570
ENDMDL
MODEL 5
REMARK VINA RESULT:      -6.5      3.403      6.614
REMARK  15 active torsions:
REMARK  status: ('A' for Active; 'I' for Inactive)
REMARK    1  A    between atoms: C_2  and  C_3 
REMARK    2  A    between atoms: C_3  and  C_4 
REMARK    3  A    between atoms: C_4  and  C_5 
REMARK    4  A    between atoms: C_5  and  C_6 
REMARK    5  A    between atoms: C_6  and  C_7 
REMARK    6  A    between atoms: C_7  and  C_8 
REMARK    7  A    between atoms: C_8  and  C_9 
REMARK    8  A    between atoms: C_9  and  C_10 
REMARK    9  A    between atoms: C_10  and  C_11 
REMARK   10  A    between atoms: C_11  and  C_12 
REMARK   11  A    between atoms: C_12  and  C_13 
REMARK   12  A    between atoms: C_13  and  C_14 
REMARK   13  A    between atoms: C_14  and  N_15 
REMARK   14  A    between atoms: N_15  and  C_18 
REMARK   15  A    between atoms: C_18  and  C_19 
ROOT
HETATM    1  C   UNL     1     -24.396  -5.504 -14.706  1.00  0.00     0.000 C 
ENDROOT
BRANCH   1   2
HETATM    2  C   UNL     1     -23.388  -5.761 -13.586  1.00  0.00     0.000 C 
BRANCH   2   3
HETATM    3  C   UNL     1     -22.468  -4.577 -13.350  1.00  0.00     0.000 C 
BRANCH   3   4
HETATM    4  C   UNL     1     -23.307  -3.312 -13.219  1.00  0.00     0.000 C 
BRANCH   4   5
HETATM    5  C   UNL     1     -22.907  -2.534 -11.980  1.00  0.00     0.000 C 
BRANCH   5   6
HETATM    6  C   UNL     1     -22.083  -3.406 -11.043  1.00  0.00     0.000 C 
BRANCH   6   7
HETATM    7  C   UNL     1     -22.867  -3.690  -9.771  1.00  0.00     0.000 C 
BRANCH   7   8
HETATM    8  C   UNL     1     -22.061  -4.569  -8.824  1.00  0.00     0.000 C 
BRANCH   8   9
HETATM    9  C   UNL     1     -21.783  -3.827  -7.522  1.00  0.00    -0.000 C 
BRANCH   9  10
HETATM   10  C   UNL     1     -20.503  -4.334  -6.867  1.00  0.00    -0.005 C 
HETATM   11  C   UNL     1     -19.349  -4.322  -7.854  1.00  0.00     0.005 C 
ENDBRANCH   9  10
ENDBRANCH   8   9
ENDBRANCH   7   8
ENDBRANCH   6   7
ENDBRANCH   5   6
ENDBRANCH   4   5
ENDBRANCH   3   4
ENDBRANCH   2   3
ENDBRANCH   1   2
BRANCH   1  12
HETATM   12  C   UNL     1     -24.603  -6.744 -15.585  1.00  0.00     0.002 C 
BRANCH  12  13
HETATM   13  C   UNL     1     -25.866  -6.595 -16.432  1.00  0.00     0.028 C 
BRANCH  13  14
HETATM   14  C   UNL     1     -27.144  -7.037 -15.730  1.00  0.00     0.237 C 
BRANCH  14  15
HETATM   15  N   UNL     1     -28.385  -6.558 -16.521  1.00  0.00    -0.065 N 
HETATM   16  C   UNL     1     -29.304  -5.666 -15.726  1.00  0.00     0.272 C 
HETATM   17  C   UNL     1     -27.966  -5.890 -17.826  1.00  0.00     0.272 C 
BRANCH  15  18
HETATM   18  C   UNL     1     -29.202  -7.867 -16.913  1.00  0.00     0.349 C 
BRANCH  18  19
HETATM   19  C   UNL     1     -30.205  -7.737 -18.089  1.00  0.00     0.199 C 
HETATM   20  O   UNL     1     -31.229  -7.048 -17.819  1.00  0.00    -0.647 OA
HETATM   21  O   UNL     1     -29.931  -8.454 -19.090  1.00  0.00    -0.647 OA
ENDBRANCH  18  19
ENDBRANCH  15  18
ENDBRANCH  14  15
ENDBRANCH  13  14
ENDBRANCH  12  13
ENDBRANCH   1  12
TORSDOF 15
BEGIN_RES ARG D 557
REMARK  4 active torsions:
REMARK  status: ('A' for Active; 'I' for Inactive)
REMARK    1  A    between atoms: CA   and  CB  
REMARK    2  A    between atoms: CB   and  CG  
REMARK    3  A    between atoms: CG   and  CD  
REMARK    4  A    between atoms: CD   and  NE  
REMARK       I    between atoms: NE   and  CZ  
REMARK       I    between atoms: CZ   and  NH1 
REMARK       I    between atoms: CZ   and  NH2 
ROOT
ATOM      1  CA  ARG D 557     -26.217   2.705 -17.014  1.00 35.49     0.159 C 
ENDROOT
BRANCH   1   2
ATOM      2  CB  ARG D 557     -26.789   1.319 -17.183  1.00 35.49     0.034 C 
BRANCH   2   3
ATOM      3  CG  ARG D 557     -28.239   1.224 -17.392  1.00 35.49     0.027 C 
BRANCH   3   4
ATOM      4  CD  ARG D 557     -28.879   0.255 -16.472  1.00 35.49     0.116 C 
BRANCH   4   5
ATOM      5  NE  ARG D 557     -27.979  -0.798 -16.081  1.00 35.49    -0.212 N 
ATOM      6  CZ  ARG D 557     -28.012  -2.037 -16.516  1.00 35.49     0.666 C 
ATOM      7  NH1 ARG D 557     -28.918  -2.462 -17.378  1.00 35.49    -0.235 N 
ATOM      8  NH2 ARG D 557     -27.103  -2.855 -16.070  1.00 35.49    -0.235 N 
ATOM      9  HH  ARG D 557     -29.524  -1.941 -17.686  1.00 35.49     0.174 HD
ATOM     10  HH  ARG D 557     -28.889  -3.282 -17.628  1.00 35.49     0.174 HD
ATOM     11  HH  ARG D 557     -26.527  -2.550 -15.520  1.00 35.49     0.174 HD
ATOM     12  HH  ARG D 557     -27.090  -3.661 -16.330  1.00 35.49     0.174 HD
ATOM     13  HE  ARG D 557     -27.408  -0.630 -15.473  1.00 35.49     0.178 HD
ENDBRANCH   4   5
ENDBRANCH   3   4
ENDBRANCH   2   3
ENDBRANCH   1   2
END_RES ARG D 557
BEGIN_RES GLU D 570
REMARK  3 active torsions:
REMARK  status: ('A' for Active; 'I' for Inactive)
REMARK    5  A    between atoms: CA   and  CB  
REMARK    6  A    between atoms: CB   and  CG  
REMARK    7  A    between atoms: CG   and  CD  
ROOT
ATOM     14  CA  GLU D 570     -18.033  -6.348 -13.375  1.00 32.92     0.160 C 
ENDROOT
BRANCH  14  15
ATOM     15  CB  GLU D 570     -19.500  -6.345 -13.794  1.00 32.92     0.043 C 
BRANCH  15  16
ATOM     16  CG  GLU D 570     -19.798  -6.203 -15.243  1.00 32.92     0.100 C 
BRANCH  16  17
ATOM     17  CD  GLU D 570     -20.633  -7.339 -15.786  1.00 32.92     0.185 C 
ATOM     18  OE1 GLU D 570     -21.298  -7.157 -16.824  1.00 32.92    -0.647 OA
ATOM     19  OE2 GLU D 570     -20.636  -8.416 -15.158  1.00 32.92    -0.647 OA
ENDBRANCH  16  17
ENDBRANCH  15  16
ENDBRANCH  14  15
END_RES GLU D 570
ENDMDL
MODEL 6
REMARK VINA RESULT:      -6.2      4.773      8.774
REMARK  15 active torsions:
REMARK  status: ('A' for Active; 'I' for Inactive)
REMARK    1  A    between atoms: C_2  and  C_3 
REMARK    2  A    between atoms: C_3  and  C_4 
REMARK    3  A    between atoms: C_4  and  C_5 
REMARK    4  A    between atoms: C_5  and  C_6 
REMARK    5  A    between atoms: C_6  and  C_7 
REMARK    6  A    between atoms: C_7  and  C_8 
REMARK    7  A    between atoms: C_8  and  C_9 
REMARK    8  A    between atoms: C_9  and  C_10 
REMARK    9  A    between atoms: C_10  and  C_11 
REMARK   10  A    between atoms: C_11  and  C_12 
REMARK   11  A    between atoms: C_12  and  C_13 
REMARK   12  A    between atoms: C_13  and  C_14 
REMARK   13  A    between atoms: C_14  and  N_15 
REMARK   14  A    between atoms: N_15  and  C_18 
REMARK   15  A    between atoms: C_18  and  C_19 
ROOT
HETATM    1  C   UNL     1     -22.299  -6.674  -1.445  1.00  0.00     0.000 C 
ENDROOT
BRANCH   1   2
HETATM    2  C   UNL     1     -21.643  -5.939  -2.613  1.00  0.00     0.000 C 
BRANCH   2   3
HETATM    3  C   UNL     1     -21.312  -6.865  -3.769  1.00  0.00     0.000 C 
BRANCH   3   4
HETATM    4  C   UNL     1     -22.171  -6.488  -4.970  1.00  0.00     0.000 C 
BRANCH   4   5
HETATM    5  C   UNL     1     -21.304  -6.256  -6.193  1.00  0.00     0.000 C 
BRANCH   5   6
HETATM    6  C   UNL     1     -20.103  -5.389  -5.841  1.00  0.00     0.000 C 
BRANCH   6   7
HETATM    7  C   UNL     1     -19.577  -4.697  -7.089  1.00  0.00     0.000 C 
BRANCH   7   8
HETATM    8  C   UNL     1     -20.688  -3.928  -7.790  1.00  0.00     0.000 C 
BRANCH   8   9
HETATM    9  C   UNL     1     -20.674  -4.224  -9.286  1.00  0.00    -0.000 C 
BRANCH   9  10
HETATM   10  C   UNL     1     -22.093  -4.353  -9.830  1.00  0.00    -0.005 C 
HETATM   11  C   UNL     1     -23.116  -4.146  -8.726  1.00  0.00     0.005 C 
ENDBRANCH   9  10
ENDBRANCH   8   9
ENDBRANCH   7   8
ENDBRANCH   6   7
ENDBRANCH   5   6
ENDBRANCH   4   5
ENDBRANCH   3   4
ENDBRANCH   2   3
ENDBRANCH   1   2
BRANCH   1  12
HETATM   12  C   UNL     1     -21.455  -7.863  -0.969  1.00  0.00     0.002 C 
BRANCH  12  13
HETATM   13  C   UNL     1     -22.172  -8.615   0.150  1.00  0.00     0.028 C 
BRANCH  13  14
HETATM   14  C   UNL     1     -22.929  -9.854  -0.314  1.00  0.00     0.237 C 
BRANCH  14  15
HETATM   15  N   UNL     1     -22.078 -11.125  -0.077  1.00  0.00    -0.065 N 
HETATM   16  C   UNL     1     -20.932 -10.917   0.879  1.00  0.00     0.272 C 
HETATM   17  C   UNL     1     -22.961 -12.286   0.367  1.00  0.00     0.272 C 
BRANCH  15  18
HETATM   18  C   UNL     1     -21.463 -11.525  -1.491  1.00  0.00     0.349 C 
BRANCH  18  19
HETATM   19  C   UNL     1     -22.468 -11.741  -2.651  1.00  0.00     0.199 C 
HETATM   20  O   UNL     1     -22.819 -12.944  -2.812  1.00  0.00    -0.647 OA
HETATM   21  O   UNL     1     -22.675 -10.718  -3.360  1.00  0.00    -0.647 OA
ENDBRANCH  18  19
ENDBRANCH  15  18
ENDBRANCH  14  15
ENDBRANCH  13  14
ENDBRANCH  12  13
ENDBRANCH   1  12
TORSDOF 15
BEGIN_RES ARG D 557
REMARK  4 active torsions:
REMARK  status: ('A' for Active; 'I' for Inactive)
REMARK    1  A    between atoms: CA   and  CB  
REMARK    2  A    between atoms: CB   and  CG  
REMARK    3  A    between atoms: CG   and  CD  
REMARK    4  A    between atoms: CD   and  NE  
REMARK       I    between atoms: NE   and  CZ  
REMARK       I    between atoms: CZ   and  NH1 
REMARK       I    between atoms: CZ   and  NH2 
ROOT
ATOM      1  CA  ARG D 557     -26.217   2.705 -17.014  1.00 35.49     0.159 C 
ENDROOT
BRANCH   1   2
ATOM      2  CB  ARG D 557     -26.789   1.319 -17.183  1.00 35.49     0.034 C 
BRANCH   2   3
ATOM      3  CG  ARG D 557     -25.837   0.202 -17.141  1.00 35.49     0.027 C 
BRANCH   3   4
ATOM      4  CD  ARG D 557     -24.758   0.417 -16.151  1.00 35.49     0.116 C 
BRANCH   4   5
ATOM      5  NE  ARG D 557     -24.900  -0.437 -15.001  1.00 35.49    -0.212 N 
ATOM      6  CZ  ARG D 557     -24.081  -1.406 -14.658  1.00 35.49     0.666 C 
ATOM      7  NH1 ARG D 557     -23.012  -1.716 -15.368  1.00 35.49    -0.235 N 
ATOM      8  NH2 ARG D 557     -24.353  -2.065 -13.569  1.00 35.49    -0.235 N 
ATOM      9  HH  ARG D 557     -22.812  -1.294 -16.087  1.00 35.49     0.174 HD
ATOM     10  HH  ARG D 557     -22.513  -2.356 -15.094  1.00 35.49     0.174 HD
ATOM     11  HH  ARG D 557     -25.046  -1.839 -13.127  1.00 35.49     0.174 HD
ATOM     12  HH  ARG D 557     -23.846  -2.695 -13.314  1.00 35.49     0.174 HD
ATOM     13  HE  ARG D 557     -25.601  -0.355 -14.526  1.00 35.49     0.178 HD
ENDBRANCH   4   5
ENDBRANCH   3   4
ENDBRANCH   2   3
ENDBRANCH   1   2
END_RES ARG D 557
BEGIN_RES GLU D 570
REMARK  3 active torsions:
REMARK  status: ('A' for Active; 'I' for Inactive)
REMARK    5  A    between atoms: CA   and  CB  
REMARK    6  A    between atoms: CB   and  CG  
REMARK    7  A    between atoms: CG   and  CD  
ROOT
ATOM     14  CA  GLU D 570     -18.033  -6.348 -13.375  1.00 32.92     0.160 C 
ENDROOT
BRANCH  14  15
ATOM     15  CB  GLU D 570     -19.500  -6.345 -13.794  1.00 32.92     0.043 C 
BRANCH  15  16
ATOM     16  CG  GLU D 570     -20.445  -5.547 -12.971  1.00 32.92     0.100 C 
BRANCH  16  17
ATOM     17  CD  GLU D 570     -21.731  -5.226 -13.696  1.00 32.92     0.185 C 
ATOM     18  OE1 GLU D 570     -22.285  -4.128 -13.490  1.00 32.92    -0.647 OA
ATOM     19  OE2 GLU D 570     -22.200  -6.088 -14.466  1.00 32.92    -0.647 OA
ENDBRANCH  16  17
ENDBRANCH  15  16
ENDBRANCH  14  15
END_RES GLU D 570
ENDMDL
MODEL 7
REMARK VINA RESULT:      -6.2      4.863      8.584
REMARK  15 active torsions:
REMARK  status: ('A' for Active; 'I' for Inactive)
REMARK    1  A    between atoms: C_2  and  C_3 
REMARK    2  A    between atoms: C_3  and  C_4 
REMARK    3  A    between atoms: C_4  and  C_5 
REMARK    4  A    between atoms: C_5  and  C_6 
REMARK    5  A    between atoms: C_6  and  C_7 
REMARK    6  A    between atoms: C_7  and  C_8 
REMARK    7  A    between atoms: C_8  and  C_9 
REMARK    8  A    between atoms: C_9  and  C_10 
REMARK    9  A    between atoms: C_10  and  C_11 
REMARK   10  A    between atoms: C_11  and  C_12 
REMARK   11  A    between atoms: C_12  and  C_13 
REMARK   12  A    between atoms: C_13  and  C_14 
REMARK   13  A    between atoms: C_14  and  N_15 
REMARK   14  A    between atoms: N_15  and  C_18 
REMARK   15  A    between atoms: C_18  and  C_19 
ROOT
HETATM    1  C   UNL     1     -22.135  -6.622  -4.887  1.00  0.00     0.000 C 
ENDROOT
BRANCH   1   2
HETATM    2  C   UNL     1     -21.364  -6.745  -6.201  1.00  0.00     0.000 C 
BRANCH   2   3
HETATM    3  C   UNL     1     -19.978  -6.132  -6.122  1.00  0.00     0.000 C 
BRANCH   3   4
HETATM    4  C   UNL     1     -20.109  -4.626  -5.935  1.00  0.00     0.000 C 
BRANCH   4   5
HETATM    5  C   UNL     1     -20.731  -3.990  -7.163  1.00  0.00     0.000 C 
BRANCH   5   6
HETATM    6  C   UNL     1     -19.723  -3.928  -8.302  1.00  0.00     0.000 C 
BRANCH   6   7
HETATM    7  C   UNL     1     -20.233  -4.725  -9.493  1.00  0.00     0.000 C 
BRANCH   7   8
HETATM    8  C   UNL     1     -20.843  -3.803 -10.539  1.00  0.00     0.000 C 
BRANCH   8   9
HETATM    9  C   UNL     1     -22.230  -4.297 -10.936  1.00  0.00    -0.000 C 
BRANCH   9  10
HETATM   10  C   UNL     1     -23.205  -4.180  -9.769  1.00  0.00    -0.005 C 
HETATM   11  C   UNL     1     -24.481  -3.476 -10.200  1.00  0.00     0.005 C 
ENDBRANCH   9  10
ENDBRANCH   8   9
ENDBRANCH   7   8
ENDBRANCH   6   7
ENDBRANCH   5   6
ENDBRANCH   4   5
ENDBRANCH   3   4
ENDBRANCH   2   3
ENDBRANCH   1   2
BRANCH   1  12
HETATM   12  C   UNL     1     -21.248  -6.927  -3.673  1.00  0.00     0.002 C 
BRANCH  12  13
HETATM   13  C   UNL     1     -21.145  -8.434  -3.451  1.00  0.00     0.028 C 
BRANCH  13  14
HETATM   14  C   UNL     1     -20.229  -8.835  -2.301  1.00  0.00     0.237 C 
BRANCH  14  15
HETATM   15  N   UNL     1     -21.041  -9.535  -1.185  1.00  0.00    -0.065 N 
HETATM   16  C   UNL     1     -22.398 -10.014  -1.632  1.00  0.00     0.272 C 
HETATM   17  C   UNL     1     -20.234 -10.672  -0.566  1.00  0.00     0.272 C 
BRANCH  15  18
HETATM   18  C   UNL     1     -21.263  -8.450  -0.041  1.00  0.00     0.349 C 
BRANCH  18  19
HETATM   19  C   UNL     1     -22.643  -7.744  -0.010  1.00  0.00     0.199 C 
HETATM   20  O   UNL     1     -23.517  -8.347   0.675  1.00  0.00    -0.647 OA
HETATM   21  O   UNL     1     -22.741  -6.755  -0.787  1.00  0.00    -0.647 OA
ENDBRANCH  18  19
ENDBRANCH  15  18
ENDBRANCH  14  15
ENDBRANCH  13  14
ENDBRANCH  12  13
ENDBRANCH   1  12
TORSDOF 15
BEGIN_RES ARG D 557
REMARK  4 active torsions:
REMARK  status: ('A' for Active; 'I' for Inactive)
REMARK    1  A    between atoms: CA   and  CB  
REMARK    2  A    between atoms: CB   and  CG  
REMARK    3  A    between atoms: CG   and  CD  
REMARK    4  A    between atoms: CD   and  NE  
REMARK       I    between atoms: NE   and  CZ  
REMARK       I    between atoms: CZ   and  NH1 
REMARK       I    between atoms: CZ   and  NH2 
ROOT
ATOM      1  CA  ARG D 557     -26.217   2.705 -17.014  1.00 35.49     0.159 C 
ENDROOT
BRANCH   1   2
ATOM      2  CB  ARG D 557     -26.789   1.319 -17.183  1.00 35.49     0.034 C 
BRANCH   2   3
ATOM      3  CG  ARG D 557     -25.838   0.202 -17.140  1.00 35.49     0.027 C 
BRANCH   3   4
ATOM      4  CD  ARG D 557     -24.737   0.434 -16.177  1.00 35.49     0.116 C 
BRANCH   4   5
ATOM      5  NE  ARG D 557     -24.834  -0.423 -15.025  1.00 35.49    -0.212 N 
ATOM      6  CZ  ARG D 557     -24.001  -1.391 -14.716  1.00 35.49     0.666 C 
ATOM      7  NH1 ARG D 557     -22.959  -1.697 -15.467  1.00 35.49    -0.235 N 
ATOM      8  NH2 ARG D 557     -24.231  -2.054 -13.620  1.00 35.49    -0.235 N 
ATOM      9  HH  ARG D 557     -22.787  -1.272 -16.191  1.00 35.49     0.174 HD
ATOM     10  HH  ARG D 557     -22.449  -2.337 -15.214  1.00 35.49     0.174 HD
ATOM     11  HH  ARG D 557     -24.908  -1.830 -13.152  1.00 35.49     0.174 HD
ATOM     12  HH  ARG D 557     -23.714  -2.683 -13.386  1.00 35.49     0.174 HD
ATOM     13  HE  ARG D 557     -25.517  -0.343 -14.525  1.00 35.49     0.178 HD
ENDBRANCH   4   5
ENDBRANCH   3   4
ENDBRANCH   2   3
ENDBRANCH   1   2
END_RES ARG D 557
BEGIN_RES GLU D 570
REMARK  3 active torsions:
REMARK  status: ('A' for Active; 'I' for Inactive)
REMARK    5  A    between atoms: CA   and  CB  
REMARK    6  A    between atoms: CB   and  CG  
REMARK    7  A    between atoms: CG   and  CD  
ROOT
ATOM     14  CA  GLU D 570     -18.033  -6.348 -13.375  1.00 32.92     0.160 C 
ENDROOT
BRANCH  14  15
ATOM     15  CB  GLU D 570     -19.500  -6.345 -13.794  1.00 32.92     0.043 C 
BRANCH  15  16
ATOM     16  CG  GLU D 570     -19.828  -5.790 -15.133  1.00 32.92     0.100 C 
BRANCH  16  17
ATOM     17  CD  GLU D 570     -21.268  -5.347 -15.250  1.00 32.92     0.185 C 
ATOM     18  OE1 GLU D 570     -22.122  -5.859 -14.501  1.00 32.92    -0.647 OA
ATOM     19  OE2 GLU D 570     -21.548  -4.490 -16.111  1.00 32.92    -0.647 OA
ENDBRANCH  16  17
ENDBRANCH  15  16
ENDBRANCH  14  15
END_RES GLU D 570
ENDMDL
MODEL 8
REMARK VINA RESULT:      -6.2      6.336     11.583
REMARK  15 active torsions:
REMARK  status: ('A' for Active; 'I' for Inactive)
REMARK    1  A    between atoms: C_2  and  C_3 
REMARK    2  A    between atoms: C_3  and  C_4 
REMARK    3  A    between atoms: C_4  and  C_5 
REMARK    4  A    between atoms: C_5  and  C_6 
REMARK    5  A    between atoms: C_6  and  C_7 
REMARK    6  A    between atoms: C_7  and  C_8 
REMARK    7  A    between atoms: C_8  and  C_9 
REMARK    8  A    between atoms: C_9  and  C_10 
REMARK    9  A    between atoms: C_10  and  C_11 
REMARK   10  A    between atoms: C_11  and  C_12 
REMARK   11  A    between atoms: C_12  and  C_13 
REMARK   12  A    between atoms: C_13  and  C_14 
REMARK   13  A    between atoms: C_14  and  N_15 
REMARK   14  A    between atoms: N_15  and  C_18 
REMARK   15  A    between atoms: C_18  and  C_19 
ROOT
HETATM    1  C   UNL     1     -33.557  -3.194 -17.139  1.00  0.00     0.000 C 
ENDROOT
BRANCH   1   2
HETATM    2  C   UNL     1     -34.744  -2.728 -16.297  1.00  0.00     0.000 C 
BRANCH   2   3
HETATM    3  C   UNL     1     -35.071  -1.261 -16.513  1.00  0.00     0.000 C 
BRANCH   3   4
HETATM    4  C   UNL     1     -35.824  -0.735 -15.298  1.00  0.00     0.000 C 
BRANCH   4   5
HETATM    5  C   UNL     1     -35.005   0.320 -14.580  1.00  0.00     0.000 C 
BRANCH   5   6
HETATM    6  C   UNL     1     -35.011   0.072 -13.078  1.00  0.00     0.000 C 
BRANCH   6   7
HETATM    7  C   UNL     1     -34.997  -1.424 -12.797  1.00  0.00     0.000 C 
BRANCH   7   8
HETATM    8  C   UNL     1     -34.949  -1.691 -11.299  1.00  0.00     0.000 C 
BRANCH   8   9
HETATM    9  C   UNL     1     -33.561  -2.176 -10.893  1.00  0.00    -0.000 C 
BRANCH   9  10
HETATM   10  C   UNL     1     -33.515  -3.699 -10.820  1.00  0.00    -0.005 C 
HETATM   11  C   UNL     1     -32.684  -4.269 -11.956  1.00  0.00     0.005 C 
ENDBRANCH   9  10
ENDBRANCH   8   9
ENDBRANCH   7   8
ENDBRANCH   6   7
ENDBRANCH   5   6
ENDBRANCH   4   5
ENDBRANCH   3   4
ENDBRANCH   2   3
ENDBRANCH   1   2
BRANCH   1  12
HETATM   12  C   UNL     1     -32.862  -4.415 -16.522  1.00  0.00     0.002 C 
BRANCH  12  13
HETATM   13  C   UNL     1     -31.385  -4.442 -16.908  1.00  0.00     0.028 C 
BRANCH  13  14
HETATM   14  C   UNL     1     -30.851  -5.829 -17.243  1.00  0.00     0.237 C 
BRANCH  14  15
HETATM   15  N   UNL     1     -29.304  -5.829 -17.229  1.00  0.00    -0.065 N 
HETATM   16  C   UNL     1     -28.700  -7.181 -16.948  1.00  0.00     0.272 C 
HETATM   17  C   UNL     1     -28.755  -5.241 -18.525  1.00  0.00     0.272 C 
BRANCH  15  18
HETATM   18  C   UNL     1     -28.864  -4.849 -16.054  1.00  0.00     0.349 C 
BRANCH  18  19
HETATM   19  C   UNL     1     -27.520  -4.098 -16.240  1.00  0.00     0.199 C 
HETATM   20  O   UNL     1     -26.498  -4.815 -16.047  1.00  0.00    -0.647 OA
HETATM   21  O   UNL     1     -27.637  -2.853 -16.408  1.00  0.00    -0.647 OA
ENDBRANCH  18  19
ENDBRANCH  15  18
ENDBRANCH  14  15
ENDBRANCH  13  14
ENDBRANCH  12  13
ENDBRANCH   1  12
TORSDOF 15
BEGIN_RES ARG D 557
REMARK  4 active torsions:
REMARK  status: ('A' for Active; 'I' for Inactive)
REMARK    1  A    between atoms: CA   and  CB  
REMARK    2  A    between atoms: CB   and  CG  
REMARK    3  A    between atoms: CG   and  CD  
REMARK    4  A    between atoms: CD   and  NE  
REMARK       I    between atoms: NE   and  CZ  
REMARK       I    between atoms: CZ   and  NH1 
REMARK       I    between atoms: CZ   and  NH2 
ROOT
ATOM      1  CA  ARG D 557     -26.217   2.705 -17.014  1.00 35.49     0.159 C 
ENDROOT
BRANCH   1   2
ATOM      2  CB  ARG D 557     -26.789   1.319 -17.183  1.00 35.49     0.034 C 
BRANCH   2   3
ATOM      3  CG  ARG D 557     -25.834   0.205 -17.176  1.00 35.49     0.027 C 
BRANCH   3   4
ATOM      4  CD  ARG D 557     -25.106   0.093 -15.892  1.00 35.49     0.116 C 
BRANCH   4   5
ATOM      5  NE  ARG D 557     -25.526  -1.052 -15.128  1.00 35.49    -0.212 N 
ATOM      6  CZ  ARG D 557     -24.733  -1.969 -14.619  1.00 35.49     0.666 C 
ATOM      7  NH1 ARG D 557     -23.422  -1.938 -14.774  1.00 35.49    -0.235 N 
ATOM      8  NH2 ARG D 557     -25.286  -2.928 -13.935  1.00 35.49    -0.235 N 
ATOM      9  HH  ARG D 557     -23.037  -1.315 -15.219  1.00 35.49     0.174 HD
ATOM     10  HH  ARG D 557     -22.955  -2.562 -14.417  1.00 35.49     0.174 HD
ATOM     11  HH  ARG D 557     -26.134  -2.918 -13.845  1.00 35.49     0.174 HD
ATOM     12  HH  ARG D 557     -24.807  -3.535 -13.588  1.00 35.49     0.174 HD
ATOM     13  HE  ARG D 557     -26.360  -1.190 -15.041  1.00 35.49     0.178 HD
ENDBRANCH   4   5
ENDBRANCH   3   4
ENDBRANCH   2   3
ENDBRANCH   1   2
END_RES ARG D 557
BEGIN_RES GLU D 570
REMARK  3 active torsions:
REMARK  status: ('A' for Active; 'I' for Inactive)
REMARK    5  A    between atoms: CA   and  CB  
REMARK    6  A    between atoms: CB   and  CG  
REMARK    7  A    between atoms: CG   and  CD  
ROOT
ATOM     14  CA  GLU D 570     -18.033  -6.348 -13.375  1.00 32.92     0.160 C 
ENDROOT
BRANCH  14  15
ATOM     15  CB  GLU D 570     -19.500  -6.345 -13.794  1.00 32.92     0.043 C 
BRANCH  15  16
ATOM     16  CG  GLU D 570     -20.444  -5.539 -12.977  1.00 32.92     0.100 C 
BRANCH  16  17
ATOM     17  CD  GLU D 570     -21.680  -5.125 -13.741  1.00 32.92     0.185 C 
ATOM     18  OE1 GLU D 570     -21.822  -5.512 -14.917  1.00 32.92    -0.647 OA
ATOM     19  OE2 GLU D 570     -22.506  -4.391 -13.164  1.00 32.92    -0.647 OA
ENDBRANCH  16  17
ENDBRANCH  15  16
ENDBRANCH  14  15
END_RES GLU D 570
ENDMDL
MODEL 9
REMARK VINA RESULT:      -6.2      2.080      3.314
REMARK  15 active torsions:
REMARK  status: ('A' for Active; 'I' for Inactive)
REMARK    1  A    between atoms: C_2  and  C_3 
REMARK    2  A    between atoms: C_3  and  C_4 
REMARK    3  A    between atoms: C_4  and  C_5 
REMARK    4  A    between atoms: C_5  and  C_6 
REMARK    5  A    between atoms: C_6  and  C_7 
REMARK    6  A    between atoms: C_7  and  C_8 
REMARK    7  A    between atoms: C_8  and  C_9 
REMARK    8  A    between atoms: C_9  and  C_10 
REMARK    9  A    between atoms: C_10  and  C_11 
REMARK   10  A    between atoms: C_11  and  C_12 
REMARK   11  A    between atoms: C_12  and  C_13 
REMARK   12  A    between atoms: C_13  and  C_14 
REMARK   13  A    between atoms: C_14  and  N_15 
REMARK   14  A    between atoms: N_15  and  C_18 
REMARK   15  A    between atoms: C_18  and  C_19 
ROOT
HETATM    1  C   UNL     1     -21.863  -5.862  -5.677  1.00  0.00     0.000 C 
ENDROOT
BRANCH   1   2
HETATM    2  C   UNL     1     -22.118  -6.689  -4.417  1.00  0.00     0.000 C 
BRANCH   2   3
HETATM    3  C   UNL     1     -20.884  -7.442  -3.956  1.00  0.00     0.000 C 
BRANCH   3   4
HETATM    4  C   UNL     1     -20.870  -7.491  -2.433  1.00  0.00     0.000 C 
BRANCH   4   5
HETATM    5  C   UNL     1     -21.999  -6.654  -1.864  1.00  0.00     0.000 C 
BRANCH   5   6
HETATM    6  C   UNL     1     -22.464  -7.219  -0.529  1.00  0.00     0.000 C 
BRANCH   6   7
HETATM    7  C   UNL     1     -21.406  -8.154   0.038  1.00  0.00     0.000 C 
BRANCH   7   8
HETATM    8  C   UNL     1     -22.035  -9.455   0.516  1.00  0.00     0.000 C 
BRANCH   8   9
HETATM    9  C   UNL     1     -23.391  -9.663  -0.149  1.00  0.00    -0.000 C 
BRANCH   9  10
HETATM   10  C   UNL     1     -23.809 -11.128  -0.092  1.00  0.00    -0.005 C 
HETATM   11  C   UNL     1     -22.641 -12.007   0.323  1.00  0.00     0.005 C 
ENDBRANCH   9  10
ENDBRANCH   8   9
ENDBRANCH   7   8
ENDBRANCH   6   7
ENDBRANCH   5   6
ENDBRANCH   4   5
ENDBRANCH   3   4
ENDBRANCH   2   3
ENDBRANCH   1   2
BRANCH   1  12
HETATM   12  C   UNL     1     -20.380  -5.501  -5.834  1.00  0.00     0.002 C 
BRANCH  12  13
HETATM   13  C   UNL     1     -20.051  -5.216  -7.298  1.00  0.00     0.028 C 
BRANCH  13  14
HETATM   14  C   UNL     1     -21.151  -5.612  -8.275  1.00  0.00     0.237 C 
BRANCH  14  15
HETATM   15  N   UNL     1     -21.615  -4.381  -9.091  1.00  0.00    -0.065 N 
HETATM   16  C   UNL     1     -22.072  -3.225  -8.238  1.00  0.00     0.272 C 
HETATM   17  C   UNL     1     -20.530  -3.947 -10.071  1.00  0.00     0.272 C 
BRANCH  15  18
HETATM   18  C   UNL     1     -22.859  -4.861  -9.961  1.00  0.00     0.349 C 
BRANCH  18  19
HETATM   19  C   UNL     1     -23.862  -3.766 -10.406  1.00  0.00     0.199 C 
HETATM   20  O   UNL     1     -25.007  -3.871  -9.881  1.00  0.00    -0.647 OA
HETATM   21  O   UNL     1     -23.444  -3.021 -11.333  1.00  0.00    -0.647 OA
ENDBRANCH  18  19
ENDBRANCH  15  18
ENDBRANCH  14  15
ENDBRANCH  13  14
ENDBRANCH  12  13
ENDBRANCH   1  12
TORSDOF 15
BEGIN_RES ARG D 557
REMARK  4 active torsions:
REMARK  status: ('A' for Active; 'I' for Inactive)
REMARK    1  A    between atoms: CA   and  CB  
REMARK    2  A    between atoms: CB   and  CG  
REMARK    3  A    between atoms: CG   and  CD  
REMARK    4  A    between atoms: CD   and  NE  
REMARK       I    between atoms: NE   and  CZ  
REMARK       I    between atoms: CZ   and  NH1 
REMARK       I    between atoms: CZ   and  NH2 
ROOT
ATOM      1  CA  ARG D 557     -26.217   2.705 -17.014  1.00 35.49     0.159 C 
ENDROOT
BRANCH   1   2
ATOM      2  CB  ARG D 557     -26.789   1.319 -17.183  1.00 35.49     0.034 C 
BRANCH   2   3
ATOM      3  CG  ARG D 557     -25.939   0.198 -16.765  1.00 35.49     0.027 C 
BRANCH   3   4
ATOM      4  CD  ARG D 557     -26.708  -0.873 -16.092  1.00 35.49     0.116 C 
BRANCH   4   5
ATOM      5  NE  ARG D 557     -25.986  -1.448 -14.987  1.00 35.49    -0.212 N 
ATOM      6  CZ  ARG D 557     -25.939  -2.725 -14.681  1.00 35.49     0.666 C 
ATOM      7  NH1 ARG D 557     -26.587  -3.644 -15.373  1.00 35.49    -0.235 N 
ATOM      8  NH2 ARG D 557     -25.216  -3.071 -13.657  1.00 35.49    -0.235 N 
ATOM      9  HH  ARG D 557     -27.068  -3.440 -16.052  1.00 35.49     0.174 HD
ATOM     10  HH  ARG D 557     -26.518  -4.462 -15.128  1.00 35.49     0.174 HD
ATOM     11  HH  ARG D 557     -24.802  -2.457 -13.233  1.00 35.49     0.174 HD
ATOM     12  HH  ARG D 557     -25.158  -3.886 -13.431  1.00 35.49     0.174 HD
ATOM     13  HE  ARG D 557     -25.598  -0.920 -14.445  1.00 35.49     0.178 HD
ENDBRANCH   4   5
ENDBRANCH   3   4
ENDBRANCH   2   3
ENDBRANCH   1   2
END_RES ARG D 557
BEGIN_RES GLU D 570
REMARK  3 active torsions:
REMARK  status: ('A' for Active; 'I' for Inactive)
REMARK    5  A    between atoms: CA   and  CB  
REMARK    6  A    between atoms: CB   and  CG  
REMARK    7  A    between atoms: CG   and  CD  
ROOT
ATOM     14  CA  GLU D 570     -18.033  -6.348 -13.375  1.00 32.92     0.160 C 
ENDROOT
BRANCH  14  15
ATOM     15  CB  GLU D 570     -19.500  -6.345 -13.794  1.00 32.92     0.043 C 
BRANCH  15  16
ATOM     16  CG  GLU D 570     -20.077  -7.627 -14.276  1.00 32.92     0.100 C 
BRANCH  16  17
ATOM     17  CD  GLU D 570     -21.134  -7.434 -15.338  1.00 32.92     0.185 C 
ATOM     18  OE1 GLU D 570     -21.968  -6.518 -15.203  1.00 32.92    -0.647 OA
ATOM     19  OE2 GLU D 570     -21.139  -8.219 -16.307  1.00 32.92    -0.647 OA
ENDBRANCH  16  17
ENDBRANCH  15  16
ENDBRANCH  14  15
END_RES GLU D 570
ENDMDL
