MODEL 1
REMARK VINA RESULT:      -8.9      0.000      0.000
REMARK  17 active torsions:
REMARK  status: ('A' for Active; 'I' for Inactive)
REMARK    1  A    between atoms: C_2  and  C_3 
REMARK    2  A    between atoms: C_3  and  C_4 
REMARK    3  A    between atoms: C_4  and  N_5 
REMARK       I    between atoms: N_5  and  C_6 
REMARK    4  A    between atoms: C_6  and  C_8 
REMARK    5  A    between atoms: C_8  and  C_10 
REMARK    6  A    between atoms: C_10  and  C_11 
REMARK    7  A    between atoms: C_11  and  C_12 
REMARK    8  A    between atoms: C_11  and  O_34 
REMARK    9  A    between atoms: C_12  and  C_13 
REMARK   10  A    between atoms: C_12  and  N_17 
REMARK   11  A    between atoms: C_13  and  C_14 
REMARK       I    between atoms: N_17  and  C_18 
REMARK   12  A    between atoms: C_18  and  C_20 
REMARK   13  A    between atoms: C_20  and  N_22 
REMARK       I    between atoms: N_22  and  C_23 
REMARK   14  A    between atoms: C_23  and  C_25 
REMARK   15  A    between atoms: C_25  and  C_26 
REMARK   16  A    between atoms: C_25  and  N_30 
REMARK   17  A    between atoms: C_26  and  C_27 
REMARK       I    between atoms: N_30  and  C_31 
ROOT
HETATM    1  N   UNL     1     -24.402  -3.497 -11.936  1.00  0.00    -0.352 N 
HETATM    2  C   UNL     1     -24.301  -2.911 -13.189  1.00  0.00     0.240 C 
HETATM    3  O   UNL     1     -23.286  -2.327 -13.562  1.00  0.00    -0.271 OA
HETATM    4  H   UNL     1     -25.251  -4.022 -11.741  1.00  0.00     0.163 HD
ENDROOT
BRANCH   1   5
HETATM    5  C   UNL     1     -23.315  -3.544 -10.918  1.00  0.00     0.113 C 
BRANCH   5   6
HETATM    6  C   UNL     1     -23.900  -3.734  -9.454  1.00  0.00     0.141 C 
BRANCH   6   7
HETATM    7  C   UNL     1     -23.272  -4.810  -8.542  1.00  0.00     0.047 C 
BRANCH   7   8
HETATM    8  C   UNL     1     -22.520  -4.356  -7.285  1.00  0.00     0.076 C 
HETATM    9  C   UNL     1     -21.594  -3.172  -7.618  1.00  0.00     0.020 C 
BRANCH   8  10
HETATM   10  C   UNL     1     -21.697  -5.482  -6.669  1.00  0.00     0.221 C 
HETATM   11  N   UNL     1     -21.680  -5.493  -5.292  1.00  0.00    -0.361 N 
HETATM   12  H   UNL     1     -22.050  -4.701  -4.789  1.00  0.00     0.162 HD
HETATM   13  O   UNL     1     -21.111  -6.306  -7.362  1.00  0.00    -0.273 OA
BRANCH  11  14
HETATM   14  C   UNL     1     -21.004  -6.523  -4.532  1.00  0.00     0.122 C 
BRANCH  14  15
HETATM   15  C   UNL     1     -21.904  -7.091  -3.435  1.00  0.00     0.019 C 
BRANCH  15  16
HETATM   16  C   UNL     1     -22.032  -6.153  -2.230  1.00  0.00    -0.003 C 
HETATM   17  C   UNL     1     -22.259  -6.930  -0.941  1.00  0.00     0.005 C 
ENDBRANCH  15  16
ENDBRANCH  14  15
ENDBRANCH  11  14
ENDBRANCH   8  10
ENDBRANCH   7   8
ENDBRANCH   6   7
BRANCH   6  18
HETATM   18  O   UNL     1     -25.293  -4.070  -9.450  1.00  0.00    -0.393 OA
HETATM   19  H   UNL     1     -25.531  -4.413  -8.569  1.00  0.00     0.210 HD
ENDBRANCH   6  18
ENDBRANCH   5   6
BRANCH   5  20
HETATM   20  C   UNL     1     -22.213  -4.581 -11.258  1.00  0.00     0.031 C 
BRANCH  20  21
HETATM   21  C   UNL     1     -20.739  -4.116 -11.357  1.00  0.00    -0.021 C 
HETATM   22  C   UNL     1     -20.528  -2.616 -11.152  1.00  0.00     0.009 C 
HETATM   23  C   UNL     1     -19.922  -4.876 -10.299  1.00  0.00     0.009 C 
ENDBRANCH  20  21
ENDBRANCH   5  20
ENDBRANCH   1   5
BRANCH   2  24
HETATM   24  C   UNL     1     -25.566  -3.026 -14.094  1.00  0.00     0.172 C 
HETATM   25  C   UNL     1     -25.752  -1.750 -14.914  1.00  0.00     0.042 C 
BRANCH  24  26
HETATM   26  N   UNL     1     -25.505  -4.170 -15.009  1.00  0.00    -0.346 N 
HETATM   27  C   UNL     1     -26.635  -4.855 -15.411  1.00  0.00     0.241 C 
HETATM   28  O   UNL     1     -27.746  -4.527 -15.023  1.00  0.00    -0.271 OA
HETATM   29  H   UNL     1     -24.595  -4.483 -15.328  1.00  0.00     0.163 HD
BRANCH  27  30
HETATM   30  C   UNL     1     -26.407  -5.964 -16.473  1.00  0.00     0.177 C 
BRANCH  30  31
HETATM   31  C   UNL     1     -25.356  -6.948 -15.919  1.00  0.00     0.038 C 
BRANCH  31  32
HETATM   32  C   UNL     1     -24.011  -7.027 -16.667  1.00  0.00    -0.020 C 
HETATM   33  C   UNL     1     -23.124  -8.191 -16.218  1.00  0.00     0.009 C 
HETATM   34  C   UNL     1     -24.269  -7.148 -18.174  1.00  0.00     0.009 C 
ENDBRANCH  31  32
ENDBRANCH  30  31
BRANCH  30  35
HETATM   35  N   UNL     1     -27.694  -6.626 -16.728  1.00  0.00    -0.348 N 
HETATM   36  C   UNL     1     -28.540  -6.232 -17.736  1.00  0.00     0.214 C 
HETATM   37  O   UNL     1     -28.339  -5.260 -18.452  1.00  0.00    -0.274 OA
HETATM   38  C   UNL     1     -29.758  -7.103 -17.923  1.00  0.00     0.117 C 
HETATM   39  H   UNL     1     -27.879  -7.488 -16.229  1.00  0.00     0.163 HD
ENDBRANCH  30  35
ENDBRANCH  27  30
ENDBRANCH  24  26
ENDBRANCH   2  24
TORSDOF 17
BEGIN_RES ARG D 557
REMARK  4 active torsions:
REMARK  status: ('A' for Active; 'I' for Inactive)
REMARK    1  A    between atoms: CA   and  CB  
REMARK    2  A    between atoms: CB   and  CG  
REMARK    3  A    between atoms: CG   and  CD  
REMARK    4  A    between atoms: CD   and  NE  
REMARK       I    between atoms: NE   and  CZ  
REMARK       I    between atoms: CZ   and  NH1 
REMARK       I    between atoms: CZ   and  NH2 
ROOT
ATOM      1  CA  ARG D 557     -26.217   2.705 -17.014  1.00 35.49     0.159 C 
ENDROOT
BRANCH   1   2
ATOM      2  CB  ARG D 557     -26.789   1.319 -17.183  1.00 35.49     0.034 C 
BRANCH   2   3
ATOM      3  CG  ARG D 557     -28.251   1.213 -17.267  1.00 35.49     0.027 C 
BRANCH   3   4
ATOM      4  CD  ARG D 557     -28.801   0.228 -16.309  1.00 35.49     0.116 C 
BRANCH   4   5
ATOM      5  NE  ARG D 557     -29.615  -0.765 -16.959  1.00 35.49    -0.212 N 
ATOM      6  CZ  ARG D 557     -29.256  -2.003 -17.218  1.00 35.49     0.666 C 
ATOM      7  NH1 ARG D 557     -28.062  -2.474 -16.908  1.00 35.49    -0.235 N 
ATOM      8  NH2 ARG D 557     -30.131  -2.773 -17.796  1.00 35.49    -0.235 N 
ATOM      9  HH  ARG D 557     -27.471  -1.985 -16.526  1.00 35.49     0.174 HD
ATOM     10  HH  ARG D 557     -27.885  -3.291 -17.099  1.00 35.49     0.174 HD
ATOM     11  HH  ARG D 557     -30.896  -2.444 -17.977  1.00 35.49     0.174 HD
ATOM     12  HH  ARG D 557     -29.937  -3.579 -17.975  1.00 35.49     0.174 HD
ATOM     13  HE  ARG D 557     -30.374  -0.526 -17.258  1.00 35.49     0.178 HD
ENDBRANCH   4   5
ENDBRANCH   3   4
ENDBRANCH   2   3
ENDBRANCH   1   2
END_RES ARG D 557
BEGIN_RES GLU D 570
REMARK  3 active torsions:
REMARK  status: ('A' for Active; 'I' for Inactive)
REMARK    5  A    between atoms: CA   and  CB  
REMARK    6  A    between atoms: CB   and  CG  
REMARK    7  A    between atoms: CG   and  CD  
ROOT
ATOM     14  CA  GLU D 570     -18.033  -6.348 -13.375  1.00 32.92     0.160 C 
ENDROOT
BRANCH  14  15
ATOM     15  CB  GLU D 570     -19.500  -6.345 -13.794  1.00 32.92     0.043 C 
BRANCH  15  16
ATOM     16  CG  GLU D 570     -19.796  -6.314 -15.250  1.00 32.92     0.100 C 
BRANCH  16  17
ATOM     17  CD  GLU D 570     -20.955  -5.408 -15.596  1.00 32.92     0.185 C 
ATOM     18  OE1 GLU D 570     -21.672  -4.966 -14.679  1.00 32.92    -0.647 OA
ATOM     19  OE2 GLU D 570     -21.157  -5.152 -16.799  1.00 32.92    -0.647 OA
ENDBRANCH  16  17
ENDBRANCH  15  16
ENDBRANCH  14  15
END_RES GLU D 570
ENDMDL
MODEL 2
REMARK VINA RESULT:      -7.8      1.826      3.063
REMARK  17 active torsions:
REMARK  status: ('A' for Active; 'I' for Inactive)
REMARK    1  A    between atoms: C_2  and  C_3 
REMARK    2  A    between atoms: C_3  and  C_4 
REMARK    3  A    between atoms: C_4  and  N_5 
REMARK       I    between atoms: N_5  and  C_6 
REMARK    4  A    between atoms: C_6  and  C_8 
REMARK    5  A    between atoms: C_8  and  C_10 
REMARK    6  A    between atoms: C_10  and  C_11 
REMARK    7  A    between atoms: C_11  and  C_12 
REMARK    8  A    between atoms: C_11  and  O_34 
REMARK    9  A    between atoms: C_12  and  C_13 
REMARK   10  A    between atoms: C_12  and  N_17 
REMARK   11  A    between atoms: C_13  and  C_14 
REMARK       I    between atoms: N_17  and  C_18 
REMARK   12  A    between atoms: C_18  and  C_20 
REMARK   13  A    between atoms: C_20  and  N_22 
REMARK       I    between atoms: N_22  and  C_23 
REMARK   14  A    between atoms: C_23  and  C_25 
REMARK   15  A    between atoms: C_25  and  C_26 
REMARK   16  A    between atoms: C_25  and  N_30 
REMARK   17  A    between atoms: C_26  and  C_27 
REMARK       I    between atoms: N_30  and  C_31 
ROOT
HETATM    1  N   UNL     1     -22.482  -4.160 -12.346  1.00  0.00    -0.352 N 
HETATM    2  C   UNL     1     -23.300  -5.079 -12.987  1.00  0.00     0.240 C 
HETATM    3  O   UNL     1     -23.783  -6.048 -12.405  1.00  0.00    -0.271 OA
HETATM    4  H   UNL     1     -22.188  -3.350 -12.886  1.00  0.00     0.163 HD
ENDROOT
BRANCH   1   5
HETATM    5  C   UNL     1     -22.125  -4.188 -10.899  1.00  0.00     0.113 C 
BRANCH   5   6
HETATM    6  C   UNL     1     -20.557  -4.065 -10.687  1.00  0.00     0.141 C 
BRANCH   6   7
HETATM    7  C   UNL     1     -19.999  -4.132  -9.249  1.00  0.00     0.047 C 
BRANCH   7   8
HETATM    8  C   UNL     1     -20.928  -4.604  -8.125  1.00  0.00     0.076 C 
HETATM    9  C   UNL     1     -21.205  -3.449  -7.144  1.00  0.00     0.020 C 
BRANCH   8  10
HETATM   10  C   UNL     1     -20.351  -5.788  -7.359  1.00  0.00     0.221 C 
HETATM   11  N   UNL     1     -21.114  -6.211  -6.294  1.00  0.00    -0.361 N 
HETATM   12  H   UNL     1     -21.887  -5.640  -5.986  1.00  0.00     0.162 HD
HETATM   13  O   UNL     1     -19.293  -6.314  -7.687  1.00  0.00    -0.273 OA
BRANCH  11  14
HETATM   14  C   UNL     1     -20.757  -7.361  -5.490  1.00  0.00     0.122 C 
BRANCH  14  15
HETATM   15  C   UNL     1     -21.790  -7.621  -4.395  1.00  0.00     0.019 C 
BRANCH  15  16
HETATM   16  C   UNL     1     -21.243  -7.356  -2.988  1.00  0.00    -0.003 C 
HETATM   17  C   UNL     1     -21.953  -6.185  -2.325  1.00  0.00     0.005 C 
ENDBRANCH  15  16
ENDBRANCH  14  15
ENDBRANCH  11  14
ENDBRANCH   8  10
ENDBRANCH   7   8
ENDBRANCH   6   7
BRANCH   6  18
HETATM   18  O   UNL     1     -20.021  -2.836 -11.193  1.00  0.00    -0.393 OA
HETATM   19  H   UNL     1     -20.228  -2.769 -12.143  1.00  0.00     0.210 HD
ENDBRANCH   6  18
ENDBRANCH   5   6
BRANCH   5  20
HETATM   20  C   UNL     1     -22.922  -3.156 -10.061  1.00  0.00     0.031 C 
BRANCH  20  21
HETATM   21  C   UNL     1     -24.186  -3.617  -9.293  1.00  0.00    -0.021 C 
HETATM   22  C   UNL     1     -25.496  -3.016  -9.800  1.00  0.00     0.009 C 
HETATM   23  C   UNL     1     -24.277  -5.149  -9.390  1.00  0.00     0.009 C 
ENDBRANCH  20  21
ENDBRANCH   5  20
ENDBRANCH   1   5
BRANCH   2  24
HETATM   24  C   UNL     1     -23.558  -4.813 -14.502  1.00  0.00     0.172 C 
HETATM   25  C   UNL     1     -22.234  -4.610 -15.240  1.00  0.00     0.042 C 
BRANCH  24  26
HETATM   26  N   UNL     1     -24.295  -5.902 -15.150  1.00  0.00    -0.346 N 
HETATM   27  C   UNL     1     -25.578  -5.738 -15.635  1.00  0.00     0.241 C 
HETATM   28  O   UNL     1     -26.154  -4.665 -15.551  1.00  0.00    -0.271 OA
HETATM   29  H   UNL     1     -23.854  -6.812 -15.212  1.00  0.00     0.163 HD
BRANCH  27  30
HETATM   30  C   UNL     1     -26.170  -6.955 -16.396  1.00  0.00     0.177 C 
BRANCH  30  31
HETATM   31  C   UNL     1     -27.598  -7.200 -15.869  1.00  0.00     0.038 C 
BRANCH  31  32
HETATM   32  C   UNL     1     -28.752  -6.526 -16.637  1.00  0.00    -0.020 C 
HETATM   33  C   UNL     1     -29.656  -7.511 -17.381  1.00  0.00     0.009 C 
HETATM   34  C   UNL     1     -29.605  -5.704 -15.663  1.00  0.00     0.009 C 
ENDBRANCH  31  32
ENDBRANCH  30  31
BRANCH  30  35
HETATM   35  N   UNL     1     -26.164  -6.645 -17.832  1.00  0.00    -0.348 N 
HETATM   36  C   UNL     1     -25.039  -6.771 -18.610  1.00  0.00     0.214 C 
HETATM   37  O   UNL     1     -23.937  -7.074 -18.170  1.00  0.00    -0.274 OA
HETATM   38  C   UNL     1     -25.251  -6.524 -20.084  1.00  0.00     0.117 C 
HETATM   39  H   UNL     1     -27.059  -6.474 -18.274  1.00  0.00     0.163 HD
ENDBRANCH  30  35
ENDBRANCH  27  30
ENDBRANCH  24  26
ENDBRANCH   2  24
TORSDOF 17
BEGIN_RES ARG D 557
REMARK  4 active torsions:
REMARK  status: ('A' for Active; 'I' for Inactive)
REMARK    1  A    between atoms: CA   and  CB  
REMARK    2  A    between atoms: CB   and  CG  
REMARK    3  A    between atoms: CG   and  CD  
REMARK    4  A    between atoms: CD   and  NE  
REMARK       I    between atoms: NE   and  CZ  
REMARK       I    between atoms: CZ   and  NH1 
REMARK       I    between atoms: CZ   and  NH2 
ROOT
ATOM      1  CA  ARG D 557     -26.217   2.705 -17.014  1.00 35.49     0.159 C 
ENDROOT
BRANCH   1   2
ATOM      2  CB  ARG D 557     -26.789   1.319 -17.183  1.00 35.49     0.034 C 
BRANCH   2   3
ATOM      3  CG  ARG D 557     -28.235   1.225 -17.418  1.00 35.49     0.027 C 
BRANCH   3   4
ATOM      4  CD  ARG D 557     -28.897   0.280 -16.491  1.00 35.49     0.116 C 
BRANCH   4   5
ATOM      5  NE  ARG D 557     -29.320  -0.925 -17.155  1.00 35.49    -0.212 N 
ATOM      6  CZ  ARG D 557     -28.720  -2.092 -17.084  1.00 35.49     0.666 C 
ATOM      7  NH1 ARG D 557     -27.619  -2.282 -16.381  1.00 35.49    -0.235 N 
ATOM      8  NH2 ARG D 557     -29.256  -3.083 -17.736  1.00 35.49    -0.235 N 
ATOM      9  HH  ARG D 557     -27.251  -1.645 -15.942  1.00 35.49     0.174 HD
ATOM     10  HH  ARG D 557     -27.274  -3.066 -16.369  1.00 35.49     0.174 HD
ATOM     11  HH  ARG D 557     -29.971  -2.933 -18.176  1.00 35.49     0.174 HD
ATOM     12  HH  ARG D 557     -28.899  -3.852 -17.711  1.00 35.49     0.174 HD
ATOM     13  HE  ARG D 557     -29.980  -0.876 -17.689  1.00 35.49     0.178 HD
ENDBRANCH   4   5
ENDBRANCH   3   4
ENDBRANCH   2   3
ENDBRANCH   1   2
END_RES ARG D 557
BEGIN_RES GLU D 570
REMARK  3 active torsions:
REMARK  status: ('A' for Active; 'I' for Inactive)
REMARK    5  A    between atoms: CA   and  CB  
REMARK    6  A    between atoms: CB   and  CG  
REMARK    7  A    between atoms: CG   and  CD  
ROOT
ATOM     14  CA  GLU D 570     -18.033  -6.348 -13.375  1.00 32.92     0.160 C 
ENDROOT
BRANCH  14  15
ATOM     15  CB  GLU D 570     -19.500  -6.345 -13.794  1.00 32.92     0.043 C 
BRANCH  15  16
ATOM     16  CG  GLU D 570     -20.114  -7.651 -14.146  1.00 32.92     0.100 C 
BRANCH  16  17
ATOM     17  CD  GLU D 570     -20.582  -7.715 -15.581  1.00 32.92     0.185 C 
ATOM     18  OE1 GLU D 570     -21.323  -8.652 -15.936  1.00 32.92    -0.647 OA
ATOM     19  OE2 GLU D 570     -20.191  -6.826 -16.364  1.00 32.92    -0.647 OA
ENDBRANCH  16  17
ENDBRANCH  15  16
ENDBRANCH  14  15
END_RES GLU D 570
ENDMDL
MODEL 3
REMARK VINA RESULT:      -7.8      4.667     10.087
REMARK  17 active torsions:
REMARK  status: ('A' for Active; 'I' for Inactive)
REMARK    1  A    between atoms: C_2  and  C_3 
REMARK    2  A    between atoms: C_3  and  C_4 
REMARK    3  A    between atoms: C_4  and  N_5 
REMARK       I    between atoms: N_5  and  C_6 
REMARK    4  A    between atoms: C_6  and  C_8 
REMARK    5  A    between atoms: C_8  and  C_10 
REMARK    6  A    between atoms: C_10  and  C_11 
REMARK    7  A    between atoms: C_11  and  C_12 
REMARK    8  A    between atoms: C_11  and  O_34 
REMARK    9  A    between atoms: C_12  and  C_13 
REMARK   10  A    between atoms: C_12  and  N_17 
REMARK   11  A    between atoms: C_13  and  C_14 
REMARK       I    between atoms: N_17  and  C_18 
REMARK   12  A    between atoms: C_18  and  C_20 
REMARK   13  A    between atoms: C_20  and  N_22 
REMARK       I    between atoms: N_22  and  C_23 
REMARK   14  A    between atoms: C_23  and  C_25 
REMARK   15  A    between atoms: C_25  and  C_26 
REMARK   16  A    between atoms: C_25  and  N_30 
REMARK   17  A    between atoms: C_26  and  C_27 
REMARK       I    between atoms: N_30  and  C_31 
ROOT
HETATM    1  N   UNL     1     -30.569  -5.176 -16.634  1.00  0.00    -0.352 N 
HETATM    2  C   UNL     1     -31.513  -4.232 -17.012  1.00  0.00     0.240 C 
HETATM    3  O   UNL     1     -31.202  -3.166 -17.540  1.00  0.00    -0.271 OA
HETATM    4  H   UNL     1     -30.922  -6.060 -16.273  1.00  0.00     0.163 HD
ENDROOT
BRANCH   1   5
HETATM    5  C   UNL     1     -29.100  -5.059 -16.852  1.00  0.00     0.113 C 
BRANCH   5   6
HETATM    6  C   UNL     1     -28.285  -5.573 -15.589  1.00  0.00     0.141 C 
BRANCH   6   7
HETATM    7  C   UNL     1     -27.330  -6.772 -15.767  1.00  0.00     0.047 C 
BRANCH   7   8
HETATM    8  C   UNL     1     -25.836  -6.566 -15.490  1.00  0.00     0.076 C 
HETATM    9  C   UNL     1     -25.521  -5.063 -15.365  1.00  0.00     0.020 C 
BRANCH   8  10
HETATM   10  C   UNL     1     -24.958  -7.176 -16.577  1.00  0.00     0.221 C 
HETATM   11  N   UNL     1     -25.244  -6.747 -17.853  1.00  0.00    -0.361 N 
HETATM   12  H   UNL     1     -26.085  -6.213 -18.016  1.00  0.00     0.162 HD
HETATM   13  O   UNL     1     -24.068  -7.976 -16.312  1.00  0.00    -0.273 OA
BRANCH  11  14
HETATM   14  C   UNL     1     -24.474  -7.169 -19.005  1.00  0.00     0.122 C 
BRANCH  14  15
HETATM   15  C   UNL     1     -25.173  -6.797 -20.312  1.00  0.00     0.019 C 
BRANCH  15  16
HETATM   16  C   UNL     1     -25.206  -7.953 -21.317  1.00  0.00    -0.003 C 
HETATM   17  C   UNL     1     -23.999  -7.921 -22.243  1.00  0.00     0.005 C 
ENDBRANCH  15  16
ENDBRANCH  14  15
ENDBRANCH  11  14
ENDBRANCH   8  10
ENDBRANCH   7   8
ENDBRANCH   6   7
BRANCH   6  18
HETATM   18  O   UNL     1     -29.132  -5.982 -14.509  1.00  0.00    -0.393 OA
HETATM   19  H   UNL     1     -28.746  -6.773 -14.088  1.00  0.00     0.210 HD
ENDBRANCH   6  18
ENDBRANCH   5   6
BRANCH   5  20
HETATM   20  C   UNL     1     -28.631  -5.720 -18.173  1.00  0.00     0.031 C 
BRANCH  20  21
HETATM   21  C   UNL     1     -29.453  -6.889 -18.769  1.00  0.00    -0.021 C 
HETATM   22  C   UNL     1     -28.690  -7.764 -19.764  1.00  0.00     0.009 C 
HETATM   23  C   UNL     1     -29.942  -7.774 -17.610  1.00  0.00     0.009 C 
ENDBRANCH  20  21
ENDBRANCH   5  20
ENDBRANCH   1   5
BRANCH   2  24
HETATM   24  C   UNL     1     -32.998  -4.602 -16.712  1.00  0.00     0.172 C 
HETATM   25  C   UNL     1     -33.228  -6.098 -16.926  1.00  0.00     0.042 C 
BRANCH  24  26
HETATM   26  N   UNL     1     -33.402  -4.255 -15.346  1.00  0.00    -0.346 N 
HETATM   27  C   UNL     1     -34.349  -3.286 -15.080  1.00  0.00     0.241 C 
HETATM   28  O   UNL     1     -34.903  -2.677 -15.983  1.00  0.00    -0.271 OA
HETATM   29  H   UNL     1     -32.942  -4.724 -14.574  1.00  0.00     0.163 HD
BRANCH  27  30
HETATM   30  C   UNL     1     -34.746  -3.124 -13.588  1.00  0.00     0.177 C 
BRANCH  30  31
HETATM   31  C   UNL     1     -33.854  -4.062 -12.751  1.00  0.00     0.038 C 
BRANCH  31  32
HETATM   32  C   UNL     1     -34.568  -5.036 -11.794  1.00  0.00    -0.020 C 
HETATM   33  C   UNL     1     -33.613  -5.899 -10.966  1.00  0.00     0.009 C 
HETATM   34  C   UNL     1     -35.477  -4.247 -10.844  1.00  0.00     0.009 C 
ENDBRANCH  31  32
ENDBRANCH  30  31
BRANCH  30  35
HETATM   35  N   UNL     1     -34.559  -1.716 -13.214  1.00  0.00    -0.348 N 
HETATM   36  C   UNL     1     -35.596  -0.815 -13.186  1.00  0.00     0.214 C 
HETATM   37  O   UNL     1     -36.738  -1.080 -13.540  1.00  0.00    -0.274 OA
HETATM   38  C   UNL     1     -35.238   0.555 -12.663  1.00  0.00     0.117 C 
HETATM   39  H   UNL     1     -33.661  -1.453 -12.828  1.00  0.00     0.163 HD
ENDBRANCH  30  35
ENDBRANCH  27  30
ENDBRANCH  24  26
ENDBRANCH   2  24
TORSDOF 17
BEGIN_RES ARG D 557
REMARK  4 active torsions:
REMARK  status: ('A' for Active; 'I' for Inactive)
REMARK    1  A    between atoms: CA   and  CB  
REMARK    2  A    between atoms: CB   and  CG  
REMARK    3  A    between atoms: CG   and  CD  
REMARK    4  A    between atoms: CD   and  NE  
REMARK       I    between atoms: NE   and  CZ  
REMARK       I    between atoms: CZ   and  NH1 
REMARK       I    between atoms: CZ   and  NH2 
ROOT
ATOM      1  CA  ARG D 557     -26.217   2.705 -17.014  1.00 35.49     0.159 C 
ENDROOT
BRANCH   1   2
ATOM      2  CB  ARG D 557     -26.789   1.319 -17.183  1.00 35.49     0.034 C 
BRANCH   2   3
ATOM      3  CG  ARG D 557     -25.839   0.201 -17.132  1.00 35.49     0.027 C 
BRANCH   3   4
ATOM      4  CD  ARG D 557     -24.751   0.430 -16.154  1.00 35.49     0.116 C 
BRANCH   4   5
ATOM      5  NE  ARG D 557     -24.859  -0.438 -15.010  1.00 35.49    -0.212 N 
ATOM      6  CZ  ARG D 557     -24.018  -1.397 -14.692  1.00 35.49     0.666 C 
ATOM      7  NH1 ARG D 557     -22.957  -1.681 -15.424  1.00 35.49    -0.235 N 
ATOM      8  NH2 ARG D 557     -24.261  -2.071 -13.606  1.00 35.49    -0.235 N 
ATOM      9  HH  ARG D 557     -22.777  -1.249 -16.141  1.00 35.49     0.174 HD
ATOM     10  HH  ARG D 557     -22.443  -2.316 -15.165  1.00 35.49     0.174 HD
ATOM     11  HH  ARG D 557     -24.949  -1.860 -13.149  1.00 35.49     0.174 HD
ATOM     12  HH  ARG D 557     -23.739  -2.695 -13.366  1.00 35.49     0.174 HD
ATOM     13  HE  ARG D 557     -25.552  -0.372 -14.523  1.00 35.49     0.178 HD
ENDBRANCH   4   5
ENDBRANCH   3   4
ENDBRANCH   2   3
ENDBRANCH   1   2
END_RES ARG D 557
BEGIN_RES GLU D 570
REMARK  3 active torsions:
REMARK  status: ('A' for Active; 'I' for Inactive)
REMARK    5  A    between atoms: CA   and  CB  
REMARK    6  A    between atoms: CB   and  CG  
REMARK    7  A    between atoms: CG   and  CD  
ROOT
ATOM     14  CA  GLU D 570     -18.033  -6.348 -13.375  1.00 32.92     0.160 C 
ENDROOT
BRANCH  14  15
ATOM     15  CB  GLU D 570     -19.500  -6.345 -13.794  1.00 32.92     0.043 C 
BRANCH  15  16
ATOM     16  CG  GLU D 570     -20.460  -5.623 -12.920  1.00 32.92     0.100 C 
BRANCH  16  17
ATOM     17  CD  GLU D 570     -21.743  -5.257 -13.629  1.00 32.92     0.185 C 
ATOM     18  OE1 GLU D 570     -22.087  -4.061 -13.680  1.00 32.92    -0.647 OA
ATOM     19  OE2 GLU D 570     -22.420  -6.180 -14.125  1.00 32.92    -0.647 OA
ENDBRANCH  16  17
ENDBRANCH  15  16
ENDBRANCH  14  15
END_RES GLU D 570
ENDMDL
MODEL 4
REMARK VINA RESULT:      -7.7      4.487     11.846
REMARK  17 active torsions:
REMARK  status: ('A' for Active; 'I' for Inactive)
REMARK    1  A    between atoms: C_2  and  C_3 
REMARK    2  A    between atoms: C_3  and  C_4 
REMARK    3  A    between atoms: C_4  and  N_5 
REMARK       I    between atoms: N_5  and  C_6 
REMARK    4  A    between atoms: C_6  and  C_8 
REMARK    5  A    between atoms: C_8  and  C_10 
REMARK    6  A    between atoms: C_10  and  C_11 
REMARK    7  A    between atoms: C_11  and  C_12 
REMARK    8  A    between atoms: C_11  and  O_34 
REMARK    9  A    between atoms: C_12  and  C_13 
REMARK   10  A    between atoms: C_12  and  N_17 
REMARK   11  A    between atoms: C_13  and  C_14 
REMARK       I    between atoms: N_17  and  C_18 
REMARK   12  A    between atoms: C_18  and  C_20 
REMARK   13  A    between atoms: C_20  and  N_22 
REMARK       I    between atoms: N_22  and  C_23 
REMARK   14  A    between atoms: C_23  and  C_25 
REMARK   15  A    between atoms: C_25  and  C_26 
REMARK   16  A    between atoms: C_25  and  N_30 
REMARK   17  A    between atoms: C_26  and  C_27 
REMARK       I    between atoms: N_30  and  C_31 
ROOT
HETATM    1  N   UNL     1     -19.604 -10.646  -3.550  1.00  0.00    -0.352 N 
HETATM    2  C   UNL     1     -20.116 -11.816  -4.092  1.00  0.00     0.240 C 
HETATM    3  O   UNL     1     -19.625 -12.352  -5.083  1.00  0.00    -0.271 OA
HETATM    4  H   UNL     1     -20.027 -10.314  -2.687  1.00  0.00     0.163 HD
ENDROOT
BRANCH   1   5
HETATM    5  C   UNL     1     -18.398  -9.925  -4.046  1.00  0.00     0.113 C 
BRANCH   5   6
HETATM    6  C   UNL     1     -18.792  -8.764  -5.056  1.00  0.00     0.141 C 
BRANCH   6   7
HETATM    7  C   UNL     1     -20.277  -8.358  -5.170  1.00  0.00     0.047 C 
BRANCH   7   8
HETATM    8  C   UNL     1     -20.649  -6.884  -4.972  1.00  0.00     0.076 C 
HETATM    9  C   UNL     1     -22.094  -6.765  -4.453  1.00  0.00     0.020 C 
BRANCH   8  10
HETATM   10  C   UNL     1     -20.509  -6.076  -6.258  1.00  0.00     0.221 C 
HETATM   11  N   UNL     1     -21.182  -4.875  -6.258  1.00  0.00    -0.361 N 
HETATM   12  H   UNL     1     -21.838  -4.679  -5.517  1.00  0.00     0.162 HD
HETATM   13  O   UNL     1     -19.837  -6.479  -7.202  1.00  0.00    -0.273 OA
BRANCH  11  14
HETATM   14  C   UNL     1     -21.113  -3.947  -7.367  1.00  0.00     0.122 C 
BRANCH  14  15
HETATM   15  C   UNL     1     -22.344  -4.054  -8.265  1.00  0.00     0.019 C 
BRANCH  15  16
HETATM   16  C   UNL     1     -21.987  -4.295  -9.736  1.00  0.00    -0.003 C 
HETATM   17  C   UNL     1     -20.480  -4.312  -9.948  1.00  0.00     0.005 C 
ENDBRANCH  15  16
ENDBRANCH  14  15
ENDBRANCH  11  14
ENDBRANCH   8  10
ENDBRANCH   7   8
ENDBRANCH   6   7
BRANCH   6  18
HETATM   18  O   UNL     1     -18.425  -9.057  -6.410  1.00  0.00    -0.393 OA
HETATM   19  H   UNL     1     -18.961  -8.503  -7.008  1.00  0.00     0.210 HD
ENDBRANCH   6  18
ENDBRANCH   5   6
BRANCH   5  20
HETATM   20  C   UNL     1     -17.477  -9.430  -2.901  1.00  0.00     0.031 C 
BRANCH  20  21
HETATM   21  C   UNL     1     -16.011  -9.927  -2.840  1.00  0.00    -0.021 C 
HETATM   22  C   UNL     1     -15.759 -11.050  -1.834  1.00  0.00     0.009 C 
HETATM   23  C   UNL     1     -15.610 -10.421  -4.240  1.00  0.00     0.009 C 
ENDBRANCH  20  21
ENDBRANCH   5  20
ENDBRANCH   1   5
BRANCH   2  24
HETATM   24  C   UNL     1     -21.368 -12.403  -3.370  1.00  0.00     0.172 C 
HETATM   25  C   UNL     1     -21.294 -13.930  -3.333  1.00  0.00     0.042 C 
BRANCH  24  26
HETATM   26  N   UNL     1     -21.516 -11.906  -1.999  1.00  0.00    -0.346 N 
HETATM   27  C   UNL     1     -22.607 -11.160  -1.599  1.00  0.00     0.241 C 
HETATM   28  O   UNL     1     -23.508 -10.888  -2.377  1.00  0.00    -0.271 OA
HETATM   29  H   UNL     1     -20.772 -12.093  -1.336  1.00  0.00     0.163 HD
BRANCH  27  30
HETATM   30  C   UNL     1     -22.666 -10.813  -0.087  1.00  0.00     0.177 C 
BRANCH  30  31
HETATM   31  C   UNL     1     -23.443  -9.490   0.071  1.00  0.00     0.038 C 
BRANCH  31  32
HETATM   32  C   UNL     1     -22.635  -8.253   0.508  1.00  0.00    -0.020 C 
HETATM   33  C   UNL     1     -21.291  -8.592   1.157  1.00  0.00     0.009 C 
HETATM   34  C   UNL     1     -22.389  -7.346  -0.704  1.00  0.00     0.009 C 
ENDBRANCH  31  32
ENDBRANCH  30  31
BRANCH  30  35
HETATM   35  N   UNL     1     -23.329 -11.922   0.613  1.00  0.00    -0.348 N 
HETATM   36  C   UNL     1     -22.635 -12.982   1.142  1.00  0.00     0.214 C 
HETATM   37  O   UNL     1     -21.427 -13.137   1.013  1.00  0.00    -0.274 OA
HETATM   38  C   UNL     1     -23.470 -13.964   1.927  1.00  0.00     0.117 C 
HETATM   39  H   UNL     1     -24.312 -11.812   0.829  1.00  0.00     0.163 HD
ENDBRANCH  30  35
ENDBRANCH  27  30
ENDBRANCH  24  26
ENDBRANCH   2  24
TORSDOF 17
BEGIN_RES ARG D 557
REMARK  4 active torsions:
REMARK  status: ('A' for Active; 'I' for Inactive)
REMARK    1  A    between atoms: CA   and  CB  
REMARK    2  A    between atoms: CB   and  CG  
REMARK    3  A    between atoms: CG   and  CD  
REMARK    4  A    between atoms: CD   and  NE  
REMARK       I    between atoms: NE   and  CZ  
REMARK       I    between atoms: CZ   and  NH1 
REMARK       I    between atoms: CZ   and  NH2 
ROOT
ATOM      1  CA  ARG D 557     -26.217   2.705 -17.014  1.00 35.49     0.159 C 
ENDROOT
BRANCH   1   2
ATOM      2  CB  ARG D 557     -26.789   1.319 -17.183  1.00 35.49     0.034 C 
BRANCH   2   3
ATOM      3  CG  ARG D 557     -25.865   0.195 -16.989  1.00 35.49     0.027 C 
BRANCH   3   4
ATOM      4  CD  ARG D 557     -26.289  -0.700 -15.887  1.00 35.49     0.116 C 
BRANCH   4   5
ATOM      5  NE  ARG D 557     -25.239  -0.909 -14.925  1.00 35.49    -0.212 N 
ATOM      6  CZ  ARG D 557     -24.947  -2.051 -14.343  1.00 35.49     0.666 C 
ATOM      7  NH1 ARG D 557     -25.620  -3.161 -14.582  1.00 35.49    -0.235 N 
ATOM      8  NH2 ARG D 557     -23.947  -2.062 -13.511  1.00 35.49    -0.235 N 
ATOM      9  HH  ARG D 557     -26.281  -3.177 -15.128  1.00 35.49     0.174 HD
ATOM     10  HH  ARG D 557     -25.382  -3.877 -14.175  1.00 35.49     0.174 HD
ATOM     11  HH  ARG D 557     -23.526  -1.331 -13.382  1.00 35.49     0.174 HD
ATOM     12  HH  ARG D 557     -23.726  -2.781 -13.119  1.00 35.49     0.174 HD
ATOM     13  HE  ARG D 557     -24.801  -0.231 -14.658  1.00 35.49     0.178 HD
ENDBRANCH   4   5
ENDBRANCH   3   4
ENDBRANCH   2   3
ENDBRANCH   1   2
END_RES ARG D 557
BEGIN_RES GLU D 570
REMARK  3 active torsions:
REMARK  status: ('A' for Active; 'I' for Inactive)
REMARK    5  A    between atoms: CA   and  CB  
REMARK    6  A    between atoms: CB   and  CG  
REMARK    7  A    between atoms: CG   and  CD  
ROOT
ATOM     14  CA  GLU D 570     -18.033  -6.348 -13.375  1.00 32.92     0.160 C 
ENDROOT
BRANCH  14  15
ATOM     15  CB  GLU D 570     -19.500  -6.345 -13.794  1.00 32.92     0.043 C 
BRANCH  15  16
ATOM     16  CG  GLU D 570     -19.808  -5.999 -15.206  1.00 32.92     0.100 C 
BRANCH  16  17
ATOM     17  CD  GLU D 570     -21.191  -5.416 -15.381  1.00 32.92     0.185 C 
ATOM     18  OE1 GLU D 570     -21.529  -4.987 -16.501  1.00 32.92    -0.647 OA
ATOM     19  OE2 GLU D 570     -21.939  -5.374 -14.384  1.00 32.92    -0.647 OA
ENDBRANCH  16  17
ENDBRANCH  15  16
ENDBRANCH  14  15
END_RES GLU D 570
ENDMDL
MODEL 5
REMARK VINA RESULT:      -7.6      5.747     10.401
REMARK  17 active torsions:
REMARK  status: ('A' for Active; 'I' for Inactive)
REMARK    1  A    between atoms: C_2  and  C_3 
REMARK    2  A    between atoms: C_3  and  C_4 
REMARK    3  A    between atoms: C_4  and  N_5 
REMARK       I    between atoms: N_5  and  C_6 
REMARK    4  A    between atoms: C_6  and  C_8 
REMARK    5  A    between atoms: C_8  and  C_10 
REMARK    6  A    between atoms: C_10  and  C_11 
REMARK    7  A    between atoms: C_11  and  C_12 
REMARK    8  A    between atoms: C_11  and  O_34 
REMARK    9  A    between atoms: C_12  and  C_13 
REMARK   10  A    between atoms: C_12  and  N_17 
REMARK   11  A    between atoms: C_13  and  C_14 
REMARK       I    between atoms: N_17  and  C_18 
REMARK   12  A    between atoms: C_18  and  C_20 
REMARK   13  A    between atoms: C_20  and  N_22 
REMARK       I    between atoms: N_22  and  C_23 
REMARK   14  A    between atoms: C_23  and  C_25 
REMARK   15  A    between atoms: C_25  and  C_26 
REMARK   16  A    between atoms: C_25  and  N_30 
REMARK   17  A    between atoms: C_26  and  C_27 
REMARK       I    between atoms: N_30  and  C_31 
ROOT
HETATM    1  N   UNL     1     -31.798  -5.198 -15.853  1.00  0.00    -0.352 N 
HETATM    2  C   UNL     1     -32.720  -4.293 -16.358  1.00  0.00     0.240 C 
HETATM    3  O   UNL     1     -32.500  -3.621 -17.364  1.00  0.00    -0.271 OA
HETATM    4  H   UNL     1     -32.095  -5.763 -15.061  1.00  0.00     0.163 HD
ENDROOT
BRANCH   1   5
HETATM    5  C   UNL     1     -30.476  -5.511 -16.465  1.00  0.00     0.113 C 
BRANCH   5   6
HETATM    6  C   UNL     1     -29.319  -5.507 -15.377  1.00  0.00     0.141 C 
BRANCH   6   7
HETATM    7  C   UNL     1     -28.157  -6.511 -15.533  1.00  0.00     0.047 C 
BRANCH   7   8
HETATM    8  C   UNL     1     -26.720  -5.993 -15.406  1.00  0.00     0.076 C 
HETATM    9  C   UNL     1     -26.642  -4.524 -15.863  1.00  0.00     0.020 C 
BRANCH   8  10
HETATM   10  C   UNL     1     -25.733  -6.825 -16.217  1.00  0.00     0.221 C 
HETATM   11  N   UNL     1     -25.633  -6.467 -17.542  1.00  0.00    -0.361 N 
HETATM   12  H   UNL     1     -26.306  -5.823 -17.929  1.00  0.00     0.162 HD
HETATM   13  O   UNL     1     -25.083  -7.731 -15.707  1.00  0.00    -0.273 OA
BRANCH  11  14
HETATM   14  C   UNL     1     -24.702  -7.103 -18.450  1.00  0.00     0.122 C 
BRANCH  14  15
HETATM   15  C   UNL     1     -24.962  -6.690 -19.898  1.00  0.00     0.019 C 
BRANCH  15  16
HETATM   16  C   UNL     1     -25.028  -7.887 -20.853  1.00  0.00    -0.003 C 
HETATM   17  C   UNL     1     -26.465  -8.241 -21.206  1.00  0.00     0.005 C 
ENDBRANCH  15  16
ENDBRANCH  14  15
ENDBRANCH  11  14
ENDBRANCH   8  10
ENDBRANCH   7   8
ENDBRANCH   6   7
BRANCH   6  18
HETATM   18  O   UNL     1     -29.800  -5.761 -14.052  1.00  0.00    -0.393 OA
HETATM   19  H   UNL     1     -29.870  -6.725 -13.922  1.00  0.00     0.210 HD
ENDBRANCH   6  18
ENDBRANCH   5   6
BRANCH   5  20
HETATM   20  C   UNL     1     -30.494  -6.810 -17.310  1.00  0.00     0.031 C 
BRANCH  20  21
HETATM   21  C   UNL     1     -29.882  -6.798 -18.733  1.00  0.00    -0.021 C 
HETATM   22  C   UNL     1     -28.651  -5.906 -18.890  1.00  0.00     0.009 C 
HETATM   23  C   UNL     1     -29.496  -8.240 -19.104  1.00  0.00     0.009 C 
ENDBRANCH  20  21
ENDBRANCH   5  20
ENDBRANCH   1   5
BRANCH   2  24
HETATM   24  C   UNL     1     -34.053  -4.169 -15.559  1.00  0.00     0.172 C 
HETATM   25  C   UNL     1     -34.876  -5.450 -15.693  1.00  0.00     0.042 C 
BRANCH  24  26
HETATM   26  N   UNL     1     -33.836  -3.896 -14.135  1.00  0.00    -0.346 N 
HETATM   27  C   UNL     1     -34.362  -2.784 -13.508  1.00  0.00     0.241 C 
HETATM   28  O   UNL     1     -35.045  -1.976 -14.118  1.00  0.00    -0.271 OA
HETATM   29  H   UNL     1     -33.252  -4.534 -13.606  1.00  0.00     0.163 HD
BRANCH  27  30
HETATM   30  C   UNL     1     -34.136  -2.706 -11.974  1.00  0.00     0.177 C 
BRANCH  30  31
HETATM   31  C   UNL     1     -34.737  -1.379 -11.468  1.00  0.00     0.038 C 
BRANCH  31  32
HETATM   32  C   UNL     1     -36.225  -1.395 -11.064  1.00  0.00    -0.020 C 
HETATM   33  C   UNL     1     -36.465  -1.098  -9.582  1.00  0.00     0.009 C 
HETATM   34  C   UNL     1     -36.996  -0.374 -11.909  1.00  0.00     0.009 C 
ENDBRANCH  31  32
ENDBRANCH  30  31
BRANCH  30  35
HETATM   35  N   UNL     1     -34.785  -3.870 -11.355  1.00  0.00    -0.348 N 
HETATM   36  C   UNL     1     -34.107  -5.033 -11.079  1.00  0.00     0.214 C 
HETATM   37  O   UNL     1     -32.939  -5.231 -11.389  1.00  0.00    -0.274 OA
HETATM   38  C   UNL     1     -34.906  -6.076 -10.335  1.00  0.00     0.117 C 
HETATM   39  H   UNL     1     -35.723  -3.743 -10.996  1.00  0.00     0.163 HD
ENDBRANCH  30  35
ENDBRANCH  27  30
ENDBRANCH  24  26
ENDBRANCH   2  24
TORSDOF 17
BEGIN_RES ARG D 557
REMARK  4 active torsions:
REMARK  status: ('A' for Active; 'I' for Inactive)
REMARK    1  A    between atoms: CA   and  CB  
REMARK    2  A    between atoms: CB   and  CG  
REMARK    3  A    between atoms: CG   and  CD  
REMARK    4  A    between atoms: CD   and  NE  
REMARK       I    between atoms: NE   and  CZ  
REMARK       I    between atoms: CZ   and  NH1 
REMARK       I    between atoms: CZ   and  NH2 
ROOT
ATOM      1  CA  ARG D 557     -26.217   2.705 -17.014  1.00 35.49     0.159 C 
ENDROOT
BRANCH   1   2
ATOM      2  CB  ARG D 557     -26.789   1.319 -17.183  1.00 35.49     0.034 C 
BRANCH   2   3
ATOM      3  CG  ARG D 557     -25.838   0.202 -17.141  1.00 35.49     0.027 C 
BRANCH   3   4
ATOM      4  CD  ARG D 557     -24.758   0.418 -16.151  1.00 35.49     0.116 C 
BRANCH   4   5
ATOM      5  NE  ARG D 557     -24.884  -0.453 -15.012  1.00 35.49    -0.212 N 
ATOM      6  CZ  ARG D 557     -24.048  -1.412 -14.682  1.00 35.49     0.666 C 
ATOM      7  NH1 ARG D 557     -22.975  -1.694 -15.396  1.00 35.49    -0.235 N 
ATOM      8  NH2 ARG D 557     -24.309  -2.090 -13.602  1.00 35.49    -0.235 N 
ATOM      9  HH  ARG D 557     -22.782  -1.260 -16.109  1.00 35.49     0.174 HD
ATOM     10  HH  ARG D 557     -22.464  -2.329 -15.131  1.00 35.49     0.174 HD
ATOM     11  HH  ARG D 557     -25.005  -1.881 -13.156  1.00 35.49     0.174 HD
ATOM     12  HH  ARG D 557     -23.791  -2.714 -13.355  1.00 35.49     0.174 HD
ATOM     13  HE  ARG D 557     -25.586  -0.390 -14.536  1.00 35.49     0.178 HD
ENDBRANCH   4   5
ENDBRANCH   3   4
ENDBRANCH   2   3
ENDBRANCH   1   2
END_RES ARG D 557
BEGIN_RES GLU D 570
REMARK  3 active torsions:
REMARK  status: ('A' for Active; 'I' for Inactive)
REMARK    5  A    between atoms: CA   and  CB  
REMARK    6  A    between atoms: CB   and  CG  
REMARK    7  A    between atoms: CG   and  CD  
ROOT
ATOM     14  CA  GLU D 570     -18.033  -6.348 -13.375  1.00 32.92     0.160 C 
ENDROOT
BRANCH  14  15
ATOM     15  CB  GLU D 570     -19.500  -6.345 -13.794  1.00 32.92     0.043 C 
BRANCH  15  16
ATOM     16  CG  GLU D 570     -19.803  -6.071 -15.222  1.00 32.92     0.100 C 
BRANCH  16  17
ATOM     17  CD  GLU D 570     -20.648  -7.148 -15.863  1.00 32.92     0.185 C 
ATOM     18  OE1 GLU D 570     -20.758  -8.250 -15.292  1.00 32.92    -0.647 OA
ATOM     19  OE2 GLU D 570     -21.191  -6.893 -16.955  1.00 32.92    -0.647 OA
ENDBRANCH  16  17
ENDBRANCH  15  16
ENDBRANCH  14  15
END_RES GLU D 570
ENDMDL
MODEL 6
REMARK VINA RESULT:      -7.5      4.719      9.212
REMARK  17 active torsions:
REMARK  status: ('A' for Active; 'I' for Inactive)
REMARK    1  A    between atoms: C_2  and  C_3 
REMARK    2  A    between atoms: C_3  and  C_4 
REMARK    3  A    between atoms: C_4  and  N_5 
REMARK       I    between atoms: N_5  and  C_6 
REMARK    4  A    between atoms: C_6  and  C_8 
REMARK    5  A    between atoms: C_8  and  C_10 
REMARK    6  A    between atoms: C_10  and  C_11 
REMARK    7  A    between atoms: C_11  and  C_12 
REMARK    8  A    between atoms: C_11  and  O_34 
REMARK    9  A    between atoms: C_12  and  C_13 
REMARK   10  A    between atoms: C_12  and  N_17 
REMARK   11  A    between atoms: C_13  and  C_14 
REMARK       I    between atoms: N_17  and  C_18 
REMARK   12  A    between atoms: C_18  and  C_20 
REMARK   13  A    between atoms: C_20  and  N_22 
REMARK       I    between atoms: N_22  and  C_23 
REMARK   14  A    between atoms: C_23  and  C_25 
REMARK   15  A    between atoms: C_25  and  C_26 
REMARK   16  A    between atoms: C_25  and  N_30 
REMARK   17  A    between atoms: C_26  and  C_27 
REMARK       I    between atoms: N_30  and  C_31 
ROOT
HETATM    1  N   UNL     1     -31.581  -5.003 -16.138  1.00  0.00    -0.352 N 
HETATM    2  C   UNL     1     -32.569  -4.109 -16.524  1.00  0.00     0.240 C 
HETATM    3  O   UNL     1     -32.343  -3.161 -17.274  1.00  0.00    -0.271 OA
HETATM    4  H   UNL     1     -31.874  -5.799 -15.576  1.00  0.00     0.163 HD
ENDROOT
BRANCH   1   5
HETATM    5  C   UNL     1     -30.165  -4.972 -16.601  1.00  0.00     0.113 C 
BRANCH   5   6
HETATM    6  C   UNL     1     -29.161  -5.315 -15.419  1.00  0.00     0.141 C 
BRANCH   6   7
HETATM    7  C   UNL     1     -28.021  -6.320 -15.688  1.00  0.00     0.047 C 
BRANCH   7   8
HETATM    8  C   UNL     1     -26.696  -5.791 -16.249  1.00  0.00     0.076 C 
HETATM    9  C   UNL     1     -26.585  -6.119 -17.750  1.00  0.00     0.020 C 
BRANCH   8  10
HETATM   10  C   UNL     1     -25.489  -6.367 -15.518  1.00  0.00     0.221 C 
HETATM   11  N   UNL     1     -24.668  -5.428 -14.936  1.00  0.00    -0.361 N 
HETATM   12  H   UNL     1     -24.803  -4.453 -15.155  1.00  0.00     0.162 HD
HETATM   13  O   UNL     1     -25.289  -7.575 -15.457  1.00  0.00    -0.273 OA
BRANCH  11  14
HETATM   14  C   UNL     1     -23.510  -5.792 -14.146  1.00  0.00     0.122 C 
BRANCH  14  15
HETATM   15  C   UNL     1     -23.594  -5.218 -12.732  1.00  0.00     0.019 C 
BRANCH  15  16
HETATM   16  C   UNL     1     -22.260  -4.644 -12.244  1.00  0.00    -0.003 C 
HETATM   17  C   UNL     1     -22.469  -3.562 -11.195  1.00  0.00     0.005 C 
ENDBRANCH  15  16
ENDBRANCH  14  15
ENDBRANCH  11  14
ENDBRANCH   8  10
ENDBRANCH   7   8
ENDBRANCH   6   7
BRANCH   6  18
HETATM   18  O   UNL     1     -29.820  -5.863 -14.271  1.00  0.00    -0.393 OA
HETATM   19  H   UNL     1     -30.420  -5.190 -13.901  1.00  0.00     0.210 HD
ENDBRANCH   6  18
ENDBRANCH   5   6
BRANCH   5  20
HETATM   20  C   UNL     1     -29.922  -5.843 -17.860  1.00  0.00     0.031 C 
BRANCH  20  21
HETATM   21  C   UNL     1     -30.442  -7.302 -17.884  1.00  0.00    -0.021 C 
HETATM   22  C   UNL     1     -31.918  -7.448 -18.250  1.00  0.00     0.009 C 
HETATM   23  C   UNL     1     -29.602  -8.097 -18.899  1.00  0.00     0.009 C 
ENDBRANCH  20  21
ENDBRANCH   5  20
ENDBRANCH   1   5
BRANCH   2  24
HETATM   24  C   UNL     1     -33.988  -4.373 -15.933  1.00  0.00     0.172 C 
HETATM   25  C   UNL     1     -34.390  -5.833 -16.147  1.00  0.00     0.042 C 
BRANCH  24  26
HETATM   26  N   UNL     1     -34.071  -4.068 -14.502  1.00  0.00    -0.346 N 
HETATM   27  C   UNL     1     -34.638  -2.902 -14.028  1.00  0.00     0.241 C 
HETATM   28  O   UNL     1     -35.108  -2.071 -14.790  1.00  0.00    -0.271 OA
HETATM   29  H   UNL     1     -33.666  -4.725 -13.845  1.00  0.00     0.163 HD
BRANCH  27  30
HETATM   30  C   UNL     1     -34.751  -2.787 -12.484  1.00  0.00     0.177 C 
BRANCH  30  31
HETATM   31  C   UNL     1     -33.357  -3.052 -11.881  1.00  0.00     0.038 C 
BRANCH  31  32
HETATM   32  C   UNL     1     -33.205  -4.303 -10.992  1.00  0.00    -0.020 C 
HETATM   33  C   UNL     1     -34.537  -4.958 -10.618  1.00  0.00     0.009 C 
HETATM   34  C   UNL     1     -32.324  -5.335 -11.706  1.00  0.00     0.009 C 
ENDBRANCH  31  32
ENDBRANCH  30  31
BRANCH  30  35
HETATM   35  N   UNL     1     -35.240  -1.441 -12.158  1.00  0.00    -0.348 N 
HETATM   36  C   UNL     1     -36.214  -1.216 -11.215  1.00  0.00     0.214 C 
HETATM   37  O   UNL     1     -36.810  -2.110 -10.627  1.00  0.00    -0.274 OA
HETATM   38  C   UNL     1     -36.503   0.237 -10.930  1.00  0.00     0.117 C 
HETATM   39  H   UNL     1     -34.730  -0.656 -12.544  1.00  0.00     0.163 HD
ENDBRANCH  30  35
ENDBRANCH  27  30
ENDBRANCH  24  26
ENDBRANCH   2  24
TORSDOF 17
BEGIN_RES ARG D 557
REMARK  4 active torsions:
REMARK  status: ('A' for Active; 'I' for Inactive)
REMARK    1  A    between atoms: CA   and  CB  
REMARK    2  A    between atoms: CB   and  CG  
REMARK    3  A    between atoms: CG   and  CD  
REMARK    4  A    between atoms: CD   and  NE  
REMARK       I    between atoms: NE   and  CZ  
REMARK       I    between atoms: CZ   and  NH1 
REMARK       I    between atoms: CZ   and  NH2 
ROOT
ATOM      1  CA  ARG D 557     -26.217   2.705 -17.014  1.00 35.49     0.159 C 
ENDROOT
BRANCH   1   2
ATOM      2  CB  ARG D 557     -26.789   1.319 -17.183  1.00 35.49     0.034 C 
BRANCH   2   3
ATOM      3  CG  ARG D 557     -25.920   0.196 -16.812  1.00 35.49     0.027 C 
BRANCH   3   4
ATOM      4  CD  ARG D 557     -26.663  -0.896 -16.142  1.00 35.49     0.116 C 
BRANCH   4   5
ATOM      5  NE  ARG D 557     -25.867  -1.561 -15.145  1.00 35.49    -0.212 N 
ATOM      6  CZ  ARG D 557     -24.666  -1.199 -14.753  1.00 35.49     0.666 C 
ATOM      7  NH1 ARG D 557     -24.038  -0.157 -15.265  1.00 35.49    -0.235 N 
ATOM      8  NH2 ARG D 557     -24.100  -1.907 -13.820  1.00 35.49    -0.235 N 
ATOM      9  HH  ARG D 557     -24.392   0.325 -15.878  1.00 35.49     0.174 HD
ATOM     10  HH  ARG D 557     -23.257   0.034 -14.968  1.00 35.49     0.174 HD
ATOM     11  HH  ARG D 557     -24.532  -2.571 -13.503  1.00 35.49     0.174 HD
ATOM     12  HH  ARG D 557     -23.327  -1.702 -13.539  1.00 35.49     0.174 HD
ATOM     13  HE  ARG D 557     -26.165  -2.286 -14.814  1.00 35.49     0.178 HD
ENDBRANCH   4   5
ENDBRANCH   3   4
ENDBRANCH   2   3
ENDBRANCH   1   2
END_RES ARG D 557
BEGIN_RES GLU D 570
REMARK  3 active torsions:
REMARK  status: ('A' for Active; 'I' for Inactive)
REMARK    5  A    between atoms: CA   and  CB  
REMARK    6  A    between atoms: CB   and  CG  
REMARK    7  A    between atoms: CG   and  CD  
ROOT
ATOM     14  CA  GLU D 570     -18.033  -6.348 -13.375  1.00 32.92     0.160 C 
ENDROOT
BRANCH  14  15
ATOM     15  CB  GLU D 570     -19.500  -6.345 -13.794  1.00 32.92     0.043 C 
BRANCH  15  16
ATOM     16  CG  GLU D 570     -20.089  -7.636 -14.233  1.00 32.92     0.100 C 
BRANCH  16  17
ATOM     17  CD  GLU D 570     -20.552  -7.614 -15.671  1.00 32.92     0.185 C 
ATOM     18  OE1 GLU D 570     -20.694  -6.517 -16.245  1.00 32.92    -0.647 OA
ATOM     19  OE2 GLU D 570     -20.793  -8.705 -16.224  1.00 32.92    -0.647 OA
ENDBRANCH  16  17
ENDBRANCH  15  16
ENDBRANCH  14  15
END_RES GLU D 570
ENDMDL
MODEL 7
REMARK VINA RESULT:      -7.4      4.566     10.372
REMARK  17 active torsions:
REMARK  status: ('A' for Active; 'I' for Inactive)
REMARK    1  A    between atoms: C_2  and  C_3 
REMARK    2  A    between atoms: C_3  and  C_4 
REMARK    3  A    between atoms: C_4  and  N_5 
REMARK       I    between atoms: N_5  and  C_6 
REMARK    4  A    between atoms: C_6  and  C_8 
REMARK    5  A    between atoms: C_8  and  C_10 
REMARK    6  A    between atoms: C_10  and  C_11 
REMARK    7  A    between atoms: C_11  and  C_12 
REMARK    8  A    between atoms: C_11  and  O_34 
REMARK    9  A    between atoms: C_12  and  C_13 
REMARK   10  A    between atoms: C_12  and  N_17 
REMARK   11  A    between atoms: C_13  and  C_14 
REMARK       I    between atoms: N_17  and  C_18 
REMARK   12  A    between atoms: C_18  and  C_20 
REMARK   13  A    between atoms: C_20  and  N_22 
REMARK       I    between atoms: N_22  and  C_23 
REMARK   14  A    between atoms: C_23  and  C_25 
REMARK   15  A    between atoms: C_25  and  C_26 
REMARK   16  A    between atoms: C_25  and  N_30 
REMARK   17  A    between atoms: C_26  and  C_27 
REMARK       I    between atoms: N_30  and  C_31 
ROOT
HETATM    1  N   UNL     1     -20.031  -8.578  -3.293  1.00  0.00    -0.352 N 
HETATM    2  C   UNL     1     -18.758  -9.120  -3.185  1.00  0.00     0.240 C 
HETATM    3  O   UNL     1     -18.067  -8.979  -2.178  1.00  0.00    -0.271 OA
HETATM    4  H   UNL     1     -20.559  -8.808  -4.132  1.00  0.00     0.163 HD
ENDROOT
BRANCH   1   5
HETATM    5  C   UNL     1     -20.736  -7.818  -2.222  1.00  0.00     0.113 C 
BRANCH   5   6
HETATM    6  C   UNL     1     -21.762  -6.772  -2.835  1.00  0.00     0.141 C 
BRANCH   6   7
HETATM    7  C   UNL     1     -21.347  -5.982  -4.094  1.00  0.00     0.047 C 
BRANCH   7   8
HETATM    8  C   UNL     1     -22.001  -6.341  -5.433  1.00  0.00     0.076 C 
HETATM    9  C   UNL     1     -21.288  -7.552  -6.065  1.00  0.00     0.020 C 
BRANCH   8  10
HETATM   10  C   UNL     1     -21.980  -5.176  -6.416  1.00  0.00     0.221 C 
HETATM   11  N   UNL     1     -20.745  -4.906  -6.961  1.00  0.00    -0.361 N 
HETATM   12  H   UNL     1     -19.929  -5.355  -6.575  1.00  0.00     0.162 HD
HETATM   13  O   UNL     1     -22.996  -4.548  -6.692  1.00  0.00    -0.273 OA
BRANCH  11  14
HETATM   14  C   UNL     1     -20.546  -3.878  -7.961  1.00  0.00     0.122 C 
BRANCH  14  15
HETATM   15  C   UNL     1     -20.779  -4.416  -9.372  1.00  0.00     0.019 C 
BRANCH  15  16
HETATM   16  C   UNL     1     -21.999  -3.788 -10.053  1.00  0.00    -0.003 C 
HETATM   17  C   UNL     1     -23.137  -4.788 -10.191  1.00  0.00     0.005 C 
ENDBRANCH  15  16
ENDBRANCH  14  15
ENDBRANCH  11  14
ENDBRANCH   8  10
ENDBRANCH   7   8
ENDBRANCH   6   7
BRANCH   6  18
HETATM   18  O   UNL     1     -22.130  -5.745  -1.906  1.00  0.00    -0.393 OA
HETATM   19  H   UNL     1     -23.017  -5.413  -2.140  1.00  0.00     0.210 HD
ENDBRANCH   6  18
ENDBRANCH   5   6
BRANCH   5  20
HETATM   20  C   UNL     1     -21.387  -8.738  -1.158  1.00  0.00     0.031 C 
BRANCH  20  21
HETATM   21  C   UNL     1     -21.709  -8.165   0.245  1.00  0.00    -0.021 C 
HETATM   22  C   UNL     1     -23.198  -8.110   0.586  1.00  0.00     0.009 C 
HETATM   23  C   UNL     1     -20.995  -9.033   1.295  1.00  0.00     0.009 C 
ENDBRANCH  20  21
ENDBRANCH   5  20
ENDBRANCH   1   5
BRANCH   2  24
HETATM   24  C   UNL     1     -18.251  -9.908  -4.431  1.00  0.00     0.172 C 
HETATM   25  C   UNL     1     -16.843 -10.449  -4.182  1.00  0.00     0.042 C 
BRANCH  24  26
HETATM   26  N   UNL     1     -19.128 -11.028  -4.788  1.00  0.00    -0.346 N 
HETATM   27  C   UNL     1     -19.293 -11.449  -6.093  1.00  0.00     0.241 C 
HETATM   28  O   UNL     1     -18.700 -10.906  -7.013  1.00  0.00    -0.271 OA
HETATM   29  H   UNL     1     -19.654 -11.482  -4.050  1.00  0.00     0.163 HD
BRANCH  27  30
HETATM   30  C   UNL     1     -20.164 -12.719  -6.285  1.00  0.00     0.177 C 
BRANCH  30  31
HETATM   31  C   UNL     1     -21.571 -12.272  -6.732  1.00  0.00     0.038 C 
BRANCH  31  32
HETATM   32  C   UNL     1     -22.761 -12.755  -5.880  1.00  0.00    -0.020 C 
HETATM   33  C   UNL     1     -23.079 -14.242  -6.053  1.00  0.00     0.009 C 
HETATM   34  C   UNL     1     -22.479 -12.474  -4.399  1.00  0.00     0.009 C 
ENDBRANCH  31  32
ENDBRANCH  30  31
BRANCH  30  35
HETATM   35  N   UNL     1     -19.517 -13.571  -7.292  1.00  0.00    -0.348 N 
HETATM   36  C   UNL     1     -19.412 -14.934  -7.150  1.00  0.00     0.214 C 
HETATM   37  O   UNL     1     -19.773 -15.543  -6.151  1.00  0.00    -0.274 OA
HETATM   38  C   UNL     1     -18.825 -15.656  -8.338  1.00  0.00     0.117 C 
HETATM   39  H   UNL     1     -19.277 -13.142  -8.177  1.00  0.00     0.163 HD
ENDBRANCH  30  35
ENDBRANCH  27  30
ENDBRANCH  24  26
ENDBRANCH   2  24
TORSDOF 17
BEGIN_RES ARG D 557
REMARK  4 active torsions:
REMARK  status: ('A' for Active; 'I' for Inactive)
REMARK    1  A    between atoms: CA   and  CB  
REMARK    2  A    between atoms: CB   and  CG  
REMARK    3  A    between atoms: CG   and  CD  
REMARK    4  A    between atoms: CD   and  NE  
REMARK       I    between atoms: NE   and  CZ  
REMARK       I    between atoms: CZ   and  NH1 
REMARK       I    between atoms: CZ   and  NH2 
ROOT
ATOM      1  CA  ARG D 557     -26.217   2.705 -17.014  1.00 35.49     0.159 C 
ENDROOT
BRANCH   1   2
ATOM      2  CB  ARG D 557     -26.789   1.319 -17.183  1.00 35.49     0.034 C 
BRANCH   2   3
ATOM      3  CG  ARG D 557     -25.838   0.202 -17.137  1.00 35.49     0.027 C 
BRANCH   3   4
ATOM      4  CD  ARG D 557     -24.755   0.423 -16.152  1.00 35.49     0.116 C 
BRANCH   4   5
ATOM      5  NE  ARG D 557     -24.887  -0.429 -14.999  1.00 35.49    -0.212 N 
ATOM      6  CZ  ARG D 557     -24.071  -1.404 -14.667  1.00 35.49     0.666 C 
ATOM      7  NH1 ARG D 557     -23.014  -1.722 -15.392  1.00 35.49    -0.235 N 
ATOM      8  NH2 ARG D 557     -24.333  -2.060 -13.575  1.00 35.49    -0.235 N 
ATOM      9  HH  ARG D 557     -22.821  -1.302 -16.114  1.00 35.49     0.174 HD
ATOM     10  HH  ARG D 557     -22.516  -2.366 -15.125  1.00 35.49     0.174 HD
ATOM     11  HH  ARG D 557     -25.018  -1.828 -13.122  1.00 35.49     0.174 HD
ATOM     12  HH  ARG D 557     -23.827  -2.694 -13.326  1.00 35.49     0.174 HD
ATOM     13  HE  ARG D 557     -25.581  -0.341 -14.515  1.00 35.49     0.178 HD
ENDBRANCH   4   5
ENDBRANCH   3   4
ENDBRANCH   2   3
ENDBRANCH   1   2
END_RES ARG D 557
BEGIN_RES GLU D 570
REMARK  3 active torsions:
REMARK  status: ('A' for Active; 'I' for Inactive)
REMARK    5  A    between atoms: CA   and  CB  
REMARK    6  A    between atoms: CB   and  CG  
REMARK    7  A    between atoms: CG   and  CD  
ROOT
ATOM     14  CA  GLU D 570     -18.033  -6.348 -13.375  1.00 32.92     0.160 C 
ENDROOT
BRANCH  14  15
ATOM     15  CB  GLU D 570     -19.500  -6.345 -13.794  1.00 32.92     0.043 C 
BRANCH  15  16
ATOM     16  CG  GLU D 570     -20.444  -5.539 -12.977  1.00 32.92     0.100 C 
BRANCH  16  17
ATOM     17  CD  GLU D 570     -21.738  -5.240 -13.696  1.00 32.92     0.185 C 
ATOM     18  OE1 GLU D 570     -22.247  -4.108 -13.582  1.00 32.92    -0.647 OA
ATOM     19  OE2 GLU D 570     -22.259  -6.152 -14.368  1.00 32.92    -0.647 OA
ENDBRANCH  16  17
ENDBRANCH  15  16
ENDBRANCH  14  15
END_RES GLU D 570
ENDMDL
MODEL 8
REMARK VINA RESULT:      -7.3      5.085     11.661
REMARK  17 active torsions:
REMARK  status: ('A' for Active; 'I' for Inactive)
REMARK    1  A    between atoms: C_2  and  C_3 
REMARK    2  A    between atoms: C_3  and  C_4 
REMARK    3  A    between atoms: C_4  and  N_5 
REMARK       I    between atoms: N_5  and  C_6 
REMARK    4  A    between atoms: C_6  and  C_8 
REMARK    5  A    between atoms: C_8  and  C_10 
REMARK    6  A    between atoms: C_10  and  C_11 
REMARK    7  A    between atoms: C_11  and  C_12 
REMARK    8  A    between atoms: C_11  and  O_34 
REMARK    9  A    between atoms: C_12  and  C_13 
REMARK   10  A    between atoms: C_12  and  N_17 
REMARK   11  A    between atoms: C_13  and  C_14 
REMARK       I    between atoms: N_17  and  C_18 
REMARK   12  A    between atoms: C_18  and  C_20 
REMARK   13  A    between atoms: C_20  and  N_22 
REMARK       I    between atoms: N_22  and  C_23 
REMARK   14  A    between atoms: C_23  and  C_25 
REMARK   15  A    between atoms: C_25  and  C_26 
REMARK   16  A    between atoms: C_25  and  N_30 
REMARK   17  A    between atoms: C_26  and  C_27 
REMARK       I    between atoms: N_30  and  C_31 
ROOT
HETATM    1  N   UNL     1     -20.474 -10.343  -1.248  1.00  0.00    -0.352 N 
HETATM    2  C   UNL     1     -19.886 -11.353  -0.499  1.00  0.00     0.240 C 
HETATM    3  O   UNL     1     -20.482 -11.932   0.407  1.00  0.00    -0.271 OA
HETATM    4  H   UNL     1     -19.933  -9.972  -2.025  1.00  0.00     0.163 HD
ENDROOT
BRANCH   1   5
HETATM    5  C   UNL     1     -21.878  -9.867  -1.098  1.00  0.00     0.113 C 
BRANCH   5   6
HETATM    6  C   UNL     1     -21.988  -8.302  -1.340  1.00  0.00     0.141 C 
BRANCH   6   7
HETATM    7  C   UNL     1     -21.064  -7.652  -2.393  1.00  0.00     0.047 C 
BRANCH   7   8
HETATM    8  C   UNL     1     -21.344  -7.918  -3.876  1.00  0.00     0.076 C 
HETATM    9  C   UNL     1     -20.178  -8.704  -4.505  1.00  0.00     0.020 C 
BRANCH   8  10
HETATM   10  C   UNL     1     -21.563  -6.629  -4.662  1.00  0.00     0.221 C 
HETATM   11  N   UNL     1     -20.411  -6.040  -5.131  1.00  0.00    -0.361 N 
HETATM   12  H   UNL     1     -19.518  -6.377  -4.805  1.00  0.00     0.162 HD
HETATM   13  O   UNL     1     -22.686  -6.176  -4.856  1.00  0.00    -0.273 OA
BRANCH  11  14
HETATM   14  C   UNL     1     -20.428  -4.847  -5.951  1.00  0.00     0.122 C 
BRANCH  14  15
HETATM   15  C   UNL     1     -19.825  -5.108  -7.331  1.00  0.00     0.019 C 
BRANCH  15  16
HETATM   16  C   UNL     1     -19.871  -3.876  -8.241  1.00  0.00    -0.003 C 
HETATM   17  C   UNL     1     -20.492  -4.203  -9.591  1.00  0.00     0.005 C 
ENDBRANCH  15  16
ENDBRANCH  14  15
ENDBRANCH  11  14
ENDBRANCH   8  10
ENDBRANCH   7   8
ENDBRANCH   6   7
BRANCH   6  18
HETATM   18  O   UNL     1     -21.730  -7.536  -0.157  1.00  0.00    -0.393 OA
HETATM   19  H   UNL     1     -20.827  -7.172  -0.208  1.00  0.00     0.210 HD
ENDBRANCH   6  18
ENDBRANCH   5   6
BRANCH   5  20
HETATM   20  C   UNL     1     -22.884 -10.675  -1.958  1.00  0.00     0.031 C 
BRANCH  20  21
HETATM   21  C   UNL     1     -23.995 -11.494  -1.255  1.00  0.00    -0.021 C 
HETATM   22  C   UNL     1     -23.748 -13.002  -1.216  1.00  0.00     0.009 C 
HETATM   23  C   UNL     1     -24.132 -10.981   0.189  1.00  0.00     0.009 C 
ENDBRANCH  20  21
ENDBRANCH   5  20
ENDBRANCH   1   5
BRANCH   2  24
HETATM   24  C   UNL     1     -18.412 -11.700  -0.871  1.00  0.00     0.172 C 
HETATM   25  C   UNL     1     -17.965 -12.970  -0.148  1.00  0.00     0.042 C 
BRANCH  24  26
HETATM   26  N   UNL     1     -18.221 -11.887  -2.312  1.00  0.00    -0.346 N 
HETATM   27  C   UNL     1     -17.547 -10.969  -3.093  1.00  0.00     0.241 C 
HETATM   28  O   UNL     1     -17.068  -9.955  -2.607  1.00  0.00    -0.271 OA
HETATM   29  H   UNL     1     -18.629 -12.706  -2.749  1.00  0.00     0.163 HD
BRANCH  27  30
HETATM   30  C   UNL     1     -17.331 -11.375  -4.575  1.00  0.00     0.177 C 
BRANCH  30  31
HETATM   31  C   UNL     1     -16.132 -12.343  -4.637  1.00  0.00     0.038 C 
BRANCH  31  32
HETATM   32  C   UNL     1     -14.820 -11.794  -5.231  1.00  0.00    -0.020 C 
HETATM   33  C   UNL     1     -13.560 -12.421  -4.630  1.00  0.00     0.009 C 
HETATM   34  C   UNL     1     -14.813 -12.016  -6.749  1.00  0.00     0.009 C 
ENDBRANCH  31  32
ENDBRANCH  30  31
BRANCH  30  35
HETATM   35  N   UNL     1     -18.566 -12.005  -5.062  1.00  0.00    -0.348 N 
HETATM   36  C   UNL     1     -19.075 -11.761  -6.315  1.00  0.00     0.214 C 
HETATM   37  O   UNL     1     -18.597 -10.950  -7.098  1.00  0.00    -0.274 OA
HETATM   38  C   UNL     1     -20.283 -12.587  -6.685  1.00  0.00     0.117 C 
HETATM   39  H   UNL     1     -18.960 -12.749  -4.500  1.00  0.00     0.163 HD
ENDBRANCH  30  35
ENDBRANCH  27  30
ENDBRANCH  24  26
ENDBRANCH   2  24
TORSDOF 17
BEGIN_RES ARG D 557
REMARK  4 active torsions:
REMARK  status: ('A' for Active; 'I' for Inactive)
REMARK    1  A    between atoms: CA   and  CB  
REMARK    2  A    between atoms: CB   and  CG  
REMARK    3  A    between atoms: CG   and  CD  
REMARK    4  A    between atoms: CD   and  NE  
REMARK       I    between atoms: NE   and  CZ  
REMARK       I    between atoms: CZ   and  NH1 
REMARK       I    between atoms: CZ   and  NH2 
ROOT
ATOM      1  CA  ARG D 557     -26.217   2.705 -17.014  1.00 35.49     0.159 C 
ENDROOT
BRANCH   1   2
ATOM      2  CB  ARG D 557     -26.789   1.319 -17.183  1.00 35.49     0.034 C 
BRANCH   2   3
ATOM      3  CG  ARG D 557     -25.833   0.205 -17.178  1.00 35.49     0.027 C 
BRANCH   3   4
ATOM      4  CD  ARG D 557     -24.751   0.394 -16.185  1.00 35.49     0.116 C 
BRANCH   4   5
ATOM      5  NE  ARG D 557     -24.915  -0.454 -15.035  1.00 35.49    -0.212 N 
ATOM      6  CZ  ARG D 557     -24.098  -1.416 -14.667  1.00 35.49     0.666 C 
ATOM      7  NH1 ARG D 557     -23.010  -1.722 -15.349  1.00 35.49    -0.235 N 
ATOM      8  NH2 ARG D 557     -24.393  -2.072 -13.582  1.00 35.49    -0.235 N 
ATOM      9  HH  ARG D 557     -22.796  -1.302 -16.065  1.00 35.49     0.174 HD
ATOM     10  HH  ARG D 557     -22.513  -2.357 -15.059  1.00 35.49     0.174 HD
ATOM     11  HH  ARG D 557     -25.098  -1.847 -13.158  1.00 35.49     0.174 HD
ATOM     12  HH  ARG D 557     -23.888  -2.696 -13.311  1.00 35.49     0.174 HD
ATOM     13  HE  ARG D 557     -25.628  -0.375 -14.578  1.00 35.49     0.178 HD
ENDBRANCH   4   5
ENDBRANCH   3   4
ENDBRANCH   2   3
ENDBRANCH   1   2
END_RES ARG D 557
BEGIN_RES GLU D 570
REMARK  3 active torsions:
REMARK  status: ('A' for Active; 'I' for Inactive)
REMARK    5  A    between atoms: CA   and  CB  
REMARK    6  A    between atoms: CB   and  CG  
REMARK    7  A    between atoms: CG   and  CD  
ROOT
ATOM     14  CA  GLU D 570     -18.033  -6.348 -13.375  1.00 32.92     0.160 C 
ENDROOT
BRANCH  14  15
ATOM     15  CB  GLU D 570     -19.500  -6.345 -13.794  1.00 32.92     0.043 C 
BRANCH  15  16
ATOM     16  CG  GLU D 570     -20.438  -5.513 -12.997  1.00 32.92     0.100 C 
BRANCH  16  17
ATOM     17  CD  GLU D 570     -21.701  -5.164 -13.749  1.00 32.92     0.185 C 
ATOM     18  OE1 GLU D 570     -22.356  -4.163 -13.400  1.00 32.92    -0.647 OA
ATOM     19  OE2 GLU D 570     -22.049  -5.909 -14.686  1.00 32.92    -0.647 OA
ENDBRANCH  16  17
ENDBRANCH  15  16
ENDBRANCH  14  15
END_RES GLU D 570
ENDMDL
MODEL 9
REMARK VINA RESULT:      -7.2      4.441     11.634
REMARK  17 active torsions:
REMARK  status: ('A' for Active; 'I' for Inactive)
REMARK    1  A    between atoms: C_2  and  C_3 
REMARK    2  A    between atoms: C_3  and  C_4 
REMARK    3  A    between atoms: C_4  and  N_5 
REMARK       I    between atoms: N_5  and  C_6 
REMARK    4  A    between atoms: C_6  and  C_8 
REMARK    5  A    between atoms: C_8  and  C_10 
REMARK    6  A    between atoms: C_10  and  C_11 
REMARK    7  A    between atoms: C_11  and  C_12 
REMARK    8  A    between atoms: C_11  and  O_34 
REMARK    9  A    between atoms: C_12  and  C_13 
REMARK   10  A    between atoms: C_12  and  N_17 
REMARK   11  A    between atoms: C_13  and  C_14 
REMARK       I    between atoms: N_17  and  C_18 
REMARK   12  A    between atoms: C_18  and  C_20 
REMARK   13  A    between atoms: C_20  and  N_22 
REMARK       I    between atoms: N_22  and  C_23 
REMARK   14  A    between atoms: C_23  and  C_25 
REMARK   15  A    between atoms: C_25  and  C_26 
REMARK   16  A    between atoms: C_25  and  N_30 
REMARK   17  A    between atoms: C_26  and  C_27 
REMARK       I    between atoms: N_30  and  C_31 
ROOT
HETATM    1  N   UNL     1     -19.703 -10.831  -3.749  1.00  0.00    -0.352 N 
HETATM    2  C   UNL     1     -19.803 -12.194  -3.990  1.00  0.00     0.240 C 
HETATM    3  O   UNL     1     -18.901 -12.835  -4.525  1.00  0.00    -0.271 OA
HETATM    4  H   UNL     1     -20.467 -10.397  -3.236  1.00  0.00     0.163 HD
ENDROOT
BRANCH   1   5
HETATM    5  C   UNL     1     -18.510  -9.990  -4.048  1.00  0.00     0.113 C 
BRANCH   5   6
HETATM    6  C   UNL     1     -18.881  -8.776  -5.002  1.00  0.00     0.141 C 
BRANCH   6   7
HETATM    7  C   UNL     1     -20.364  -8.366  -5.131  1.00  0.00     0.047 C 
BRANCH   7   8
HETATM    8  C   UNL     1     -20.740  -6.898  -4.902  1.00  0.00     0.076 C 
HETATM    9  C   UNL     1     -22.185  -6.794  -4.378  1.00  0.00     0.020 C 
BRANCH   8  10
HETATM   10  C   UNL     1     -20.603  -6.063  -6.170  1.00  0.00     0.221 C 
HETATM   11  N   UNL     1     -21.220  -4.833  -6.117  1.00  0.00    -0.361 N 
HETATM   12  H   UNL     1     -21.842  -4.627  -5.350  1.00  0.00     0.162 HD
HETATM   13  O   UNL     1     -19.982  -6.470  -7.145  1.00  0.00    -0.273 OA
BRANCH  11  14
HETATM   14  C   UNL     1     -21.142  -3.878  -7.203  1.00  0.00     0.122 C 
BRANCH  14  15
HETATM   15  C   UNL     1     -22.330  -4.016  -8.154  1.00  0.00     0.019 C 
BRANCH  15  16
HETATM   16  C   UNL     1     -21.903  -4.189  -9.616  1.00  0.00    -0.003 C 
HETATM   17  C   UNL     1     -20.391  -4.121  -9.767  1.00  0.00     0.005 C 
ENDBRANCH  15  16
ENDBRANCH  14  15
ENDBRANCH  11  14
ENDBRANCH   8  10
ENDBRANCH   7   8
ENDBRANCH   6   7
BRANCH   6  18
HETATM   18  O   UNL     1     -18.479  -8.992  -6.360  1.00  0.00    -0.393 OA
HETATM   19  H   UNL     1     -19.205  -8.718  -6.951  1.00  0.00     0.210 HD
ENDBRANCH   6  18
ENDBRANCH   5   6
BRANCH   5  20
HETATM   20  C   UNL     1     -17.757  -9.536  -2.771  1.00  0.00     0.031 C 
BRANCH  20  21
HETATM   21  C   UNL     1     -16.228  -9.765  -2.671  1.00  0.00    -0.021 C 
HETATM   22  C   UNL     1     -15.820 -10.998  -1.865  1.00  0.00     0.009 C 
HETATM   23  C   UNL     1     -15.666  -9.901  -4.096  1.00  0.00     0.009 C 
ENDBRANCH  20  21
ENDBRANCH   5  20
ENDBRANCH   1   5
BRANCH   2  24
HETATM   24  C   UNL     1     -21.143 -12.861  -3.553  1.00  0.00     0.172 C 
HETATM   25  C   UNL     1     -20.961 -14.371  -3.402  1.00  0.00     0.042 C 
BRANCH  24  26
HETATM   26  N   UNL     1     -21.659 -12.321  -2.291  1.00  0.00    -0.346 N 
HETATM   27  C   UNL     1     -22.727 -11.447  -2.245  1.00  0.00     0.241 C 
HETATM   28  O   UNL     1     -23.299 -11.090  -3.264  1.00  0.00    -0.271 OA
HETATM   29  H   UNL     1     -21.189 -12.577  -1.430  1.00  0.00     0.163 HD
BRANCH  27  30
HETATM   30  C   UNL     1     -23.220 -11.063  -0.824  1.00  0.00     0.177 C 
BRANCH  30  31
HETATM   31  C   UNL     1     -22.429 -11.901   0.200  1.00  0.00     0.038 C 
BRANCH  31  32
HETATM   32  C   UNL     1     -23.194 -13.030   0.920  1.00  0.00    -0.020 C 
HETATM   33  C   UNL     1     -23.778 -14.080  -0.028  1.00  0.00     0.009 C 
HETATM   34  C   UNL     1     -22.261 -13.724   1.920  1.00  0.00     0.009 C 
ENDBRANCH  31  32
ENDBRANCH  30  31
BRANCH  30  35
HETATM   35  N   UNL     1     -23.001  -9.623  -0.636  1.00  0.00    -0.348 N 
HETATM   36  C   UNL     1     -21.785  -9.025  -0.860  1.00  0.00     0.214 C 
HETATM   37  O   UNL     1     -20.769  -9.640  -1.156  1.00  0.00    -0.274 OA
HETATM   38  C   UNL     1     -21.779  -7.521  -0.731  1.00  0.00     0.117 C 
HETATM   39  H   UNL     1     -23.818  -9.046  -0.477  1.00  0.00     0.163 HD
ENDBRANCH  30  35
ENDBRANCH  27  30
ENDBRANCH  24  26
ENDBRANCH   2  24
TORSDOF 17
BEGIN_RES ARG D 557
REMARK  4 active torsions:
REMARK  status: ('A' for Active; 'I' for Inactive)
REMARK    1  A    between atoms: CA   and  CB  
REMARK    2  A    between atoms: CB   and  CG  
REMARK    3  A    between atoms: CG   and  CD  
REMARK    4  A    between atoms: CD   and  NE  
REMARK       I    between atoms: NE   and  CZ  
REMARK       I    between atoms: CZ   and  NH1 
REMARK       I    between atoms: CZ   and  NH2 
ROOT
ATOM      1  CA  ARG D 557     -26.217   2.705 -17.014  1.00 35.49     0.159 C 
ENDROOT
BRANCH   1   2
ATOM      2  CB  ARG D 557     -26.789   1.319 -17.183  1.00 35.49     0.034 C 
BRANCH   2   3
ATOM      3  CG  ARG D 557     -25.940   0.198 -16.762  1.00 35.49     0.027 C 
BRANCH   3   4
ATOM      4  CD  ARG D 557     -26.702  -0.847 -16.041  1.00 35.49     0.116 C 
BRANCH   4   5
ATOM      5  NE  ARG D 557     -25.930  -1.450 -14.986  1.00 35.49    -0.212 N 
ATOM      6  CZ  ARG D 557     -25.922  -2.727 -14.674  1.00 35.49     0.666 C 
ATOM      7  NH1 ARG D 557     -26.660  -3.617 -15.310  1.00 35.49    -0.235 N 
ATOM      8  NH2 ARG D 557     -25.144  -3.101 -13.700  1.00 35.49    -0.235 N 
ATOM      9  HH  ARG D 557     -27.177  -3.393 -15.955  1.00 35.49     0.174 HD
ATOM     10  HH  ARG D 557     -26.611  -4.436 -15.064  1.00 35.49     0.174 HD
ATOM     11  HH  ARG D 557     -24.673  -2.505 -13.312  1.00 35.49     0.174 HD
ATOM     12  HH  ARG D 557     -25.109  -3.917 -13.472  1.00 35.49     0.174 HD
ATOM     13  HE  ARG D 557     -25.481  -0.938 -14.477  1.00 35.49     0.178 HD
ENDBRANCH   4   5
ENDBRANCH   3   4
ENDBRANCH   2   3
ENDBRANCH   1   2
END_RES ARG D 557
BEGIN_RES GLU D 570
REMARK  3 active torsions:
REMARK  status: ('A' for Active; 'I' for Inactive)
REMARK    5  A    between atoms: CA   and  CB  
REMARK    6  A    between atoms: CB   and  CG  
REMARK    7  A    between atoms: CG   and  CD  
ROOT
ATOM     14  CA  GLU D 570     -18.033  -6.348 -13.375  1.00 32.92     0.160 C 
ENDROOT
BRANCH  14  15
ATOM     15  CB  GLU D 570     -19.500  -6.345 -13.794  1.00 32.92     0.043 C 
BRANCH  15  16
ATOM     16  CG  GLU D 570     -20.443  -5.538 -12.978  1.00 32.92     0.100 C 
BRANCH  16  17
ATOM     17  CD  GLU D 570     -21.685  -5.134 -13.738  1.00 32.92     0.185 C 
ATOM     18  OE1 GLU D 570     -21.618  -4.996 -14.975  1.00 32.92    -0.647 OA
ATOM     19  OE2 GLU D 570     -22.731  -4.939 -13.089  1.00 32.92    -0.647 OA
ENDBRANCH  16  17
ENDBRANCH  15  16
ENDBRANCH  14  15
END_RES GLU D 570
ENDMDL
