MODEL 1
REMARK VINA RESULT:      -7.9      0.000      0.000
REMARK  12 active torsions:
REMARK  status: ('A' for Active; 'I' for Inactive)
REMARK    1  A    between atoms: C_1  and  C_2 
REMARK    2  A    between atoms: C_1  and  O_23 
REMARK    3  A    between atoms: C_3  and  O_22 
REMARK    4  A    between atoms: C_4  and  O_21 
REMARK    5  A    between atoms: C_5  and  O_20 
REMARK    6  A    between atoms: C_6  and  O_8 
REMARK    7  A    between atoms: O_8  and  C_9 
REMARK    8  A    between atoms: C_10  and  C_18 
REMARK    9  A    between atoms: C_12  and  O_17 
REMARK   10  A    between atoms: C_13  and  O_16 
REMARK   11  A    between atoms: C_14  and  O_15 
REMARK   12  A    between atoms: C_18  and  O_19 
ROOT
HETATM    1  O   UNL     1     -24.477  -2.705 -12.145  1.00  0.00    -0.348 OA
ENDROOT
BRANCH   1   2
HETATM    2  C   UNL     1     -23.613  -3.523 -11.326  1.00  0.00     0.292 C 
HETATM    3  C   UNL     1     -24.362  -3.896 -10.034  1.00  0.00     0.204 C 
HETATM    4  C   UNL     1     -23.426  -4.736  -9.154  1.00  0.00     0.183 C 
HETATM    5  C   UNL     1     -22.121  -3.972  -8.853  1.00  0.00     0.180 C 
HETATM    6  C   UNL     1     -21.478  -3.462 -10.156  1.00  0.00     0.179 C 
HETATM    7  O   UNL     1     -22.439  -2.795 -10.996  1.00  0.00    -0.348 OA
BRANCH   3   8
HETATM    8  O   UNL     1     -24.731  -2.699  -9.310  1.00  0.00    -0.388 OA
HETATM    9  H   UNL     1     -24.870  -2.016  -9.998  1.00  0.00     0.210 HD
ENDBRANCH   3   8
BRANCH   4  10
HETATM   10  O   UNL     1     -24.090  -5.092  -7.941  1.00  0.00    -0.390 OA
HETATM   11  H   UNL     1     -24.145  -4.264  -7.420  1.00  0.00     0.210 HD
ENDBRANCH   4  10
BRANCH   5  12
HETATM   12  O   UNL     1     -22.397  -2.856  -7.988  1.00  0.00    -0.390 OA
HETATM   13  H   UNL     1     -23.370  -2.727  -7.981  1.00  0.00     0.210 HD
ENDBRANCH   5  12
BRANCH   6  14
HETATM   14  C   UNL     1     -20.745  -4.563 -10.934  1.00  0.00     0.198 C 
BRANCH  14  15
HETATM   15  O   UNL     1     -19.940  -4.005 -11.972  1.00  0.00    -0.398 OA
HETATM   16  H   UNL     1     -20.133  -4.506 -12.784  1.00  0.00     0.209 HD
ENDBRANCH  14  15
ENDBRANCH   6  14
ENDBRANCH   1   2
BRANCH   1  17
HETATM   17  C   UNL     1     -24.771  -3.344 -13.418  1.00  0.00     0.187 C 
HETATM   18  C   UNL     1     -23.967  -4.651 -13.607  1.00  0.00     0.180 C 
HETATM   19  O   UNL     1     -22.565  -4.409 -13.719  1.00  0.00    -0.349 OA
HETATM   20  C   UNL     1     -22.151  -3.494 -14.711  1.00  0.00     0.288 C 
HETATM   21  C   UNL     1     -22.914  -2.152 -14.705  1.00  0.00     0.204 C 
HETATM   22  C   UNL     1     -24.428  -2.368 -14.558  1.00  0.00     0.183 C 
BRANCH  18  23
HETATM   23  C   UNL     1     -24.552  -5.530 -14.718  1.00  0.00     0.198 C 
BRANCH  23  24
HETATM   24  O   UNL     1     -24.167  -6.888 -14.495  1.00  0.00    -0.398 OA
HETATM   25  H   UNL     1     -23.219  -6.888 -14.260  1.00  0.00     0.209 HD
ENDBRANCH  23  24
ENDBRANCH  18  23
BRANCH  20  26
HETATM   26  O   UNL     1     -22.160  -4.108 -15.995  1.00  0.00    -0.369 OA
HETATM   27  H   UNL     1     -22.506  -5.010 -15.900  1.00  0.00     0.212 HD
ENDBRANCH  20  26
BRANCH  21  28
HETATM   28  O   UNL     1     -22.657  -1.437 -15.929  1.00  0.00    -0.388 OA
HETATM   29  H   UNL     1     -22.005  -0.735 -15.749  1.00  0.00     0.210 HD
ENDBRANCH  21  28
BRANCH  22  30
HETATM   30  O   UNL     1     -25.117  -1.126 -14.342  1.00  0.00    -0.390 OA
HETATM   31  H   UNL     1     -26.017  -1.348 -14.043  1.00  0.00     0.210 HD
ENDBRANCH  22  30
ENDBRANCH   1  17
TORSDOF 12
BEGIN_RES ARG D 557
REMARK  4 active torsions:
REMARK  status: ('A' for Active; 'I' for Inactive)
REMARK    1  A    between atoms: CA   and  CB  
REMARK    2  A    between atoms: CB   and  CG  
REMARK    3  A    between atoms: CG   and  CD  
REMARK    4  A    between atoms: CD   and  NE  
REMARK       I    between atoms: NE   and  CZ  
REMARK       I    between atoms: CZ   and  NH1 
REMARK       I    between atoms: CZ   and  NH2 
ROOT
ATOM      1  CA  ARG D 557     -26.217   2.705 -17.014  1.00 35.49     0.159 C 
ENDROOT
BRANCH   1   2
ATOM      2  CB  ARG D 557     -26.789   1.319 -17.183  1.00 35.49     0.034 C 
BRANCH   2   3
ATOM      3  CG  ARG D 557     -28.230   1.227 -17.450  1.00 35.49     0.027 C 
BRANCH   3   4
ATOM      4  CD  ARG D 557     -28.918   0.305 -16.518  1.00 35.49     0.116 C 
BRANCH   4   5
ATOM      5  NE  ARG D 557     -29.264  -0.943 -17.146  1.00 35.49    -0.212 N 
ATOM      6  CZ  ARG D 557     -28.610  -2.075 -17.017  1.00 35.49     0.666 C 
ATOM      7  NH1 ARG D 557     -27.519  -2.184 -16.281  1.00 35.49    -0.235 N 
ATOM      8  NH2 ARG D 557     -29.079  -3.115 -17.643  1.00 35.49    -0.235 N 
ATOM      9  HH  ARG D 557     -27.193  -1.513 -15.859  1.00 35.49     0.174 HD
ATOM     10  HH  ARG D 557     -27.136  -2.949 -16.232  1.00 35.49     0.174 HD
ATOM     11  HH  ARG D 557     -29.790  -3.017 -18.105  1.00 35.49     0.174 HD
ATOM     12  HH  ARG D 557     -28.686  -3.864 -17.581  1.00 35.49     0.174 HD
ATOM     13  HE  ARG D 557     -29.913  -0.947 -17.696  1.00 35.49     0.178 HD
ENDBRANCH   4   5
ENDBRANCH   3   4
ENDBRANCH   2   3
ENDBRANCH   1   2
END_RES ARG D 557
BEGIN_RES GLU D 570
REMARK  3 active torsions:
REMARK  status: ('A' for Active; 'I' for Inactive)
REMARK    5  A    between atoms: CA   and  CB  
REMARK    6  A    between atoms: CB   and  CG  
REMARK    7  A    between atoms: CG   and  CD  
ROOT
ATOM     14  CA  GLU D 570     -18.033  -6.348 -13.375  1.00 32.92     0.160 C 
ENDROOT
BRANCH  14  15
ATOM     15  CB  GLU D 570     -19.500  -6.345 -13.794  1.00 32.92     0.043 C 
BRANCH  15  16
ATOM     16  CG  GLU D 570     -19.796  -6.339 -15.250  1.00 32.92     0.100 C 
BRANCH  16  17
ATOM     17  CD  GLU D 570     -20.813  -7.383 -15.649  1.00 32.92     0.185 C 
ATOM     18  OE1 GLU D 570     -21.829  -7.029 -16.278  1.00 32.92    -0.647 OA
ATOM     19  OE2 GLU D 570     -20.601  -8.565 -15.313  1.00 32.92    -0.647 OA
ENDBRANCH  16  17
ENDBRANCH  15  16
ENDBRANCH  14  15
END_RES GLU D 570
ENDMDL
MODEL 2
REMARK VINA RESULT:      -7.6      4.068      7.226
REMARK  12 active torsions:
REMARK  status: ('A' for Active; 'I' for Inactive)
REMARK    1  A    between atoms: C_1  and  C_2 
REMARK    2  A    between atoms: C_1  and  O_23 
REMARK    3  A    between atoms: C_3  and  O_22 
REMARK    4  A    between atoms: C_4  and  O_21 
REMARK    5  A    between atoms: C_5  and  O_20 
REMARK    6  A    between atoms: C_6  and  O_8 
REMARK    7  A    between atoms: O_8  and  C_9 
REMARK    8  A    between atoms: C_10  and  C_18 
REMARK    9  A    between atoms: C_12  and  O_17 
REMARK   10  A    between atoms: C_13  and  O_16 
REMARK   11  A    between atoms: C_14  and  O_15 
REMARK   12  A    between atoms: C_18  and  O_19 
ROOT
HETATM    1  O   UNL     1     -26.920  -6.168 -17.221  1.00  0.00    -0.348 OA
ENDROOT
BRANCH   1   2
HETATM    2  C   UNL     1     -25.788  -6.917 -17.712  1.00  0.00     0.292 C 
HETATM    3  C   UNL     1     -24.804  -7.149 -16.550  1.00  0.00     0.204 C 
HETATM    4  C   UNL     1     -23.588  -7.915 -17.087  1.00  0.00     0.183 C 
HETATM    5  C   UNL     1     -22.924  -7.148 -18.248  1.00  0.00     0.180 C 
HETATM    6  C   UNL     1     -23.964  -6.779 -19.321  1.00  0.00     0.179 C 
HETATM    7  O   UNL     1     -25.137  -6.181 -18.738  1.00  0.00    -0.348 OA
BRANCH   3   8
HETATM    8  O   UNL     1     -24.358  -5.881 -16.016  1.00  0.00    -0.388 OA
HETATM    9  H   UNL     1     -23.381  -5.943 -15.991  1.00  0.00     0.210 HD
ENDBRANCH   3   8
BRANCH   4  10
HETATM   10  O   UNL     1     -22.652  -8.139 -16.032  1.00  0.00    -0.390 OA
HETATM   11  H   UNL     1     -22.303  -9.043 -16.178  1.00  0.00     0.210 HD
ENDBRANCH   4  10
BRANCH   5  12
HETATM   12  O   UNL     1     -22.305  -5.949 -17.750  1.00  0.00    -0.390 OA
HETATM   13  H   UNL     1     -21.470  -6.215 -17.308  1.00  0.00     0.210 HD
ENDBRANCH   5  12
BRANCH   6  14
HETATM   14  C   UNL     1     -24.345  -7.964 -20.219  1.00  0.00     0.198 C 
BRANCH  14  15
HETATM   15  O   UNL     1     -23.181  -8.652 -20.676  1.00  0.00    -0.398 OA
HETATM   16  H   UNL     1     -22.462  -7.999 -20.722  1.00  0.00     0.209 HD
ENDBRANCH  14  15
ENDBRANCH   6  14
ENDBRANCH   1   2
BRANCH   1  17
HETATM   17  C   UNL     1     -28.127  -6.979 -17.192  1.00  0.00     0.187 C 
HETATM   18  C   UNL     1     -29.177  -6.488 -18.214  1.00  0.00     0.180 C 
HETATM   19  O   UNL     1     -29.686  -5.196 -17.886  1.00  0.00    -0.349 OA
HETATM   20  C   UNL     1     -30.226  -5.031 -16.592  1.00  0.00     0.288 C 
HETATM   21  C   UNL     1     -29.323  -5.543 -15.449  1.00  0.00     0.204 C 
HETATM   22  C   UNL     1     -28.732  -6.923 -15.777  1.00  0.00     0.183 C 
BRANCH  18  23
HETATM   23  C   UNL     1     -30.253  -7.545 -18.486  1.00  0.00     0.198 C 
BRANCH  23  24
HETATM   24  O   UNL     1     -29.660  -8.660 -19.155  1.00  0.00    -0.398 OA
HETATM   25  H   UNL     1     -29.369  -8.352 -20.035  1.00  0.00     0.209 HD
ENDBRANCH  23  24
ENDBRANCH  18  23
BRANCH  20  26
HETATM   26  O   UNL     1     -31.538  -5.579 -16.522  1.00  0.00    -0.369 OA
HETATM   27  H   UNL     1     -31.827  -5.561 -15.595  1.00  0.00     0.212 HD
ENDBRANCH  20  26
BRANCH  21  28
HETATM   28  O   UNL     1     -30.083  -5.634 -14.228  1.00  0.00    -0.388 OA
HETATM   29  H   UNL     1     -30.019  -4.783 -13.758  1.00  0.00     0.210 HD
ENDBRANCH  21  28
BRANCH  22  30
HETATM   30  O   UNL     1     -27.733  -7.307 -14.819  1.00  0.00    -0.390 OA
HETATM   31  H   UNL     1     -27.768  -6.657 -14.095  1.00  0.00     0.210 HD
ENDBRANCH  22  30
ENDBRANCH   1  17
TORSDOF 12
BEGIN_RES ARG D 557
REMARK  4 active torsions:
REMARK  status: ('A' for Active; 'I' for Inactive)
REMARK    1  A    between atoms: CA   and  CB  
REMARK    2  A    between atoms: CB   and  CG  
REMARK    3  A    between atoms: CG   and  CD  
REMARK    4  A    between atoms: CD   and  NE  
REMARK       I    between atoms: NE   and  CZ  
REMARK       I    between atoms: CZ   and  NH1 
REMARK       I    between atoms: CZ   and  NH2 
ROOT
ATOM      1  CA  ARG D 557     -26.217   2.705 -17.014  1.00 35.49     0.159 C 
ENDROOT
BRANCH   1   2
ATOM      2  CB  ARG D 557     -26.789   1.319 -17.183  1.00 35.49     0.034 C 
BRANCH   2   3
ATOM      3  CG  ARG D 557     -25.931   0.197 -16.783  1.00 35.49     0.027 C 
BRANCH   3   4
ATOM      4  CD  ARG D 557     -26.690  -0.883 -16.113  1.00 35.49     0.116 C 
BRANCH   4   5
ATOM      5  NE  ARG D 557     -25.979  -1.428 -14.987  1.00 35.49    -0.212 N 
ATOM      6  CZ  ARG D 557     -25.893  -2.702 -14.676  1.00 35.49     0.666 C 
ATOM      7  NH1 ARG D 557     -26.485  -3.646 -15.383  1.00 35.49    -0.235 N 
ATOM      8  NH2 ARG D 557     -25.187  -3.018 -13.629  1.00 35.49    -0.235 N 
ATOM      9  HH  ARG D 557     -26.953  -3.461 -16.077  1.00 35.49     0.174 HD
ATOM     10  HH  ARG D 557     -26.392  -4.461 -15.134  1.00 35.49     0.174 HD
ATOM     11  HH  ARG D 557     -24.810  -2.388 -13.196  1.00 35.49     0.174 HD
ATOM     12  HH  ARG D 557     -25.105  -3.830 -13.399  1.00 35.49     0.174 HD
ATOM     13  HE  ARG D 557     -25.628  -0.884 -14.435  1.00 35.49     0.178 HD
ENDBRANCH   4   5
ENDBRANCH   3   4
ENDBRANCH   2   3
ENDBRANCH   1   2
END_RES ARG D 557
BEGIN_RES GLU D 570
REMARK  3 active torsions:
REMARK  status: ('A' for Active; 'I' for Inactive)
REMARK    5  A    between atoms: CA   and  CB  
REMARK    6  A    between atoms: CB   and  CG  
REMARK    7  A    between atoms: CG   and  CD  
ROOT
ATOM     14  CA  GLU D 570     -18.033  -6.348 -13.375  1.00 32.92     0.160 C 
ENDROOT
BRANCH  14  15
ATOM     15  CB  GLU D 570     -19.500  -6.345 -13.794  1.00 32.92     0.043 C 
BRANCH  15  16
ATOM     16  CG  GLU D 570     -20.442  -5.533 -12.982  1.00 32.92     0.100 C 
BRANCH  16  17
ATOM     17  CD  GLU D 570     -21.721  -5.203 -13.716  1.00 32.92     0.185 C 
ATOM     18  OE1 GLU D 570     -22.648  -4.646 -13.098  1.00 32.92    -0.647 OA
ATOM     19  OE2 GLU D 570     -21.803  -5.522 -14.919  1.00 32.92    -0.647 OA
ENDBRANCH  16  17
ENDBRANCH  15  16
ENDBRANCH  14  15
END_RES GLU D 570
ENDMDL
MODEL 3
REMARK VINA RESULT:      -6.6      1.491      3.423
REMARK  12 active torsions:
REMARK  status: ('A' for Active; 'I' for Inactive)
REMARK    1  A    between atoms: C_1  and  C_2 
REMARK    2  A    between atoms: C_1  and  O_23 
REMARK    3  A    between atoms: C_3  and  O_22 
REMARK    4  A    between atoms: C_4  and  O_21 
REMARK    5  A    between atoms: C_5  and  O_20 
REMARK    6  A    between atoms: C_6  and  O_8 
REMARK    7  A    between atoms: O_8  and  C_9 
REMARK    8  A    between atoms: C_10  and  C_18 
REMARK    9  A    between atoms: C_12  and  O_17 
REMARK   10  A    between atoms: C_13  and  O_16 
REMARK   11  A    between atoms: C_14  and  O_15 
REMARK   12  A    between atoms: C_18  and  O_19 
ROOT
HETATM    1  O   UNL     1     -24.080  -4.220 -12.234  1.00  0.00    -0.348 OA
ENDROOT
BRANCH   1   2
HETATM    2  C   UNL     1     -23.175  -3.783 -11.197  1.00  0.00     0.292 C 
HETATM    3  C   UNL     1     -21.855  -3.332 -11.849  1.00  0.00     0.204 C 
HETATM    4  C   UNL     1     -20.886  -2.901 -10.739  1.00  0.00     0.183 C 
HETATM    5  C   UNL     1     -20.659  -4.047  -9.733  1.00  0.00     0.180 C 
HETATM    6  C   UNL     1     -22.003  -4.597  -9.222  1.00  0.00     0.179 C 
HETATM    7  O   UNL     1     -22.915  -4.859 -10.306  1.00  0.00    -0.348 OA
BRANCH   3   8
HETATM    8  O   UNL     1     -21.263  -4.427 -12.585  1.00  0.00    -0.388 OA
HETATM    9  H   UNL     1     -21.758  -5.224 -12.301  1.00  0.00     0.210 HD
ENDBRANCH   3   8
BRANCH   4  10
HETATM   10  O   UNL     1     -19.647  -2.483 -11.312  1.00  0.00    -0.390 OA
HETATM   11  H   UNL     1     -19.635  -2.862 -12.216  1.00  0.00     0.210 HD
ENDBRANCH   4  10
BRANCH   5  12
HETATM   12  O   UNL     1     -19.917  -5.108 -10.361  1.00  0.00    -0.390 OA
HETATM   13  H   UNL     1     -20.176  -5.945  -9.918  1.00  0.00     0.210 HD
ENDBRANCH   5  12
BRANCH   6  14
HETATM   14  C   UNL     1     -22.657  -3.695  -8.166  1.00  0.00     0.198 C 
BRANCH  14  15
HETATM   15  O   UNL     1     -23.829  -4.307  -7.629  1.00  0.00    -0.398 OA
HETATM   16  H   UNL     1     -24.047  -5.061  -8.203  1.00  0.00     0.209 HD
ENDBRANCH  14  15
ENDBRANCH   6  14
ENDBRANCH   1   2
BRANCH   1  17
HETATM   17  C   UNL     1     -23.719  -3.666 -13.529  1.00  0.00     0.187 C 
HETATM   18  C   UNL     1     -24.229  -2.217 -13.699  1.00  0.00     0.180 C 
HETATM   19  O   UNL     1     -25.654  -2.149 -13.739  1.00  0.00    -0.349 OA
HETATM   20  C   UNL     1     -26.306  -2.957 -14.696  1.00  0.00     0.288 C 
HETATM   21  C   UNL     1     -25.852  -4.433 -14.706  1.00  0.00     0.204 C 
HETATM   22  C   UNL     1     -24.322  -4.550 -14.636  1.00  0.00     0.183 C 
BRANCH  18  23
HETATM   23  C   UNL     1     -23.525  -1.491 -14.850  1.00  0.00     0.198 C 
BRANCH  23  24
HETATM   24  O   UNL     1     -24.237  -0.290 -15.156  1.00  0.00    -0.398 OA
HETATM   25  H   UNL     1     -23.969   0.383 -14.501  1.00  0.00     0.209 HD
ENDBRANCH  23  24
ENDBRANCH  18  23
BRANCH  20  26
HETATM   26  O   UNL     1     -26.229  -2.366 -15.989  1.00  0.00    -0.369 OA
HETATM   27  H   UNL     1     -26.831  -2.845 -16.580  1.00  0.00     0.212 HD
ENDBRANCH  20  26
BRANCH  21  28
HETATM   28  O   UNL     1     -26.319  -5.080 -15.906  1.00  0.00    -0.388 OA
HETATM   29  H   UNL     1     -25.955  -5.984 -15.934  1.00  0.00     0.210 HD
ENDBRANCH  21  28
BRANCH  22  30
HETATM   30  O   UNL     1     -23.909  -5.911 -14.434  1.00  0.00    -0.390 OA
HETATM   31  H   UNL     1     -24.694  -6.470 -14.570  1.00  0.00     0.210 HD
ENDBRANCH  22  30
ENDBRANCH   1  17
TORSDOF 12
BEGIN_RES ARG D 557
REMARK  4 active torsions:
REMARK  status: ('A' for Active; 'I' for Inactive)
REMARK    1  A    between atoms: CA   and  CB  
REMARK    2  A    between atoms: CB   and  CG  
REMARK    3  A    between atoms: CG   and  CD  
REMARK    4  A    between atoms: CD   and  NE  
REMARK       I    between atoms: NE   and  CZ  
REMARK       I    between atoms: CZ   and  NH1 
REMARK       I    between atoms: CZ   and  NH2 
ROOT
ATOM      1  CA  ARG D 557     -26.217   2.705 -17.014  1.00 35.49     0.159 C 
ENDROOT
BRANCH   1   2
ATOM      2  CB  ARG D 557     -26.789   1.319 -17.183  1.00 35.49     0.034 C 
BRANCH   2   3
ATOM      3  CG  ARG D 557     -28.132   1.087 -16.636  1.00 35.49     0.027 C 
BRANCH   3   4
ATOM      4  CD  ARG D 557     -28.908   0.115 -17.440  1.00 35.49     0.116 C 
BRANCH   4   5
ATOM      5  NE  ARG D 557     -28.448  -1.235 -17.251  1.00 35.49    -0.212 N 
ATOM      6  CZ  ARG D 557     -29.193  -2.316 -17.311  1.00 35.49     0.666 C 
ATOM      7  NH1 ARG D 557     -30.491  -2.270 -17.545  1.00 35.49    -0.235 N 
ATOM      8  NH2 ARG D 557     -28.602  -3.462 -17.135  1.00 35.49    -0.235 N 
ATOM      9  HH  ARG D 557     -30.900  -1.527 -17.666  1.00 35.49     0.174 HD
ATOM     10  HH  ARG D 557     -30.925  -3.008 -17.576  1.00 35.49     0.174 HD
ATOM     11  HH  ARG D 557     -27.761  -3.462 -16.993  1.00 35.49     0.174 HD
ATOM     12  HH  ARG D 557     -29.049  -4.182 -17.170  1.00 35.49     0.174 HD
ATOM     13  HE  ARG D 557     -27.637  -1.352 -17.024  1.00 35.49     0.178 HD
ENDBRANCH   4   5
ENDBRANCH   3   4
ENDBRANCH   2   3
ENDBRANCH   1   2
END_RES ARG D 557
BEGIN_RES GLU D 570
REMARK  3 active torsions:
REMARK  status: ('A' for Active; 'I' for Inactive)
REMARK    5  A    between atoms: CA   and  CB  
REMARK    6  A    between atoms: CB   and  CG  
REMARK    7  A    between atoms: CG   and  CD  
ROOT
ATOM     14  CA  GLU D 570     -18.033  -6.348 -13.375  1.00 32.92     0.160 C 
ENDROOT
BRANCH  14  15
ATOM     15  CB  GLU D 570     -19.500  -6.345 -13.794  1.00 32.92     0.043 C 
BRANCH  15  16
ATOM     16  CG  GLU D 570     -19.823  -6.831 -15.161  1.00 32.92     0.100 C 
BRANCH  16  17
ATOM     17  CD  GLU D 570     -20.551  -5.802 -15.995  1.00 32.92     0.185 C 
ATOM     18  OE1 GLU D 570     -20.454  -5.851 -17.236  1.00 32.92    -0.647 OA
ATOM     19  OE2 GLU D 570     -21.212  -4.929 -15.400  1.00 32.92    -0.647 OA
ENDBRANCH  16  17
ENDBRANCH  15  16
ENDBRANCH  14  15
END_RES GLU D 570
ENDMDL
MODEL 4
REMARK VINA RESULT:      -6.1      1.154      2.482
REMARK  12 active torsions:
REMARK  status: ('A' for Active; 'I' for Inactive)
REMARK    1  A    between atoms: C_1  and  C_2 
REMARK    2  A    between atoms: C_1  and  O_23 
REMARK    3  A    between atoms: C_3  and  O_22 
REMARK    4  A    between atoms: C_4  and  O_21 
REMARK    5  A    between atoms: C_5  and  O_20 
REMARK    6  A    between atoms: C_6  and  O_8 
REMARK    7  A    between atoms: O_8  and  C_9 
REMARK    8  A    between atoms: C_10  and  C_18 
REMARK    9  A    between atoms: C_12  and  O_17 
REMARK   10  A    between atoms: C_13  and  O_16 
REMARK   11  A    between atoms: C_14  and  O_15 
REMARK   12  A    between atoms: C_18  and  O_19 
ROOT
HETATM    1  O   UNL     1     -24.202  -4.204 -11.741  1.00  0.00    -0.348 OA
ENDROOT
BRANCH   1   2
HETATM    2  C   UNL     1     -23.151  -4.509 -10.799  1.00  0.00     0.292 C 
HETATM    3  C   UNL     1     -23.776  -4.697  -9.404  1.00  0.00     0.204 C 
HETATM    4  C   UNL     1     -22.650  -4.987  -8.401  1.00  0.00     0.183 C 
HETATM    5  C   UNL     1     -21.604  -3.855  -8.406  1.00  0.00     0.180 C 
HETATM    6  C   UNL     1     -21.119  -3.570  -9.839  1.00  0.00     0.179 C 
HETATM    7  O   UNL     1     -22.221  -3.436 -10.756  1.00  0.00    -0.348 OA
BRANCH   3   8
HETATM    8  O   UNL     1     -24.460  -3.489  -8.998  1.00  0.00    -0.388 OA
HETATM    9  H   UNL     1     -25.348  -3.548  -9.409  1.00  0.00     0.210 HD
ENDBRANCH   3   8
BRANCH   4  10
HETATM   10  O   UNL     1     -23.198  -5.159  -7.094  1.00  0.00    -0.390 OA
HETATM   11  H   UNL     1     -22.786  -5.976  -6.742  1.00  0.00     0.210 HD
ENDBRANCH   4  10
BRANCH   5  12
HETATM   12  O   UNL     1     -22.178  -2.658  -7.850  1.00  0.00    -0.390 OA
HETATM   13  H   UNL     1     -22.941  -2.932  -7.297  1.00  0.00     0.210 HD
ENDBRANCH   5  12
BRANCH   6  14
HETATM   14  C   UNL     1     -20.110  -4.609 -10.348  1.00  0.00     0.198 C 
BRANCH  14  15
HETATM   15  O   UNL     1     -19.705  -4.314 -11.684  1.00  0.00    -0.398 OA
HETATM   16  H   UNL     1     -20.130  -3.476 -11.934  1.00  0.00     0.209 HD
ENDBRANCH  14  15
ENDBRANCH   6  14
ENDBRANCH   1   2
BRANCH   1  17
HETATM   17  C   UNL     1     -23.665  -3.711 -13.000  1.00  0.00     0.187 C 
HETATM   18  C   UNL     1     -24.096  -2.253 -13.280  1.00  0.00     0.180 C 
HETATM   19  O   UNL     1     -25.502  -2.139 -13.497  1.00  0.00    -0.349 OA
HETATM   20  C   UNL     1     -26.062  -2.960 -14.500  1.00  0.00     0.288 C 
HETATM   21  C   UNL     1     -25.666  -4.450 -14.405  1.00  0.00     0.204 C 
HETATM   22  C   UNL     1     -24.161  -4.615 -14.143  1.00  0.00     0.183 C 
BRANCH  18  23
HETATM   23  C   UNL     1     -23.230  -1.594 -14.359  1.00  0.00     0.198 C 
BRANCH  23  24
HETATM   24  O   UNL     1     -23.893  -0.426 -14.847  1.00  0.00    -0.398 OA
HETATM   25  H   UNL     1     -23.452  -0.165 -15.678  1.00  0.00     0.209 HD
ENDBRANCH  23  24
ENDBRANCH  18  23
BRANCH  20  26
HETATM   26  O   UNL     1     -25.806  -2.421 -15.792  1.00  0.00    -0.369 OA
HETATM   27  H   UNL     1     -25.553  -1.489 -15.689  1.00  0.00     0.212 HD
ENDBRANCH  20  26
BRANCH  21  28
HETATM   28  O   UNL     1     -26.007  -5.126 -15.631  1.00  0.00    -0.388 OA
HETATM   29  H   UNL     1     -25.368  -5.849 -15.776  1.00  0.00     0.210 HD
ENDBRANCH  21  28
BRANCH  22  30
HETATM   30  O   UNL     1     -23.827  -5.980 -13.847  1.00  0.00    -0.390 OA
HETATM   31  H   UNL     1     -24.048  -6.130 -12.910  1.00  0.00     0.210 HD
ENDBRANCH  22  30
ENDBRANCH   1  17
TORSDOF 12
BEGIN_RES ARG D 557
REMARK  4 active torsions:
REMARK  status: ('A' for Active; 'I' for Inactive)
REMARK    1  A    between atoms: CA   and  CB  
REMARK    2  A    between atoms: CB   and  CG  
REMARK    3  A    between atoms: CG   and  CD  
REMARK    4  A    between atoms: CD   and  NE  
REMARK       I    between atoms: NE   and  CZ  
REMARK       I    between atoms: CZ   and  NH1 
REMARK       I    between atoms: CZ   and  NH2 
ROOT
ATOM      1  CA  ARG D 557     -26.217   2.705 -17.014  1.00 35.49     0.159 C 
ENDROOT
BRANCH   1   2
ATOM      2  CB  ARG D 557     -26.789   1.319 -17.183  1.00 35.49     0.034 C 
BRANCH   2   3
ATOM      3  CG  ARG D 557     -28.215   1.229 -17.520  1.00 35.49     0.027 C 
BRANCH   3   4
ATOM      4  CD  ARG D 557     -28.934   0.248 -16.675  1.00 35.49     0.116 C 
BRANCH   4   5
ATOM      5  NE  ARG D 557     -28.324  -1.055 -16.719  1.00 35.49    -0.212 N 
ATOM      6  CZ  ARG D 557     -28.919  -2.169 -17.082  1.00 35.49     0.666 C 
ATOM      7  NH1 ARG D 557     -30.188  -2.211 -17.442  1.00 35.49    -0.235 N 
ATOM      8  NH2 ARG D 557     -28.205  -3.258 -17.083  1.00 35.49    -0.235 N 
ATOM      9  HH  ARG D 557     -30.676  -1.506 -17.451  1.00 35.49     0.174 HD
ATOM     10  HH  ARG D 557     -30.522  -2.966 -17.671  1.00 35.49     0.174 HD
ATOM     11  HH  ARG D 557     -27.386  -3.200 -16.852  1.00 35.49     0.174 HD
ATOM     12  HH  ARG D 557     -28.553  -3.996 -17.314  1.00 35.49     0.174 HD
ATOM     13  HE  ARG D 557     -27.527  -1.133 -16.433  1.00 35.49     0.178 HD
ENDBRANCH   4   5
ENDBRANCH   3   4
ENDBRANCH   2   3
ENDBRANCH   1   2
END_RES ARG D 557
BEGIN_RES GLU D 570
REMARK  3 active torsions:
REMARK  status: ('A' for Active; 'I' for Inactive)
REMARK    5  A    between atoms: CA   and  CB  
REMARK    6  A    between atoms: CB   and  CG  
REMARK    7  A    between atoms: CG   and  CD  
ROOT
ATOM     14  CA  GLU D 570     -18.033  -6.348 -13.375  1.00 32.92     0.160 C 
ENDROOT
BRANCH  14  15
ATOM     15  CB  GLU D 570     -19.500  -6.345 -13.794  1.00 32.92     0.043 C 
BRANCH  15  16
ATOM     16  CG  GLU D 570     -19.796  -6.342 -15.250  1.00 32.92     0.100 C 
BRANCH  16  17
ATOM     17  CD  GLU D 570     -20.887  -7.316 -15.631  1.00 32.92     0.185 C 
ATOM     18  OE1 GLU D 570     -22.009  -6.875 -15.945  1.00 32.92    -0.647 OA
ATOM     19  OE2 GLU D 570     -20.620  -8.534 -15.600  1.00 32.92    -0.647 OA
ENDBRANCH  16  17
ENDBRANCH  15  16
ENDBRANCH  14  15
END_RES GLU D 570
ENDMDL
MODEL 5
REMARK VINA RESULT:      -5.8      7.666     11.040
REMARK  12 active torsions:
REMARK  status: ('A' for Active; 'I' for Inactive)
REMARK    1  A    between atoms: C_1  and  C_2 
REMARK    2  A    between atoms: C_1  and  O_23 
REMARK    3  A    between atoms: C_3  and  O_22 
REMARK    4  A    between atoms: C_4  and  O_21 
REMARK    5  A    between atoms: C_5  and  O_20 
REMARK    6  A    between atoms: C_6  and  O_8 
REMARK    7  A    between atoms: O_8  and  C_9 
REMARK    8  A    between atoms: C_10  and  C_18 
REMARK    9  A    between atoms: C_12  and  O_17 
REMARK   10  A    between atoms: C_13  and  O_16 
REMARK   11  A    between atoms: C_14  and  O_15 
REMARK   12  A    between atoms: C_18  and  O_19 
ROOT
HETATM    1  O   UNL     1     -20.096  -9.937  -1.986  1.00  0.00    -0.348 OA
ENDROOT
BRANCH   1   2
HETATM    2  C   UNL     1     -19.121  -9.956  -3.051  1.00  0.00     0.292 C 
HETATM    3  C   UNL     1     -19.778 -10.539  -4.315  1.00  0.00     0.204 C 
HETATM    4  C   UNL     1     -18.728 -10.589  -5.433  1.00  0.00     0.183 C 
HETATM    5  C   UNL     1     -17.502 -11.416  -4.998  1.00  0.00     0.180 C 
HETATM    6  C   UNL     1     -16.964 -10.921  -3.644  1.00  0.00     0.179 C 
HETATM    7  O   UNL     1     -18.020 -10.772  -2.676  1.00  0.00    -0.348 OA
BRANCH   3   8
HETATM    8  O   UNL     1     -20.247 -11.883  -4.058  1.00  0.00    -0.388 OA
HETATM    9  H   UNL     1     -21.210 -11.857  -4.237  1.00  0.00     0.210 HD
ENDBRANCH   3   8
BRANCH   4  10
HETATM   10  O   UNL     1     -19.306 -11.133  -6.619  1.00  0.00    -0.390 OA
HETATM   11  H   UNL     1     -19.833 -10.406  -7.011  1.00  0.00     0.210 HD
ENDBRANCH   4  10
BRANCH   5  12
HETATM   12  O   UNL     1     -17.864 -12.805  -4.889  1.00  0.00    -0.390 OA
HETATM   13  H   UNL     1     -17.485 -13.138  -4.047  1.00  0.00     0.210 HD
ENDBRANCH   5  12
BRANCH   6  14
HETATM   14  C   UNL     1     -16.146  -9.627  -3.761  1.00  0.00     0.198 C 
BRANCH  14  15
HETATM   15  O   UNL     1     -15.807  -9.120  -2.470  1.00  0.00    -0.398 OA
HETATM   16  H   UNL     1     -15.045  -8.526  -2.587  1.00  0.00     0.209 HD
ENDBRANCH  14  15
ENDBRANCH   6  14
ENDBRANCH   1   2
BRANCH   1  17
HETATM   17  C   UNL     1     -21.262  -9.144  -2.342  1.00  0.00     0.187 C 
HETATM   18  C   UNL     1     -21.211  -7.731  -1.716  1.00  0.00     0.180 C 
HETATM   19  O   UNL     1     -21.306  -7.768  -0.293  1.00  0.00    -0.349 OA
HETATM   20  C   UNL     1     -22.414  -8.450   0.257  1.00  0.00     0.288 C 
HETATM   21  C   UNL     1     -22.649  -9.863  -0.320  1.00  0.00     0.204 C 
HETATM   22  C   UNL     1     -22.528  -9.870  -1.852  1.00  0.00     0.183 C 
BRANCH  18  23
HETATM   23  C   UNL     1     -22.191  -6.767  -2.394  1.00  0.00     0.198 C 
BRANCH  23  24
HETATM   24  O   UNL     1     -22.350  -5.606  -1.576  1.00  0.00    -0.398 OA
HETATM   25  H   UNL     1     -23.175  -5.719  -1.066  1.00  0.00     0.209 HD
ENDBRANCH  23  24
ENDBRANCH  18  23
BRANCH  20  26
HETATM   26  O   UNL     1     -23.585  -7.643   0.187  1.00  0.00    -0.369 OA
HETATM   27  H   UNL     1     -24.340  -8.218  -0.016  1.00  0.00     0.212 HD
ENDBRANCH  20  26
BRANCH  21  28
HETATM   28  O   UNL     1     -23.960 -10.331   0.050  1.00  0.00    -0.388 OA
HETATM   29  H   UNL     1     -24.586  -9.585  -0.009  1.00  0.00     0.210 HD
ENDBRANCH  21  28
BRANCH  22  30
HETATM   30  O   UNL     1     -22.537 -11.209  -2.372  1.00  0.00    -0.390 OA
HETATM   31  H   UNL     1     -22.837 -11.153  -3.297  1.00  0.00     0.210 HD
ENDBRANCH  22  30
ENDBRANCH   1  17
TORSDOF 12
BEGIN_RES ARG D 557
REMARK  4 active torsions:
REMARK  status: ('A' for Active; 'I' for Inactive)
REMARK    1  A    between atoms: CA   and  CB  
REMARK    2  A    between atoms: CB   and  CG  
REMARK    3  A    between atoms: CG   and  CD  
REMARK    4  A    between atoms: CD   and  NE  
REMARK       I    between atoms: NE   and  CZ  
REMARK       I    between atoms: CZ   and  NH1 
REMARK       I    between atoms: CZ   and  NH2 
ROOT
ATOM      1  CA  ARG D 557     -26.217   2.705 -17.014  1.00 35.49     0.159 C 
ENDROOT
BRANCH   1   2
ATOM      2  CB  ARG D 557     -26.789   1.319 -17.183  1.00 35.49     0.034 C 
BRANCH   2   3
ATOM      3  CG  ARG D 557     -25.835   0.203 -17.158  1.00 35.49     0.027 C 
BRANCH   3   4
ATOM      4  CD  ARG D 557     -24.752   0.408 -16.170  1.00 35.49     0.116 C 
BRANCH   4   5
ATOM      5  NE  ARG D 557     -24.902  -0.440 -15.017  1.00 35.49    -0.212 N 
ATOM      6  CZ  ARG D 557     -24.089  -1.412 -14.668  1.00 35.49     0.666 C 
ATOM      7  NH1 ARG D 557     -23.019  -1.729 -15.373  1.00 35.49    -0.235 N 
ATOM      8  NH2 ARG D 557     -24.368  -2.065 -13.577  1.00 35.49    -0.235 N 
ATOM      9  HH  ARG D 557     -22.815  -1.311 -16.092  1.00 35.49     0.174 HD
ATOM     10  HH  ARG D 557     -22.523  -2.370 -15.095  1.00 35.49     0.174 HD
ATOM     11  HH  ARG D 557     -25.061  -1.834 -13.138  1.00 35.49     0.174 HD
ATOM     12  HH  ARG D 557     -23.864  -2.696 -13.318  1.00 35.49     0.174 HD
ATOM     13  HE  ARG D 557     -25.604  -0.353 -14.545  1.00 35.49     0.178 HD
ENDBRANCH   4   5
ENDBRANCH   3   4
ENDBRANCH   2   3
ENDBRANCH   1   2
END_RES ARG D 557
BEGIN_RES GLU D 570
REMARK  3 active torsions:
REMARK  status: ('A' for Active; 'I' for Inactive)
REMARK    5  A    between atoms: CA   and  CB  
REMARK    6  A    between atoms: CB   and  CG  
REMARK    7  A    between atoms: CG   and  CD  
ROOT
ATOM     14  CA  GLU D 570     -18.033  -6.348 -13.375  1.00 32.92     0.160 C 
ENDROOT
BRANCH  14  15
ATOM     15  CB  GLU D 570     -19.500  -6.345 -13.794  1.00 32.92     0.043 C 
BRANCH  15  16
ATOM     16  CG  GLU D 570     -20.441  -5.529 -12.984  1.00 32.92     0.100 C 
BRANCH  16  17
ATOM     17  CD  GLU D 570     -21.742  -5.247 -13.700  1.00 32.92     0.185 C 
ATOM     18  OE1 GLU D 570     -22.211  -6.110 -14.466  1.00 32.92    -0.647 OA
ATOM     19  OE2 GLU D 570     -22.289  -4.144 -13.505  1.00 32.92    -0.647 OA
ENDBRANCH  16  17
ENDBRANCH  15  16
ENDBRANCH  14  15
END_RES GLU D 570
ENDMDL
MODEL 6
REMARK VINA RESULT:      -5.5      4.587      7.963
REMARK  12 active torsions:
REMARK  status: ('A' for Active; 'I' for Inactive)
REMARK    1  A    between atoms: C_1  and  C_2 
REMARK    2  A    between atoms: C_1  and  O_23 
REMARK    3  A    between atoms: C_3  and  O_22 
REMARK    4  A    between atoms: C_4  and  O_21 
REMARK    5  A    between atoms: C_5  and  O_20 
REMARK    6  A    between atoms: C_6  and  O_8 
REMARK    7  A    between atoms: O_8  and  C_9 
REMARK    8  A    between atoms: C_10  and  C_18 
REMARK    9  A    between atoms: C_12  and  O_17 
REMARK   10  A    between atoms: C_13  and  O_16 
REMARK   11  A    between atoms: C_14  and  O_15 
REMARK   12  A    between atoms: C_18  and  O_19 
ROOT
HETATM    1  O   UNL     1     -27.195  -5.662 -19.121  1.00  0.00    -0.348 OA
ENDROOT
BRANCH   1   2
HETATM    2  C   UNL     1     -28.598  -5.713 -18.786  1.00  0.00     0.292 C 
HETATM    3  C   UNL     1     -29.021  -4.349 -18.210  1.00  0.00     0.204 C 
HETATM    4  C   UNL     1     -30.505  -4.422 -17.825  1.00  0.00     0.183 C 
HETATM    5  C   UNL     1     -30.757  -5.564 -16.821  1.00  0.00     0.180 C 
HETATM    6  C   UNL     1     -30.174  -6.888 -17.347  1.00  0.00     0.179 C 
HETATM    7  O   UNL     1     -28.821  -6.724 -17.813  1.00  0.00    -0.348 OA
BRANCH   3   8
HETATM    8  O   UNL     1     -28.247  -4.048 -17.026  1.00  0.00    -0.388 OA
HETATM    9  H   UNL     1     -28.684  -3.269 -16.625  1.00  0.00     0.210 HD
ENDBRANCH   3   8
BRANCH   4  10
HETATM   10  O   UNL     1     -30.926  -3.172 -17.279  1.00  0.00    -0.390 OA
HETATM   11  H   UNL     1     -31.605  -3.393 -16.608  1.00  0.00     0.210 HD
ENDBRANCH   4  10
BRANCH   5  12
HETATM   12  O   UNL     1     -30.152  -5.245 -15.555  1.00  0.00    -0.390 OA
HETATM   13  H   UNL     1     -29.182  -5.212 -15.698  1.00  0.00     0.210 HD
ENDBRANCH   5  12
BRANCH   6  14
HETATM   14  C   UNL     1     -31.047  -7.541 -18.427  1.00  0.00     0.198 C 
BRANCH  14  15
HETATM   15  O   UNL     1     -30.332  -8.575 -19.104  1.00  0.00    -0.398 OA
HETATM   16  H   UNL     1     -29.966  -8.186 -19.917  1.00  0.00     0.209 HD
ENDBRANCH  14  15
ENDBRANCH   6  14
ENDBRANCH   1   2
BRANCH   1  17
HETATM   17  C   UNL     1     -26.491  -6.849 -18.660  1.00  0.00     0.187 C 
HETATM   18  C   UNL     1     -25.046  -6.528 -18.215  1.00  0.00     0.180 C 
HETATM   19  O   UNL     1     -24.228  -6.108 -19.307  1.00  0.00    -0.349 OA
HETATM   20  C   UNL     1     -24.159  -6.969 -20.423  1.00  0.00     0.288 C 
HETATM   21  C   UNL     1     -25.531  -7.446 -20.951  1.00  0.00     0.204 C 
HETATM   22  C   UNL     1     -26.453  -7.881 -19.802  1.00  0.00     0.183 C 
BRANCH  18  23
HETATM   23  C   UNL     1     -24.444  -7.650 -17.363  1.00  0.00     0.198 C 
BRANCH  23  24
HETATM   24  O   UNL     1     -23.058  -7.379 -17.140  1.00  0.00    -0.398 OA
HETATM   25  H   UNL     1     -22.547  -7.989 -17.706  1.00  0.00     0.209 HD
ENDBRANCH  23  24
ENDBRANCH  18  23
BRANCH  20  26
HETATM   26  O   UNL     1     -23.279  -8.057 -20.165  1.00  0.00    -0.369 OA
HETATM   27  H   UNL     1     -23.040  -8.464 -21.014  1.00  0.00     0.212 HD
ENDBRANCH  20  26
BRANCH  21  28
HETATM   28  O   UNL     1     -25.349  -8.553 -21.854  1.00  0.00    -0.388 OA
HETATM   29  H   UNL     1     -26.207  -8.762 -22.268  1.00  0.00     0.210 HD
ENDBRANCH  21  28
BRANCH  22  30
HETATM   30  O   UNL     1     -27.790  -8.124 -20.266  1.00  0.00    -0.390 OA
HETATM   31  H   UNL     1     -28.386  -7.593 -19.708  1.00  0.00     0.210 HD
ENDBRANCH  22  30
ENDBRANCH   1  17
TORSDOF 12
BEGIN_RES ARG D 557
REMARK  4 active torsions:
REMARK  status: ('A' for Active; 'I' for Inactive)
REMARK    1  A    between atoms: CA   and  CB  
REMARK    2  A    between atoms: CB   and  CG  
REMARK    3  A    between atoms: CG   and  CD  
REMARK    4  A    between atoms: CD   and  NE  
REMARK       I    between atoms: NE   and  CZ  
REMARK       I    between atoms: CZ   and  NH1 
REMARK       I    between atoms: CZ   and  NH2 
ROOT
ATOM      1  CA  ARG D 557     -26.217   2.705 -17.014  1.00 35.49     0.159 C 
ENDROOT
BRANCH   1   2
ATOM      2  CB  ARG D 557     -26.789   1.319 -17.183  1.00 35.49     0.034 C 
BRANCH   2   3
ATOM      3  CG  ARG D 557     -25.894   0.194 -16.886  1.00 35.49     0.027 C 
BRANCH   3   4
ATOM      4  CD  ARG D 557     -26.551  -0.849 -16.066  1.00 35.49     0.116 C 
BRANCH   4   5
ATOM      5  NE  ARG D 557     -25.714  -1.294 -14.983  1.00 35.49    -0.212 N 
ATOM      6  CZ  ARG D 557     -25.657  -2.519 -14.510  1.00 35.49     0.666 C 
ATOM      7  NH1 ARG D 557     -26.400  -3.500 -14.989  1.00 35.49    -0.235 N 
ATOM      8  NH2 ARG D 557     -24.824  -2.748 -13.537  1.00 35.49    -0.235 N 
ATOM      9  HH  ARG D 557     -26.953  -3.372 -15.631  1.00 35.49     0.174 HD
ATOM     10  HH  ARG D 557     -26.318  -4.279 -14.642  1.00 35.49     0.174 HD
ATOM     11  HH  ARG D 557     -24.352  -2.097 -13.252  1.00 35.49     0.174 HD
ATOM     12  HH  ARG D 557     -24.756  -3.527 -13.208  1.00 35.49     0.174 HD
ATOM     13  HE  ARG D 557     -25.255  -0.711 -14.567  1.00 35.49     0.178 HD
ENDBRANCH   4   5
ENDBRANCH   3   4
ENDBRANCH   2   3
ENDBRANCH   1   2
END_RES ARG D 557
BEGIN_RES GLU D 570
REMARK  3 active torsions:
REMARK  status: ('A' for Active; 'I' for Inactive)
REMARK    5  A    between atoms: CA   and  CB  
REMARK    6  A    between atoms: CB   and  CG  
REMARK    7  A    between atoms: CG   and  CD  
ROOT
ATOM     14  CA  GLU D 570     -18.033  -6.348 -13.375  1.00 32.92     0.160 C 
ENDROOT
BRANCH  14  15
ATOM     15  CB  GLU D 570     -19.500  -6.345 -13.794  1.00 32.92     0.043 C 
BRANCH  15  16
ATOM     16  CG  GLU D 570     -20.444  -5.542 -12.975  1.00 32.92     0.100 C 
BRANCH  16  17
ATOM     17  CD  GLU D 570     -21.740  -5.244 -13.692  1.00 32.92     0.185 C 
ATOM     18  OE1 GLU D 570     -22.246  -6.121 -14.418  1.00 32.92    -0.647 OA
ATOM     19  OE2 GLU D 570     -22.246  -4.114 -13.540  1.00 32.92    -0.647 OA
ENDBRANCH  16  17
ENDBRANCH  15  16
ENDBRANCH  14  15
END_RES GLU D 570
ENDMDL
MODEL 7
REMARK VINA RESULT:      -5.3      8.077     11.272
REMARK  12 active torsions:
REMARK  status: ('A' for Active; 'I' for Inactive)
REMARK    1  A    between atoms: C_1  and  C_2 
REMARK    2  A    between atoms: C_1  and  O_23 
REMARK    3  A    between atoms: C_3  and  O_22 
REMARK    4  A    between atoms: C_4  and  O_21 
REMARK    5  A    between atoms: C_5  and  O_20 
REMARK    6  A    between atoms: C_6  and  O_8 
REMARK    7  A    between atoms: O_8  and  C_9 
REMARK    8  A    between atoms: C_10  and  C_18 
REMARK    9  A    between atoms: C_12  and  O_17 
REMARK   10  A    between atoms: C_13  and  O_16 
REMARK   11  A    between atoms: C_14  and  O_15 
REMARK   12  A    between atoms: C_18  and  O_19 
ROOT
HETATM    1  O   UNL     1     -20.018 -10.069  -1.412  1.00  0.00    -0.348 OA
ENDROOT
BRANCH   1   2
HETATM    2  C   UNL     1     -19.110 -10.477  -2.458  1.00  0.00     0.292 C 
HETATM    3  C   UNL     1     -18.388 -11.763  -2.015  1.00  0.00     0.204 C 
HETATM    4  C   UNL     1     -17.400 -12.171  -3.116  1.00  0.00     0.183 C 
HETATM    5  C   UNL     1     -16.403 -11.032  -3.410  1.00  0.00     0.180 C 
HETATM    6  C   UNL     1     -17.148  -9.714  -3.684  1.00  0.00     0.179 C 
HETATM    7  O   UNL     1     -18.151  -9.453  -2.684  1.00  0.00    -0.348 OA
BRANCH   3   8
HETATM    8  O   UNL     1     -17.651 -11.523  -0.794  1.00  0.00    -0.388 OA
HETATM    9  H   UNL     1     -17.726 -12.354  -0.281  1.00  0.00     0.210 HD
ENDBRANCH   3   8
BRANCH   4  10
HETATM   10  O   UNL     1     -16.707 -13.358  -2.731  1.00  0.00    -0.390 OA
HETATM   11  H   UNL     1     -17.255 -14.100  -3.061  1.00  0.00     0.210 HD
ENDBRANCH   4  10
BRANCH   5  12
HETATM   12  O   UNL     1     -15.519 -10.856  -2.287  1.00  0.00    -0.390 OA
HETATM   13  H   UNL     1     -14.858 -10.177  -2.542  1.00  0.00     0.210 HD
ENDBRANCH   5  12
BRANCH   6  14
HETATM   14  C   UNL     1     -17.754  -9.650  -5.093  1.00  0.00     0.198 C 
BRANCH  14  15
HETATM   15  O   UNL     1     -16.822 -10.111  -6.070  1.00  0.00    -0.398 OA
HETATM   16  H   UNL     1     -15.968  -9.690  -5.872  1.00  0.00     0.209 HD
ENDBRANCH  14  15
ENDBRANCH   6  14
ENDBRANCH   1   2
BRANCH   1  17
HETATM   17  C   UNL     1     -21.118  -9.275  -1.937  1.00  0.00     0.187 C 
HETATM   18  C   UNL     1     -21.137  -7.849  -1.340  1.00  0.00     0.180 C 
HETATM   19  O   UNL     1     -21.422  -7.855   0.059  1.00  0.00    -0.349 OA
HETATM   20  C   UNL     1     -22.600  -8.516   0.469  1.00  0.00     0.288 C 
HETATM   21  C   UNL     1     -22.771  -9.939  -0.106  1.00  0.00     0.204 C 
HETATM   22  C   UNL     1     -22.446  -9.981  -1.607  1.00  0.00     0.183 C 
BRANCH  18  23
HETATM   23  C   UNL     1     -22.006  -6.893  -2.162  1.00  0.00     0.198 C 
BRANCH  23  24
HETATM   24  O   UNL     1     -22.317  -5.743  -1.373  1.00  0.00    -0.398 OA
HETATM   25  H   UNL     1     -21.639  -5.676  -0.674  1.00  0.00     0.209 HD
ENDBRANCH  23  24
ENDBRANCH  18  23
BRANCH  20  26
HETATM   26  O   UNL     1     -23.743  -7.702   0.226  1.00  0.00    -0.369 OA
HETATM   27  H   UNL     1     -23.897  -7.150   1.010  1.00  0.00     0.212 HD
ENDBRANCH  20  26
BRANCH  21  28
HETATM   28  O   UNL     1     -24.125 -10.389   0.095  1.00  0.00    -0.388 OA
HETATM   29  H   UNL     1     -24.347 -11.031  -0.605  1.00  0.00     0.210 HD
ENDBRANCH  21  28
BRANCH  22  30
HETATM   30  O   UNL     1     -22.399 -11.331  -2.096  1.00  0.00    -0.390 OA
HETATM   31  H   UNL     1     -23.304 -11.686  -2.039  1.00  0.00     0.210 HD
ENDBRANCH  22  30
ENDBRANCH   1  17
TORSDOF 12
BEGIN_RES ARG D 557
REMARK  4 active torsions:
REMARK  status: ('A' for Active; 'I' for Inactive)
REMARK    1  A    between atoms: CA   and  CB  
REMARK    2  A    between atoms: CB   and  CG  
REMARK    3  A    between atoms: CG   and  CD  
REMARK    4  A    between atoms: CD   and  NE  
REMARK       I    between atoms: NE   and  CZ  
REMARK       I    between atoms: CZ   and  NH1 
REMARK       I    between atoms: CZ   and  NH2 
ROOT
ATOM      1  CA  ARG D 557     -26.217   2.705 -17.014  1.00 35.49     0.159 C 
ENDROOT
BRANCH   1   2
ATOM      2  CB  ARG D 557     -26.789   1.319 -17.183  1.00 35.49     0.034 C 
BRANCH   2   3
ATOM      3  CG  ARG D 557     -28.230   1.227 -17.448  1.00 35.49     0.027 C 
BRANCH   3   4
ATOM      4  CD  ARG D 557     -28.919   0.312 -16.509  1.00 35.49     0.116 C 
BRANCH   4   5
ATOM      5  NE  ARG D 557     -29.293  -0.928 -17.136  1.00 35.49    -0.212 N 
ATOM      6  CZ  ARG D 557     -28.651  -2.069 -17.027  1.00 35.49     0.666 C 
ATOM      7  NH1 ARG D 557     -27.546  -2.195 -16.315  1.00 35.49    -0.235 N 
ATOM      8  NH2 ARG D 557     -29.146  -3.099 -17.649  1.00 35.49    -0.235 N 
ATOM      9  HH  ARG D 557     -27.203  -1.531 -15.896  1.00 35.49     0.174 HD
ATOM     10  HH  ARG D 557     -27.171  -2.965 -16.278  1.00 35.49     0.174 HD
ATOM     11  HH  ARG D 557     -29.865  -2.990 -18.095  1.00 35.49     0.174 HD
ATOM     12  HH  ARG D 557     -28.762  -3.853 -17.599  1.00 35.49     0.174 HD
ATOM     13  HE  ARG D 557     -29.953  -0.921 -17.673  1.00 35.49     0.178 HD
ENDBRANCH   4   5
ENDBRANCH   3   4
ENDBRANCH   2   3
ENDBRANCH   1   2
END_RES ARG D 557
BEGIN_RES GLU D 570
REMARK  3 active torsions:
REMARK  status: ('A' for Active; 'I' for Inactive)
REMARK    5  A    between atoms: CA   and  CB  
REMARK    6  A    between atoms: CB   and  CG  
REMARK    7  A    between atoms: CG   and  CD  
ROOT
ATOM     14  CA  GLU D 570     -18.033  -6.348 -13.375  1.00 32.92     0.160 C 
ENDROOT
BRANCH  14  15
ATOM     15  CB  GLU D 570     -19.500  -6.345 -13.794  1.00 32.92     0.043 C 
BRANCH  15  16
ATOM     16  CG  GLU D 570     -20.451  -5.574 -12.952  1.00 32.92     0.100 C 
BRANCH  16  17
ATOM     17  CD  GLU D 570     -21.691  -5.148 -13.702  1.00 32.92     0.185 C 
ATOM     18  OE1 GLU D 570     -21.632  -5.010 -14.939  1.00 32.92    -0.647 OA
ATOM     19  OE2 GLU D 570     -22.728  -4.932 -13.044  1.00 32.92    -0.647 OA
ENDBRANCH  16  17
ENDBRANCH  15  16
ENDBRANCH  14  15
END_RES GLU D 570
ENDMDL
MODEL 8
REMARK VINA RESULT:      -5.3      7.513     10.817
REMARK  12 active torsions:
REMARK  status: ('A' for Active; 'I' for Inactive)
REMARK    1  A    between atoms: C_1  and  C_2 
REMARK    2  A    between atoms: C_1  and  O_23 
REMARK    3  A    between atoms: C_3  and  O_22 
REMARK    4  A    between atoms: C_4  and  O_21 
REMARK    5  A    between atoms: C_5  and  O_20 
REMARK    6  A    between atoms: C_6  and  O_8 
REMARK    7  A    between atoms: O_8  and  C_9 
REMARK    8  A    between atoms: C_10  and  C_18 
REMARK    9  A    between atoms: C_12  and  O_17 
REMARK   10  A    between atoms: C_13  and  O_16 
REMARK   11  A    between atoms: C_14  and  O_15 
REMARK   12  A    between atoms: C_18  and  O_19 
ROOT
HETATM    1  O   UNL     1     -20.086  -9.932  -1.991  1.00  0.00    -0.348 OA
ENDROOT
BRANCH   1   2
HETATM    2  C   UNL     1     -19.110  -9.952  -3.055  1.00  0.00     0.292 C 
HETATM    3  C   UNL     1     -19.766 -10.535  -4.320  1.00  0.00     0.204 C 
HETATM    4  C   UNL     1     -18.714 -10.586  -5.436  1.00  0.00     0.183 C 
HETATM    5  C   UNL     1     -17.489 -11.414  -4.999  1.00  0.00     0.180 C 
HETATM    6  C   UNL     1     -16.952 -10.918  -3.645  1.00  0.00     0.179 C 
HETATM    7  O   UNL     1     -18.009 -10.768  -2.678  1.00  0.00    -0.348 OA
BRANCH   3   8
HETATM    8  O   UNL     1     -20.236 -11.879  -4.062  1.00  0.00    -0.388 OA
HETATM    9  H   UNL     1     -19.541 -12.292  -3.509  1.00  0.00     0.210 HD
ENDBRANCH   3   8
BRANCH   4  10
HETATM   10  O   UNL     1     -19.291 -11.131  -6.623  1.00  0.00    -0.390 OA
HETATM   11  H   UNL     1     -20.254 -11.183  -6.446  1.00  0.00     0.210 HD
ENDBRANCH   4  10
BRANCH   5  12
HETATM   12  O   UNL     1     -17.852 -12.802  -4.890  1.00  0.00    -0.390 OA
HETATM   13  H   UNL     1     -17.652 -13.224  -5.754  1.00  0.00     0.210 HD
ENDBRANCH   5  12
BRANCH   6  14
HETATM   14  C   UNL     1     -16.133  -9.625  -3.762  1.00  0.00     0.198 C 
BRANCH  14  15
HETATM   15  O   UNL     1     -15.789  -9.121  -2.471  1.00  0.00    -0.398 OA
HETATM   16  H   UNL     1     -15.556  -8.184  -2.583  1.00  0.00     0.209 HD
ENDBRANCH  14  15
ENDBRANCH   6  14
ENDBRANCH   1   2
BRANCH   1  17
HETATM   17  C   UNL     1     -21.251  -9.138  -2.348  1.00  0.00     0.187 C 
HETATM   18  C   UNL     1     -21.202  -7.726  -1.721  1.00  0.00     0.180 C 
HETATM   19  O   UNL     1     -21.301  -7.766  -0.298  1.00  0.00    -0.349 OA
HETATM   20  C   UNL     1     -22.410  -8.448   0.248  1.00  0.00     0.288 C 
HETATM   21  C   UNL     1     -22.643  -9.860  -0.332  1.00  0.00     0.204 C 
HETATM   22  C   UNL     1     -22.518  -9.866  -1.863  1.00  0.00     0.183 C 
BRANCH  18  23
HETATM   23  C   UNL     1     -22.180  -6.762  -2.400  1.00  0.00     0.198 C 
BRANCH  23  24
HETATM   24  O   UNL     1     -22.351  -5.607  -1.576  1.00  0.00    -0.398 OA
HETATM   25  H   UNL     1     -22.411  -4.832  -2.167  1.00  0.00     0.209 HD
ENDBRANCH  23  24
ENDBRANCH  18  23
BRANCH  20  26
HETATM   26  O   UNL     1     -23.580  -7.641   0.177  1.00  0.00    -0.369 OA
HETATM   27  H   UNL     1     -24.111  -7.802   0.974  1.00  0.00     0.212 HD
ENDBRANCH  20  26
BRANCH  21  28
HETATM   28  O   UNL     1     -23.955 -10.329   0.035  1.00  0.00    -0.388 OA
HETATM   29  H   UNL     1     -24.534  -9.556   0.175  1.00  0.00     0.210 HD
ENDBRANCH  21  28
BRANCH  22  30
HETATM   30  O   UNL     1     -22.526 -11.204  -2.385  1.00  0.00    -0.390 OA
HETATM   31  H   UNL     1     -23.451 -11.507  -2.377  1.00  0.00     0.210 HD
ENDBRANCH  22  30
ENDBRANCH   1  17
TORSDOF 12
BEGIN_RES ARG D 557
REMARK  4 active torsions:
REMARK  status: ('A' for Active; 'I' for Inactive)
REMARK    1  A    between atoms: CA   and  CB  
REMARK    2  A    between atoms: CB   and  CG  
REMARK    3  A    between atoms: CG   and  CD  
REMARK    4  A    between atoms: CD   and  NE  
REMARK       I    between atoms: NE   and  CZ  
REMARK       I    between atoms: CZ   and  NH1 
REMARK       I    between atoms: CZ   and  NH2 
ROOT
ATOM      1  CA  ARG D 557     -26.217   2.705 -17.014  1.00 35.49     0.159 C 
ENDROOT
BRANCH   1   2
ATOM      2  CB  ARG D 557     -26.789   1.319 -17.183  1.00 35.49     0.034 C 
BRANCH   2   3
ATOM      3  CG  ARG D 557     -28.153   1.102 -16.687  1.00 35.49     0.027 C 
BRANCH   3   4
ATOM      4  CD  ARG D 557     -28.791  -0.090 -17.291  1.00 35.49     0.116 C 
BRANCH   4   5
ATOM      5  NE  ARG D 557     -28.174  -1.314 -16.856  1.00 35.49    -0.212 N 
ATOM      6  CZ  ARG D 557     -28.657  -2.524 -17.034  1.00 35.49     0.666 C 
ATOM      7  NH1 ARG D 557     -29.808  -2.745 -17.640  1.00 35.49    -0.235 N 
ATOM      8  NH2 ARG D 557     -27.951  -3.523 -16.591  1.00 35.49    -0.235 N 
ATOM      9  HH  ARG D 557     -30.288  -2.103 -17.941  1.00 35.49     0.174 HD
ATOM     10  HH  ARG D 557     -30.072  -3.556 -17.730  1.00 35.49     0.174 HD
ATOM     11  HH  ARG D 557     -27.207  -3.351 -16.210  1.00 35.49     0.174 HD
ATOM     12  HH  ARG D 557     -28.228  -4.318 -16.691  1.00 35.49     0.174 HD
ATOM     13  HE  ARG D 557     -27.463  -1.261 -16.392  1.00 35.49     0.178 HD
ENDBRANCH   4   5
ENDBRANCH   3   4
ENDBRANCH   2   3
ENDBRANCH   1   2
END_RES ARG D 557
BEGIN_RES GLU D 570
REMARK  3 active torsions:
REMARK  status: ('A' for Active; 'I' for Inactive)
REMARK    5  A    between atoms: CA   and  CB  
REMARK    6  A    between atoms: CB   and  CG  
REMARK    7  A    between atoms: CG   and  CD  
ROOT
ATOM     14  CA  GLU D 570     -18.033  -6.348 -13.375  1.00 32.92     0.160 C 
ENDROOT
BRANCH  14  15
ATOM     15  CB  GLU D 570     -19.500  -6.345 -13.794  1.00 32.92     0.043 C 
BRANCH  15  16
ATOM     16  CG  GLU D 570     -19.796  -6.348 -15.250  1.00 32.92     0.100 C 
BRANCH  16  17
ATOM     17  CD  GLU D 570     -20.871  -7.339 -15.631  1.00 32.92     0.185 C 
ATOM     18  OE1 GLU D 570     -20.597  -8.554 -15.643  1.00 32.92    -0.647 OA
ATOM     19  OE2 GLU D 570     -21.995  -6.894 -15.937  1.00 32.92    -0.647 OA
ENDBRANCH  16  17
ENDBRANCH  15  16
ENDBRANCH  14  15
END_RES GLU D 570
ENDMDL
MODEL 9
REMARK VINA RESULT:      -5.3      6.944      9.971
REMARK  12 active torsions:
REMARK  status: ('A' for Active; 'I' for Inactive)
REMARK    1  A    between atoms: C_1  and  C_2 
REMARK    2  A    between atoms: C_1  and  O_23 
REMARK    3  A    between atoms: C_3  and  O_22 
REMARK    4  A    between atoms: C_4  and  O_21 
REMARK    5  A    between atoms: C_5  and  O_20 
REMARK    6  A    between atoms: C_6  and  O_8 
REMARK    7  A    between atoms: O_8  and  C_9 
REMARK    8  A    between atoms: C_10  and  C_18 
REMARK    9  A    between atoms: C_12  and  O_17 
REMARK   10  A    between atoms: C_13  and  O_16 
REMARK   11  A    between atoms: C_14  and  O_15 
REMARK   12  A    between atoms: C_18  and  O_19 
ROOT
HETATM    1  O   UNL     1     -19.352  -8.897  -2.882  1.00  0.00    -0.348 OA
ENDROOT
BRANCH   1   2
HETATM    2  C   UNL     1     -18.673  -9.956  -3.592  1.00  0.00     0.292 C 
HETATM    3  C   UNL     1     -17.367 -10.293  -2.850  1.00  0.00     0.204 C 
HETATM    4  C   UNL     1     -16.634 -11.394  -3.628  1.00  0.00     0.183 C 
HETATM    5  C   UNL     1     -16.364 -10.953  -5.081  1.00  0.00     0.180 C 
HETATM    6  C   UNL     1     -17.660 -10.460  -5.749  1.00  0.00     0.179 C 
HETATM    7  O   UNL     1     -18.367  -9.526  -4.911  1.00  0.00    -0.348 OA
BRANCH   3   8
HETATM    8  O   UNL     1     -16.517  -9.124  -2.784  1.00  0.00    -0.388 OA
HETATM    9  H   UNL     1     -16.948  -8.461  -3.361  1.00  0.00     0.210 HD
ENDBRANCH   3   8
BRANCH   4  10
HETATM   10  O   UNL     1     -15.412 -11.723  -2.968  1.00  0.00    -0.390 OA
HETATM   11  H   UNL     1     -14.866 -10.911  -3.005  1.00  0.00     0.210 HD
ENDBRANCH   4  10
BRANCH   5  12
HETATM   12  O   UNL     1     -15.387  -9.897  -5.097  1.00  0.00    -0.390 OA
HETATM   13  H   UNL     1     -15.878  -9.047  -5.104  1.00  0.00     0.210 HD
ENDBRANCH   5  12
BRANCH   6  14
HETATM   14  C   UNL     1     -18.582 -11.606  -6.186  1.00  0.00     0.198 C 
BRANCH  14  15
HETATM   15  O   UNL     1     -19.802 -11.100  -6.729  1.00  0.00    -0.398 OA
HETATM   16  H   UNL     1     -20.025 -11.654  -7.497  1.00  0.00     0.209 HD
ENDBRANCH  14  15
ENDBRANCH   6  14
ENDBRANCH   1   2
BRANCH   1  17
HETATM   17  C   UNL     1     -20.709  -8.710  -3.371  1.00  0.00     0.187 C 
HETATM   18  C   UNL     1     -20.892  -7.336  -4.055  1.00  0.00     0.180 C 
HETATM   19  O   UNL     1     -20.760  -6.254  -3.134  1.00  0.00    -0.349 OA
HETATM   20  C   UNL     1     -21.587  -6.284  -1.989  1.00  0.00     0.288 C 
HETATM   21  C   UNL     1     -21.575  -7.626  -1.225  1.00  0.00     0.204 C 
HETATM   22  C   UNL     1     -21.686  -8.820  -2.186  1.00  0.00     0.183 C 
BRANCH  18  23
HETATM   23  C   UNL     1     -22.157  -7.287  -4.918  1.00  0.00     0.198 C 
BRANCH  23  24
HETATM   24  O   UNL     1     -22.438  -5.929  -5.265  1.00  0.00    -0.398 OA
HETATM   25  H   UNL     1     -23.002  -5.558  -4.559  1.00  0.00     0.209 HD
ENDBRANCH  23  24
ENDBRANCH  18  23
BRANCH  20  26
HETATM   26  O   UNL     1     -22.908  -5.866  -2.312  1.00  0.00    -0.369 OA
HETATM   27  H   UNL     1     -23.534  -6.444  -1.847  1.00  0.00     0.212 HD
ENDBRANCH  20  26
BRANCH  21  28
HETATM   28  O   UNL     1     -22.672  -7.668  -0.293  1.00  0.00    -0.388 OA
HETATM   29  H   UNL     1     -22.519  -8.397   0.337  1.00  0.00     0.210 HD
ENDBRANCH  21  28
BRANCH  22  30
HETATM   30  O   UNL     1     -21.466 -10.065  -1.504  1.00  0.00    -0.390 OA
HETATM   31  H   UNL     1     -21.839 -10.767  -2.066  1.00  0.00     0.210 HD
ENDBRANCH  22  30
ENDBRANCH   1  17
TORSDOF 12
BEGIN_RES ARG D 557
REMARK  4 active torsions:
REMARK  status: ('A' for Active; 'I' for Inactive)
REMARK    1  A    between atoms: CA   and  CB  
REMARK    2  A    between atoms: CB   and  CG  
REMARK    3  A    between atoms: CG   and  CD  
REMARK    4  A    between atoms: CD   and  NE  
REMARK       I    between atoms: NE   and  CZ  
REMARK       I    between atoms: CZ   and  NH1 
REMARK       I    between atoms: CZ   and  NH2 
ROOT
ATOM      1  CA  ARG D 557     -26.217   2.705 -17.014  1.00 35.49     0.159 C 
ENDROOT
BRANCH   1   2
ATOM      2  CB  ARG D 557     -26.789   1.319 -17.183  1.00 35.49     0.034 C 
BRANCH   2   3
ATOM      3  CG  ARG D 557     -28.229   1.227 -17.452  1.00 35.49     0.027 C 
BRANCH   3   4
ATOM      4  CD  ARG D 557     -28.921   0.315 -16.513  1.00 35.49     0.116 C 
BRANCH   4   5
ATOM      5  NE  ARG D 557     -29.293  -0.927 -17.138  1.00 35.49    -0.212 N 
ATOM      6  CZ  ARG D 557     -28.648  -2.067 -17.024  1.00 35.49     0.666 C 
ATOM      7  NH1 ARG D 557     -27.545  -2.190 -16.309  1.00 35.49    -0.235 N 
ATOM      8  NH2 ARG D 557     -29.141  -3.100 -17.645  1.00 35.49    -0.235 N 
ATOM      9  HH  ARG D 557     -27.205  -1.524 -15.891  1.00 35.49     0.174 HD
ATOM     10  HH  ARG D 557     -27.170  -2.959 -16.269  1.00 35.49     0.174 HD
ATOM     11  HH  ARG D 557     -29.858  -2.992 -18.093  1.00 35.49     0.174 HD
ATOM     12  HH  ARG D 557     -28.755  -3.853 -17.592  1.00 35.49     0.174 HD
ATOM     13  HE  ARG D 557     -29.951  -0.923 -17.677  1.00 35.49     0.178 HD
ENDBRANCH   4   5
ENDBRANCH   3   4
ENDBRANCH   2   3
ENDBRANCH   1   2
END_RES ARG D 557
BEGIN_RES GLU D 570
REMARK  3 active torsions:
REMARK  status: ('A' for Active; 'I' for Inactive)
REMARK    5  A    between atoms: CA   and  CB  
REMARK    6  A    between atoms: CB   and  CG  
REMARK    7  A    between atoms: CG   and  CD  
ROOT
ATOM     14  CA  GLU D 570     -18.033  -6.348 -13.375  1.00 32.92     0.160 C 
ENDROOT
BRANCH  14  15
ATOM     15  CB  GLU D 570     -19.500  -6.345 -13.794  1.00 32.92     0.043 C 
BRANCH  15  16
ATOM     16  CG  GLU D 570     -19.803  -6.077 -15.224  1.00 32.92     0.100 C 
BRANCH  16  17
ATOM     17  CD  GLU D 570     -21.117  -5.357 -15.423  1.00 32.92     0.185 C 
ATOM     18  OE1 GLU D 570     -21.491  -5.089 -16.581  1.00 32.92    -0.647 OA
ATOM     19  OE2 GLU D 570     -21.771  -5.043 -14.409  1.00 32.92    -0.647 OA
ENDBRANCH  16  17
ENDBRANCH  15  16
ENDBRANCH  14  15
END_RES GLU D 570
ENDMDL
