MODEL 1
REMARK VINA RESULT:      -8.2      0.000      0.000
REMARK  17 active torsions:
REMARK  status: ('A' for Active; 'I' for Inactive)
REMARK    1  A    between atoms: C_2  and  C_3 
REMARK    2  A    between atoms: C_3  and  C_4 
REMARK    3  A    between atoms: C_4  and  C_5 
REMARK    4  A    between atoms: C_5  and  C_6 
REMARK    5  A    between atoms: C_6  and  C_7 
REMARK    6  A    between atoms: C_7  and  C_8 
REMARK    7  A    between atoms: C_8  and  C_9 
REMARK    8  A    between atoms: C_9  and  C_10 
REMARK    9  A    between atoms: C_10  and  C_11 
REMARK   10  A    between atoms: C_11  and  C_12 
REMARK   11  A    between atoms: C_12  and  O_14 
REMARK   12  A    between atoms: O_14  and  C_15 
REMARK   13  A    between atoms: C_15  and  C_16 
REMARK   14  A    between atoms: C_16  and  C_17 
REMARK   15  A    between atoms: C_16  and  O_24 
REMARK   16  A    between atoms: C_18  and  O_23 
REMARK   17  A    between atoms: C_19  and  O_22 
ROOT
HETATM    1  O   UNL     1     -22.262  -3.772  -8.890  1.00  0.00    -0.319 OA
ENDROOT
BRANCH   1   2
HETATM    2  C   UNL     1     -20.997  -4.201  -9.141  1.00  0.00     0.258 C 
HETATM    3  O   UNL     1     -20.558  -4.522 -10.257  1.00  0.00    -0.265 OA
BRANCH   2   4
HETATM    4  C   UNL     1     -20.151  -4.160  -7.905  1.00  0.00     0.111 C 
BRANCH   4   5
HETATM    5  C   UNL     1     -21.017  -4.381  -6.653  1.00  0.00     0.010 C 
BRANCH   5   6
HETATM    6  C   UNL     1     -20.443  -5.446  -5.722  1.00  0.00     0.000 C 
BRANCH   6   7
HETATM    7  C   UNL     1     -21.324  -6.688  -5.705  1.00  0.00     0.000 C 
BRANCH   7   8
HETATM    8  C   UNL     1     -22.073  -6.792  -4.389  1.00  0.00     0.000 C 
BRANCH   8   9
HETATM    9  C   UNL     1     -21.312  -6.047  -3.304  1.00  0.00     0.000 C 
BRANCH   9  10
HETATM   10  C   UNL     1     -22.082  -6.116  -1.998  1.00  0.00     0.000 C 
BRANCH  10  11
HETATM   11  C   UNL     1     -21.900  -7.482  -1.361  1.00  0.00     0.000 C 
BRANCH  11  12
HETATM   12  C   UNL     1     -22.725  -7.576  -0.086  1.00  0.00    -0.000 C 
BRANCH  12  13
HETATM   13  C   UNL     1     -23.078  -9.027   0.206  1.00  0.00    -0.005 C 
HETATM   14  C   UNL     1     -22.159  -9.953  -0.569  1.00  0.00     0.005 C 
ENDBRANCH  12  13
ENDBRANCH  11  12
ENDBRANCH  10  11
ENDBRANCH   9  10
ENDBRANCH   8   9
ENDBRANCH   7   8
ENDBRANCH   6   7
ENDBRANCH   5   6
ENDBRANCH   4   5
ENDBRANCH   2   4
ENDBRANCH   1   2
BRANCH   1  15
HETATM   15  C   UNL     1     -23.285  -4.299  -9.753  1.00  0.00     0.213 C 
BRANCH  15  16
HETATM   16  C   UNL     1     -24.172  -3.253 -10.420  1.00  0.00     0.174 C 
BRANCH  16  17
HETATM   17  C   UNL     1     -24.228  -3.399 -11.958  1.00  0.00     0.183 C 
HETATM   18  C   UNL     1     -23.082  -2.612 -12.590  1.00  0.00     0.180 C 
HETATM   19  C   UNL     1     -23.597  -2.198 -13.965  1.00  0.00     0.173 C 
HETATM   20  C   UNL     1     -25.004  -2.775 -14.015  1.00  0.00     0.202 C 
HETATM   21  O   UNL     1     -25.411  -2.923 -12.633  1.00  0.00    -0.378 OA
BRANCH  18  22
HETATM   22  O   UNL     1     -21.885  -3.370 -12.616  1.00  0.00    -0.390 OA
HETATM   23  H   UNL     1     -21.961  -4.058 -13.295  1.00  0.00     0.210 HD
ENDBRANCH  18  22
BRANCH  19  24
HETATM   24  O   UNL     1     -22.787  -2.655 -15.040  1.00  0.00    -0.391 OA
HETATM   25  H   UNL     1     -23.114  -3.523 -15.321  1.00  0.00     0.210 HD
ENDBRANCH  19  24
ENDBRANCH  16  17
BRANCH  16  26
HETATM   26  O   UNL     1     -25.474  -3.261  -9.819  1.00  0.00    -0.391 OA
HETATM   27  H   UNL     1     -25.907  -2.409  -9.993  1.00  0.00     0.210 HD
ENDBRANCH  16  26
ENDBRANCH  15  16
ENDBRANCH   1  15
TORSDOF 17
BEGIN_RES ARG D 557
REMARK  4 active torsions:
REMARK  status: ('A' for Active; 'I' for Inactive)
REMARK    1  A    between atoms: CA   and  CB  
REMARK    2  A    between atoms: CB   and  CG  
REMARK    3  A    between atoms: CG   and  CD  
REMARK    4  A    between atoms: CD   and  NE  
REMARK       I    between atoms: NE   and  CZ  
REMARK       I    between atoms: CZ   and  NH1 
REMARK       I    between atoms: CZ   and  NH2 
ROOT
ATOM      1  CA  ARG D 557     -26.217   2.705 -17.014  1.00 35.49     0.159 C 
ENDROOT
BRANCH   1   2
ATOM      2  CB  ARG D 557     -26.789   1.319 -17.183  1.00 35.49     0.034 C 
BRANCH   2   3
ATOM      3  CG  ARG D 557     -28.227   1.227 -17.461  1.00 35.49     0.027 C 
BRANCH   3   4
ATOM      4  CD  ARG D 557     -28.929   0.331 -16.515  1.00 35.49     0.116 C 
BRANCH   4   5
ATOM      5  NE  ARG D 557     -29.331  -0.905 -17.134  1.00 35.49    -0.212 N 
ATOM      6  CZ  ARG D 557     -28.692  -2.050 -17.050  1.00 35.49     0.666 C 
ATOM      7  NH1 ARG D 557     -27.567  -2.186 -16.373  1.00 35.49    -0.235 N 
ATOM      8  NH2 ARG D 557     -29.214  -3.075 -17.659  1.00 35.49    -0.235 N 
ATOM      9  HH  ARG D 557     -27.207  -1.525 -15.963  1.00 35.49     0.174 HD
ATOM     10  HH  ARG D 557     -27.196  -2.958 -16.351  1.00 35.49     0.174 HD
ATOM     11  HH  ARG D 557     -29.945  -2.959 -18.082  1.00 35.49     0.174 HD
ATOM     12  HH  ARG D 557     -28.833  -3.831 -17.624  1.00 35.49     0.174 HD
ATOM     13  HE  ARG D 557     -30.008  -0.891 -17.650  1.00 35.49     0.178 HD
ENDBRANCH   4   5
ENDBRANCH   3   4
ENDBRANCH   2   3
ENDBRANCH   1   2
END_RES ARG D 557
BEGIN_RES GLU D 570
REMARK  3 active torsions:
REMARK  status: ('A' for Active; 'I' for Inactive)
REMARK    5  A    between atoms: CA   and  CB  
REMARK    6  A    between atoms: CB   and  CG  
REMARK    7  A    between atoms: CG   and  CD  
ROOT
ATOM     14  CA  GLU D 570     -18.033  -6.348 -13.375  1.00 32.92     0.160 C 
ENDROOT
BRANCH  14  15
ATOM     15  CB  GLU D 570     -19.500  -6.345 -13.794  1.00 32.92     0.043 C 
BRANCH  15  16
ATOM     16  CG  GLU D 570     -19.803  -6.078 -15.224  1.00 32.92     0.100 C 
BRANCH  16  17
ATOM     17  CD  GLU D 570     -21.179  -5.492 -15.435  1.00 32.92     0.185 C 
ATOM     18  OE1 GLU D 570     -21.460  -4.990 -16.541  1.00 32.92    -0.647 OA
ATOM     19  OE2 GLU D 570     -21.980  -5.520 -14.480  1.00 32.92    -0.647 OA
ENDBRANCH  16  17
ENDBRANCH  15  16
ENDBRANCH  14  15
END_RES GLU D 570
ENDMDL
MODEL 2
REMARK VINA RESULT:      -7.8      1.224      1.843
REMARK  17 active torsions:
REMARK  status: ('A' for Active; 'I' for Inactive)
REMARK    1  A    between atoms: C_2  and  C_3 
REMARK    2  A    between atoms: C_3  and  C_4 
REMARK    3  A    between atoms: C_4  and  C_5 
REMARK    4  A    between atoms: C_5  and  C_6 
REMARK    5  A    between atoms: C_6  and  C_7 
REMARK    6  A    between atoms: C_7  and  C_8 
REMARK    7  A    between atoms: C_8  and  C_9 
REMARK    8  A    between atoms: C_9  and  C_10 
REMARK    9  A    between atoms: C_10  and  C_11 
REMARK   10  A    between atoms: C_11  and  C_12 
REMARK   11  A    between atoms: C_12  and  O_14 
REMARK   12  A    between atoms: O_14  and  C_15 
REMARK   13  A    between atoms: C_15  and  C_16 
REMARK   14  A    between atoms: C_16  and  C_17 
REMARK   15  A    between atoms: C_16  and  O_24 
REMARK   16  A    between atoms: C_18  and  O_23 
REMARK   17  A    between atoms: C_19  and  O_22 
ROOT
HETATM    1  O   UNL     1     -21.703  -4.240  -8.384  1.00  0.00    -0.319 OA
ENDROOT
BRANCH   1   2
HETATM    2  C   UNL     1     -22.112  -4.729  -7.183  1.00  0.00     0.258 C 
HETATM    3  O   UNL     1     -23.247  -4.588  -6.701  1.00  0.00    -0.265 OA
BRANCH   2   4
HETATM    4  C   UNL     1     -21.038  -5.547  -6.533  1.00  0.00     0.111 C 
BRANCH   4   5
HETATM    5  C   UNL     1     -21.446  -5.928  -5.099  1.00  0.00     0.010 C 
BRANCH   5   6
HETATM    6  C   UNL     1     -20.885  -7.280  -4.669  1.00  0.00     0.000 C 
BRANCH   6   7
HETATM    7  C   UNL     1     -21.209  -7.565  -3.208  1.00  0.00     0.000 C 
BRANCH   7   8
HETATM    8  C   UNL     1     -21.706  -6.308  -2.518  1.00  0.00     0.000 C 
BRANCH   8   9
HETATM    9  C   UNL     1     -22.414  -6.678  -1.224  1.00  0.00     0.000 C 
BRANCH   9  10
HETATM   10  C   UNL     1     -21.566  -7.659  -0.436  1.00  0.00     0.000 C 
BRANCH  10  11
HETATM   11  C   UNL     1     -22.457  -8.662   0.272  1.00  0.00     0.000 C 
BRANCH  11  12
HETATM   12  C   UNL     1     -22.724  -9.853  -0.635  1.00  0.00    -0.000 C 
BRANCH  12  13
HETATM   13  C   UNL     1     -23.939 -10.628  -0.144  1.00  0.00    -0.005 C 
HETATM   14  C   UNL     1     -24.111 -11.897  -0.957  1.00  0.00     0.005 C 
ENDBRANCH  12  13
ENDBRANCH  11  12
ENDBRANCH  10  11
ENDBRANCH   9  10
ENDBRANCH   8   9
ENDBRANCH   7   8
ENDBRANCH   6   7
ENDBRANCH   5   6
ENDBRANCH   4   5
ENDBRANCH   2   4
ENDBRANCH   1   2
BRANCH   1  15
HETATM   15  C   UNL     1     -22.541  -4.562  -9.508  1.00  0.00     0.213 C 
BRANCH  15  16
HETATM   16  C   UNL     1     -23.419  -3.421 -10.010  1.00  0.00     0.174 C 
BRANCH  16  17
HETATM   17  C   UNL     1     -23.797  -3.559 -11.503  1.00  0.00     0.183 C 
HETATM   18  C   UNL     1     -22.797  -2.784 -12.358  1.00  0.00     0.180 C 
HETATM   19  C   UNL     1     -23.581  -2.357 -13.596  1.00  0.00     0.173 C 
HETATM   20  C   UNL     1     -24.975  -2.914 -13.351  1.00  0.00     0.202 C 
HETATM   21  O   UNL     1     -25.087  -3.063 -11.915  1.00  0.00    -0.378 OA
BRANCH  18  22
HETATM   22  O   UNL     1     -21.642  -3.558 -12.635  1.00  0.00    -0.390 OA
HETATM   23  H   UNL     1     -20.853  -3.017 -12.474  1.00  0.00     0.210 HD
ENDBRANCH  18  22
BRANCH  19  24
HETATM   24  O   UNL     1     -23.019  -2.819 -14.816  1.00  0.00    -0.391 OA
HETATM   25  H   UNL     1     -23.671  -3.385 -15.257  1.00  0.00     0.210 HD
ENDBRANCH  19  24
ENDBRANCH  16  17
BRANCH  16  26
HETATM   26  O   UNL     1     -24.567  -3.278  -9.163  1.00  0.00    -0.391 OA
HETATM   27  H   UNL     1     -24.990  -2.423  -9.346  1.00  0.00     0.210 HD
ENDBRANCH  16  26
ENDBRANCH  15  16
ENDBRANCH   1  15
TORSDOF 17
BEGIN_RES ARG D 557
REMARK  4 active torsions:
REMARK  status: ('A' for Active; 'I' for Inactive)
REMARK    1  A    between atoms: CA   and  CB  
REMARK    2  A    between atoms: CB   and  CG  
REMARK    3  A    between atoms: CG   and  CD  
REMARK    4  A    between atoms: CD   and  NE  
REMARK       I    between atoms: NE   and  CZ  
REMARK       I    between atoms: CZ   and  NH1 
REMARK       I    between atoms: CZ   and  NH2 
ROOT
ATOM      1  CA  ARG D 557     -26.217   2.705 -17.014  1.00 35.49     0.159 C 
ENDROOT
BRANCH   1   2
ATOM      2  CB  ARG D 557     -26.789   1.319 -17.183  1.00 35.49     0.034 C 
BRANCH   2   3
ATOM      3  CG  ARG D 557     -25.944   0.199 -16.752  1.00 35.49     0.027 C 
BRANCH   3   4
ATOM      4  CD  ARG D 557     -26.721  -0.865 -16.074  1.00 35.49     0.116 C 
BRANCH   4   5
ATOM      5  NE  ARG D 557     -27.976  -1.121 -16.730  1.00 35.49    -0.212 N 
ATOM      6  CZ  ARG D 557     -28.500  -2.306 -16.951  1.00 35.49     0.666 C 
ATOM      7  NH1 ARG D 557     -27.898  -3.425 -16.593  1.00 35.49    -0.235 N 
ATOM      8  NH2 ARG D 557     -29.659  -2.350 -17.540  1.00 35.49    -0.235 N 
ATOM      9  HH  ARG D 557     -27.135  -3.420 -16.202  1.00 35.49     0.174 HD
ATOM     10  HH  ARG D 557     -28.289  -4.169 -16.761  1.00 35.49     0.174 HD
ATOM     11  HH  ARG D 557     -30.028  -1.610 -17.753  1.00 35.49     0.174 HD
ATOM     12  HH  ARG D 557     -30.031  -3.096 -17.696  1.00 35.49     0.174 HD
ATOM     13  HE  ARG D 557     -28.397  -0.459 -17.058  1.00 35.49     0.178 HD
ENDBRANCH   4   5
ENDBRANCH   3   4
ENDBRANCH   2   3
ENDBRANCH   1   2
END_RES ARG D 557
BEGIN_RES GLU D 570
REMARK  3 active torsions:
REMARK  status: ('A' for Active; 'I' for Inactive)
REMARK    5  A    between atoms: CA   and  CB  
REMARK    6  A    between atoms: CB   and  CG  
REMARK    7  A    between atoms: CG   and  CD  
ROOT
ATOM     14  CA  GLU D 570     -18.033  -6.348 -13.375  1.00 32.92     0.160 C 
ENDROOT
BRANCH  14  15
ATOM     15  CB  GLU D 570     -19.500  -6.345 -13.794  1.00 32.92     0.043 C 
BRANCH  15  16
ATOM     16  CG  GLU D 570     -19.810  -5.977 -15.200  1.00 32.92     0.100 C 
BRANCH  16  17
ATOM     17  CD  GLU D 570     -21.242  -5.535 -15.391  1.00 32.92     0.185 C 
ATOM     18  OE1 GLU D 570     -22.062  -5.724 -14.472  1.00 32.92    -0.647 OA
ATOM     19  OE2 GLU D 570     -21.551  -5.009 -16.479  1.00 32.92    -0.647 OA
ENDBRANCH  16  17
ENDBRANCH  15  16
ENDBRANCH  14  15
END_RES GLU D 570
ENDMDL
MODEL 3
REMARK VINA RESULT:      -7.5      2.754      4.201
REMARK  17 active torsions:
REMARK  status: ('A' for Active; 'I' for Inactive)
REMARK    1  A    between atoms: C_2  and  C_3 
REMARK    2  A    between atoms: C_3  and  C_4 
REMARK    3  A    between atoms: C_4  and  C_5 
REMARK    4  A    between atoms: C_5  and  C_6 
REMARK    5  A    between atoms: C_6  and  C_7 
REMARK    6  A    between atoms: C_7  and  C_8 
REMARK    7  A    between atoms: C_8  and  C_9 
REMARK    8  A    between atoms: C_9  and  C_10 
REMARK    9  A    between atoms: C_10  and  C_11 
REMARK   10  A    between atoms: C_11  and  C_12 
REMARK   11  A    between atoms: C_12  and  O_14 
REMARK   12  A    between atoms: O_14  and  C_15 
REMARK   13  A    between atoms: C_15  and  C_16 
REMARK   14  A    between atoms: C_16  and  C_17 
REMARK   15  A    between atoms: C_16  and  O_24 
REMARK   16  A    between atoms: C_18  and  O_23 
REMARK   17  A    between atoms: C_19  and  O_22 
ROOT
HETATM    1  O   UNL     1     -22.287  -4.815 -12.551  1.00  0.00    -0.319 OA
ENDROOT
BRANCH   1   2
HETATM    2  C   UNL     1     -22.420  -3.884 -11.569  1.00  0.00     0.258 C 
HETATM    3  O   UNL     1     -23.491  -3.557 -11.032  1.00  0.00    -0.265 OA
BRANCH   2   4
HETATM    4  C   UNL     1     -21.088  -3.349 -11.139  1.00  0.00     0.111 C 
BRANCH   4   5
HETATM    5  C   UNL     1     -20.249  -4.459 -10.482  1.00  0.00     0.010 C 
BRANCH   5   6
HETATM    6  C   UNL     1     -20.763  -4.843  -9.098  1.00  0.00     0.000 C 
BRANCH   6   7
HETATM    7  C   UNL     1     -20.164  -3.944  -8.024  1.00  0.00     0.000 C 
BRANCH   7   8
HETATM    8  C   UNL     1     -20.270  -4.599  -6.660  1.00  0.00     0.000 C 
BRANCH   8   9
HETATM    9  C   UNL     1     -21.127  -5.852  -6.756  1.00  0.00     0.000 C 
BRANCH   9  10
HETATM   10  C   UNL     1     -21.739  -6.160  -5.402  1.00  0.00     0.000 C 
BRANCH  10  11
HETATM   11  C   UNL     1     -21.296  -7.534  -4.934  1.00  0.00     0.000 C 
BRANCH  11  12
HETATM   12  C   UNL     1     -21.159  -7.549  -3.419  1.00  0.00    -0.000 C 
BRANCH  12  13
HETATM   13  C   UNL     1     -21.695  -6.252  -2.830  1.00  0.00    -0.005 C 
HETATM   14  C   UNL     1     -22.251  -6.502  -1.441  1.00  0.00     0.005 C 
ENDBRANCH  12  13
ENDBRANCH  11  12
ENDBRANCH  10  11
ENDBRANCH   9  10
ENDBRANCH   8   9
ENDBRANCH   7   8
ENDBRANCH   6   7
ENDBRANCH   5   6
ENDBRANCH   4   5
ENDBRANCH   2   4
ENDBRANCH   1   2
BRANCH   1  15
HETATM   15  C   UNL     1     -23.497  -5.479 -12.952  1.00  0.00     0.213 C 
BRANCH  15  16
HETATM   16  C   UNL     1     -23.712  -5.581 -14.458  1.00  0.00     0.174 C 
BRANCH  16  17
HETATM   17  C   UNL     1     -25.204  -5.549 -14.861  1.00  0.00     0.183 C 
HETATM   18  C   UNL     1     -25.426  -6.449 -16.074  1.00  0.00     0.180 C 
HETATM   19  C   UNL     1     -26.611  -5.832 -16.813  1.00  0.00     0.173 C 
HETATM   20  C   UNL     1     -26.973  -4.620 -15.969  1.00  0.00     0.202 C 
HETATM   21  O   UNL     1     -25.767  -4.278 -15.244  1.00  0.00    -0.378 OA
BRANCH  18  22
HETATM   22  O   UNL     1     -25.615  -7.801 -15.690  1.00  0.00    -0.390 OA
HETATM   23  H   UNL     1     -24.766  -8.167 -15.397  1.00  0.00     0.210 HD
ENDBRANCH  18  22
BRANCH  19  24
HETATM   24  O   UNL     1     -27.706  -6.723 -16.980  1.00  0.00    -0.391 OA
HETATM   25  H   UNL     1     -28.347  -6.554 -16.274  1.00  0.00     0.210 HD
ENDBRANCH  19  24
ENDBRANCH  16  17
BRANCH  16  26
HETATM   26  O   UNL     1     -22.939  -4.577 -15.131  1.00  0.00    -0.391 OA
HETATM   27  H   UNL     1     -22.000  -4.708 -14.920  1.00  0.00     0.210 HD
ENDBRANCH  16  26
ENDBRANCH  15  16
ENDBRANCH   1  15
TORSDOF 17
BEGIN_RES ARG D 557
REMARK  4 active torsions:
REMARK  status: ('A' for Active; 'I' for Inactive)
REMARK    1  A    between atoms: CA   and  CB  
REMARK    2  A    between atoms: CB   and  CG  
REMARK    3  A    between atoms: CG   and  CD  
REMARK    4  A    between atoms: CD   and  NE  
REMARK       I    between atoms: NE   and  CZ  
REMARK       I    between atoms: CZ   and  NH1 
REMARK       I    between atoms: CZ   and  NH2 
ROOT
ATOM      1  CA  ARG D 557     -26.217   2.705 -17.014  1.00 35.49     0.159 C 
ENDROOT
BRANCH   1   2
ATOM      2  CB  ARG D 557     -26.789   1.319 -17.183  1.00 35.49     0.034 C 
BRANCH   2   3
ATOM      3  CG  ARG D 557     -25.838   0.202 -17.140  1.00 35.49     0.027 C 
BRANCH   3   4
ATOM      4  CD  ARG D 557     -24.749   0.425 -16.161  1.00 35.49     0.116 C 
BRANCH   4   5
ATOM      5  NE  ARG D 557     -24.874  -0.428 -15.008  1.00 35.49    -0.212 N 
ATOM      6  CZ  ARG D 557     -24.055  -1.403 -14.682  1.00 35.49     0.666 C 
ATOM      7  NH1 ARG D 557     -23.003  -1.720 -15.413  1.00 35.49    -0.235 N 
ATOM      8  NH2 ARG D 557     -24.311  -2.060 -13.588  1.00 35.49    -0.235 N 
ATOM      9  HH  ARG D 557     -22.815  -1.299 -16.136  1.00 35.49     0.174 HD
ATOM     10  HH  ARG D 557     -22.503  -2.364 -15.149  1.00 35.49     0.174 HD
ATOM     11  HH  ARG D 557     -24.993  -1.828 -13.132  1.00 35.49     0.174 HD
ATOM     12  HH  ARG D 557     -23.803  -2.693 -13.342  1.00 35.49     0.174 HD
ATOM     13  HE  ARG D 557     -25.565  -0.341 -14.520  1.00 35.49     0.178 HD
ENDBRANCH   4   5
ENDBRANCH   3   4
ENDBRANCH   2   3
ENDBRANCH   1   2
END_RES ARG D 557
BEGIN_RES GLU D 570
REMARK  3 active torsions:
REMARK  status: ('A' for Active; 'I' for Inactive)
REMARK    5  A    between atoms: CA   and  CB  
REMARK    6  A    between atoms: CB   and  CG  
REMARK    7  A    between atoms: CG   and  CD  
ROOT
ATOM     14  CA  GLU D 570     -18.033  -6.348 -13.375  1.00 32.92     0.160 C 
ENDROOT
BRANCH  14  15
ATOM     15  CB  GLU D 570     -19.500  -6.345 -13.794  1.00 32.92     0.043 C 
BRANCH  15  16
ATOM     16  CG  GLU D 570     -20.063  -7.613 -14.325  1.00 32.92     0.100 C 
BRANCH  16  17
ATOM     17  CD  GLU D 570     -20.759  -7.438 -15.654  1.00 32.92     0.185 C 
ATOM     18  OE1 GLU D 570     -21.391  -8.397 -16.138  1.00 32.92    -0.647 OA
ATOM     19  OE2 GLU D 570     -20.657  -6.335 -16.227  1.00 32.92    -0.647 OA
ENDBRANCH  16  17
ENDBRANCH  15  16
ENDBRANCH  14  15
END_RES GLU D 570
ENDMDL
MODEL 4
REMARK VINA RESULT:      -7.3      1.488      2.761
REMARK  17 active torsions:
REMARK  status: ('A' for Active; 'I' for Inactive)
REMARK    1  A    between atoms: C_2  and  C_3 
REMARK    2  A    between atoms: C_3  and  C_4 
REMARK    3  A    between atoms: C_4  and  C_5 
REMARK    4  A    between atoms: C_5  and  C_6 
REMARK    5  A    between atoms: C_6  and  C_7 
REMARK    6  A    between atoms: C_7  and  C_8 
REMARK    7  A    between atoms: C_8  and  C_9 
REMARK    8  A    between atoms: C_9  and  C_10 
REMARK    9  A    between atoms: C_10  and  C_11 
REMARK   10  A    between atoms: C_11  and  C_12 
REMARK   11  A    between atoms: C_12  and  O_14 
REMARK   12  A    between atoms: O_14  and  C_15 
REMARK   13  A    between atoms: C_15  and  C_16 
REMARK   14  A    between atoms: C_16  and  C_17 
REMARK   15  A    between atoms: C_16  and  O_24 
REMARK   16  A    between atoms: C_18  and  O_23 
REMARK   17  A    between atoms: C_19  and  O_22 
ROOT
HETATM    1  O   UNL     1     -21.354  -4.713  -6.743  1.00  0.00    -0.319 OA
ENDROOT
BRANCH   1   2
HETATM    2  C   UNL     1     -21.877  -5.709  -5.980  1.00  0.00     0.258 C 
HETATM    3  O   UNL     1     -23.031  -5.730  -5.522  1.00  0.00    -0.265 OA
BRANCH   2   4
HETATM    4  C   UNL     1     -20.909  -6.842  -5.823  1.00  0.00     0.111 C 
BRANCH   4   5
HETATM    5  C   UNL     1     -21.449  -7.876  -4.820  1.00  0.00     0.010 C 
BRANCH   5   6
HETATM    6  C   UNL     1     -20.382  -8.362  -3.844  1.00  0.00     0.000 C 
BRANCH   6   7
HETATM    7  C   UNL     1     -20.571  -7.732  -2.470  1.00  0.00     0.000 C 
BRANCH   7   8
HETATM    8  C   UNL     1     -21.825  -6.879  -2.444  1.00  0.00     0.000 C 
BRANCH   8   9
HETATM    9  C   UNL     1     -22.320  -6.735  -1.013  1.00  0.00     0.000 C 
BRANCH   9  10
HETATM   10  C   UNL     1     -21.721  -7.830  -0.151  1.00  0.00     0.000 C 
BRANCH  10  11
HETATM   11  C   UNL     1     -22.811  -8.501   0.666  1.00  0.00     0.000 C 
BRANCH  11  12
HETATM   12  C   UNL     1     -23.426  -9.645  -0.127  1.00  0.00    -0.000 C 
BRANCH  12  13
HETATM   13  C   UNL     1     -22.332 -10.512  -0.734  1.00  0.00    -0.005 C 
HETATM   14  C   UNL     1     -22.684 -10.867  -2.166  1.00  0.00     0.005 C 
ENDBRANCH  12  13
ENDBRANCH  11  12
ENDBRANCH  10  11
ENDBRANCH   9  10
ENDBRANCH   8   9
ENDBRANCH   7   8
ENDBRANCH   6   7
ENDBRANCH   5   6
ENDBRANCH   4   5
ENDBRANCH   2   4
ENDBRANCH   1   2
BRANCH   1  15
HETATM   15  C   UNL     1     -21.662  -4.773  -8.147  1.00  0.00     0.213 C 
BRANCH  15  16
HETATM   16  C   UNL     1     -22.663  -3.732  -8.636  1.00  0.00     0.174 C 
BRANCH  16  17
HETATM   17  C   UNL     1     -22.619  -3.521 -10.166  1.00  0.00     0.183 C 
HETATM   18  C   UNL     1     -23.863  -4.133 -10.805  1.00  0.00     0.180 C 
HETATM   19  C   UNL     1     -23.429  -4.540 -12.210  1.00  0.00     0.173 C 
HETATM   20  C   UNL     1     -21.964  -4.135 -12.268  1.00  0.00     0.202 C 
HETATM   21  O   UNL     1     -21.516  -4.103 -10.891  1.00  0.00    -0.378 OA
BRANCH  18  22
HETATM   22  O   UNL     1     -24.960  -3.236 -10.767  1.00  0.00    -0.390 OA
HETATM   23  H   UNL     1     -25.781  -3.744 -10.670  1.00  0.00     0.210 HD
ENDBRANCH  18  22
BRANCH  19  24
HETATM   24  O   UNL     1     -24.199  -3.938 -13.242  1.00  0.00    -0.391 OA
HETATM   25  H   UNL     1     -25.133  -3.976 -12.987  1.00  0.00     0.210 HD
ENDBRANCH  19  24
ENDBRANCH  16  17
BRANCH  16  26
HETATM   26  O   UNL     1     -23.978  -4.059  -8.164  1.00  0.00    -0.391 OA
HETATM   27  H   UNL     1     -23.900  -4.607  -7.366  1.00  0.00     0.210 HD
ENDBRANCH  16  26
ENDBRANCH  15  16
ENDBRANCH   1  15
TORSDOF 17
BEGIN_RES ARG D 557
REMARK  4 active torsions:
REMARK  status: ('A' for Active; 'I' for Inactive)
REMARK    1  A    between atoms: CA   and  CB  
REMARK    2  A    between atoms: CB   and  CG  
REMARK    3  A    between atoms: CG   and  CD  
REMARK    4  A    between atoms: CD   and  NE  
REMARK       I    between atoms: NE   and  CZ  
REMARK       I    between atoms: CZ   and  NH1 
REMARK       I    between atoms: CZ   and  NH2 
ROOT
ATOM      1  CA  ARG D 557     -26.217   2.705 -17.014  1.00 35.49     0.159 C 
ENDROOT
BRANCH   1   2
ATOM      2  CB  ARG D 557     -26.789   1.319 -17.183  1.00 35.49     0.034 C 
BRANCH   2   3
ATOM      3  CG  ARG D 557     -28.221   1.157 -16.905  1.00 35.49     0.027 C 
BRANCH   3   4
ATOM      4  CD  ARG D 557     -28.582  -0.247 -16.603  1.00 35.49     0.116 C 
BRANCH   4   5
ATOM      5  NE  ARG D 557     -27.533  -0.937 -15.899  1.00 35.49    -0.212 N 
ATOM      6  CZ  ARG D 557     -27.285  -2.226 -15.963  1.00 35.49     0.666 C 
ATOM      7  NH1 ARG D 557     -28.009  -3.053 -16.695  1.00 35.49    -0.235 N 
ATOM      8  NH2 ARG D 557     -26.278  -2.678 -15.273  1.00 35.49    -0.235 N 
ATOM      9  HH  ARG D 557     -28.675  -2.777 -17.158  1.00 35.49     0.174 HD
ATOM     10  HH  ARG D 557     -27.798  -3.883 -16.699  1.00 35.49     0.174 HD
ATOM     11  HH  ARG D 557     -25.824  -2.120 -14.815  1.00 35.49     0.174 HD
ATOM     12  HH  ARG D 557     -26.085  -3.504 -15.291  1.00 35.49     0.174 HD
ATOM     13  HE  ARG D 557     -27.063  -0.493 -15.347  1.00 35.49     0.178 HD
ENDBRANCH   4   5
ENDBRANCH   3   4
ENDBRANCH   2   3
ENDBRANCH   1   2
END_RES ARG D 557
BEGIN_RES GLU D 570
REMARK  3 active torsions:
REMARK  status: ('A' for Active; 'I' for Inactive)
REMARK    5  A    between atoms: CA   and  CB  
REMARK    6  A    between atoms: CB   and  CG  
REMARK    7  A    between atoms: CG   and  CD  
ROOT
ATOM     14  CA  GLU D 570     -18.033  -6.348 -13.375  1.00 32.92     0.160 C 
ENDROOT
BRANCH  14  15
ATOM     15  CB  GLU D 570     -19.500  -6.345 -13.794  1.00 32.92     0.043 C 
BRANCH  15  16
ATOM     16  CG  GLU D 570     -19.809  -5.983 -15.202  1.00 32.92     0.100 C 
BRANCH  16  17
ATOM     17  CD  GLU D 570     -21.275  -5.694 -15.427  1.00 32.92     0.185 C 
ATOM     18  OE1 GLU D 570     -22.107  -6.601 -15.237  1.00 32.92    -0.647 OA
ATOM     19  OE2 GLU D 570     -21.592  -4.552 -15.815  1.00 32.92    -0.647 OA
ENDBRANCH  16  17
ENDBRANCH  15  16
ENDBRANCH  14  15
END_RES GLU D 570
ENDMDL
MODEL 5
REMARK VINA RESULT:      -7.3      1.461      2.901
REMARK  17 active torsions:
REMARK  status: ('A' for Active; 'I' for Inactive)
REMARK    1  A    between atoms: C_2  and  C_3 
REMARK    2  A    between atoms: C_3  and  C_4 
REMARK    3  A    between atoms: C_4  and  C_5 
REMARK    4  A    between atoms: C_5  and  C_6 
REMARK    5  A    between atoms: C_6  and  C_7 
REMARK    6  A    between atoms: C_7  and  C_8 
REMARK    7  A    between atoms: C_8  and  C_9 
REMARK    8  A    between atoms: C_9  and  C_10 
REMARK    9  A    between atoms: C_10  and  C_11 
REMARK   10  A    between atoms: C_11  and  C_12 
REMARK   11  A    between atoms: C_12  and  O_14 
REMARK   12  A    between atoms: O_14  and  C_15 
REMARK   13  A    between atoms: C_15  and  C_16 
REMARK   14  A    between atoms: C_16  and  C_17 
REMARK   15  A    between atoms: C_16  and  O_24 
REMARK   16  A    between atoms: C_18  and  O_23 
REMARK   17  A    between atoms: C_19  and  O_22 
ROOT
HETATM    1  O   UNL     1     -23.197  -4.444 -10.888  1.00  0.00    -0.319 OA
ENDROOT
BRANCH   1   2
HETATM    2  C   UNL     1     -24.111  -3.657 -10.261  1.00  0.00     0.258 C 
HETATM    3  O   UNL     1     -25.182  -3.270 -10.755  1.00  0.00    -0.265 OA
BRANCH   2   4
HETATM    4  C   UNL     1     -23.709  -3.376  -8.845  1.00  0.00     0.111 C 
BRANCH   4   5
HETATM    5  C   UNL     1     -22.680  -4.413  -8.362  1.00  0.00     0.010 C 
BRANCH   5   6
HETATM    6  C   UNL     1     -21.553  -3.786  -7.546  1.00  0.00     0.000 C 
BRANCH   6   7
HETATM    7  C   UNL     1     -20.203  -4.020  -8.211  1.00  0.00     0.000 C 
BRANCH   7   8
HETATM    8  C   UNL     1     -19.255  -4.725  -7.259  1.00  0.00     0.000 C 
BRANCH   8   9
HETATM    9  C   UNL     1     -20.001  -5.135  -6.000  1.00  0.00     0.000 C 
BRANCH   9  10
HETATM   10  C   UNL     1     -20.101  -6.648  -5.933  1.00  0.00     0.000 C 
BRANCH  10  11
HETATM   11  C   UNL     1     -21.347  -7.051  -5.166  1.00  0.00     0.000 C 
BRANCH  11  12
HETATM   12  C   UNL     1     -21.540  -6.134  -3.968  1.00  0.00    -0.000 C 
BRANCH  12  13
HETATM   13  C   UNL     1     -21.278  -6.894  -2.675  1.00  0.00    -0.005 C 
HETATM   14  C   UNL     1     -22.252  -6.448  -1.601  1.00  0.00     0.005 C 
ENDBRANCH  12  13
ENDBRANCH  11  12
ENDBRANCH  10  11
ENDBRANCH   9  10
ENDBRANCH   8   9
ENDBRANCH   7   8
ENDBRANCH   6   7
ENDBRANCH   5   6
ENDBRANCH   4   5
ENDBRANCH   2   4
ENDBRANCH   1   2
BRANCH   1  15
HETATM   15  C   UNL     1     -23.638  -5.064 -12.109  1.00  0.00     0.213 C 
BRANCH  15  16
HETATM   16  C   UNL     1     -22.970  -4.546 -13.377  1.00  0.00     0.174 C 
BRANCH  16  17
HETATM   17  C   UNL     1     -23.885  -3.618 -14.209  1.00  0.00     0.183 C 
HETATM   18  C   UNL     1     -23.210  -2.261 -14.391  1.00  0.00     0.180 C 
HETATM   19  C   UNL     1     -24.356  -1.262 -14.522  1.00  0.00     0.173 C 
HETATM   20  C   UNL     1     -25.603  -2.124 -14.398  1.00  0.00     0.202 C 
HETATM   21  O   UNL     1     -25.187  -3.306 -13.673  1.00  0.00    -0.378 OA
BRANCH  18  22
HETATM   22  O   UNL     1     -22.313  -2.271 -15.489  1.00  0.00    -0.390 OA
HETATM   23  H   UNL     1     -22.072  -1.358 -15.708  1.00  0.00     0.210 HD
ENDBRANCH  18  22
BRANCH  19  24
HETATM   24  O   UNL     1     -24.330  -0.518 -15.732  1.00  0.00    -0.391 OA
HETATM   25  H   UNL     1     -23.491  -0.699 -16.183  1.00  0.00     0.210 HD
ENDBRANCH  19  24
ENDBRANCH  16  17
BRANCH  16  26
HETATM   26  O   UNL     1     -21.715  -3.932 -13.053  1.00  0.00    -0.391 OA
HETATM   27  H   UNL     1     -21.537  -3.221 -13.691  1.00  0.00     0.210 HD
ENDBRANCH  16  26
ENDBRANCH  15  16
ENDBRANCH   1  15
TORSDOF 17
BEGIN_RES ARG D 557
REMARK  4 active torsions:
REMARK  status: ('A' for Active; 'I' for Inactive)
REMARK    1  A    between atoms: CA   and  CB  
REMARK    2  A    between atoms: CB   and  CG  
REMARK    3  A    between atoms: CG   and  CD  
REMARK    4  A    between atoms: CD   and  NE  
REMARK       I    between atoms: NE   and  CZ  
REMARK       I    between atoms: CZ   and  NH1 
REMARK       I    between atoms: CZ   and  NH2 
ROOT
ATOM      1  CA  ARG D 557     -26.217   2.705 -17.014  1.00 35.49     0.159 C 
ENDROOT
BRANCH   1   2
ATOM      2  CB  ARG D 557     -26.789   1.319 -17.183  1.00 35.49     0.034 C 
BRANCH   2   3
ATOM      3  CG  ARG D 557     -28.227   1.163 -16.933  1.00 35.49     0.027 C 
BRANCH   3   4
ATOM      4  CD  ARG D 557     -28.544  -0.102 -16.231  1.00 35.49     0.116 C 
BRANCH   4   5
ATOM      5  NE  ARG D 557     -29.357  -0.978 -17.032  1.00 35.49    -0.212 N 
ATOM      6  CZ  ARG D 557     -29.162  -2.267 -17.201  1.00 35.49     0.666 C 
ATOM      7  NH1 ARG D 557     -28.153  -2.910 -16.642  1.00 35.49    -0.235 N 
ATOM      8  NH2 ARG D 557     -30.013  -2.910 -17.945  1.00 35.49    -0.235 N 
ATOM      9  HH  ARG D 557     -27.583  -2.507 -16.147  1.00 35.49     0.174 HD
ATOM     10  HH  ARG D 557     -28.078  -3.751 -16.786  1.00 35.49     0.174 HD
ATOM     11  HH  ARG D 557     -30.659  -2.470 -18.287  1.00 35.49     0.174 HD
ATOM     12  HH  ARG D 557     -29.922  -3.744 -18.074  1.00 35.49     0.174 HD
ATOM     13  HE  ARG D 557     -29.988  -0.633 -17.487  1.00 35.49     0.178 HD
ENDBRANCH   4   5
ENDBRANCH   3   4
ENDBRANCH   2   3
ENDBRANCH   1   2
END_RES ARG D 557
BEGIN_RES GLU D 570
REMARK  3 active torsions:
REMARK  status: ('A' for Active; 'I' for Inactive)
REMARK    5  A    between atoms: CA   and  CB  
REMARK    6  A    between atoms: CB   and  CG  
REMARK    7  A    between atoms: CG   and  CD  
ROOT
ATOM     14  CA  GLU D 570     -18.033  -6.348 -13.375  1.00 32.92     0.160 C 
ENDROOT
BRANCH  14  15
ATOM     15  CB  GLU D 570     -19.500  -6.345 -13.794  1.00 32.92     0.043 C 
BRANCH  15  16
ATOM     16  CG  GLU D 570     -19.803  -6.075 -15.223  1.00 32.92     0.100 C 
BRANCH  16  17
ATOM     17  CD  GLU D 570     -20.722  -7.107 -15.836  1.00 32.92     0.185 C 
ATOM     18  OE1 GLU D 570     -21.465  -6.772 -16.778  1.00 32.92    -0.647 OA
ATOM     19  OE2 GLU D 570     -20.711  -8.258 -15.356  1.00 32.92    -0.647 OA
ENDBRANCH  16  17
ENDBRANCH  15  16
ENDBRANCH  14  15
END_RES GLU D 570
ENDMDL
MODEL 6
REMARK VINA RESULT:      -7.2      1.856      3.710
REMARK  17 active torsions:
REMARK  status: ('A' for Active; 'I' for Inactive)
REMARK    1  A    between atoms: C_2  and  C_3 
REMARK    2  A    between atoms: C_3  and  C_4 
REMARK    3  A    between atoms: C_4  and  C_5 
REMARK    4  A    between atoms: C_5  and  C_6 
REMARK    5  A    between atoms: C_6  and  C_7 
REMARK    6  A    between atoms: C_7  and  C_8 
REMARK    7  A    between atoms: C_8  and  C_9 
REMARK    8  A    between atoms: C_9  and  C_10 
REMARK    9  A    between atoms: C_10  and  C_11 
REMARK   10  A    between atoms: C_11  and  C_12 
REMARK   11  A    between atoms: C_12  and  O_14 
REMARK   12  A    between atoms: O_14  and  C_15 
REMARK   13  A    between atoms: C_15  and  C_16 
REMARK   14  A    between atoms: C_16  and  C_17 
REMARK   15  A    between atoms: C_16  and  O_24 
REMARK   16  A    between atoms: C_18  and  O_23 
REMARK   17  A    between atoms: C_19  and  O_22 
ROOT
HETATM    1  O   UNL     1     -21.377  -5.522  -5.746  1.00  0.00    -0.319 OA
ENDROOT
BRANCH   1   2
HETATM    2  C   UNL     1     -21.544  -6.827  -5.406  1.00  0.00     0.258 C 
HETATM    3  O   UNL     1     -21.119  -7.797  -6.054  1.00  0.00    -0.265 OA
BRANCH   2   4
HETATM    4  C   UNL     1     -22.240  -6.962  -4.085  1.00  0.00     0.111 C 
BRANCH   4   5
HETATM    5  C   UNL     1     -21.230  -6.847  -2.931  1.00  0.00     0.010 C 
BRANCH   5   6
HETATM    6  C   UNL     1     -21.556  -7.781  -1.769  1.00  0.00     0.000 C 
BRANCH   6   7
HETATM    7  C   UNL     1     -22.344  -7.053  -0.688  1.00  0.00     0.000 C 
BRANCH   7   8
HETATM    8  C   UNL     1     -23.036  -8.045   0.227  1.00  0.00     0.000 C 
BRANCH   8   9
HETATM    9  C   UNL     1     -22.662  -9.464  -0.175  1.00  0.00     0.000 C 
BRANCH   9  10
HETATM   10  C   UNL     1     -23.878 -10.365  -0.066  1.00  0.00     0.000 C 
BRANCH  10  11
HETATM   11  C   UNL     1     -23.814 -11.451  -1.125  1.00  0.00     0.000 C 
BRANCH  11  12
HETATM   12  C   UNL     1     -22.550 -11.294  -1.956  1.00  0.00    -0.000 C 
BRANCH  12  13
HETATM   13  C   UNL     1     -22.907 -10.983  -3.403  1.00  0.00    -0.005 C 
HETATM   14  C   UNL     1     -21.646 -10.724  -4.206  1.00  0.00     0.005 C 
ENDBRANCH  12  13
ENDBRANCH  11  12
ENDBRANCH  10  11
ENDBRANCH   9  10
ENDBRANCH   8   9
ENDBRANCH   7   8
ENDBRANCH   6   7
ENDBRANCH   5   6
ENDBRANCH   4   5
ENDBRANCH   2   4
ENDBRANCH   1   2
BRANCH   1  15
HETATM   15  C   UNL     1     -21.554  -5.211  -7.139  1.00  0.00     0.213 C 
BRANCH  15  16
HETATM   16  C   UNL     1     -22.546  -4.091  -7.432  1.00  0.00     0.174 C 
BRANCH  16  17
HETATM   17  C   UNL     1     -22.646  -3.747  -8.935  1.00  0.00     0.183 C 
HETATM   18  C   UNL     1     -24.073  -3.984  -9.422  1.00  0.00     0.180 C 
HETATM   19  C   UNL     1     -23.935  -4.342 -10.899  1.00  0.00     0.173 C 
HETATM   20  C   UNL     1     -22.435  -4.289 -11.146  1.00  0.00     0.202 C 
HETATM   21  O   UNL     1     -21.821  -4.499  -9.850  1.00  0.00    -0.378 OA
BRANCH  18  22
HETATM   22  O   UNL     1     -24.902  -2.862  -9.166  1.00  0.00    -0.390 OA
HETATM   23  H   UNL     1     -24.401  -2.210  -8.652  1.00  0.00     0.210 HD
ENDBRANCH  18  22
BRANCH  19  24
HETATM   24  O   UNL     1     -24.657  -3.477 -11.766  1.00  0.00    -0.391 OA
HETATM   25  H   UNL     1     -25.247  -4.017 -12.313  1.00  0.00     0.210 HD
ENDBRANCH  19  24
ENDBRANCH  16  17
BRANCH  16  26
HETATM   26  O   UNL     1     -23.821  -4.405  -6.854  1.00  0.00    -0.391 OA
HETATM   27  H   UNL     1     -24.521  -4.175  -7.489  1.00  0.00     0.210 HD
ENDBRANCH  16  26
ENDBRANCH  15  16
ENDBRANCH   1  15
TORSDOF 17
BEGIN_RES ARG D 557
REMARK  4 active torsions:
REMARK  status: ('A' for Active; 'I' for Inactive)
REMARK    1  A    between atoms: CA   and  CB  
REMARK    2  A    between atoms: CB   and  CG  
REMARK    3  A    between atoms: CG   and  CD  
REMARK    4  A    between atoms: CD   and  NE  
REMARK       I    between atoms: NE   and  CZ  
REMARK       I    between atoms: CZ   and  NH1 
REMARK       I    between atoms: CZ   and  NH2 
ROOT
ATOM      1  CA  ARG D 557     -26.217   2.705 -17.014  1.00 35.49     0.159 C 
ENDROOT
BRANCH   1   2
ATOM      2  CB  ARG D 557     -26.789   1.319 -17.183  1.00 35.49     0.034 C 
BRANCH   2   3
ATOM      3  CG  ARG D 557     -28.239   1.224 -17.391  1.00 35.49     0.027 C 
BRANCH   3   4
ATOM      4  CD  ARG D 557     -28.882   0.273 -16.455  1.00 35.49     0.116 C 
BRANCH   4   5
ATOM      5  NE  ARG D 557     -29.273  -0.949 -17.106  1.00 35.49    -0.212 N 
ATOM      6  CZ  ARG D 557     -28.645  -2.100 -17.020  1.00 35.49     0.666 C 
ATOM      7  NH1 ARG D 557     -27.542  -2.255 -16.312  1.00 35.49    -0.235 N 
ATOM      8  NH2 ARG D 557     -29.155  -3.111 -17.662  1.00 35.49    -0.235 N 
ATOM      9  HH  ARG D 557     -27.190  -1.604 -15.880  1.00 35.49     0.174 HD
ATOM     10  HH  ARG D 557     -27.178  -3.030 -16.291  1.00 35.49     0.174 HD
ATOM     11  HH  ARG D 557     -29.872  -2.984 -18.105  1.00 35.49     0.174 HD
ATOM     12  HH  ARG D 557     -28.780  -3.871 -17.627  1.00 35.49     0.174 HD
ATOM     13  HE  ARG D 557     -29.933  -0.922 -17.642  1.00 35.49     0.178 HD
ENDBRANCH   4   5
ENDBRANCH   3   4
ENDBRANCH   2   3
ENDBRANCH   1   2
END_RES ARG D 557
BEGIN_RES GLU D 570
REMARK  3 active torsions:
REMARK  status: ('A' for Active; 'I' for Inactive)
REMARK    5  A    between atoms: CA   and  CB  
REMARK    6  A    between atoms: CB   and  CG  
REMARK    7  A    between atoms: CG   and  CD  
ROOT
ATOM     14  CA  GLU D 570     -18.033  -6.348 -13.375  1.00 32.92     0.160 C 
ENDROOT
BRANCH  14  15
ATOM     15  CB  GLU D 570     -19.500  -6.345 -13.794  1.00 32.92     0.043 C 
BRANCH  15  16
ATOM     16  CG  GLU D 570     -20.034  -7.580 -14.424  1.00 32.92     0.100 C 
BRANCH  16  17
ATOM     17  CD  GLU D 570     -20.794  -7.308 -15.702  1.00 32.92     0.185 C 
ATOM     18  OE1 GLU D 570     -20.497  -6.306 -16.381  1.00 32.92    -0.647 OA
ATOM     19  OE2 GLU D 570     -21.706  -8.096 -16.019  1.00 32.92    -0.647 OA
ENDBRANCH  16  17
ENDBRANCH  15  16
ENDBRANCH  14  15
END_RES GLU D 570
ENDMDL
MODEL 7
REMARK VINA RESULT:      -7.2      2.124      3.836
REMARK  17 active torsions:
REMARK  status: ('A' for Active; 'I' for Inactive)
REMARK    1  A    between atoms: C_2  and  C_3 
REMARK    2  A    between atoms: C_3  and  C_4 
REMARK    3  A    between atoms: C_4  and  C_5 
REMARK    4  A    between atoms: C_5  and  C_6 
REMARK    5  A    between atoms: C_6  and  C_7 
REMARK    6  A    between atoms: C_7  and  C_8 
REMARK    7  A    between atoms: C_8  and  C_9 
REMARK    8  A    between atoms: C_9  and  C_10 
REMARK    9  A    between atoms: C_10  and  C_11 
REMARK   10  A    between atoms: C_11  and  C_12 
REMARK   11  A    between atoms: C_12  and  O_14 
REMARK   12  A    between atoms: O_14  and  C_15 
REMARK   13  A    between atoms: C_15  and  C_16 
REMARK   14  A    between atoms: C_16  and  C_17 
REMARK   15  A    between atoms: C_16  and  O_24 
REMARK   16  A    between atoms: C_18  and  O_23 
REMARK   17  A    between atoms: C_19  and  O_22 
ROOT
HETATM    1  O   UNL     1     -21.127  -5.451  -5.982  1.00  0.00    -0.319 OA
ENDROOT
BRANCH   1   2
HETATM    2  C   UNL     1     -21.413  -6.714  -5.569  1.00  0.00     0.258 C 
HETATM    3  O   UNL     1     -20.970  -7.753  -6.083  1.00  0.00    -0.265 OA
BRANCH   2   4
HETATM    4  C   UNL     1     -22.276  -6.705  -4.343  1.00  0.00     0.111 C 
BRANCH   4   5
HETATM    5  C   UNL     1     -21.447  -6.320  -3.105  1.00  0.00     0.010 C 
BRANCH   5   6
HETATM    6  C   UNL     1     -22.244  -6.424  -1.808  1.00  0.00     0.000 C 
BRANCH   6   7
HETATM    7  C   UNL     1     -21.613  -7.436  -0.861  1.00  0.00     0.000 C 
BRANCH   7   8
HETATM    8  C   UNL     1     -22.669  -8.058   0.035  1.00  0.00     0.000 C 
BRANCH   8   9
HETATM    9  C   UNL     1     -22.360  -9.531   0.249  1.00  0.00     0.000 C 
BRANCH   9  10
HETATM   10  C   UNL     1     -23.164 -10.371  -0.725  1.00  0.00     0.000 C 
BRANCH  10  11
HETATM   11  C   UNL     1     -23.897 -11.471   0.022  1.00  0.00     0.000 C 
BRANCH  11  12
HETATM   12  C   UNL     1     -22.921 -12.566   0.425  1.00  0.00    -0.000 C 
BRANCH  12  13
HETATM   13  C   UNL     1     -23.480 -13.365   1.593  1.00  0.00    -0.005 C 
HETATM   14  C   UNL     1     -22.360 -14.106   2.300  1.00  0.00     0.005 C 
ENDBRANCH  12  13
ENDBRANCH  11  12
ENDBRANCH  10  11
ENDBRANCH   9  10
ENDBRANCH   8   9
ENDBRANCH   7   8
ENDBRANCH   6   7
ENDBRANCH   5   6
ENDBRANCH   4   5
ENDBRANCH   2   4
ENDBRANCH   1   2
BRANCH   1  15
HETATM   15  C   UNL     1     -21.469  -5.146  -7.345  1.00  0.00     0.213 C 
BRANCH  15  16
HETATM   16  C   UNL     1     -22.529  -4.064  -7.521  1.00  0.00     0.174 C 
BRANCH  16  17
HETATM   17  C   UNL     1     -22.698  -3.615  -8.990  1.00  0.00     0.183 C 
HETATM   18  C   UNL     1     -24.143  -3.839  -9.431  1.00  0.00     0.180 C 
HETATM   19  C   UNL     1     -24.063  -4.087 -10.935  1.00  0.00     0.173 C 
HETATM   20  C   UNL     1     -22.576  -3.992 -11.240  1.00  0.00     0.202 C 
HETATM   21  O   UNL     1     -21.905  -4.284  -9.991  1.00  0.00    -0.378 OA
BRANCH  18  22
HETATM   22  O   UNL     1     -24.974  -2.752  -9.060  1.00  0.00    -0.390 OA
HETATM   23  H   UNL     1     -24.527  -2.233  -8.374  1.00  0.00     0.210 HD
ENDBRANCH  18  22
BRANCH  19  24
HETATM   24  O   UNL     1     -24.834  -3.174 -11.706  1.00  0.00    -0.391 OA
HETATM   25  H   UNL     1     -24.252  -2.763 -12.363  1.00  0.00     0.210 HD
ENDBRANCH  19  24
ENDBRANCH  16  17
BRANCH  16  26
HETATM   26  O   UNL     1     -23.765  -4.491  -6.931  1.00  0.00    -0.391 OA
HETATM   27  H   UNL     1     -23.995  -5.369  -7.279  1.00  0.00     0.210 HD
ENDBRANCH  16  26
ENDBRANCH  15  16
ENDBRANCH   1  15
TORSDOF 17
BEGIN_RES ARG D 557
REMARK  4 active torsions:
REMARK  status: ('A' for Active; 'I' for Inactive)
REMARK    1  A    between atoms: CA   and  CB  
REMARK    2  A    between atoms: CB   and  CG  
REMARK    3  A    between atoms: CG   and  CD  
REMARK    4  A    between atoms: CD   and  NE  
REMARK       I    between atoms: NE   and  CZ  
REMARK       I    between atoms: CZ   and  NH1 
REMARK       I    between atoms: CZ   and  NH2 
ROOT
ATOM      1  CA  ARG D 557     -26.217   2.705 -17.014  1.00 35.49     0.159 C 
ENDROOT
BRANCH   1   2
ATOM      2  CB  ARG D 557     -26.789   1.319 -17.183  1.00 35.49     0.034 C 
BRANCH   2   3
ATOM      3  CG  ARG D 557     -28.224   1.159 -16.916  1.00 35.49     0.027 C 
BRANCH   3   4
ATOM      4  CD  ARG D 557     -28.582  -0.236 -16.574  1.00 35.49     0.116 C 
BRANCH   4   5
ATOM      5  NE  ARG D 557     -27.526  -0.909 -15.864  1.00 35.49    -0.212 N 
ATOM      6  CZ  ARG D 557     -27.258  -2.194 -15.923  1.00 35.49     0.666 C 
ATOM      7  NH1 ARG D 557     -27.966  -3.033 -16.657  1.00 35.49    -0.235 N 
ATOM      8  NH2 ARG D 557     -26.248  -2.629 -15.227  1.00 35.49    -0.235 N 
ATOM      9  HH  ARG D 557     -28.634  -2.768 -17.124  1.00 35.49     0.174 HD
ATOM     10  HH  ARG D 557     -27.743  -3.860 -16.658  1.00 35.49     0.174 HD
ATOM     11  HH  ARG D 557     -25.804  -2.063 -14.769  1.00 35.49     0.174 HD
ATOM     12  HH  ARG D 557     -26.042  -3.452 -15.243  1.00 35.49     0.174 HD
ATOM     13  HE  ARG D 557     -27.065  -0.456 -15.311  1.00 35.49     0.178 HD
ENDBRANCH   4   5
ENDBRANCH   3   4
ENDBRANCH   2   3
ENDBRANCH   1   2
END_RES ARG D 557
BEGIN_RES GLU D 570
REMARK  3 active torsions:
REMARK  status: ('A' for Active; 'I' for Inactive)
REMARK    5  A    between atoms: CA   and  CB  
REMARK    6  A    between atoms: CB   and  CG  
REMARK    7  A    between atoms: CG   and  CD  
ROOT
ATOM     14  CA  GLU D 570     -18.033  -6.348 -13.375  1.00 32.92     0.160 C 
ENDROOT
BRANCH  14  15
ATOM     15  CB  GLU D 570     -19.500  -6.345 -13.794  1.00 32.92     0.043 C 
BRANCH  15  16
ATOM     16  CG  GLU D 570     -20.108  -7.648 -14.167  1.00 32.92     0.100 C 
BRANCH  16  17
ATOM     17  CD  GLU D 570     -20.853  -7.597 -15.481  1.00 32.92     0.185 C 
ATOM     18  OE1 GLU D 570     -20.799  -8.579 -16.245  1.00 32.92    -0.647 OA
ATOM     19  OE2 GLU D 570     -21.482  -6.556 -15.756  1.00 32.92    -0.647 OA
ENDBRANCH  16  17
ENDBRANCH  15  16
ENDBRANCH  14  15
END_RES GLU D 570
ENDMDL
MODEL 8
REMARK VINA RESULT:      -6.8      1.967      2.750
REMARK  17 active torsions:
REMARK  status: ('A' for Active; 'I' for Inactive)
REMARK    1  A    between atoms: C_2  and  C_3 
REMARK    2  A    between atoms: C_3  and  C_4 
REMARK    3  A    between atoms: C_4  and  C_5 
REMARK    4  A    between atoms: C_5  and  C_6 
REMARK    5  A    between atoms: C_6  and  C_7 
REMARK    6  A    between atoms: C_7  and  C_8 
REMARK    7  A    between atoms: C_8  and  C_9 
REMARK    8  A    between atoms: C_9  and  C_10 
REMARK    9  A    between atoms: C_10  and  C_11 
REMARK   10  A    between atoms: C_11  and  C_12 
REMARK   11  A    between atoms: C_12  and  O_14 
REMARK   12  A    between atoms: O_14  and  C_15 
REMARK   13  A    between atoms: C_15  and  C_16 
REMARK   14  A    between atoms: C_16  and  C_17 
REMARK   15  A    between atoms: C_16  and  O_24 
REMARK   16  A    between atoms: C_18  and  O_23 
REMARK   17  A    between atoms: C_19  and  O_22 
ROOT
HETATM    1  O   UNL     1     -22.038  -4.959  -7.469  1.00  0.00    -0.319 OA
ENDROOT
BRANCH   1   2
HETATM    2  C   UNL     1     -20.904  -5.548  -7.007  1.00  0.00     0.258 C 
HETATM    3  O   UNL     1     -20.067  -6.141  -7.707  1.00  0.00    -0.265 OA
BRANCH   2   4
HETATM    4  C   UNL     1     -20.732  -5.322  -5.535  1.00  0.00     0.111 C 
BRANCH   4   5
HETATM    5  C   UNL     1     -21.647  -6.266  -4.736  1.00  0.00     0.010 C 
BRANCH   5   6
HETATM    6  C   UNL     1     -21.445  -6.143  -3.228  1.00  0.00     0.000 C 
BRANCH   6   7
HETATM    7  C   UNL     1     -21.576  -7.500  -2.548  1.00  0.00     0.000 C 
BRANCH   7   8
HETATM    8  C   UNL     1     -20.230  -7.967  -2.027  1.00  0.00     0.000 C 
BRANCH   8   9
HETATM    9  C   UNL     1     -19.840  -9.271  -2.704  1.00  0.00     0.000 C 
BRANCH   9  10
HETATM   10  C   UNL     1     -19.084  -8.978  -3.986  1.00  0.00     0.000 C 
BRANCH  10  11
HETATM   11  C   UNL     1     -19.507  -9.952  -5.071  1.00  0.00     0.000 C 
BRANCH  11  12
HETATM   12  C   UNL     1     -21.021  -9.941  -5.219  1.00  0.00    -0.000 C 
BRANCH  12  13
HETATM   13  C   UNL     1     -21.552 -11.365  -5.297  1.00  0.00    -0.005 C 
HETATM   14  C   UNL     1     -21.359 -11.917  -6.698  1.00  0.00     0.005 C 
ENDBRANCH  12  13
ENDBRANCH  11  12
ENDBRANCH  10  11
ENDBRANCH   9  10
ENDBRANCH   8   9
ENDBRANCH   7   8
ENDBRANCH   6   7
ENDBRANCH   5   6
ENDBRANCH   4   5
ENDBRANCH   2   4
ENDBRANCH   1   2
BRANCH   1  15
HETATM   15  C   UNL     1     -22.097  -4.744  -8.890  1.00  0.00     0.213 C 
BRANCH  15  16
HETATM   16  C   UNL     1     -23.044  -3.637  -9.339  1.00  0.00     0.174 C 
BRANCH  16  17
HETATM   17  C   UNL     1     -23.403  -3.719 -10.840  1.00  0.00     0.183 C 
HETATM   18  C   UNL     1     -22.434  -2.859 -11.647  1.00  0.00     0.180 C 
HETATM   19  C   UNL     1     -23.227  -2.408 -12.871  1.00  0.00     0.173 C 
HETATM   20  C   UNL     1     -24.596  -3.040 -12.668  1.00  0.00     0.202 C 
HETATM   21  O   UNL     1     -24.712  -3.264 -11.242  1.00  0.00    -0.378 OA
BRANCH  18  22
HETATM   22  O   UNL     1     -21.242  -3.565 -11.949  1.00  0.00    -0.390 OA
HETATM   23  H   UNL     1     -21.064  -3.492 -12.900  1.00  0.00     0.210 HD
ENDBRANCH  18  22
BRANCH  19  24
HETATM   24  O   UNL     1     -22.634  -2.785 -14.106  1.00  0.00    -0.391 OA
HETATM   25  H   UNL     1     -21.683  -2.903 -13.964  1.00  0.00     0.210 HD
ENDBRANCH  19  24
ENDBRANCH  16  17
BRANCH  16  26
HETATM   26  O   UNL     1     -24.204  -3.614  -8.497  1.00  0.00    -0.391 OA
HETATM   27  H   UNL     1     -24.985  -3.841  -9.029  1.00  0.00     0.210 HD
ENDBRANCH  16  26
ENDBRANCH  15  16
ENDBRANCH   1  15
TORSDOF 17
BEGIN_RES ARG D 557
REMARK  4 active torsions:
REMARK  status: ('A' for Active; 'I' for Inactive)
REMARK    1  A    between atoms: CA   and  CB  
REMARK    2  A    between atoms: CB   and  CG  
REMARK    3  A    between atoms: CG   and  CD  
REMARK    4  A    between atoms: CD   and  NE  
REMARK       I    between atoms: NE   and  CZ  
REMARK       I    between atoms: CZ   and  NH1 
REMARK       I    between atoms: CZ   and  NH2 
ROOT
ATOM      1  CA  ARG D 557     -26.217   2.705 -17.014  1.00 35.49     0.159 C 
ENDROOT
BRANCH   1   2
ATOM      2  CB  ARG D 557     -26.789   1.319 -17.183  1.00 35.49     0.034 C 
BRANCH   2   3
ATOM      3  CG  ARG D 557     -28.231   1.226 -17.443  1.00 35.49     0.027 C 
BRANCH   3   4
ATOM      4  CD  ARG D 557     -28.917   0.312 -16.502  1.00 35.49     0.116 C 
BRANCH   4   5
ATOM      5  NE  ARG D 557     -29.309  -0.921 -17.132  1.00 35.49    -0.212 N 
ATOM      6  CZ  ARG D 557     -28.675  -2.068 -17.038  1.00 35.49     0.666 C 
ATOM      7  NH1 ARG D 557     -27.563  -2.208 -16.340  1.00 35.49    -0.235 N 
ATOM      8  NH2 ARG D 557     -29.187  -3.090 -17.660  1.00 35.49    -0.235 N 
ATOM      9  HH  ARG D 557     -27.210  -1.549 -15.921  1.00 35.49     0.174 HD
ATOM     10  HH  ARG D 557     -27.195  -2.981 -16.313  1.00 35.49     0.174 HD
ATOM     11  HH  ARG D 557     -29.910  -2.971 -18.097  1.00 35.49     0.174 HD
ATOM     12  HH  ARG D 557     -28.809  -3.847 -17.619  1.00 35.49     0.174 HD
ATOM     13  HE  ARG D 557     -29.976  -0.904 -17.660  1.00 35.49     0.178 HD
ENDBRANCH   4   5
ENDBRANCH   3   4
ENDBRANCH   2   3
ENDBRANCH   1   2
END_RES ARG D 557
BEGIN_RES GLU D 570
REMARK  3 active torsions:
REMARK  status: ('A' for Active; 'I' for Inactive)
REMARK    5  A    between atoms: CA   and  CB  
REMARK    6  A    between atoms: CB   and  CG  
REMARK    7  A    between atoms: CG   and  CD  
ROOT
ATOM     14  CA  GLU D 570     -18.033  -6.348 -13.375  1.00 32.92     0.160 C 
ENDROOT
BRANCH  14  15
ATOM     15  CB  GLU D 570     -19.500  -6.345 -13.794  1.00 32.92     0.043 C 
BRANCH  15  16
ATOM     16  CG  GLU D 570     -19.800  -6.146 -15.236  1.00 32.92     0.100 C 
BRANCH  16  17
ATOM     17  CD  GLU D 570     -21.140  -5.491 -15.474  1.00 32.92     0.185 C 
ATOM     18  OE1 GLU D 570     -21.426  -5.097 -16.621  1.00 32.92    -0.647 OA
ATOM     19  OE2 GLU D 570     -21.907  -5.356 -14.500  1.00 32.92    -0.647 OA
ENDBRANCH  16  17
ENDBRANCH  15  16
ENDBRANCH  14  15
END_RES GLU D 570
ENDMDL
MODEL 9
REMARK VINA RESULT:      -6.6      2.411      4.472
REMARK  17 active torsions:
REMARK  status: ('A' for Active; 'I' for Inactive)
REMARK    1  A    between atoms: C_2  and  C_3 
REMARK    2  A    between atoms: C_3  and  C_4 
REMARK    3  A    between atoms: C_4  and  C_5 
REMARK    4  A    between atoms: C_5  and  C_6 
REMARK    5  A    between atoms: C_6  and  C_7 
REMARK    6  A    between atoms: C_7  and  C_8 
REMARK    7  A    between atoms: C_8  and  C_9 
REMARK    8  A    between atoms: C_9  and  C_10 
REMARK    9  A    between atoms: C_10  and  C_11 
REMARK   10  A    between atoms: C_11  and  C_12 
REMARK   11  A    between atoms: C_12  and  O_14 
REMARK   12  A    between atoms: O_14  and  C_15 
REMARK   13  A    between atoms: C_15  and  C_16 
REMARK   14  A    between atoms: C_16  and  C_17 
REMARK   15  A    between atoms: C_16  and  O_24 
REMARK   16  A    between atoms: C_18  and  O_23 
REMARK   17  A    between atoms: C_19  and  O_22 
ROOT
HETATM    1  O   UNL     1     -20.842  -6.152  -5.309  1.00  0.00    -0.319 OA
ENDROOT
BRANCH   1   2
HETATM    2  C   UNL     1     -21.655  -6.724  -4.383  1.00  0.00     0.258 C 
HETATM    3  O   UNL     1     -22.383  -6.107  -3.589  1.00  0.00    -0.265 OA
BRANCH   2   4
HETATM    4  C   UNL     1     -21.636  -8.219  -4.489  1.00  0.00     0.111 C 
BRANCH   4   5
HETATM    5  C   UNL     1     -20.283  -8.775  -4.012  1.00  0.00     0.010 C 
BRANCH   5   6
HETATM    6  C   UNL     1     -20.129  -8.722  -2.494  1.00  0.00     0.000 C 
BRANCH   6   7
HETATM    7  C   UNL     1     -19.498 -10.004  -1.966  1.00  0.00     0.000 C 
BRANCH   7   8
HETATM    8  C   UNL     1     -20.561 -11.055  -1.709  1.00  0.00     0.000 C 
BRANCH   8   9
HETATM    9  C   UNL     1     -20.658 -11.337  -0.218  1.00  0.00     0.000 C 
BRANCH   9  10
HETATM   10  C   UNL     1     -22.112 -11.516   0.177  1.00  0.00     0.000 C 
BRANCH  10  11
HETATM   11  C   UNL     1     -22.993 -10.616  -0.669  1.00  0.00     0.000 C 
BRANCH  11  12
HETATM   12  C   UNL     1     -23.557  -9.490   0.183  1.00  0.00    -0.000 C 
BRANCH  12  13
HETATM   13  C   UNL     1     -22.747  -8.218  -0.023  1.00  0.00    -0.005 C 
HETATM   14  C   UNL     1     -21.751  -8.047   1.109  1.00  0.00     0.005 C 
ENDBRANCH  12  13
ENDBRANCH  11  12
ENDBRANCH  10  11
ENDBRANCH   9  10
ENDBRANCH   8   9
ENDBRANCH   7   8
ENDBRANCH   6   7
ENDBRANCH   5   6
ENDBRANCH   4   5
ENDBRANCH   2   4
ENDBRANCH   1   2
BRANCH   1  15
HETATM   15  C   UNL     1     -21.428  -5.927  -6.603  1.00  0.00     0.213 C 
BRANCH  15  16
HETATM   16  C   UNL     1     -22.235  -4.640  -6.735  1.00  0.00     0.174 C 
BRANCH  16  17
HETATM   17  C   UNL     1     -22.078  -3.965  -8.116  1.00  0.00     0.183 C 
HETATM   18  C   UNL     1     -23.286  -4.296  -8.989  1.00  0.00     0.180 C 
HETATM   19  C   UNL     1     -22.762  -4.262 -10.421  1.00  0.00     0.173 C 
HETATM   20  C   UNL     1     -21.288  -3.920 -10.260  1.00  0.00     0.202 C 
HETATM   21  O   UNL     1     -20.938  -4.338  -8.918  1.00  0.00    -0.378 OA
BRANCH  18  22
HETATM   22  O   UNL     1     -24.365  -3.410  -8.739  1.00  0.00    -0.390 OA
HETATM   23  H   UNL     1     -24.158  -2.544  -9.122  1.00  0.00     0.210 HD
ENDBRANCH  18  22
BRANCH  19  24
HETATM   24  O   UNL     1     -23.444  -3.337 -11.258  1.00  0.00    -0.391 OA
HETATM   25  H   UNL     1     -24.269  -3.748 -11.556  1.00  0.00     0.210 HD
ENDBRANCH  19  24
ENDBRANCH  16  17
BRANCH  16  26
HETATM   26  O   UNL     1     -23.607  -4.886  -6.396  1.00  0.00    -0.391 OA
HETATM   27  H   UNL     1     -23.995  -5.478  -7.062  1.00  0.00     0.210 HD
ENDBRANCH  16  26
ENDBRANCH  15  16
ENDBRANCH   1  15
TORSDOF 17
BEGIN_RES ARG D 557
REMARK  4 active torsions:
REMARK  status: ('A' for Active; 'I' for Inactive)
REMARK    1  A    between atoms: CA   and  CB  
REMARK    2  A    between atoms: CB   and  CG  
REMARK    3  A    between atoms: CG   and  CD  
REMARK    4  A    between atoms: CD   and  NE  
REMARK       I    between atoms: NE   and  CZ  
REMARK       I    between atoms: CZ   and  NH1 
REMARK       I    between atoms: CZ   and  NH2 
ROOT
ATOM      1  CA  ARG D 557     -26.217   2.705 -17.014  1.00 35.49     0.159 C 
ENDROOT
BRANCH   1   2
ATOM      2  CB  ARG D 557     -26.789   1.319 -17.183  1.00 35.49     0.034 C 
BRANCH   2   3
ATOM      3  CG  ARG D 557     -25.835   0.204 -17.163  1.00 35.49     0.027 C 
BRANCH   3   4
ATOM      4  CD  ARG D 557     -24.741   0.414 -16.187  1.00 35.49     0.116 C 
BRANCH   4   5
ATOM      5  NE  ARG D 557     -24.865  -0.444 -15.039  1.00 35.49    -0.212 N 
ATOM      6  CZ  ARG D 557     -24.032  -1.404 -14.704  1.00 35.49     0.666 C 
ATOM      7  NH1 ARG D 557     -22.963  -1.698 -15.422  1.00 35.49    -0.235 N 
ATOM      8  NH2 ARG D 557     -24.289  -2.070 -13.616  1.00 35.49    -0.235 N 
ATOM      9  HH  ARG D 557     -22.773  -1.271 -16.140  1.00 35.49     0.174 HD
ATOM     10  HH  ARG D 557     -22.454  -2.332 -15.153  1.00 35.49     0.174 HD
ATOM     11  HH  ARG D 557     -24.982  -1.853 -13.169  1.00 35.49     0.174 HD
ATOM     12  HH  ARG D 557     -23.772  -2.694 -13.366  1.00 35.49     0.174 HD
ATOM     13  HE  ARG D 557     -25.564  -0.373 -14.560  1.00 35.49     0.178 HD
ENDBRANCH   4   5
ENDBRANCH   3   4
ENDBRANCH   2   3
ENDBRANCH   1   2
END_RES ARG D 557
BEGIN_RES GLU D 570
REMARK  3 active torsions:
REMARK  status: ('A' for Active; 'I' for Inactive)
REMARK    5  A    between atoms: CA   and  CB  
REMARK    6  A    between atoms: CB   and  CG  
REMARK    7  A    between atoms: CG   and  CD  
ROOT
ATOM     14  CA  GLU D 570     -18.033  -6.348 -13.375  1.00 32.92     0.160 C 
ENDROOT
BRANCH  14  15
ATOM     15  CB  GLU D 570     -19.500  -6.345 -13.794  1.00 32.92     0.043 C 
BRANCH  15  16
ATOM     16  CG  GLU D 570     -19.826  -5.808 -15.141  1.00 32.92     0.100 C 
BRANCH  16  17
ATOM     17  CD  GLU D 570     -21.307  -5.586 -15.343  1.00 32.92     0.185 C 
ATOM     18  OE1 GLU D 570     -21.692  -4.530 -15.883  1.00 32.92    -0.647 OA
ATOM     19  OE2 GLU D 570     -22.091  -6.468 -14.943  1.00 32.92    -0.647 OA
ENDBRANCH  16  17
ENDBRANCH  15  16
ENDBRANCH  14  15
END_RES GLU D 570
ENDMDL
