MODEL 1
REMARK VINA RESULT:      -8.8      0.000      0.000
REMARK  22 active torsions:
REMARK  status: ('A' for Active; 'I' for Inactive)
REMARK    1  A    between atoms: C_2  and  C_4 
REMARK    2  A    between atoms: C_4  and  C_5 
REMARK    3  A    between atoms: C_5  and  C_6 
REMARK    4  A    between atoms: C_6  and  C_7 
REMARK    5  A    between atoms: C_7  and  C_8 
REMARK    6  A    between atoms: C_8  and  C_9 
REMARK    7  A    between atoms: C_9  and  C_10 
REMARK    8  A    between atoms: C_10  and  C_11 
REMARK    9  A    between atoms: C_11  and  C_12 
REMARK   10  A    between atoms: C_12  and  C_13 
REMARK   11  A    between atoms: C_13  and  C_14 
REMARK   12  A    between atoms: C_14  and  C_15 
REMARK   13  A    between atoms: C_15  and  C_16 
REMARK   14  A    between atoms: C_16  and  C_17 
REMARK   15  A    between atoms: C_17  and  C_18 
REMARK   16  A    between atoms: C_18  and  O_20 
REMARK   17  A    between atoms: O_20  and  C_21 
REMARK   18  A    between atoms: C_21  and  C_22 
REMARK   19  A    between atoms: C_21  and  C_24 
REMARK   20  A    between atoms: C_22  and  O_23 
REMARK   21  A    between atoms: C_25  and  O_30 
REMARK   22  A    between atoms: C_26  and  O_29 
ROOT
HETATM    1  C   UNL     1     -23.295  -5.138 -12.510  1.00  0.00     0.111 C 
ENDROOT
BRANCH   1   2
HETATM    2  C   UNL     1     -21.928  -4.657 -12.026  1.00  0.00     0.010 C 
BRANCH   2   3
HETATM    3  C   UNL     1     -22.051  -3.471 -11.071  1.00  0.00     0.000 C 
BRANCH   3   4
HETATM    4  C   UNL     1     -23.181  -3.706 -10.072  1.00  0.00     0.000 C 
BRANCH   4   5
HETATM    5  C   UNL     1     -22.665  -4.349  -8.789  1.00  0.00     0.000 C 
BRANCH   5   6
HETATM    6  C   UNL     1     -21.147  -4.233  -8.708  1.00  0.00     0.000 C 
BRANCH   6   7
HETATM    7  C   UNL     1     -20.718  -3.709  -7.343  1.00  0.00     0.000 C 
BRANCH   7   8
HETATM    8  C   UNL     1     -19.823  -4.722  -6.640  1.00  0.00     0.000 C 
BRANCH   8   9
HETATM    9  C   UNL     1     -20.403  -5.097  -5.284  1.00  0.00     0.000 C 
BRANCH   9  10
HETATM   10  C   UNL     1     -21.711  -5.858  -5.456  1.00  0.00     0.000 C 
BRANCH  10  11
HETATM   11  C   UNL     1     -21.975  -6.736  -4.243  1.00  0.00     0.000 C 
BRANCH  11  12
HETATM   12  C   UNL     1     -21.403  -6.105  -2.979  1.00  0.00     0.000 C 
BRANCH  12  13
HETATM   13  C   UNL     1     -22.266  -6.478  -1.779  1.00  0.00     0.000 C 
BRANCH  13  14
HETATM   14  C   UNL     1     -21.852  -7.825  -1.192  1.00  0.00     0.004 C 
BRANCH  14  15
HETATM   15  C   UNL     1     -22.630  -8.182   0.088  1.00  0.00    -0.023 C 
HETATM   16  C   UNL     1     -23.246  -9.573  -0.059  1.00  0.00     0.009 C 
HETATM   17  C   UNL     1     -21.752  -8.132   1.337  1.00  0.00     0.009 C 
ENDBRANCH  14  15
ENDBRANCH  13  14
ENDBRANCH  12  13
ENDBRANCH  11  12
ENDBRANCH  10  11
ENDBRANCH   9  10
ENDBRANCH   8   9
ENDBRANCH   7   8
ENDBRANCH   6   7
ENDBRANCH   5   6
ENDBRANCH   4   5
ENDBRANCH   3   4
ENDBRANCH   2   3
ENDBRANCH   1   2
BRANCH   1  18
HETATM   18  C   UNL     1     -23.332  -5.295 -14.013  1.00  0.00     0.259 C 
HETATM   19  O   UNL     1     -22.893  -4.477 -14.807  1.00  0.00    -0.265 OA
BRANCH  18  20
HETATM   20  O   UNL     1     -24.036  -6.421 -14.340  1.00  0.00    -0.311 OA
BRANCH  20  21
HETATM   21  C   UNL     1     -24.643  -6.422 -15.655  1.00  0.00     0.187 C 
BRANCH  21  22
HETATM   22  C   UNL     1     -24.446  -7.748 -16.438  1.00  0.00     0.199 C 
BRANCH  22  23
HETATM   23  O   UNL     1     -24.159  -7.584 -17.831  1.00  0.00    -0.398 OA
HETATM   24  H   UNL     1     -23.584  -6.797 -17.898  1.00  0.00     0.209 HD
ENDBRANCH  22  23
ENDBRANCH  21  22
BRANCH  21  25
HETATM   25  C   UNL     1     -26.132  -6.011 -15.531  1.00  0.00     0.184 C 
HETATM   26  C   UNL     1     -27.151  -7.035 -16.057  1.00  0.00     0.180 C 
HETATM   27  C   UNL     1     -28.146  -6.221 -16.874  1.00  0.00     0.173 C 
HETATM   28  C   UNL     1     -27.803  -4.787 -16.539  1.00  0.00     0.202 C 
HETATM   29  O   UNL     1     -26.417  -4.775 -16.211  1.00  0.00    -0.378 OA
BRANCH  26  30
HETATM   30  O   UNL     1     -27.916  -7.603 -14.972  1.00  0.00    -0.390 OA
HETATM   31  H   UNL     1     -28.379  -6.854 -14.540  1.00  0.00     0.210 HD
ENDBRANCH  26  30
BRANCH  27  32
HETATM   32  O   UNL     1     -29.483  -6.527 -16.488  1.00  0.00    -0.391 OA
HETATM   33  H   UNL     1     -29.550  -7.507 -16.534  1.00  0.00     0.210 HD
ENDBRANCH  27  32
ENDBRANCH  21  25
ENDBRANCH  20  21
ENDBRANCH  18  20
ENDBRANCH   1  18
TORSDOF 22
BEGIN_RES ARG D 557
REMARK  4 active torsions:
REMARK  status: ('A' for Active; 'I' for Inactive)
REMARK    1  A    between atoms: CA   and  CB  
REMARK    2  A    between atoms: CB   and  CG  
REMARK    3  A    between atoms: CG   and  CD  
REMARK    4  A    between atoms: CD   and  NE  
REMARK       I    between atoms: NE   and  CZ  
REMARK       I    between atoms: CZ   and  NH1 
REMARK       I    between atoms: CZ   and  NH2 
ROOT
ATOM      1  CA  ARG D 557     -26.217   2.705 -17.014  1.00 35.49     0.159 C 
ENDROOT
BRANCH   1   2
ATOM      2  CB  ARG D 557     -26.789   1.319 -17.183  1.00 35.49     0.034 C 
BRANCH   2   3
ATOM      3  CG  ARG D 557     -25.851   0.197 -17.056  1.00 35.49     0.027 C 
BRANCH   3   4
ATOM      4  CD  ARG D 557     -26.171  -0.679 -15.906  1.00 35.49     0.116 C 
BRANCH   4   5
ATOM      5  NE  ARG D 557     -25.055  -0.824 -15.008  1.00 35.49    -0.212 N 
ATOM      6  CZ  ARG D 557     -24.856  -1.830 -14.187  1.00 35.49     0.666 C 
ATOM      7  NH1 ARG D 557     -25.698  -2.842 -14.088  1.00 35.49    -0.235 N 
ATOM      8  NH2 ARG D 557     -23.777  -1.807 -13.460  1.00 35.49    -0.235 N 
ATOM      9  HH  ARG D 557     -26.413  -2.879 -14.558  1.00 35.49     0.174 HD
ATOM     10  HH  ARG D 557     -25.514  -3.472 -13.537  1.00 35.49     0.174 HD
ATOM     11  HH  ARG D 557     -23.247  -1.144 -13.550  1.00 35.49     0.174 HD
ATOM     12  HH  ARG D 557     -23.612  -2.441 -12.921  1.00 35.49     0.174 HD
ATOM     13  HE  ARG D 557     -24.500  -0.181 -14.954  1.00 35.49     0.178 HD
ENDBRANCH   4   5
ENDBRANCH   3   4
ENDBRANCH   2   3
ENDBRANCH   1   2
END_RES ARG D 557
BEGIN_RES GLU D 570
REMARK  3 active torsions:
REMARK  status: ('A' for Active; 'I' for Inactive)
REMARK    5  A    between atoms: CA   and  CB  
REMARK    6  A    between atoms: CB   and  CG  
REMARK    7  A    between atoms: CG   and  CD  
ROOT
ATOM     14  CA  GLU D 570     -18.033  -6.348 -13.375  1.00 32.92     0.160 C 
ENDROOT
BRANCH  14  15
ATOM     15  CB  GLU D 570     -19.500  -6.345 -13.794  1.00 32.92     0.043 C 
BRANCH  15  16
ATOM     16  CG  GLU D 570     -19.809  -5.989 -15.203  1.00 32.92     0.100 C 
BRANCH  16  17
ATOM     17  CD  GLU D 570     -20.691  -7.006 -15.888  1.00 32.92     0.185 C 
ATOM     18  OE1 GLU D 570     -20.823  -8.135 -15.378  1.00 32.92    -0.647 OA
ATOM     19  OE2 GLU D 570     -21.243  -6.675 -16.956  1.00 32.92    -0.647 OA
ENDBRANCH  16  17
ENDBRANCH  15  16
ENDBRANCH  14  15
END_RES GLU D 570
ENDMDL
MODEL 2
REMARK VINA RESULT:      -8.4      2.652      5.080
REMARK  22 active torsions:
REMARK  status: ('A' for Active; 'I' for Inactive)
REMARK    1  A    between atoms: C_2  and  C_4 
REMARK    2  A    between atoms: C_4  and  C_5 
REMARK    3  A    between atoms: C_5  and  C_6 
REMARK    4  A    between atoms: C_6  and  C_7 
REMARK    5  A    between atoms: C_7  and  C_8 
REMARK    6  A    between atoms: C_8  and  C_9 
REMARK    7  A    between atoms: C_9  and  C_10 
REMARK    8  A    between atoms: C_10  and  C_11 
REMARK    9  A    between atoms: C_11  and  C_12 
REMARK   10  A    between atoms: C_12  and  C_13 
REMARK   11  A    between atoms: C_13  and  C_14 
REMARK   12  A    between atoms: C_14  and  C_15 
REMARK   13  A    between atoms: C_15  and  C_16 
REMARK   14  A    between atoms: C_16  and  C_17 
REMARK   15  A    between atoms: C_17  and  C_18 
REMARK   16  A    between atoms: C_18  and  O_20 
REMARK   17  A    between atoms: O_20  and  C_21 
REMARK   18  A    between atoms: C_21  and  C_22 
REMARK   19  A    between atoms: C_21  and  C_24 
REMARK   20  A    between atoms: C_22  and  O_23 
REMARK   21  A    between atoms: C_25  and  O_30 
REMARK   22  A    between atoms: C_26  and  O_29 
ROOT
HETATM    1  C   UNL     1     -21.009  -4.081  -8.128  1.00  0.00     0.111 C 
ENDROOT
BRANCH   1   2
HETATM    2  C   UNL     1     -19.670  -4.595  -7.603  1.00  0.00     0.010 C 
BRANCH   2   3
HETATM    3  C   UNL     1     -19.856  -5.654  -6.519  1.00  0.00     0.000 C 
BRANCH   3   4
HETATM    4  C   UNL     1     -21.305  -6.134  -6.486  1.00  0.00     0.000 C 
BRANCH   4   5
HETATM    5  C   UNL     1     -21.520  -7.182  -5.400  1.00  0.00     0.000 C 
BRANCH   5   6
HETATM    6  C   UNL     1     -20.220  -7.926  -5.112  1.00  0.00     0.000 C 
BRANCH   6   7
HETATM    7  C   UNL     1     -20.466  -9.428  -5.032  1.00  0.00     0.000 C 
BRANCH   7   8
HETATM    8  C   UNL     1     -21.800  -9.714  -4.353  1.00  0.00     0.000 C 
BRANCH   8   9
HETATM    9  C   UNL     1     -21.674 -10.902  -3.410  1.00  0.00     0.000 C 
BRANCH   9  10
HETATM   10  C   UNL     1     -22.935 -11.051  -2.570  1.00  0.00     0.000 C 
BRANCH  10  11
HETATM   11  C   UNL     1     -22.582 -11.104  -1.091  1.00  0.00     0.000 C 
BRANCH  11  12
HETATM   12  C   UNL     1     -23.395 -10.086  -0.300  1.00  0.00     0.000 C 
BRANCH  12  13
HETATM   13  C   UNL     1     -22.460  -9.100   0.389  1.00  0.00     0.000 C 
BRANCH  13  14
HETATM   14  C   UNL     1     -22.628  -7.689  -0.169  1.00  0.00     0.004 C 
BRANCH  14  15
HETATM   15  C   UNL     1     -21.913  -7.492  -1.519  1.00  0.00    -0.023 C 
HETATM   16  C   UNL     1     -22.032  -6.031  -1.952  1.00  0.00     0.009 C 
HETATM   17  C   UNL     1     -20.442  -7.899  -1.465  1.00  0.00     0.009 C 
ENDBRANCH  14  15
ENDBRANCH  13  14
ENDBRANCH  12  13
ENDBRANCH  11  12
ENDBRANCH  10  11
ENDBRANCH   9  10
ENDBRANCH   8   9
ENDBRANCH   7   8
ENDBRANCH   6   7
ENDBRANCH   5   6
ENDBRANCH   4   5
ENDBRANCH   3   4
ENDBRANCH   2   3
ENDBRANCH   1   2
BRANCH   1  18
HETATM   18  C   UNL     1     -21.083  -4.156  -9.637  1.00  0.00     0.259 C 
HETATM   19  O   UNL     1     -20.213  -4.632 -10.351  1.00  0.00    -0.265 OA
BRANCH  18  20
HETATM   20  O   UNL     1     -22.201  -3.502 -10.075  1.00  0.00    -0.311 OA
BRANCH  20  21
HETATM   21  C   UNL     1     -23.321  -4.346 -10.437  1.00  0.00     0.187 C 
BRANCH  21  22
HETATM   22  C   UNL     1     -24.542  -4.213  -9.487  1.00  0.00     0.199 C 
BRANCH  22  23
HETATM   23  O   UNL     1     -25.014  -2.874  -9.301  1.00  0.00    -0.398 OA
HETATM   24  H   UNL     1     -25.641  -2.910  -8.553  1.00  0.00     0.209 HD
ENDBRANCH  22  23
ENDBRANCH  21  22
BRANCH  21  25
HETATM   25  C   UNL     1     -23.685  -4.104 -11.923  1.00  0.00     0.184 C 
HETATM   26  C   UNL     1     -22.730  -4.730 -12.952  1.00  0.00     0.180 C 
HETATM   27  C   UNL     1     -22.491  -3.638 -13.987  1.00  0.00     0.173 C 
HETATM   28  C   UNL     1     -23.518  -2.583 -13.644  1.00  0.00     0.202 C 
HETATM   29  O   UNL     1     -23.763  -2.704 -12.247  1.00  0.00    -0.378 OA
BRANCH  26  30
HETATM   30  O   UNL     1     -23.378  -5.804 -13.669  1.00  0.00    -0.390 OA
HETATM   31  H   UNL     1     -23.558  -5.464 -14.571  1.00  0.00     0.210 HD
ENDBRANCH  26  30
BRANCH  27  32
HETATM   32  O   UNL     1     -22.697  -4.139 -15.305  1.00  0.00    -0.391 OA
HETATM   33  H   UNL     1     -23.672  -4.213 -15.406  1.00  0.00     0.210 HD
ENDBRANCH  27  32
ENDBRANCH  21  25
ENDBRANCH  20  21
ENDBRANCH  18  20
ENDBRANCH   1  18
TORSDOF 22
BEGIN_RES ARG D 557
REMARK  4 active torsions:
REMARK  status: ('A' for Active; 'I' for Inactive)
REMARK    1  A    between atoms: CA   and  CB  
REMARK    2  A    between atoms: CB   and  CG  
REMARK    3  A    between atoms: CG   and  CD  
REMARK    4  A    between atoms: CD   and  NE  
REMARK       I    between atoms: NE   and  CZ  
REMARK       I    between atoms: CZ   and  NH1 
REMARK       I    between atoms: CZ   and  NH2 
ROOT
ATOM      1  CA  ARG D 557     -26.217   2.705 -17.014  1.00 35.49     0.159 C 
ENDROOT
BRANCH   1   2
ATOM      2  CB  ARG D 557     -26.789   1.319 -17.183  1.00 35.49     0.034 C 
BRANCH   2   3
ATOM      3  CG  ARG D 557     -28.230   1.227 -17.448  1.00 35.49     0.027 C 
BRANCH   3   4
ATOM      4  CD  ARG D 557     -28.919   0.314 -16.507  1.00 35.49     0.116 C 
BRANCH   4   5
ATOM      5  NE  ARG D 557     -29.294  -0.927 -17.133  1.00 35.49    -0.212 N 
ATOM      6  CZ  ARG D 557     -28.649  -2.067 -17.027  1.00 35.49     0.666 C 
ATOM      7  NH1 ARG D 557     -27.541  -2.191 -16.320  1.00 35.49    -0.235 N 
ATOM      8  NH2 ARG D 557     -29.146  -3.098 -17.646  1.00 35.49    -0.235 N 
ATOM      9  HH  ARG D 557     -27.198  -1.527 -15.902  1.00 35.49     0.174 HD
ATOM     10  HH  ARG D 557     -27.165  -2.961 -16.285  1.00 35.49     0.174 HD
ATOM     11  HH  ARG D 557     -29.867  -2.990 -18.089  1.00 35.49     0.174 HD
ATOM     12  HH  ARG D 557     -28.760  -3.851 -17.598  1.00 35.49     0.174 HD
ATOM     13  HE  ARG D 557     -29.957  -0.921 -17.666  1.00 35.49     0.178 HD
ENDBRANCH   4   5
ENDBRANCH   3   4
ENDBRANCH   2   3
ENDBRANCH   1   2
END_RES ARG D 557
BEGIN_RES GLU D 570
REMARK  3 active torsions:
REMARK  status: ('A' for Active; 'I' for Inactive)
REMARK    5  A    between atoms: CA   and  CB  
REMARK    6  A    between atoms: CB   and  CG  
REMARK    7  A    between atoms: CG   and  CD  
ROOT
ATOM     14  CA  GLU D 570     -18.033  -6.348 -13.375  1.00 32.92     0.160 C 
ENDROOT
BRANCH  14  15
ATOM     15  CB  GLU D 570     -19.500  -6.345 -13.794  1.00 32.92     0.043 C 
BRANCH  15  16
ATOM     16  CG  GLU D 570     -19.796  -6.282 -15.249  1.00 32.92     0.100 C 
BRANCH  16  17
ATOM     17  CD  GLU D 570     -20.855  -7.271 -15.678  1.00 32.92     0.185 C 
ATOM     18  OE1 GLU D 570     -20.634  -8.490 -15.546  1.00 32.92    -0.647 OA
ATOM     19  OE2 GLU D 570     -21.911  -6.822 -16.166  1.00 32.92    -0.647 OA
ENDBRANCH  16  17
ENDBRANCH  15  16
ENDBRANCH  14  15
END_RES GLU D 570
ENDMDL
MODEL 3
REMARK VINA RESULT:      -8.3      2.454      4.734
REMARK  22 active torsions:
REMARK  status: ('A' for Active; 'I' for Inactive)
REMARK    1  A    between atoms: C_2  and  C_4 
REMARK    2  A    between atoms: C_4  and  C_5 
REMARK    3  A    between atoms: C_5  and  C_6 
REMARK    4  A    between atoms: C_6  and  C_7 
REMARK    5  A    between atoms: C_7  and  C_8 
REMARK    6  A    between atoms: C_8  and  C_9 
REMARK    7  A    between atoms: C_9  and  C_10 
REMARK    8  A    between atoms: C_10  and  C_11 
REMARK    9  A    between atoms: C_11  and  C_12 
REMARK   10  A    between atoms: C_12  and  C_13 
REMARK   11  A    between atoms: C_13  and  C_14 
REMARK   12  A    between atoms: C_14  and  C_15 
REMARK   13  A    between atoms: C_15  and  C_16 
REMARK   14  A    between atoms: C_16  and  C_17 
REMARK   15  A    between atoms: C_17  and  C_18 
REMARK   16  A    between atoms: C_18  and  O_20 
REMARK   17  A    between atoms: O_20  and  C_21 
REMARK   18  A    between atoms: C_21  and  C_22 
REMARK   19  A    between atoms: C_21  and  C_24 
REMARK   20  A    between atoms: C_22  and  O_23 
REMARK   21  A    between atoms: C_25  and  O_30 
REMARK   22  A    between atoms: C_26  and  O_29 
ROOT
HETATM    1  C   UNL     1     -20.527  -3.694  -8.387  1.00  0.00     0.111 C 
ENDROOT
BRANCH   1   2
HETATM    2  C   UNL     1     -19.293  -4.424  -7.860  1.00  0.00     0.010 C 
BRANCH   2   3
HETATM    3  C   UNL     1     -19.672  -5.612  -6.978  1.00  0.00     0.000 C 
BRANCH   3   4
HETATM    4  C   UNL     1     -20.869  -5.263  -6.099  1.00  0.00     0.000 C 
BRANCH   4   5
HETATM    5  C   UNL     1     -21.036  -6.263  -4.961  1.00  0.00     0.000 C 
BRANCH   5   6
HETATM    6  C   UNL     1     -20.214  -7.519  -5.231  1.00  0.00     0.000 C 
BRANCH   6   7
HETATM    7  C   UNL     1     -21.067  -8.769  -5.059  1.00  0.00     0.000 C 
BRANCH   7   8
HETATM    8  C   UNL     1     -21.558  -8.885  -3.620  1.00  0.00     0.000 C 
BRANCH   8   9
HETATM    9  C   UNL     1     -20.387  -9.095  -2.672  1.00  0.00     0.000 C 
BRANCH   9  10
HETATM   10  C   UNL     1     -20.486  -8.145  -1.485  1.00  0.00     0.000 C 
BRANCH  10  11
HETATM   11  C   UNL     1     -21.771  -7.335  -1.563  1.00  0.00     0.000 C 
BRANCH  11  12
HETATM   12  C   UNL     1     -22.536  -7.400  -0.246  1.00  0.00     0.000 C 
BRANCH  12  13
HETATM   13  C   UNL     1     -22.348  -8.771   0.393  1.00  0.00     0.000 C 
BRANCH  13  14
HETATM   14  C   UNL     1     -23.503  -9.708   0.051  1.00  0.00     0.004 C 
BRANCH  14  15
HETATM   15  C   UNL     1     -23.027 -11.082  -0.457  1.00  0.00    -0.023 C 
HETATM   16  C   UNL     1     -23.493 -12.174   0.505  1.00  0.00     0.009 C 
HETATM   17  C   UNL     1     -23.525 -11.386  -1.868  1.00  0.00     0.009 C 
ENDBRANCH  14  15
ENDBRANCH  13  14
ENDBRANCH  12  13
ENDBRANCH  11  12
ENDBRANCH  10  11
ENDBRANCH   9  10
ENDBRANCH   8   9
ENDBRANCH   7   8
ENDBRANCH   6   7
ENDBRANCH   5   6
ENDBRANCH   4   5
ENDBRANCH   3   4
ENDBRANCH   2   3
ENDBRANCH   1   2
BRANCH   1  18
HETATM   18  C   UNL     1     -20.821  -4.060  -9.824  1.00  0.00     0.259 C 
HETATM   19  O   UNL     1     -20.086  -4.730 -10.534  1.00  0.00    -0.265 OA
BRANCH  18  20
HETATM   20  O   UNL     1     -21.961  -3.427 -10.235  1.00  0.00    -0.311 OA
BRANCH  20  21
HETATM   21  C   UNL     1     -23.125  -4.273 -10.402  1.00  0.00     0.187 C 
BRANCH  21  22
HETATM   22  C   UNL     1     -24.237  -4.028  -9.348  1.00  0.00     0.199 C 
BRANCH  22  23
HETATM   23  O   UNL     1     -24.895  -2.761  -9.454  1.00  0.00    -0.398 OA
HETATM   24  H   UNL     1     -24.455  -2.173  -8.811  1.00  0.00     0.209 HD
ENDBRANCH  22  23
ENDBRANCH  21  22
BRANCH  21  25
HETATM   25  C   UNL     1     -23.639  -4.155 -11.859  1.00  0.00     0.184 C 
HETATM   26  C   UNL     1     -22.842  -4.943 -12.911  1.00  0.00     0.180 C 
HETATM   27  C   UNL     1     -22.658  -3.978 -14.075  1.00  0.00     0.173 C 
HETATM   28  C   UNL     1     -23.578  -2.826 -13.739  1.00  0.00     0.202 C 
HETATM   29  O   UNL     1     -23.672  -2.791 -12.319  1.00  0.00    -0.378 OA
BRANCH  26  30
HETATM   30  O   UNL     1     -23.627  -6.035 -13.438  1.00  0.00    -0.390 OA
HETATM   31  H   UNL     1     -24.201  -6.342 -12.704  1.00  0.00     0.210 HD
ENDBRANCH  26  30
BRANCH  27  32
HETATM   32  O   UNL     1     -23.039  -4.591 -15.303  1.00  0.00    -0.391 OA
HETATM   33  H   UNL     1     -24.001  -4.412 -15.397  1.00  0.00     0.210 HD
ENDBRANCH  27  32
ENDBRANCH  21  25
ENDBRANCH  20  21
ENDBRANCH  18  20
ENDBRANCH   1  18
TORSDOF 22
BEGIN_RES ARG D 557
REMARK  4 active torsions:
REMARK  status: ('A' for Active; 'I' for Inactive)
REMARK    1  A    between atoms: CA   and  CB  
REMARK    2  A    between atoms: CB   and  CG  
REMARK    3  A    between atoms: CG   and  CD  
REMARK    4  A    between atoms: CD   and  NE  
REMARK       I    between atoms: NE   and  CZ  
REMARK       I    between atoms: CZ   and  NH1 
REMARK       I    between atoms: CZ   and  NH2 
ROOT
ATOM      1  CA  ARG D 557     -26.217   2.705 -17.014  1.00 35.49     0.159 C 
ENDROOT
BRANCH   1   2
ATOM      2  CB  ARG D 557     -26.789   1.319 -17.183  1.00 35.49     0.034 C 
BRANCH   2   3
ATOM      3  CG  ARG D 557     -28.218   1.153 -16.889  1.00 35.49     0.027 C 
BRANCH   3   4
ATOM      4  CD  ARG D 557     -28.626  -0.270 -16.857  1.00 35.49     0.116 C 
BRANCH   4   5
ATOM      5  NE  ARG D 557     -27.670  -1.093 -16.164  1.00 35.49    -0.212 N 
ATOM      6  CZ  ARG D 557     -27.588  -2.402 -16.238  1.00 35.49     0.666 C 
ATOM      7  NH1 ARG D 557     -28.414  -3.124 -16.973  1.00 35.49    -0.235 N 
ATOM      8  NH2 ARG D 557     -26.644  -2.984 -15.557  1.00 35.49    -0.235 N 
ATOM      9  HH  ARG D 557     -29.041  -2.762 -17.431  1.00 35.49     0.174 HD
ATOM     10  HH  ARG D 557     -28.310  -3.975 -16.985  1.00 35.49     0.174 HD
ATOM     11  HH  ARG D 557     -26.121  -2.492 -15.097  1.00 35.49     0.174 HD
ATOM     12  HH  ARG D 557     -26.557  -3.827 -15.583  1.00 35.49     0.174 HD
ATOM     13  HE  ARG D 557     -27.145  -0.716 -15.611  1.00 35.49     0.178 HD
ENDBRANCH   4   5
ENDBRANCH   3   4
ENDBRANCH   2   3
ENDBRANCH   1   2
END_RES ARG D 557
BEGIN_RES GLU D 570
REMARK  3 active torsions:
REMARK  status: ('A' for Active; 'I' for Inactive)
REMARK    5  A    between atoms: CA   and  CB  
REMARK    6  A    between atoms: CB   and  CG  
REMARK    7  A    between atoms: CG   and  CD  
ROOT
ATOM     14  CA  GLU D 570     -18.033  -6.348 -13.375  1.00 32.92     0.160 C 
ENDROOT
BRANCH  14  15
ATOM     15  CB  GLU D 570     -19.500  -6.345 -13.794  1.00 32.92     0.043 C 
BRANCH  15  16
ATOM     16  CG  GLU D 570     -19.956  -7.431 -14.699  1.00 32.92     0.100 C 
BRANCH  16  17
ATOM     17  CD  GLU D 570     -20.961  -6.961 -15.725  1.00 32.92     0.185 C 
ATOM     18  OE1 GLU D 570     -22.101  -7.462 -15.728  1.00 32.92    -0.647 OA
ATOM     19  OE2 GLU D 570     -20.598  -6.095 -16.545  1.00 32.92    -0.647 OA
ENDBRANCH  16  17
ENDBRANCH  15  16
ENDBRANCH  14  15
END_RES GLU D 570
ENDMDL
MODEL 4
REMARK VINA RESULT:      -8.3      1.272      2.274
REMARK  22 active torsions:
REMARK  status: ('A' for Active; 'I' for Inactive)
REMARK    1  A    between atoms: C_2  and  C_4 
REMARK    2  A    between atoms: C_4  and  C_5 
REMARK    3  A    between atoms: C_5  and  C_6 
REMARK    4  A    between atoms: C_6  and  C_7 
REMARK    5  A    between atoms: C_7  and  C_8 
REMARK    6  A    between atoms: C_8  and  C_9 
REMARK    7  A    between atoms: C_9  and  C_10 
REMARK    8  A    between atoms: C_10  and  C_11 
REMARK    9  A    between atoms: C_11  and  C_12 
REMARK   10  A    between atoms: C_12  and  C_13 
REMARK   11  A    between atoms: C_13  and  C_14 
REMARK   12  A    between atoms: C_14  and  C_15 
REMARK   13  A    between atoms: C_15  and  C_16 
REMARK   14  A    between atoms: C_16  and  C_17 
REMARK   15  A    between atoms: C_17  and  C_18 
REMARK   16  A    between atoms: C_18  and  O_20 
REMARK   17  A    between atoms: O_20  and  C_21 
REMARK   18  A    between atoms: C_21  and  C_22 
REMARK   19  A    between atoms: C_21  and  C_24 
REMARK   20  A    between atoms: C_22  and  O_23 
REMARK   21  A    between atoms: C_25  and  O_30 
REMARK   22  A    between atoms: C_26  and  O_29 
ROOT
HETATM    1  C   UNL     1     -23.562  -5.335 -14.760  1.00  0.00     0.111 C 
ENDROOT
BRANCH   1   2
HETATM    2  C   UNL     1     -23.201  -5.575 -13.295  1.00  0.00     0.010 C 
BRANCH   2   3
HETATM    3  C   UNL     1     -22.320  -4.458 -12.740  1.00  0.00     0.000 C 
BRANCH   3   4
HETATM    4  C   UNL     1     -22.338  -4.472 -11.214  1.00  0.00     0.000 C 
BRANCH   4   5
HETATM    5  C   UNL     1     -23.586  -3.791 -10.664  1.00  0.00     0.000 C 
BRANCH   5   6
HETATM    6  C   UNL     1     -23.542  -3.748  -9.141  1.00  0.00     0.000 C 
BRANCH   6   7
HETATM    7  C   UNL     1     -22.169  -4.164  -8.629  1.00  0.00     0.000 C 
BRANCH   7   8
HETATM    8  C   UNL     1     -22.197  -4.353  -7.118  1.00  0.00     0.000 C 
BRANCH   8   9
HETATM    9  C   UNL     1     -20.786  -4.320  -6.549  1.00  0.00     0.000 C 
BRANCH   9  10
HETATM   10  C   UNL     1     -20.563  -5.497  -5.608  1.00  0.00     0.000 C 
BRANCH  10  11
HETATM   11  C   UNL     1     -21.885  -6.181  -5.295  1.00  0.00     0.000 C 
BRANCH  11  12
HETATM   12  C   UNL     1     -21.726  -7.174  -4.150  1.00  0.00     0.000 C 
BRANCH  12  13
HETATM   13  C   UNL     1     -21.531  -6.423  -2.838  1.00  0.00     0.000 C 
BRANCH  13  14
HETATM   14  C   UNL     1     -21.020  -7.348  -1.737  1.00  0.00     0.004 C 
BRANCH  14  15
HETATM   15  C   UNL     1     -22.124  -8.251  -1.156  1.00  0.00    -0.023 C 
HETATM   16  C   UNL     1     -21.634  -9.698  -1.116  1.00  0.00     0.009 C 
HETATM   17  C   UNL     1     -22.563  -7.812   0.240  1.00  0.00     0.009 C 
ENDBRANCH  14  15
ENDBRANCH  13  14
ENDBRANCH  12  13
ENDBRANCH  11  12
ENDBRANCH  10  11
ENDBRANCH   9  10
ENDBRANCH   8   9
ENDBRANCH   7   8
ENDBRANCH   6   7
ENDBRANCH   5   6
ENDBRANCH   4   5
ENDBRANCH   3   4
ENDBRANCH   2   3
ENDBRANCH   1   2
BRANCH   1  18
HETATM   18  C   UNL     1     -24.663  -6.263 -15.222  1.00  0.00     0.259 C 
HETATM   19  O   UNL     1     -24.535  -7.468 -15.377  1.00  0.00    -0.265 OA
BRANCH  18  20
HETATM   20  O   UNL     1     -25.769  -5.532 -15.556  1.00  0.00    -0.311 OA
BRANCH  20  21
HETATM   21  C   UNL     1     -26.727  -6.199 -16.414  1.00  0.00     0.187 C 
BRANCH  21  22
HETATM   22  C   UNL     1     -27.711  -7.129 -15.656  1.00  0.00     0.199 C 
BRANCH  22  23
HETATM   23  O   UNL     1     -28.643  -7.824 -16.491  1.00  0.00    -0.398 OA
HETATM   24  H   UNL     1     -28.161  -8.592 -16.854  1.00  0.00     0.209 HD
ENDBRANCH  22  23
ENDBRANCH  21  22
BRANCH  21  25
HETATM   25  C   UNL     1     -27.449  -5.145 -17.291  1.00  0.00     0.184 C 
HETATM   26  C   UNL     1     -28.348  -4.153 -16.535  1.00  0.00     0.180 C 
HETATM   27  C   UNL     1     -29.633  -4.083 -17.349  1.00  0.00     0.173 C 
HETATM   28  C   UNL     1     -29.289  -4.802 -18.633  1.00  0.00     0.202 C 
HETATM   29  O   UNL     1     -28.277  -5.748 -18.301  1.00  0.00    -0.378 OA
BRANCH  26  30
HETATM   30  O   UNL     1     -27.792  -2.821 -16.577  1.00  0.00    -0.390 OA
HETATM   31  H   UNL     1     -28.473  -2.226 -16.197  1.00  0.00     0.210 HD
ENDBRANCH  26  30
BRANCH  27  32
HETATM   32  O   UNL     1     -29.994  -2.729 -17.605  1.00  0.00    -0.391 OA
HETATM   33  H   UNL     1     -29.262  -2.189 -17.230  1.00  0.00     0.210 HD
ENDBRANCH  27  32
ENDBRANCH  21  25
ENDBRANCH  20  21
ENDBRANCH  18  20
ENDBRANCH   1  18
TORSDOF 22
BEGIN_RES ARG D 557
REMARK  4 active torsions:
REMARK  status: ('A' for Active; 'I' for Inactive)
REMARK    1  A    between atoms: CA   and  CB  
REMARK    2  A    between atoms: CB   and  CG  
REMARK    3  A    between atoms: CG   and  CD  
REMARK    4  A    between atoms: CD   and  NE  
REMARK       I    between atoms: NE   and  CZ  
REMARK       I    between atoms: CZ   and  NH1 
REMARK       I    between atoms: CZ   and  NH2 
ROOT
ATOM      1  CA  ARG D 557     -26.217   2.705 -17.014  1.00 35.49     0.159 C 
ENDROOT
BRANCH   1   2
ATOM      2  CB  ARG D 557     -26.789   1.319 -17.183  1.00 35.49     0.034 C 
BRANCH   2   3
ATOM      3  CG  ARG D 557     -25.830   0.208 -17.219  1.00 35.49     0.027 C 
BRANCH   3   4
ATOM      4  CD  ARG D 557     -25.259  -0.088 -15.885  1.00 35.49     0.116 C 
BRANCH   4   5
ATOM      5  NE  ARG D 557     -25.831  -1.273 -15.302  1.00 35.49    -0.212 N 
ATOM      6  CZ  ARG D 557     -25.297  -1.989 -14.337  1.00 35.49     0.666 C 
ATOM      7  NH1 ARG D 557     -24.131  -1.690 -13.795  1.00 35.49    -0.235 N 
ATOM      8  NH2 ARG D 557     -25.966  -3.022 -13.915  1.00 35.49    -0.235 N 
ATOM      9  HH  ARG D 557     -23.674  -1.014 -14.056  1.00 35.49     0.174 HD
ATOM     10  HH  ARG D 557     -23.833  -2.192 -13.168  1.00 35.49     0.174 HD
ATOM     11  HH  ARG D 557     -26.720  -3.186 -14.279  1.00 35.49     0.174 HD
ATOM     12  HH  ARG D 557     -25.656  -3.505 -13.292  1.00 35.49     0.174 HD
ATOM     13  HE  ARG D 557     -26.548  -1.579 -15.641  1.00 35.49     0.178 HD
ENDBRANCH   4   5
ENDBRANCH   3   4
ENDBRANCH   2   3
ENDBRANCH   1   2
END_RES ARG D 557
BEGIN_RES GLU D 570
REMARK  3 active torsions:
REMARK  status: ('A' for Active; 'I' for Inactive)
REMARK    5  A    between atoms: CA   and  CB  
REMARK    6  A    between atoms: CB   and  CG  
REMARK    7  A    between atoms: CG   and  CD  
ROOT
ATOM     14  CA  GLU D 570     -18.033  -6.348 -13.375  1.00 32.92     0.160 C 
ENDROOT
BRANCH  14  15
ATOM     15  CB  GLU D 570     -19.500  -6.345 -13.794  1.00 32.92     0.043 C 
BRANCH  15  16
ATOM     16  CG  GLU D 570     -19.802  -6.104 -15.229  1.00 32.92     0.100 C 
BRANCH  16  17
ATOM     17  CD  GLU D 570     -20.651  -7.191 -15.843  1.00 32.92     0.185 C 
ATOM     18  OE1 GLU D 570     -20.732  -8.294 -15.268  1.00 32.92    -0.647 OA
ATOM     19  OE2 GLU D 570     -21.228  -6.944 -16.921  1.00 32.92    -0.647 OA
ENDBRANCH  16  17
ENDBRANCH  15  16
ENDBRANCH  14  15
END_RES GLU D 570
ENDMDL
MODEL 5
REMARK VINA RESULT:      -8.2      1.820      2.739
REMARK  22 active torsions:
REMARK  status: ('A' for Active; 'I' for Inactive)
REMARK    1  A    between atoms: C_2  and  C_4 
REMARK    2  A    between atoms: C_4  and  C_5 
REMARK    3  A    between atoms: C_5  and  C_6 
REMARK    4  A    between atoms: C_6  and  C_7 
REMARK    5  A    between atoms: C_7  and  C_8 
REMARK    6  A    between atoms: C_8  and  C_9 
REMARK    7  A    between atoms: C_9  and  C_10 
REMARK    8  A    between atoms: C_10  and  C_11 
REMARK    9  A    between atoms: C_11  and  C_12 
REMARK   10  A    between atoms: C_12  and  C_13 
REMARK   11  A    between atoms: C_13  and  C_14 
REMARK   12  A    between atoms: C_14  and  C_15 
REMARK   13  A    between atoms: C_15  and  C_16 
REMARK   14  A    between atoms: C_16  and  C_17 
REMARK   15  A    between atoms: C_17  and  C_18 
REMARK   16  A    between atoms: C_18  and  O_20 
REMARK   17  A    between atoms: O_20  and  C_21 
REMARK   18  A    between atoms: C_21  and  C_22 
REMARK   19  A    between atoms: C_21  and  C_24 
REMARK   20  A    between atoms: C_22  and  O_23 
REMARK   21  A    between atoms: C_25  and  O_30 
REMARK   22  A    between atoms: C_26  and  O_29 
ROOT
HETATM    1  C   UNL     1     -22.996  -3.899 -14.383  1.00  0.00     0.111 C 
ENDROOT
BRANCH   1   2
HETATM    2  C   UNL     1     -23.463  -2.676 -13.595  1.00  0.00     0.010 C 
BRANCH   2   3
HETATM    3  C   UNL     1     -23.232  -2.848 -12.096  1.00  0.00     0.000 C 
BRANCH   3   4
HETATM    4  C   UNL     1     -21.739  -2.925 -11.791  1.00  0.00     0.000 C 
BRANCH   4   5
HETATM    5  C   UNL     1     -21.389  -4.202 -11.034  1.00  0.00     0.000 C 
BRANCH   5   6
HETATM    6  C   UNL     1     -22.520  -4.585 -10.085  1.00  0.00     0.000 C 
BRANCH   6   7
HETATM    7  C   UNL     1     -22.135  -4.287  -8.641  1.00  0.00     0.000 C 
BRANCH   7   8
HETATM    8  C   UNL     1     -20.625  -4.116  -8.516  1.00  0.00     0.000 C 
BRANCH   8   9
HETATM    9  C   UNL     1     -20.021  -5.273  -7.736  1.00  0.00     0.000 C 
BRANCH   9  10
HETATM   10  C   UNL     1     -19.647  -4.829  -6.328  1.00  0.00     0.000 C 
BRANCH  10  11
HETATM   11  C   UNL     1     -20.681  -5.322  -5.326  1.00  0.00     0.000 C 
BRANCH  11  12
HETATM   12  C   UNL     1     -21.176  -6.715  -5.697  1.00  0.00     0.000 C 
BRANCH  12  13
HETATM   13  C   UNL     1     -21.747  -7.405  -4.464  1.00  0.00     0.000 C 
BRANCH  13  14
HETATM   14  C   UNL     1     -21.886  -6.434  -3.295  1.00  0.00     0.004 C 
BRANCH  14  15
HETATM   15  C   UNL     1     -21.263  -6.972  -1.994  1.00  0.00    -0.023 C 
HETATM   16  C   UNL     1     -22.340  -7.076  -0.915  1.00  0.00     0.009 C 
HETATM   17  C   UNL     1     -20.589  -8.328  -2.187  1.00  0.00     0.009 C 
ENDBRANCH  14  15
ENDBRANCH  13  14
ENDBRANCH  12  13
ENDBRANCH  11  12
ENDBRANCH  10  11
ENDBRANCH   9  10
ENDBRANCH   8   9
ENDBRANCH   7   8
ENDBRANCH   6   7
ENDBRANCH   5   6
ENDBRANCH   4   5
ENDBRANCH   3   4
ENDBRANCH   2   3
ENDBRANCH   1   2
BRANCH   1  18
HETATM   18  C   UNL     1     -23.865  -5.105 -14.108  1.00  0.00     0.259 C 
HETATM   19  O   UNL     1     -23.577  -6.005 -13.333  1.00  0.00    -0.265 OA
BRANCH  18  20
HETATM   20  O   UNL     1     -24.945  -5.095 -14.946  1.00  0.00    -0.311 OA
BRANCH  20  21
HETATM   21  C   UNL     1     -24.880  -6.009 -16.067  1.00  0.00     0.187 C 
BRANCH  21  22
HETATM   22  C   UNL     1     -23.855  -7.160 -15.882  1.00  0.00     0.199 C 
BRANCH  22  23
HETATM   23  O   UNL     1     -24.274  -8.426 -16.403  1.00  0.00    -0.398 OA
HETATM   24  H   UNL     1     -25.249  -8.392 -16.446  1.00  0.00     0.209 HD
ENDBRANCH  22  23
ENDBRANCH  21  22
BRANCH  21  25
HETATM   25  C   UNL     1     -26.306  -6.520 -16.394  1.00  0.00     0.184 C 
HETATM   26  C   UNL     1     -27.394  -5.438 -16.488  1.00  0.00     0.180 C 
HETATM   27  C   UNL     1     -28.577  -5.996 -15.707  1.00  0.00     0.173 C 
HETATM   28  C   UNL     1     -28.200  -7.440 -15.462  1.00  0.00     0.202 C 
HETATM   29  O   UNL     1     -26.777  -7.481 -15.433  1.00  0.00    -0.378 OA
BRANCH  26  30
HETATM   30  O   UNL     1     -27.863  -5.297 -17.847  1.00  0.00    -0.390 OA
HETATM   31  H   UNL     1     -27.318  -4.591 -18.255  1.00  0.00     0.210 HD
ENDBRANCH  26  30
BRANCH  27  32
HETATM   32  O   UNL     1     -29.774  -5.906 -16.473  1.00  0.00    -0.391 OA
HETATM   33  H   UNL     1     -29.650  -6.528 -17.225  1.00  0.00     0.210 HD
ENDBRANCH  27  32
ENDBRANCH  21  25
ENDBRANCH  20  21
ENDBRANCH  18  20
ENDBRANCH   1  18
TORSDOF 22
BEGIN_RES ARG D 557
REMARK  4 active torsions:
REMARK  status: ('A' for Active; 'I' for Inactive)
REMARK    1  A    between atoms: CA   and  CB  
REMARK    2  A    between atoms: CB   and  CG  
REMARK    3  A    between atoms: CG   and  CD  
REMARK    4  A    between atoms: CD   and  NE  
REMARK       I    between atoms: NE   and  CZ  
REMARK       I    between atoms: CZ   and  NH1 
REMARK       I    between atoms: CZ   and  NH2 
ROOT
ATOM      1  CA  ARG D 557     -26.217   2.705 -17.014  1.00 35.49     0.159 C 
ENDROOT
BRANCH   1   2
ATOM      2  CB  ARG D 557     -26.789   1.319 -17.183  1.00 35.49     0.034 C 
BRANCH   2   3
ATOM      3  CG  ARG D 557     -28.230   1.227 -17.449  1.00 35.49     0.027 C 
BRANCH   3   4
ATOM      4  CD  ARG D 557     -28.930   0.360 -16.474  1.00 35.49     0.116 C 
BRANCH   4   5
ATOM      5  NE  ARG D 557     -29.497  -0.808 -17.095  1.00 35.49    -0.212 N 
ATOM      6  CZ  ARG D 557     -28.958  -2.006 -17.116  1.00 35.49     0.666 C 
ATOM      7  NH1 ARG D 557     -27.789  -2.267 -16.559  1.00 35.49    -0.235 N 
ATOM      8  NH2 ARG D 557     -29.624  -2.954 -17.707  1.00 35.49    -0.235 N 
ATOM      9  HH  ARG D 557     -27.334  -1.658 -16.163  1.00 35.49     0.174 HD
ATOM     10  HH  ARG D 557     -27.488  -3.068 -16.602  1.00 35.49     0.174 HD
ATOM     11  HH  ARG D 557     -30.379  -2.758 -18.051  1.00 35.49     0.174 HD
ATOM     12  HH  ARG D 557     -29.310  -3.741 -17.738  1.00 35.49     0.174 HD
ATOM     13  HE  ARG D 557     -30.216  -0.714 -17.540  1.00 35.49     0.178 HD
ENDBRANCH   4   5
ENDBRANCH   3   4
ENDBRANCH   2   3
ENDBRANCH   1   2
END_RES ARG D 557
BEGIN_RES GLU D 570
REMARK  3 active torsions:
REMARK  status: ('A' for Active; 'I' for Inactive)
REMARK    5  A    between atoms: CA   and  CB  
REMARK    6  A    between atoms: CB   and  CG  
REMARK    7  A    between atoms: CG   and  CD  
ROOT
ATOM     14  CA  GLU D 570     -18.033  -6.348 -13.375  1.00 32.92     0.160 C 
ENDROOT
BRANCH  14  15
ATOM     15  CB  GLU D 570     -19.500  -6.345 -13.794  1.00 32.92     0.043 C 
BRANCH  15  16
ATOM     16  CG  GLU D 570     -19.868  -5.549 -14.993  1.00 32.92     0.100 C 
BRANCH  16  17
ATOM     17  CD  GLU D 570     -20.418  -6.396 -16.117  1.00 32.92     0.185 C 
ATOM     18  OE1 GLU D 570     -20.794  -5.839 -17.166  1.00 32.92    -0.647 OA
ATOM     19  OE2 GLU D 570     -20.489  -7.628 -15.940  1.00 32.92    -0.647 OA
ENDBRANCH  16  17
ENDBRANCH  15  16
ENDBRANCH  14  15
END_RES GLU D 570
ENDMDL
MODEL 6
REMARK VINA RESULT:      -8.2      2.746      5.178
REMARK  22 active torsions:
REMARK  status: ('A' for Active; 'I' for Inactive)
REMARK    1  A    between atoms: C_2  and  C_4 
REMARK    2  A    between atoms: C_4  and  C_5 
REMARK    3  A    between atoms: C_5  and  C_6 
REMARK    4  A    between atoms: C_6  and  C_7 
REMARK    5  A    between atoms: C_7  and  C_8 
REMARK    6  A    between atoms: C_8  and  C_9 
REMARK    7  A    between atoms: C_9  and  C_10 
REMARK    8  A    between atoms: C_10  and  C_11 
REMARK    9  A    between atoms: C_11  and  C_12 
REMARK   10  A    between atoms: C_12  and  C_13 
REMARK   11  A    between atoms: C_13  and  C_14 
REMARK   12  A    between atoms: C_14  and  C_15 
REMARK   13  A    between atoms: C_15  and  C_16 
REMARK   14  A    between atoms: C_16  and  C_17 
REMARK   15  A    between atoms: C_17  and  C_18 
REMARK   16  A    between atoms: C_18  and  O_20 
REMARK   17  A    between atoms: O_20  and  C_21 
REMARK   18  A    between atoms: C_21  and  C_22 
REMARK   19  A    between atoms: C_21  and  C_24 
REMARK   20  A    between atoms: C_22  and  O_23 
REMARK   21  A    between atoms: C_25  and  O_30 
REMARK   22  A    between atoms: C_26  and  O_29 
ROOT
HETATM    1  C   UNL     1     -21.013  -3.878  -8.295  1.00  0.00     0.111 C 
ENDROOT
BRANCH   1   2
HETATM    2  C   UNL     1     -19.741  -4.452  -7.673  1.00  0.00     0.010 C 
BRANCH   2   3
HETATM    3  C   UNL     1     -20.032  -5.173  -6.358  1.00  0.00     0.000 C 
BRANCH   3   4
HETATM    4  C   UNL     1     -20.986  -6.341  -6.589  1.00  0.00     0.000 C 
BRANCH   4   5
HETATM    5  C   UNL     1     -20.871  -7.383  -5.482  1.00  0.00     0.000 C 
BRANCH   5   6
HETATM    6  C   UNL     1     -21.883  -7.101  -4.377  1.00  0.00     0.000 C 
BRANCH   6   7
HETATM    7  C   UNL     1     -21.198  -7.052  -3.017  1.00  0.00     0.000 C 
BRANCH   7   8
HETATM    8  C   UNL     1     -21.928  -6.092  -2.086  1.00  0.00     0.000 C 
BRANCH   8   9
HETATM    9  C   UNL     1     -22.463  -6.834  -0.869  1.00  0.00     0.000 C 
BRANCH   9  10
HETATM   10  C   UNL     1     -21.599  -8.050  -0.565  1.00  0.00     0.000 C 
BRANCH  10  11
HETATM   11  C   UNL     1     -22.474  -9.255  -0.250  1.00  0.00     0.000 C 
BRANCH  11  12
HETATM   12  C   UNL     1     -21.625 -10.499  -0.020  1.00  0.00     0.000 C 
BRANCH  12  13
HETATM   13  C   UNL     1     -21.753 -11.440  -1.212  1.00  0.00     0.000 C 
BRANCH  13  14
HETATM   14  C   UNL     1     -22.769 -10.920  -2.226  1.00  0.00     0.004 C 
BRANCH  14  15
HETATM   15  C   UNL     1     -22.182 -10.783  -3.643  1.00  0.00    -0.023 C 
HETATM   16  C   UNL     1     -20.664 -10.631  -3.556  1.00  0.00     0.009 C 
HETATM   17  C   UNL     1     -22.535 -11.969  -4.538  1.00  0.00     0.009 C 
ENDBRANCH  14  15
ENDBRANCH  13  14
ENDBRANCH  12  13
ENDBRANCH  11  12
ENDBRANCH  10  11
ENDBRANCH   9  10
ENDBRANCH   8   9
ENDBRANCH   7   8
ENDBRANCH   6   7
ENDBRANCH   5   6
ENDBRANCH   4   5
ENDBRANCH   3   4
ENDBRANCH   2   3
ENDBRANCH   1   2
BRANCH   1  18
HETATM   18  C   UNL     1     -21.038  -4.073  -9.794  1.00  0.00     0.259 C 
HETATM   19  O   UNL     1     -20.250  -4.769 -10.416  1.00  0.00    -0.265 OA
BRANCH  18  20
HETATM   20  O   UNL     1     -21.988  -3.261 -10.348  1.00  0.00    -0.311 OA
BRANCH  20  21
HETATM   21  C   UNL     1     -23.300  -3.851 -10.516  1.00  0.00     0.187 C 
BRANCH  21  22
HETATM   22  C   UNL     1     -24.382  -3.257  -9.575  1.00  0.00     0.199 C 
BRANCH  22  23
HETATM   23  O   UNL     1     -25.670  -3.875  -9.678  1.00  0.00    -0.398 OA
HETATM   24  H   UNL     1     -26.323  -3.160  -9.555  1.00  0.00     0.209 HD
ENDBRANCH  22  23
ENDBRANCH  21  22
BRANCH  21  25
HETATM   25  C   UNL     1     -23.701  -3.788 -12.011  1.00  0.00     0.184 C 
HETATM   26  C   UNL     1     -22.702  -3.079 -12.939  1.00  0.00     0.180 C 
HETATM   27  C   UNL     1     -23.552  -2.173 -13.820  1.00  0.00     0.173 C 
HETATM   28  C   UNL     1     -24.969  -2.619 -13.538  1.00  0.00     0.202 C 
HETATM   29  O   UNL     1     -24.968  -3.134 -12.211  1.00  0.00    -0.378 OA
BRANCH  26  30
HETATM   30  O   UNL     1     -22.081  -4.021 -13.842  1.00  0.00    -0.390 OA
HETATM   31  H   UNL     1     -21.517  -4.602 -13.289  1.00  0.00     0.210 HD
ENDBRANCH  26  30
BRANCH  27  32
HETATM   32  O   UNL     1     -23.225  -2.356 -15.194  1.00  0.00    -0.391 OA
HETATM   33  H   UNL     1     -22.946  -1.470 -15.516  1.00  0.00     0.210 HD
ENDBRANCH  27  32
ENDBRANCH  21  25
ENDBRANCH  20  21
ENDBRANCH  18  20
ENDBRANCH   1  18
TORSDOF 22
BEGIN_RES ARG D 557
REMARK  4 active torsions:
REMARK  status: ('A' for Active; 'I' for Inactive)
REMARK    1  A    between atoms: CA   and  CB  
REMARK    2  A    between atoms: CB   and  CG  
REMARK    3  A    between atoms: CG   and  CD  
REMARK    4  A    between atoms: CD   and  NE  
REMARK       I    between atoms: NE   and  CZ  
REMARK       I    between atoms: CZ   and  NH1 
REMARK       I    between atoms: CZ   and  NH2 
ROOT
ATOM      1  CA  ARG D 557     -26.217   2.705 -17.014  1.00 35.49     0.159 C 
ENDROOT
BRANCH   1   2
ATOM      2  CB  ARG D 557     -26.789   1.319 -17.183  1.00 35.49     0.034 C 
BRANCH   2   3
ATOM      3  CG  ARG D 557     -28.210   1.147 -16.859  1.00 35.49     0.027 C 
BRANCH   3   4
ATOM      4  CD  ARG D 557     -28.716  -0.194 -17.233  1.00 35.49     0.116 C 
BRANCH   4   5
ATOM      5  NE  ARG D 557     -27.952  -1.251 -16.623  1.00 35.49    -0.212 N 
ATOM      6  CZ  ARG D 557     -28.171  -2.538 -16.768  1.00 35.49     0.666 C 
ATOM      7  NH1 ARG D 557     -29.159  -3.011 -17.505  1.00 35.49    -0.235 N 
ATOM      8  NH2 ARG D 557     -27.364  -3.357 -16.157  1.00 35.49    -0.235 N 
ATOM      9  HH  ARG D 557     -29.701  -2.491 -17.917  1.00 35.49     0.174 HD
ATOM     10  HH  ARG D 557     -29.251  -3.861 -17.565  1.00 35.49     0.174 HD
ATOM     11  HH  ARG D 557     -26.730  -3.023 -15.694  1.00 35.49     0.174 HD
ATOM     12  HH  ARG D 557     -27.471  -4.195 -16.230  1.00 35.49     0.174 HD
ATOM     13  HE  ARG D 557     -27.340  -1.035 -16.073  1.00 35.49     0.178 HD
ENDBRANCH   4   5
ENDBRANCH   3   4
ENDBRANCH   2   3
ENDBRANCH   1   2
END_RES ARG D 557
BEGIN_RES GLU D 570
REMARK  3 active torsions:
REMARK  status: ('A' for Active; 'I' for Inactive)
REMARK    5  A    between atoms: CA   and  CB  
REMARK    6  A    between atoms: CB   and  CG  
REMARK    7  A    between atoms: CG   and  CD  
ROOT
ATOM     14  CA  GLU D 570     -18.033  -6.348 -13.375  1.00 32.92     0.160 C 
ENDROOT
BRANCH  14  15
ATOM     15  CB  GLU D 570     -19.500  -6.345 -13.794  1.00 32.92     0.043 C 
BRANCH  15  16
ATOM     16  CG  GLU D 570     -20.088  -7.635 -14.238  1.00 32.92     0.100 C 
BRANCH  16  17
ATOM     17  CD  GLU D 570     -21.124  -7.468 -15.325  1.00 32.92     0.185 C 
ATOM     18  OE1 GLU D 570     -21.110  -8.243 -16.300  1.00 32.92    -0.647 OA
ATOM     19  OE2 GLU D 570     -21.950  -6.541 -15.207  1.00 32.92    -0.647 OA
ENDBRANCH  16  17
ENDBRANCH  15  16
ENDBRANCH  14  15
END_RES GLU D 570
ENDMDL
MODEL 7
REMARK VINA RESULT:      -7.9      1.877      2.825
REMARK  22 active torsions:
REMARK  status: ('A' for Active; 'I' for Inactive)
REMARK    1  A    between atoms: C_2  and  C_4 
REMARK    2  A    between atoms: C_4  and  C_5 
REMARK    3  A    between atoms: C_5  and  C_6 
REMARK    4  A    between atoms: C_6  and  C_7 
REMARK    5  A    between atoms: C_7  and  C_8 
REMARK    6  A    between atoms: C_8  and  C_9 
REMARK    7  A    between atoms: C_9  and  C_10 
REMARK    8  A    between atoms: C_10  and  C_11 
REMARK    9  A    between atoms: C_11  and  C_12 
REMARK   10  A    between atoms: C_12  and  C_13 
REMARK   11  A    between atoms: C_13  and  C_14 
REMARK   12  A    between atoms: C_14  and  C_15 
REMARK   13  A    between atoms: C_15  and  C_16 
REMARK   14  A    between atoms: C_16  and  C_17 
REMARK   15  A    between atoms: C_17  and  C_18 
REMARK   16  A    between atoms: C_18  and  O_20 
REMARK   17  A    between atoms: O_20  and  C_21 
REMARK   18  A    between atoms: C_21  and  C_22 
REMARK   19  A    between atoms: C_21  and  C_24 
REMARK   20  A    between atoms: C_22  and  O_23 
REMARK   21  A    between atoms: C_25  and  O_30 
REMARK   22  A    between atoms: C_26  and  O_29 
ROOT
HETATM    1  C   UNL     1     -24.383  -5.653 -14.910  1.00  0.00     0.111 C 
ENDROOT
BRANCH   1   2
HETATM    2  C   UNL     1     -23.630  -5.603 -13.582  1.00  0.00     0.010 C 
BRANCH   2   3
HETATM    3  C   UNL     1     -23.089  -4.205 -13.291  1.00  0.00     0.000 C 
BRANCH   3   4
HETATM    4  C   UNL     1     -23.993  -3.478 -12.300  1.00  0.00     0.000 C 
BRANCH   4   5
HETATM    5  C   UNL     1     -23.355  -3.397 -10.918  1.00  0.00     0.000 C 
BRANCH   5   6
HETATM    6  C   UNL     1     -21.843  -3.234 -11.038  1.00  0.00     0.000 C 
BRANCH   6   7
HETATM    7  C   UNL     1     -21.126  -4.071  -9.986  1.00  0.00     0.000 C 
BRANCH   7   8
HETATM    8  C   UNL     1     -22.025  -4.290  -8.776  1.00  0.00     0.000 C 
BRANCH   8   9
HETATM    9  C   UNL     1     -21.401  -3.678  -7.530  1.00  0.00     0.000 C 
BRANCH   9  10
HETATM   10  C   UNL     1     -20.195  -4.493  -7.082  1.00  0.00     0.000 C 
BRANCH  10  11
HETATM   11  C   UNL     1     -20.549  -5.972  -7.024  1.00  0.00     0.000 C 
BRANCH  11  12
HETATM   12  C   UNL     1     -20.268  -6.545  -5.641  1.00  0.00     0.000 C 
BRANCH  12  13
HETATM   13  C   UNL     1     -21.073  -5.786  -4.593  1.00  0.00     0.000 C 
BRANCH  13  14
HETATM   14  C   UNL     1     -21.842  -6.739  -3.682  1.00  0.00     0.004 C 
BRANCH  14  15
HETATM   15  C   UNL     1     -21.244  -6.823  -2.265  1.00  0.00    -0.023 C 
HETATM   16  C   UNL     1     -22.369  -6.769  -1.231  1.00  0.00     0.009 C 
HETATM   17  C   UNL     1     -20.408  -8.083  -2.058  1.00  0.00     0.009 C 
ENDBRANCH  14  15
ENDBRANCH  13  14
ENDBRANCH  12  13
ENDBRANCH  11  12
ENDBRANCH  10  11
ENDBRANCH   9  10
ENDBRANCH   8   9
ENDBRANCH   7   8
ENDBRANCH   6   7
ENDBRANCH   5   6
ENDBRANCH   4   5
ENDBRANCH   3   4
ENDBRANCH   2   3
ENDBRANCH   1   2
BRANCH   1  18
HETATM   18  C   UNL     1     -24.466  -7.062 -15.452  1.00  0.00     0.259 C 
HETATM   19  O   UNL     1     -23.502  -7.739 -15.775  1.00  0.00    -0.265 OA
BRANCH  18  20
HETATM   20  O   UNL     1     -25.776  -7.406 -15.641  1.00  0.00    -0.311 OA
BRANCH  20  21
HETATM   21  C   UNL     1     -26.567  -6.470 -16.413  1.00  0.00     0.187 C 
BRANCH  21  22
HETATM   22  C   UNL     1     -26.299  -6.529 -17.940  1.00  0.00     0.199 C 
BRANCH  22  23
HETATM   23  O   UNL     1     -24.921  -6.677 -18.302  1.00  0.00    -0.398 OA
HETATM   24  H   UNL     1     -24.912  -6.858 -19.262  1.00  0.00     0.209 HD
ENDBRANCH  22  23
ENDBRANCH  21  22
BRANCH  21  25
HETATM   25  C   UNL     1     -28.064  -6.648 -16.056  1.00  0.00     0.184 C 
HETATM   26  C   UNL     1     -29.007  -6.887 -17.246  1.00  0.00     0.180 C 
HETATM   27  C   UNL     1     -30.202  -5.975 -16.995  1.00  0.00     0.173 C 
HETATM   28  C   UNL     1     -30.000  -5.498 -15.575  1.00  0.00     0.202 C 
HETATM   29  O   UNL     1     -28.595  -5.517 -15.343  1.00  0.00    -0.378 OA
BRANCH  26  30
HETATM   30  O   UNL     1     -29.536  -8.230 -17.222  1.00  0.00    -0.390 OA
HETATM   31  H   UNL     1     -28.766  -8.829 -17.117  1.00  0.00     0.210 HD
ENDBRANCH  26  30
BRANCH  27  32
HETATM   32  O   UNL     1     -31.422  -6.699 -17.120  1.00  0.00    -0.391 OA
HETATM   33  H   UNL     1     -31.920  -6.515 -16.293  1.00  0.00     0.210 HD
ENDBRANCH  27  32
ENDBRANCH  21  25
ENDBRANCH  20  21
ENDBRANCH  18  20
ENDBRANCH   1  18
TORSDOF 22
BEGIN_RES ARG D 557
REMARK  4 active torsions:
REMARK  status: ('A' for Active; 'I' for Inactive)
REMARK    1  A    between atoms: CA   and  CB  
REMARK    2  A    between atoms: CB   and  CG  
REMARK    3  A    between atoms: CG   and  CD  
REMARK    4  A    between atoms: CD   and  NE  
REMARK       I    between atoms: NE   and  CZ  
REMARK       I    between atoms: CZ   and  NH1 
REMARK       I    between atoms: CZ   and  NH2 
ROOT
ATOM      1  CA  ARG D 557     -26.217   2.705 -17.014  1.00 35.49     0.159 C 
ENDROOT
BRANCH   1   2
ATOM      2  CB  ARG D 557     -26.789   1.319 -17.183  1.00 35.49     0.034 C 
BRANCH   2   3
ATOM      3  CG  ARG D 557     -28.235   1.225 -17.419  1.00 35.49     0.027 C 
BRANCH   3   4
ATOM      4  CD  ARG D 557     -28.901   0.293 -16.480  1.00 35.49     0.116 C 
BRANCH   4   5
ATOM      5  NE  ARG D 557     -28.091  -0.863 -16.199  1.00 35.49    -0.212 N 
ATOM      6  CZ  ARG D 557     -28.297  -2.075 -16.662  1.00 35.49     0.666 C 
ATOM      7  NH1 ARG D 557     -29.313  -2.370 -17.452  1.00 35.49    -0.235 N 
ATOM      8  NH2 ARG D 557     -27.448  -3.001 -16.320  1.00 35.49    -0.235 N 
ATOM      9  HH  ARG D 557     -29.882  -1.776 -17.692  1.00 35.49     0.174 HD
ATOM     10  HH  ARG D 557     -29.394  -3.178 -17.726  1.00 35.49     0.174 HD
ATOM     11  HH  ARG D 557     -26.797  -2.780 -15.815  1.00 35.49     0.174 HD
ATOM     12  HH  ARG D 557     -27.545  -3.794 -16.602  1.00 35.49     0.174 HD
ATOM     13  HE  ARG D 557     -27.456  -0.779 -15.639  1.00 35.49     0.178 HD
ENDBRANCH   4   5
ENDBRANCH   3   4
ENDBRANCH   2   3
ENDBRANCH   1   2
END_RES ARG D 557
BEGIN_RES GLU D 570
REMARK  3 active torsions:
REMARK  status: ('A' for Active; 'I' for Inactive)
REMARK    5  A    between atoms: CA   and  CB  
REMARK    6  A    between atoms: CB   and  CG  
REMARK    7  A    between atoms: CG   and  CD  
ROOT
ATOM     14  CA  GLU D 570     -18.033  -6.348 -13.375  1.00 32.92     0.160 C 
ENDROOT
BRANCH  14  15
ATOM     15  CB  GLU D 570     -19.500  -6.345 -13.794  1.00 32.92     0.043 C 
BRANCH  15  16
ATOM     16  CG  GLU D 570     -19.840  -6.967 -15.100  1.00 32.92     0.100 C 
BRANCH  16  17
ATOM     17  CD  GLU D 570     -20.540  -6.015 -16.042  1.00 32.92     0.185 C 
ATOM     18  OE1 GLU D 570     -20.871  -4.888 -15.627  1.00 32.92    -0.647 OA
ATOM     19  OE2 GLU D 570     -20.774  -6.407 -17.202  1.00 32.92    -0.647 OA
ENDBRANCH  16  17
ENDBRANCH  15  16
ENDBRANCH  14  15
END_RES GLU D 570
ENDMDL
MODEL 8
REMARK VINA RESULT:      -7.9      3.664      7.550
REMARK  22 active torsions:
REMARK  status: ('A' for Active; 'I' for Inactive)
REMARK    1  A    between atoms: C_2  and  C_4 
REMARK    2  A    between atoms: C_4  and  C_5 
REMARK    3  A    between atoms: C_5  and  C_6 
REMARK    4  A    between atoms: C_6  and  C_7 
REMARK    5  A    between atoms: C_7  and  C_8 
REMARK    6  A    between atoms: C_8  and  C_9 
REMARK    7  A    between atoms: C_9  and  C_10 
REMARK    8  A    between atoms: C_10  and  C_11 
REMARK    9  A    between atoms: C_11  and  C_12 
REMARK   10  A    between atoms: C_12  and  C_13 
REMARK   11  A    between atoms: C_13  and  C_14 
REMARK   12  A    between atoms: C_14  and  C_15 
REMARK   13  A    between atoms: C_15  and  C_16 
REMARK   14  A    between atoms: C_16  and  C_17 
REMARK   15  A    between atoms: C_17  and  C_18 
REMARK   16  A    between atoms: C_18  and  O_20 
REMARK   17  A    between atoms: O_20  and  C_21 
REMARK   18  A    between atoms: C_21  and  C_22 
REMARK   19  A    between atoms: C_21  and  C_24 
REMARK   20  A    between atoms: C_22  and  O_23 
REMARK   21  A    between atoms: C_25  and  O_30 
REMARK   22  A    between atoms: C_26  and  O_29 
ROOT
HETATM    1  C   UNL     1     -22.139  -7.098  -4.844  1.00  0.00     0.111 C 
ENDROOT
BRANCH   1   2
HETATM    2  C   UNL     1     -21.580  -7.344  -3.444  1.00  0.00     0.010 C 
BRANCH   2   3
HETATM    3  C   UNL     1     -21.919  -6.201  -2.490  1.00  0.00     0.000 C 
BRANCH   3   4
HETATM    4  C   UNL     1     -22.266  -6.746  -1.106  1.00  0.00     0.000 C 
BRANCH   4   5
HETATM    5  C   UNL     1     -21.364  -7.915  -0.725  1.00  0.00     0.000 C 
BRANCH   5   6
HETATM    6  C   UNL     1     -21.952  -8.678   0.457  1.00  0.00     0.000 C 
BRANCH   6   7
HETATM    7  C   UNL     1     -23.346  -9.196   0.123  1.00  0.00     0.000 C 
BRANCH   7   8
HETATM    8  C   UNL     1     -23.305 -10.694  -0.156  1.00  0.00     0.000 C 
BRANCH   8   9
HETATM    9  C   UNL     1     -23.557 -10.968  -1.632  1.00  0.00     0.000 C 
BRANCH   9  10
HETATM   10  C   UNL     1     -22.239 -11.067  -2.388  1.00  0.00     0.000 C 
BRANCH  10  11
HETATM   11  C   UNL     1     -21.258 -11.947  -1.628  1.00  0.00     0.000 C 
BRANCH  11  12
HETATM   12  C   UNL     1     -19.897 -11.271  -1.513  1.00  0.00     0.000 C 
BRANCH  12  13
HETATM   13  C   UNL     1     -19.490 -10.695  -2.864  1.00  0.00     0.000 C 
BRANCH  13  14
HETATM   14  C   UNL     1     -18.631  -9.444  -2.702  1.00  0.00     0.004 C 
BRANCH  14  15
HETATM   15  C   UNL     1     -17.416  -9.427  -3.647  1.00  0.00    -0.023 C 
HETATM   16  C   UNL     1     -16.146  -9.735  -2.855  1.00  0.00     0.009 C 
HETATM   17  C   UNL     1     -17.561 -10.416  -4.802  1.00  0.00     0.009 C 
ENDBRANCH  14  15
ENDBRANCH  13  14
ENDBRANCH  12  13
ENDBRANCH  11  12
ENDBRANCH  10  11
ENDBRANCH   9  10
ENDBRANCH   8   9
ENDBRANCH   7   8
ENDBRANCH   6   7
ENDBRANCH   5   6
ENDBRANCH   4   5
ENDBRANCH   3   4
ENDBRANCH   2   3
ENDBRANCH   1   2
BRANCH   1  18
HETATM   18  C   UNL     1     -21.076  -7.266  -5.907  1.00  0.00     0.259 C 
HETATM   19  O   UNL     1     -20.094  -7.984  -5.798  1.00  0.00    -0.265 OA
BRANCH  18  20
HETATM   20  O   UNL     1     -21.319  -6.404  -6.940  1.00  0.00    -0.311 OA
BRANCH  20  21
HETATM   21  C   UNL     1     -21.231  -4.995  -6.616  1.00  0.00     0.187 C 
BRANCH  21  22
HETATM   22  C   UNL     1     -19.834  -4.553  -6.103  1.00  0.00     0.199 C 
BRANCH  22  23
HETATM   23  O   UNL     1     -18.776  -4.680  -7.059  1.00  0.00    -0.398 OA
HETATM   24  H   UNL     1     -18.755  -3.838  -7.553  1.00  0.00     0.209 HD
ENDBRANCH  22  23
ENDBRANCH  21  22
BRANCH  21  25
HETATM   25  C   UNL     1     -21.720  -4.161  -7.827  1.00  0.00     0.184 C 
HETATM   26  C   UNL     1     -22.989  -4.679  -8.522  1.00  0.00     0.180 C 
HETATM   27  C   UNL     1     -22.683  -4.606 -10.013  1.00  0.00     0.173 C 
HETATM   28  C   UNL     1     -21.400  -3.809 -10.081  1.00  0.00     0.202 C 
HETATM   29  O   UNL     1     -20.717  -4.047  -8.854  1.00  0.00    -0.378 OA
BRANCH  26  30
HETATM   30  O   UNL     1     -24.095  -3.774  -8.312  1.00  0.00    -0.390 OA
HETATM   31  H   UNL     1     -23.951  -3.360  -7.435  1.00  0.00     0.210 HD
ENDBRANCH  26  30
BRANCH  27  32
HETATM   32  O   UNL     1     -23.732  -3.941 -10.710  1.00  0.00    -0.391 OA
HETATM   33  H   UNL     1     -23.344  -3.090 -11.015  1.00  0.00     0.210 HD
ENDBRANCH  27  32
ENDBRANCH  21  25
ENDBRANCH  20  21
ENDBRANCH  18  20
ENDBRANCH   1  18
TORSDOF 22
BEGIN_RES ARG D 557
REMARK  4 active torsions:
REMARK  status: ('A' for Active; 'I' for Inactive)
REMARK    1  A    between atoms: CA   and  CB  
REMARK    2  A    between atoms: CB   and  CG  
REMARK    3  A    between atoms: CG   and  CD  
REMARK    4  A    between atoms: CD   and  NE  
REMARK       I    between atoms: NE   and  CZ  
REMARK       I    between atoms: CZ   and  NH1 
REMARK       I    between atoms: CZ   and  NH2 
ROOT
ATOM      1  CA  ARG D 557     -26.217   2.705 -17.014  1.00 35.49     0.159 C 
ENDROOT
BRANCH   1   2
ATOM      2  CB  ARG D 557     -26.789   1.319 -17.183  1.00 35.49     0.034 C 
BRANCH   2   3
ATOM      3  CG  ARG D 557     -25.923   0.196 -16.802  1.00 35.49     0.027 C 
BRANCH   3   4
ATOM      4  CD  ARG D 557     -26.659  -0.860 -16.070  1.00 35.49     0.116 C 
BRANCH   4   5
ATOM      5  NE  ARG D 557     -25.898  -1.384 -14.966  1.00 35.49    -0.212 N 
ATOM      6  CZ  ARG D 557     -25.868  -2.641 -14.582  1.00 35.49     0.666 C 
ATOM      7  NH1 ARG D 557     -26.570  -3.583 -15.184  1.00 35.49    -0.235 N 
ATOM      8  NH2 ARG D 557     -25.104  -2.942 -13.572  1.00 35.49    -0.235 N 
ATOM      9  HH  ARG D 557     -27.078  -3.408 -15.851  1.00 35.49     0.174 HD
ATOM     10  HH  ARG D 557     -26.509  -4.386 -14.891  1.00 35.49     0.174 HD
ATOM     11  HH  ARG D 557     -24.656  -2.314 -13.208  1.00 35.49     0.174 HD
ATOM     12  HH  ARG D 557     -25.056  -3.743 -13.298  1.00 35.49     0.174 HD
ATOM     13  HE  ARG D 557     -25.472  -0.834 -14.477  1.00 35.49     0.178 HD
ENDBRANCH   4   5
ENDBRANCH   3   4
ENDBRANCH   2   3
ENDBRANCH   1   2
END_RES ARG D 557
BEGIN_RES GLU D 570
REMARK  3 active torsions:
REMARK  status: ('A' for Active; 'I' for Inactive)
REMARK    5  A    between atoms: CA   and  CB  
REMARK    6  A    between atoms: CB   and  CG  
REMARK    7  A    between atoms: CG   and  CD  
ROOT
ATOM     14  CA  GLU D 570     -18.033  -6.348 -13.375  1.00 32.92     0.160 C 
ENDROOT
BRANCH  14  15
ATOM     15  CB  GLU D 570     -19.500  -6.345 -13.794  1.00 32.92     0.043 C 
BRANCH  15  16
ATOM     16  CG  GLU D 570     -20.441  -5.525 -12.988  1.00 32.92     0.100 C 
BRANCH  16  17
ATOM     17  CD  GLU D 570     -21.760  -5.286 -13.684  1.00 32.92     0.185 C 
ATOM     18  OE1 GLU D 570     -22.216  -6.168 -14.437  1.00 32.92    -0.647 OA
ATOM     19  OE2 GLU D 570     -22.336  -4.197 -13.488  1.00 32.92    -0.647 OA
ENDBRANCH  16  17
ENDBRANCH  15  16
ENDBRANCH  14  15
END_RES GLU D 570
ENDMDL
MODEL 9
REMARK VINA RESULT:      -7.9      2.815      5.300
REMARK  22 active torsions:
REMARK  status: ('A' for Active; 'I' for Inactive)
REMARK    1  A    between atoms: C_2  and  C_4 
REMARK    2  A    between atoms: C_4  and  C_5 
REMARK    3  A    between atoms: C_5  and  C_6 
REMARK    4  A    between atoms: C_6  and  C_7 
REMARK    5  A    between atoms: C_7  and  C_8 
REMARK    6  A    between atoms: C_8  and  C_9 
REMARK    7  A    between atoms: C_9  and  C_10 
REMARK    8  A    between atoms: C_10  and  C_11 
REMARK    9  A    between atoms: C_11  and  C_12 
REMARK   10  A    between atoms: C_12  and  C_13 
REMARK   11  A    between atoms: C_13  and  C_14 
REMARK   12  A    between atoms: C_14  and  C_15 
REMARK   13  A    between atoms: C_15  and  C_16 
REMARK   14  A    between atoms: C_16  and  C_17 
REMARK   15  A    between atoms: C_17  and  C_18 
REMARK   16  A    between atoms: C_18  and  O_20 
REMARK   17  A    between atoms: O_20  and  C_21 
REMARK   18  A    between atoms: C_21  and  C_22 
REMARK   19  A    between atoms: C_21  and  C_24 
REMARK   20  A    between atoms: C_22  and  O_23 
REMARK   21  A    between atoms: C_25  and  O_30 
REMARK   22  A    between atoms: C_26  and  O_29 
ROOT
HETATM    1  C   UNL     1     -21.333  -3.980  -8.746  1.00  0.00     0.111 C 
ENDROOT
BRANCH   1   2
HETATM    2  C   UNL     1     -20.482  -4.241  -7.505  1.00  0.00     0.010 C 
BRANCH   2   3
HETATM    3  C   UNL     1     -19.867  -5.638  -7.524  1.00  0.00     0.000 C 
BRANCH   3   4
HETATM    4  C   UNL     1     -20.107  -6.345  -6.193  1.00  0.00     0.000 C 
BRANCH   4   5
HETATM    5  C   UNL     1     -21.075  -5.564  -5.312  1.00  0.00     0.000 C 
BRANCH   5   6
HETATM    6  C   UNL     1     -21.779  -6.499  -4.335  1.00  0.00     0.000 C 
BRANCH   6   7
HETATM    7  C   UNL     1     -21.292  -6.255  -2.911  1.00  0.00     0.000 C 
BRANCH   7   8
HETATM    8  C   UNL     1     -22.445  -6.383  -1.924  1.00  0.00     0.000 C 
BRANCH   8   9
HETATM    9  C   UNL     1     -21.997  -7.127  -0.674  1.00  0.00     0.000 C 
BRANCH   9  10
HETATM   10  C   UNL     1     -22.262  -8.620  -0.820  1.00  0.00     0.000 C 
BRANCH  10  11
HETATM   11  C   UNL     1     -20.956  -9.397  -0.757  1.00  0.00     0.000 C 
BRANCH  11  12
HETATM   12  C   UNL     1     -20.537  -9.871  -2.143  1.00  0.00     0.000 C 
BRANCH  12  13
HETATM   13  C   UNL     1     -19.225  -9.207  -2.542  1.00  0.00     0.000 C 
BRANCH  13  14
HETATM   14  C   UNL     1     -19.073  -9.138  -4.059  1.00  0.00     0.004 C 
BRANCH  14  15
HETATM   15  C   UNL     1     -17.741  -9.732  -4.554  1.00  0.00    -0.023 C 
HETATM   16  C   UNL     1     -17.636 -11.191  -4.112  1.00  0.00     0.009 C 
HETATM   17  C   UNL     1     -17.587  -9.637  -6.070  1.00  0.00     0.009 C 
ENDBRANCH  14  15
ENDBRANCH  13  14
ENDBRANCH  12  13
ENDBRANCH  11  12
ENDBRANCH  10  11
ENDBRANCH   9  10
ENDBRANCH   8   9
ENDBRANCH   7   8
ENDBRANCH   6   7
ENDBRANCH   5   6
ENDBRANCH   4   5
ENDBRANCH   3   4
ENDBRANCH   2   3
ENDBRANCH   1   2
BRANCH   1  18
HETATM   18  C   UNL     1     -22.756  -4.457  -8.559  1.00  0.00     0.259 C 
HETATM   19  O   UNL     1     -23.450  -4.201  -7.586  1.00  0.00    -0.265 OA
BRANCH  18  20
HETATM   20  O   UNL     1     -23.092  -5.310  -9.572  1.00  0.00    -0.311 OA
BRANCH  20  21
HETATM   21  C   UNL     1     -23.913  -4.746 -10.623  1.00  0.00     0.187 C 
BRANCH  21  22
HETATM   22  C   UNL     1     -24.442  -3.321 -10.312  1.00  0.00     0.199 C 
BRANCH  22  23
HETATM   23  O   UNL     1     -25.734  -3.282  -9.696  1.00  0.00    -0.398 OA
HETATM   24  H   UNL     1     -25.632  -2.745  -8.886  1.00  0.00     0.209 HD
ENDBRANCH  22  23
ENDBRANCH  21  22
BRANCH  21  25
HETATM   25  C   UNL     1     -23.146  -4.823 -11.968  1.00  0.00     0.184 C 
HETATM   26  C   UNL     1     -22.985  -3.492 -12.719  1.00  0.00     0.180 C 
HETATM   27  C   UNL     1     -23.324  -3.812 -14.170  1.00  0.00     0.173 C 
HETATM   28  C   UNL     1     -23.381  -5.322 -14.204  1.00  0.00     0.202 C 
HETATM   29  O   UNL     1     -23.759  -5.737 -12.896  1.00  0.00    -0.378 OA
BRANCH  26  30
HETATM   30  O   UNL     1     -21.603  -3.072 -12.730  1.00  0.00    -0.390 OA
HETATM   31  H   UNL     1     -21.372  -2.909 -13.669  1.00  0.00     0.210 HD
ENDBRANCH  26  30
BRANCH  27  32
HETATM   32  O   UNL     1     -22.311  -3.321 -15.043  1.00  0.00    -0.391 OA
HETATM   33  H   UNL     1     -22.757  -3.181 -15.908  1.00  0.00     0.210 HD
ENDBRANCH  27  32
ENDBRANCH  21  25
ENDBRANCH  20  21
ENDBRANCH  18  20
ENDBRANCH   1  18
TORSDOF 22
BEGIN_RES ARG D 557
REMARK  4 active torsions:
REMARK  status: ('A' for Active; 'I' for Inactive)
REMARK    1  A    between atoms: CA   and  CB  
REMARK    2  A    between atoms: CB   and  CG  
REMARK    3  A    between atoms: CG   and  CD  
REMARK    4  A    between atoms: CD   and  NE  
REMARK       I    between atoms: NE   and  CZ  
REMARK       I    between atoms: CZ   and  NH1 
REMARK       I    between atoms: CZ   and  NH2 
ROOT
ATOM      1  CA  ARG D 557     -26.217   2.705 -17.014  1.00 35.49     0.159 C 
ENDROOT
BRANCH   1   2
ATOM      2  CB  ARG D 557     -26.789   1.319 -17.183  1.00 35.49     0.034 C 
BRANCH   2   3
ATOM      3  CG  ARG D 557     -28.217   1.152 -16.884  1.00 35.49     0.027 C 
BRANCH   3   4
ATOM      4  CD  ARG D 557     -28.614  -0.272 -16.806  1.00 35.49     0.116 C 
BRANCH   4   5
ATOM      5  NE  ARG D 557     -27.648  -1.067 -16.094  1.00 35.49    -0.212 N 
ATOM      6  CZ  ARG D 557     -27.521  -2.372 -16.172  1.00 35.49     0.666 C 
ATOM      7  NH1 ARG D 557     -28.305  -3.117 -16.930  1.00 35.49    -0.235 N 
ATOM      8  NH2 ARG D 557     -26.574  -2.926 -15.471  1.00 35.49    -0.235 N 
ATOM      9  HH  ARG D 557     -28.933  -2.774 -17.401  1.00 35.49     0.174 HD
ATOM     10  HH  ARG D 557     -28.173  -3.964 -16.943  1.00 35.49     0.174 HD
ATOM     11  HH  ARG D 557     -26.079  -2.419 -14.997  1.00 35.49     0.174 HD
ATOM     12  HH  ARG D 557     -26.459  -3.765 -15.499  1.00 35.49     0.174 HD
ATOM     13  HE  ARG D 557     -27.149  -0.676 -15.527  1.00 35.49     0.178 HD
ENDBRANCH   4   5
ENDBRANCH   3   4
ENDBRANCH   2   3
ENDBRANCH   1   2
END_RES ARG D 557
BEGIN_RES GLU D 570
REMARK  3 active torsions:
REMARK  status: ('A' for Active; 'I' for Inactive)
REMARK    5  A    between atoms: CA   and  CB  
REMARK    6  A    between atoms: CB   and  CG  
REMARK    7  A    between atoms: CG   and  CD  
ROOT
ATOM     14  CA  GLU D 570     -18.033  -6.348 -13.375  1.00 32.92     0.160 C 
ENDROOT
BRANCH  14  15
ATOM     15  CB  GLU D 570     -19.500  -6.345 -13.794  1.00 32.92     0.043 C 
BRANCH  15  16
ATOM     16  CG  GLU D 570     -20.083  -7.632 -14.255  1.00 32.92     0.100 C 
BRANCH  16  17
ATOM     17  CD  GLU D 570     -20.697  -7.540 -15.633  1.00 32.92     0.185 C 
ATOM     18  OE1 GLU D 570     -20.654  -6.455 -16.243  1.00 32.92    -0.647 OA
ATOM     19  OE2 GLU D 570     -21.241  -8.560 -16.099  1.00 32.92    -0.647 OA
ENDBRANCH  16  17
ENDBRANCH  15  16
ENDBRANCH  14  15
END_RES GLU D 570
ENDMDL
