MODEL 1
REMARK VINA RESULT:      -4.3      0.000      0.000
REMARK  9 active torsions:
REMARK  status: ('A' for Active; 'I' for Inactive)
REMARK    1  A    between atoms: C_2  and  C_4 
REMARK    2  A    between atoms: C_4  and  O_6 
REMARK    3  A    between atoms: C_9  and  C_11 
REMARK    4  A    between atoms: C_11  and  O_13 
REMARK    5  A    between atoms: O_13  and  C_14 
REMARK    6  A    between atoms: C_14  and  C_15 
REMARK    7  A    between atoms: C_15  and  O_16 
REMARK    8  A    between atoms: O_16  and  C_17 
REMARK    9  A    between atoms: C_17  and  C_19 
ROOT
HETATM    1  C   UNL     1     -23.984  -3.157 -11.356  1.00  0.00     0.287 C 
HETATM    2  O   UNL     1     -25.067  -3.203 -10.787  1.00  0.00    -0.260 OA
ENDROOT
BRANCH   1   3
HETATM    3  C   UNL     1     -22.735  -3.700 -10.758  1.00  0.00     0.004 C 
HETATM    4  C   UNL     1     -21.374  -3.370 -11.287  1.00  0.00     0.054 C 
HETATM    5  C   UNL     1     -22.903  -4.539  -9.722  1.00  0.00     0.024 C 
ENDBRANCH   1   3
BRANCH   1   6
HETATM    6  O   UNL     1     -23.766  -2.539 -12.547  1.00  0.00    -0.323 OA
HETATM    7  C   UNL     1     -24.767  -2.866 -13.518  1.00  0.00     0.213 C 
ENDBRANCH   1   6
TORSDOF 9
BEGIN_RES ARG D 557
REMARK  4 active torsions:
REMARK  status: ('A' for Active; 'I' for Inactive)
REMARK    1  A    between atoms: CA   and  CB  
REMARK    2  A    between atoms: CB   and  CG  
REMARK    3  A    between atoms: CG   and  CD  
REMARK    4  A    between atoms: CD   and  NE  
REMARK       I    between atoms: NE   and  CZ  
REMARK       I    between atoms: CZ   and  NH1 
REMARK       I    between atoms: CZ   and  NH2 
ROOT
ATOM      1  CA  ARG D 557     -26.217   2.705 -17.014  1.00 35.49     0.159 C 
ENDROOT
BRANCH   1   2
ATOM      2  CB  ARG D 557     -26.789   1.319 -17.183  1.00 35.49     0.034 C 
BRANCH   2   3
ATOM      3  CG  ARG D 557     -28.234   1.226 -17.426  1.00 35.49     0.027 C 
BRANCH   3   4
ATOM      4  CD  ARG D 557     -28.905   0.297 -16.488  1.00 35.49     0.116 C 
BRANCH   4   5
ATOM      5  NE  ARG D 557     -29.282  -0.938 -17.124  1.00 35.49    -0.212 N 
ATOM      6  CZ  ARG D 557     -28.639  -2.080 -17.027  1.00 35.49     0.666 C 
ATOM      7  NH1 ARG D 557     -27.532  -2.213 -16.320  1.00 35.49    -0.235 N 
ATOM      8  NH2 ARG D 557     -29.138  -3.105 -17.655  1.00 35.49    -0.235 N 
ATOM      9  HH  ARG D 557     -27.187  -1.552 -15.896  1.00 35.49     0.174 HD
ATOM     10  HH  ARG D 557     -27.158  -2.983 -16.291  1.00 35.49     0.174 HD
ATOM     11  HH  ARG D 557     -29.858  -2.991 -18.098  1.00 35.49     0.174 HD
ATOM     12  HH  ARG D 557     -28.753  -3.859 -17.613  1.00 35.49     0.174 HD
ATOM     13  HE  ARG D 557     -29.944  -0.926 -17.658  1.00 35.49     0.178 HD
ENDBRANCH   4   5
ENDBRANCH   3   4
ENDBRANCH   2   3
ENDBRANCH   1   2
END_RES ARG D 557
BEGIN_RES GLU D 570
REMARK  3 active torsions:
REMARK  status: ('A' for Active; 'I' for Inactive)
REMARK    5  A    between atoms: CA   and  CB  
REMARK    6  A    between atoms: CB   and  CG  
REMARK    7  A    between atoms: CG   and  CD  
ROOT
ATOM     14  CA  GLU D 570     -18.033  -6.348 -13.375  1.00 32.92     0.160 C 
ENDROOT
BRANCH  14  15
ATOM     15  CB  GLU D 570     -19.500  -6.345 -13.794  1.00 32.92     0.043 C 
BRANCH  15  16
ATOM     16  CG  GLU D 570     -19.805  -6.042 -15.216  1.00 32.92     0.100 C 
BRANCH  16  17
ATOM     17  CD  GLU D 570     -21.143  -5.364 -15.400  1.00 32.92     0.185 C 
ATOM     18  OE1 GLU D 570     -21.521  -5.075 -16.552  1.00 32.92    -0.647 OA
ATOM     19  OE2 GLU D 570     -21.813  -5.106 -14.381  1.00 32.92    -0.647 OA
ENDBRANCH  16  17
ENDBRANCH  15  16
ENDBRANCH  14  15
END_RES GLU D 570
ENDMDL
MODEL 2
REMARK VINA RESULT:      -4.2      2.464      3.381
REMARK  9 active torsions:
REMARK  status: ('A' for Active; 'I' for Inactive)
REMARK    1  A    between atoms: C_2  and  C_4 
REMARK    2  A    between atoms: C_4  and  O_6 
REMARK    3  A    between atoms: C_9  and  C_11 
REMARK    4  A    between atoms: C_11  and  O_13 
REMARK    5  A    between atoms: O_13  and  C_14 
REMARK    6  A    between atoms: C_14  and  C_15 
REMARK    7  A    between atoms: C_15  and  O_16 
REMARK    8  A    between atoms: O_16  and  C_17 
REMARK    9  A    between atoms: C_17  and  C_19 
ROOT
HETATM    1  C   UNL     1     -22.368  -3.682 -10.082  1.00  0.00     0.287 C 
HETATM    2  O   UNL     1     -22.085  -2.933 -11.007  1.00  0.00    -0.260 OA
ENDROOT
BRANCH   1   3
HETATM    3  C   UNL     1     -21.405  -4.033  -9.005  1.00  0.00     0.004 C 
HETATM    4  C   UNL     1     -21.687  -3.790  -7.555  1.00  0.00     0.054 C 
HETATM    5  C   UNL     1     -20.238  -4.560  -9.416  1.00  0.00     0.024 C 
ENDBRANCH   1   3
BRANCH   1   6
HETATM    6  O   UNL     1     -23.547  -4.348  -9.964  1.00  0.00    -0.323 OA
HETATM    7  C   UNL     1     -24.665  -3.457  -9.866  1.00  0.00     0.213 C 
ENDBRANCH   1   6
TORSDOF 9
BEGIN_RES ARG D 557
REMARK  4 active torsions:
REMARK  status: ('A' for Active; 'I' for Inactive)
REMARK    1  A    between atoms: CA   and  CB  
REMARK    2  A    between atoms: CB   and  CG  
REMARK    3  A    between atoms: CG   and  CD  
REMARK    4  A    between atoms: CD   and  NE  
REMARK       I    between atoms: NE   and  CZ  
REMARK       I    between atoms: CZ   and  NH1 
REMARK       I    between atoms: CZ   and  NH2 
ROOT
ATOM      1  CA  ARG D 557     -26.217   2.705 -17.014  1.00 35.49     0.159 C 
ENDROOT
BRANCH   1   2
ATOM      2  CB  ARG D 557     -26.789   1.319 -17.183  1.00 35.49     0.034 C 
BRANCH   2   3
ATOM      3  CG  ARG D 557     -25.869   0.195 -16.974  1.00 35.49     0.027 C 
BRANCH   3   4
ATOM      4  CD  ARG D 557     -26.299  -0.688 -15.866  1.00 35.49     0.116 C 
BRANCH   4   5
ATOM      5  NE  ARG D 557     -25.237  -0.934 -14.925  1.00 35.49    -0.212 N 
ATOM      6  CZ  ARG D 557     -24.971  -2.085 -14.351  1.00 35.49     0.666 C 
ATOM      7  NH1 ARG D 557     -25.685  -3.172 -14.577  1.00 35.49    -0.235 N 
ATOM      8  NH2 ARG D 557     -23.955  -2.130 -13.539  1.00 35.49    -0.235 N 
ATOM      9  HH  ARG D 557     -26.357  -3.166 -15.109  1.00 35.49     0.174 HD
ATOM     10  HH  ARG D 557     -25.463  -3.896 -14.176  1.00 35.49     0.174 HD
ATOM     11  HH  ARG D 557     -23.507  -1.415 -13.418  1.00 35.49     0.174 HD
ATOM     12  HH  ARG D 557     -23.750  -2.857 -13.153  1.00 35.49     0.174 HD
ATOM     13  HE  ARG D 557     -24.772  -0.271 -14.667  1.00 35.49     0.178 HD
ENDBRANCH   4   5
ENDBRANCH   3   4
ENDBRANCH   2   3
ENDBRANCH   1   2
END_RES ARG D 557
BEGIN_RES GLU D 570
REMARK  3 active torsions:
REMARK  status: ('A' for Active; 'I' for Inactive)
REMARK    5  A    between atoms: CA   and  CB  
REMARK    6  A    between atoms: CB   and  CG  
REMARK    7  A    between atoms: CG   and  CD  
ROOT
ATOM     14  CA  GLU D 570     -18.033  -6.348 -13.375  1.00 32.92     0.160 C 
ENDROOT
BRANCH  14  15
ATOM     15  CB  GLU D 570     -19.500  -6.345 -13.794  1.00 32.92     0.043 C 
BRANCH  15  16
ATOM     16  CG  GLU D 570     -20.430  -5.479 -13.024  1.00 32.92     0.100 C 
BRANCH  16  17
ATOM     17  CD  GLU D 570     -21.687  -5.137 -13.789  1.00 32.92     0.185 C 
ATOM     18  OE1 GLU D 570     -22.781  -5.151 -13.193  1.00 32.92    -0.647 OA
ATOM     19  OE2 GLU D 570     -21.578  -4.870 -15.002  1.00 32.92    -0.647 OA
ENDBRANCH  16  17
ENDBRANCH  15  16
ENDBRANCH  14  15
END_RES GLU D 570
ENDMDL
MODEL 3
REMARK VINA RESULT:      -4.1      2.898      3.662
REMARK  9 active torsions:
REMARK  status: ('A' for Active; 'I' for Inactive)
REMARK    1  A    between atoms: C_2  and  C_4 
REMARK    2  A    between atoms: C_4  and  O_6 
REMARK    3  A    between atoms: C_9  and  C_11 
REMARK    4  A    between atoms: C_11  and  O_13 
REMARK    5  A    between atoms: O_13  and  C_14 
REMARK    6  A    between atoms: C_14  and  C_15 
REMARK    7  A    between atoms: C_15  and  O_16 
REMARK    8  A    between atoms: O_16  and  C_17 
REMARK    9  A    between atoms: C_17  and  C_19 
ROOT
HETATM    1  C   UNL     1     -22.672  -4.131  -8.555  1.00  0.00     0.287 C 
HETATM    2  O   UNL     1     -23.475  -4.294  -7.646  1.00  0.00    -0.260 OA
ENDROOT
BRANCH   1   3
HETATM    3  C   UNL     1     -21.200  -4.149  -8.343  1.00  0.00     0.004 C 
HETATM    4  C   UNL     1     -20.224  -4.364  -9.458  1.00  0.00     0.054 C 
HETATM    5  C   UNL     1     -20.792  -3.991  -7.072  1.00  0.00     0.024 C 
ENDBRANCH   1   3
BRANCH   1   6
HETATM    6  O   UNL     1     -23.010  -3.832  -9.837  1.00  0.00    -0.323 OA
HETATM    7  C   UNL     1     -23.824  -4.849 -10.434  1.00  0.00     0.213 C 
ENDBRANCH   1   6
TORSDOF 9
BEGIN_RES ARG D 557
REMARK  4 active torsions:
REMARK  status: ('A' for Active; 'I' for Inactive)
REMARK    1  A    between atoms: CA   and  CB  
REMARK    2  A    between atoms: CB   and  CG  
REMARK    3  A    between atoms: CG   and  CD  
REMARK    4  A    between atoms: CD   and  NE  
REMARK       I    between atoms: NE   and  CZ  
REMARK       I    between atoms: CZ   and  NH1 
REMARK       I    between atoms: CZ   and  NH2 
ROOT
ATOM      1  CA  ARG D 557     -26.217   2.705 -17.014  1.00 35.49     0.159 C 
ENDROOT
BRANCH   1   2
ATOM      2  CB  ARG D 557     -26.789   1.319 -17.183  1.00 35.49     0.034 C 
BRANCH   2   3
ATOM      3  CG  ARG D 557     -25.836   0.203 -17.156  1.00 35.49     0.027 C 
BRANCH   3   4
ATOM      4  CD  ARG D 557     -24.750   0.412 -16.171  1.00 35.49     0.116 C 
BRANCH   4   5
ATOM      5  NE  ARG D 557     -24.894  -0.435 -15.016  1.00 35.49    -0.212 N 
ATOM      6  CZ  ARG D 557     -24.079  -1.406 -14.669  1.00 35.49     0.666 C 
ATOM      7  NH1 ARG D 557     -23.013  -1.724 -15.379  1.00 35.49    -0.235 N 
ATOM      8  NH2 ARG D 557     -24.354  -2.058 -13.577  1.00 35.49    -0.235 N 
ATOM      9  HH  ARG D 557     -22.812  -1.307 -16.100  1.00 35.49     0.174 HD
ATOM     10  HH  ARG D 557     -22.516  -2.365 -15.102  1.00 35.49     0.174 HD
ATOM     11  HH  ARG D 557     -25.045  -1.826 -13.135  1.00 35.49     0.174 HD
ATOM     12  HH  ARG D 557     -23.849  -2.689 -13.319  1.00 35.49     0.174 HD
ATOM     13  HE  ARG D 557     -25.595  -0.347 -14.541  1.00 35.49     0.178 HD
ENDBRANCH   4   5
ENDBRANCH   3   4
ENDBRANCH   2   3
ENDBRANCH   1   2
END_RES ARG D 557
BEGIN_RES GLU D 570
REMARK  3 active torsions:
REMARK  status: ('A' for Active; 'I' for Inactive)
REMARK    5  A    between atoms: CA   and  CB  
REMARK    6  A    between atoms: CB   and  CG  
REMARK    7  A    between atoms: CG   and  CD  
ROOT
ATOM     14  CA  GLU D 570     -18.033  -6.348 -13.375  1.00 32.92     0.160 C 
ENDROOT
BRANCH  14  15
ATOM     15  CB  GLU D 570     -19.500  -6.345 -13.794  1.00 32.92     0.043 C 
BRANCH  15  16
ATOM     16  CG  GLU D 570     -20.442  -5.531 -12.983  1.00 32.92     0.100 C 
BRANCH  16  17
ATOM     17  CD  GLU D 570     -21.744  -5.251 -13.697  1.00 32.92     0.185 C 
ATOM     18  OE1 GLU D 570     -22.242  -6.137 -14.417  1.00 32.92    -0.647 OA
ATOM     19  OE2 GLU D 570     -22.263  -4.127 -13.547  1.00 32.92    -0.647 OA
ENDBRANCH  16  17
ENDBRANCH  15  16
ENDBRANCH  14  15
END_RES GLU D 570
ENDMDL
MODEL 4
REMARK VINA RESULT:      -4.1      3.216      4.428
REMARK  9 active torsions:
REMARK  status: ('A' for Active; 'I' for Inactive)
REMARK    1  A    between atoms: C_2  and  C_4 
REMARK    2  A    between atoms: C_4  and  O_6 
REMARK    3  A    between atoms: C_9  and  C_11 
REMARK    4  A    between atoms: C_11  and  O_13 
REMARK    5  A    between atoms: O_13  and  C_14 
REMARK    6  A    between atoms: C_14  and  C_15 
REMARK    7  A    between atoms: C_15  and  O_16 
REMARK    8  A    between atoms: O_16  and  C_17 
REMARK    9  A    between atoms: C_17  and  C_19 
ROOT
HETATM    1  C   UNL     1     -21.836  -4.255  -7.632  1.00  0.00     0.287 C 
HETATM    2  O   UNL     1     -22.869  -4.531  -7.038  1.00  0.00    -0.260 OA
ENDROOT
BRANCH   1   3
HETATM    3  C   UNL     1     -21.715  -4.324  -9.113  1.00  0.00     0.004 C 
HETATM    4  C   UNL     1     -22.872  -4.646 -10.007  1.00  0.00     0.054 C 
HETATM    5  C   UNL     1     -20.484  -4.108  -9.607  1.00  0.00     0.024 C 
ENDBRANCH   1   3
BRANCH   1   6
HETATM    6  O   UNL     1     -20.660  -3.939  -7.028  1.00  0.00    -0.323 OA
HETATM    7  C   UNL     1     -20.428  -4.723  -5.852  1.00  0.00     0.213 C 
ENDBRANCH   1   6
TORSDOF 9
BEGIN_RES ARG D 557
REMARK  4 active torsions:
REMARK  status: ('A' for Active; 'I' for Inactive)
REMARK    1  A    between atoms: CA   and  CB  
REMARK    2  A    between atoms: CB   and  CG  
REMARK    3  A    between atoms: CG   and  CD  
REMARK    4  A    between atoms: CD   and  NE  
REMARK       I    between atoms: NE   and  CZ  
REMARK       I    between atoms: CZ   and  NH1 
REMARK       I    between atoms: CZ   and  NH2 
ROOT
ATOM      1  CA  ARG D 557     -26.217   2.705 -17.014  1.00 35.49     0.159 C 
ENDROOT
BRANCH   1   2
ATOM      2  CB  ARG D 557     -26.789   1.319 -17.183  1.00 35.49     0.034 C 
BRANCH   2   3
ATOM      3  CG  ARG D 557     -25.834   0.204 -17.169  1.00 35.49     0.027 C 
BRANCH   3   4
ATOM      4  CD  ARG D 557     -24.745   0.406 -16.186  1.00 35.49     0.116 C 
BRANCH   4   5
ATOM      5  NE  ARG D 557     -24.892  -0.442 -15.032  1.00 35.49    -0.212 N 
ATOM      6  CZ  ARG D 557     -24.073  -1.407 -14.679  1.00 35.49     0.666 C 
ATOM      7  NH1 ARG D 557     -22.999  -1.718 -15.381  1.00 35.49    -0.235 N 
ATOM      8  NH2 ARG D 557     -24.350  -2.061 -13.589  1.00 35.49    -0.235 N 
ATOM      9  HH  ARG D 557     -22.796  -1.299 -16.101  1.00 35.49     0.174 HD
ATOM     10  HH  ARG D 557     -22.499  -2.355 -15.100  1.00 35.49     0.174 HD
ATOM     11  HH  ARG D 557     -25.047  -1.833 -13.152  1.00 35.49     0.174 HD
ATOM     12  HH  ARG D 557     -23.843  -2.688 -13.327  1.00 35.49     0.174 HD
ATOM     13  HE  ARG D 557     -25.596  -0.359 -14.563  1.00 35.49     0.178 HD
ENDBRANCH   4   5
ENDBRANCH   3   4
ENDBRANCH   2   3
ENDBRANCH   1   2
END_RES ARG D 557
BEGIN_RES GLU D 570
REMARK  3 active torsions:
REMARK  status: ('A' for Active; 'I' for Inactive)
REMARK    5  A    between atoms: CA   and  CB  
REMARK    6  A    between atoms: CB   and  CG  
REMARK    7  A    between atoms: CG   and  CD  
ROOT
ATOM     14  CA  GLU D 570     -18.033  -6.348 -13.375  1.00 32.92     0.160 C 
ENDROOT
BRANCH  14  15
ATOM     15  CB  GLU D 570     -19.500  -6.345 -13.794  1.00 32.92     0.043 C 
BRANCH  15  16
ATOM     16  CG  GLU D 570     -20.441  -5.528 -12.985  1.00 32.92     0.100 C 
BRANCH  16  17
ATOM     17  CD  GLU D 570     -21.749  -5.261 -13.694  1.00 32.92     0.185 C 
ATOM     18  OE1 GLU D 570     -22.241  -6.152 -14.412  1.00 32.92    -0.647 OA
ATOM     19  OE2 GLU D 570     -22.278  -4.142 -13.542  1.00 32.92    -0.647 OA
ENDBRANCH  16  17
ENDBRANCH  15  16
ENDBRANCH  14  15
END_RES GLU D 570
ENDMDL
MODEL 5
REMARK VINA RESULT:      -4.0      7.059      8.259
REMARK  9 active torsions:
REMARK  status: ('A' for Active; 'I' for Inactive)
REMARK    1  A    between atoms: C_2  and  C_4 
REMARK    2  A    between atoms: C_4  and  O_6 
REMARK    3  A    between atoms: C_9  and  C_11 
REMARK    4  A    between atoms: C_11  and  O_13 
REMARK    5  A    between atoms: O_13  and  C_14 
REMARK    6  A    between atoms: C_14  and  C_15 
REMARK    7  A    between atoms: C_15  and  O_16 
REMARK    8  A    between atoms: O_16  and  C_17 
REMARK    9  A    between atoms: C_17  and  C_19 
ROOT
HETATM    1  C   UNL     1     -21.905  -7.371  -0.896  1.00  0.00     0.287 C 
HETATM    2  O   UNL     1     -22.586  -6.402  -1.201  1.00  0.00    -0.260 OA
ENDROOT
BRANCH   1   3
HETATM    3  C   UNL     1     -22.195  -8.219   0.291  1.00  0.00     0.004 C 
HETATM    4  C   UNL     1     -21.158  -8.559   1.316  1.00  0.00     0.054 C 
HETATM    5  C   UNL     1     -23.450  -8.692   0.377  1.00  0.00     0.024 C 
ENDBRANCH   1   3
BRANCH   1   6
HETATM    6  O   UNL     1     -20.766  -7.745  -1.537  1.00  0.00    -0.323 OA
HETATM    7  C   UNL     1     -21.023  -8.229  -2.860  1.00  0.00     0.213 C 
ENDBRANCH   1   6
TORSDOF 9
BEGIN_RES ARG D 557
REMARK  4 active torsions:
REMARK  status: ('A' for Active; 'I' for Inactive)
REMARK    1  A    between atoms: CA   and  CB  
REMARK    2  A    between atoms: CB   and  CG  
REMARK    3  A    between atoms: CG   and  CD  
REMARK    4  A    between atoms: CD   and  NE  
REMARK       I    between atoms: NE   and  CZ  
REMARK       I    between atoms: CZ   and  NH1 
REMARK       I    between atoms: CZ   and  NH2 
ROOT
ATOM      1  CA  ARG D 557     -26.217   2.705 -17.014  1.00 35.49     0.159 C 
ENDROOT
BRANCH   1   2
ATOM      2  CB  ARG D 557     -26.789   1.319 -17.183  1.00 35.49     0.034 C 
BRANCH   2   3
ATOM      3  CG  ARG D 557     -25.837   0.202 -17.148  1.00 35.49     0.027 C 
BRANCH   3   4
ATOM      4  CD  ARG D 557     -24.758   0.412 -16.155  1.00 35.49     0.116 C 
BRANCH   4   5
ATOM      5  NE  ARG D 557     -24.902  -0.447 -15.009  1.00 35.49    -0.212 N 
ATOM      6  CZ  ARG D 557     -24.078  -1.411 -14.663  1.00 35.49     0.666 C 
ATOM      7  NH1 ARG D 557     -23.002  -1.710 -15.367  1.00 35.49    -0.235 N 
ATOM      8  NH2 ARG D 557     -24.354  -2.076 -13.579  1.00 35.49    -0.235 N 
ATOM      9  HH  ARG D 557     -22.800  -1.285 -16.082  1.00 35.49     0.174 HD
ATOM     10  HH  ARG D 557     -22.500  -2.348 -15.091  1.00 35.49     0.174 HD
ATOM     11  HH  ARG D 557     -25.052  -1.856 -13.141  1.00 35.49     0.174 HD
ATOM     12  HH  ARG D 557     -23.844  -2.702 -13.322  1.00 35.49     0.174 HD
ATOM     13  HE  ARG D 557     -25.607  -0.372 -14.539  1.00 35.49     0.178 HD
ENDBRANCH   4   5
ENDBRANCH   3   4
ENDBRANCH   2   3
ENDBRANCH   1   2
END_RES ARG D 557
BEGIN_RES GLU D 570
REMARK  3 active torsions:
REMARK  status: ('A' for Active; 'I' for Inactive)
REMARK    5  A    between atoms: CA   and  CB  
REMARK    6  A    between atoms: CB   and  CG  
REMARK    7  A    between atoms: CG   and  CD  
ROOT
ATOM     14  CA  GLU D 570     -18.033  -6.348 -13.375  1.00 32.92     0.160 C 
ENDROOT
BRANCH  14  15
ATOM     15  CB  GLU D 570     -19.500  -6.345 -13.794  1.00 32.92     0.043 C 
BRANCH  15  16
ATOM     16  CG  GLU D 570     -20.441  -5.527 -12.986  1.00 32.92     0.100 C 
BRANCH  16  17
ATOM     17  CD  GLU D 570     -21.727  -5.216 -13.716  1.00 32.92     0.185 C 
ATOM     18  OE1 GLU D 570     -22.299  -4.130 -13.498  1.00 32.92    -0.647 OA
ATOM     19  OE2 GLU D 570     -22.176  -6.074 -14.501  1.00 32.92    -0.647 OA
ENDBRANCH  16  17
ENDBRANCH  15  16
ENDBRANCH  14  15
END_RES GLU D 570
ENDMDL
MODEL 6
REMARK VINA RESULT:      -3.9      1.597      2.531
REMARK  9 active torsions:
REMARK  status: ('A' for Active; 'I' for Inactive)
REMARK    1  A    between atoms: C_2  and  C_4 
REMARK    2  A    between atoms: C_4  and  O_6 
REMARK    3  A    between atoms: C_9  and  C_11 
REMARK    4  A    between atoms: C_11  and  O_13 
REMARK    5  A    between atoms: O_13  and  C_14 
REMARK    6  A    between atoms: C_14  and  C_15 
REMARK    7  A    between atoms: C_15  and  O_16 
REMARK    8  A    between atoms: O_16  and  C_17 
REMARK    9  A    between atoms: C_17  and  C_19 
ROOT
HETATM    1  C   UNL     1     -24.218  -3.575 -10.420  1.00  0.00     0.287 C 
HETATM    2  O   UNL     1     -25.354  -3.214 -10.146  1.00  0.00    -0.260 OA
ENDROOT
BRANCH   1   3
HETATM    3  C   UNL     1     -23.493  -3.106 -11.631  1.00  0.00     0.004 C 
HETATM    4  C   UNL     1     -22.009  -2.908 -11.661  1.00  0.00     0.054 C 
HETATM    5  C   UNL     1     -24.261  -2.836 -12.701  1.00  0.00     0.024 C 
ENDBRANCH   1   3
BRANCH   1   6
HETATM    6  O   UNL     1     -23.514  -4.501  -9.718  1.00  0.00    -0.323 OA
HETATM    7  C   UNL     1     -23.304  -4.105  -8.358  1.00  0.00     0.213 C 
ENDBRANCH   1   6
TORSDOF 9
BEGIN_RES ARG D 557
REMARK  4 active torsions:
REMARK  status: ('A' for Active; 'I' for Inactive)
REMARK    1  A    between atoms: CA   and  CB  
REMARK    2  A    between atoms: CB   and  CG  
REMARK    3  A    between atoms: CG   and  CD  
REMARK    4  A    between atoms: CD   and  NE  
REMARK       I    between atoms: NE   and  CZ  
REMARK       I    between atoms: CZ   and  NH1 
REMARK       I    between atoms: CZ   and  NH2 
ROOT
ATOM      1  CA  ARG D 557     -26.217   2.705 -17.014  1.00 35.49     0.159 C 
ENDROOT
BRANCH   1   2
ATOM      2  CB  ARG D 557     -26.789   1.319 -17.183  1.00 35.49     0.034 C 
BRANCH   2   3
ATOM      3  CG  ARG D 557     -28.227   1.163 -16.934  1.00 35.49     0.027 C 
BRANCH   3   4
ATOM      4  CD  ARG D 557     -28.622  -0.256 -16.778  1.00 35.49     0.116 C 
BRANCH   4   5
ATOM      5  NE  ARG D 557     -27.630  -1.020 -16.070  1.00 35.49    -0.212 N 
ATOM      6  CZ  ARG D 557     -27.475  -2.324 -16.133  1.00 35.49     0.666 C 
ATOM      7  NH1 ARG D 557     -28.253  -3.095 -16.869  1.00 35.49    -0.235 N 
ATOM      8  NH2 ARG D 557     -26.507  -2.848 -15.439  1.00 35.49    -0.235 N 
ATOM      9  HH  ARG D 557     -28.895  -2.772 -17.336  1.00 35.49     0.174 HD
ATOM     10  HH  ARG D 557     -28.103  -3.939 -16.874  1.00 35.49     0.174 HD
ATOM     11  HH  ARG D 557     -26.016  -2.324 -14.978  1.00 35.49     0.174 HD
ATOM     12  HH  ARG D 557     -26.374  -3.685 -15.457  1.00 35.49     0.174 HD
ATOM     13  HE  ARG D 557     -27.131  -0.611 -15.515  1.00 35.49     0.178 HD
ENDBRANCH   4   5
ENDBRANCH   3   4
ENDBRANCH   2   3
ENDBRANCH   1   2
END_RES ARG D 557
BEGIN_RES GLU D 570
REMARK  3 active torsions:
REMARK  status: ('A' for Active; 'I' for Inactive)
REMARK    5  A    between atoms: CA   and  CB  
REMARK    6  A    between atoms: CB   and  CG  
REMARK    7  A    between atoms: CG   and  CD  
ROOT
ATOM     14  CA  GLU D 570     -18.033  -6.348 -13.375  1.00 32.92     0.160 C 
ENDROOT
BRANCH  14  15
ATOM     15  CB  GLU D 570     -19.500  -6.345 -13.794  1.00 32.92     0.043 C 
BRANCH  15  16
ATOM     16  CG  GLU D 570     -20.092  -7.638 -14.225  1.00 32.92     0.100 C 
BRANCH  16  17
ATOM     17  CD  GLU D 570     -20.659  -7.590 -15.624  1.00 32.92     0.185 C 
ATOM     18  OE1 GLU D 570     -21.160  -8.622 -16.110  1.00 32.92    -0.647 OA
ATOM     19  OE2 GLU D 570     -20.586  -6.512 -16.248  1.00 32.92    -0.647 OA
ENDBRANCH  16  17
ENDBRANCH  15  16
ENDBRANCH  14  15
END_RES GLU D 570
ENDMDL
MODEL 7
REMARK VINA RESULT:      -3.8      7.091      8.369
REMARK  9 active torsions:
REMARK  status: ('A' for Active; 'I' for Inactive)
REMARK    1  A    between atoms: C_2  and  C_4 
REMARK    2  A    between atoms: C_4  and  O_6 
REMARK    3  A    between atoms: C_9  and  C_11 
REMARK    4  A    between atoms: C_11  and  O_13 
REMARK    5  A    between atoms: O_13  and  C_14 
REMARK    6  A    between atoms: C_14  and  C_15 
REMARK    7  A    between atoms: C_15  and  O_16 
REMARK    8  A    between atoms: O_16  and  C_17 
REMARK    9  A    between atoms: C_17  and  C_19 
ROOT
HETATM    1  C   UNL     1     -22.349  -7.899  -0.290  1.00  0.00     0.287 C 
HETATM    2  O   UNL     1     -23.394  -7.460   0.172  1.00  0.00    -0.260 OA
ENDROOT
BRANCH   1   3
HETATM    3  C   UNL     1     -21.712  -7.343  -1.513  1.00  0.00     0.004 C 
HETATM    4  C   UNL     1     -20.569  -8.016  -2.209  1.00  0.00     0.054 C 
HETATM    5  C   UNL     1     -22.208  -6.171  -1.947  1.00  0.00     0.024 C 
ENDBRANCH   1   3
BRANCH   1   6
HETATM    6  O   UNL     1     -21.691  -8.987   0.192  1.00  0.00    -0.323 OA
HETATM    7  C   UNL     1     -21.048  -8.720   1.444  1.00  0.00     0.213 C 
ENDBRANCH   1   6
TORSDOF 9
BEGIN_RES ARG D 557
REMARK  4 active torsions:
REMARK  status: ('A' for Active; 'I' for Inactive)
REMARK    1  A    between atoms: CA   and  CB  
REMARK    2  A    between atoms: CB   and  CG  
REMARK    3  A    between atoms: CG   and  CD  
REMARK    4  A    between atoms: CD   and  NE  
REMARK       I    between atoms: NE   and  CZ  
REMARK       I    between atoms: CZ   and  NH1 
REMARK       I    between atoms: CZ   and  NH2 
ROOT
ATOM      1  CA  ARG D 557     -26.217   2.705 -17.014  1.00 35.49     0.159 C 
ENDROOT
BRANCH   1   2
ATOM      2  CB  ARG D 557     -26.789   1.319 -17.183  1.00 35.49     0.034 C 
BRANCH   2   3
ATOM      3  CG  ARG D 557     -25.836   0.203 -17.156  1.00 35.49     0.027 C 
BRANCH   3   4
ATOM      4  CD  ARG D 557     -24.754   0.409 -16.165  1.00 35.49     0.116 C 
BRANCH   4   5
ATOM      5  NE  ARG D 557     -24.904  -0.442 -15.014  1.00 35.49    -0.212 N 
ATOM      6  CZ  ARG D 557     -24.091  -1.415 -14.667  1.00 35.49     0.666 C 
ATOM      7  NH1 ARG D 557     -23.021  -1.731 -15.374  1.00 35.49    -0.235 N 
ATOM      8  NH2 ARG D 557     -24.370  -2.071 -13.579  1.00 35.49    -0.235 N 
ATOM      9  HH  ARG D 557     -22.817  -1.311 -16.092  1.00 35.49     0.174 HD
ATOM     10  HH  ARG D 557     -22.526  -2.373 -15.097  1.00 35.49     0.174 HD
ATOM     11  HH  ARG D 557     -25.063  -1.840 -13.139  1.00 35.49     0.174 HD
ATOM     12  HH  ARG D 557     -23.866  -2.703 -13.321  1.00 35.49     0.174 HD
ATOM     13  HE  ARG D 557     -25.606  -0.356 -14.542  1.00 35.49     0.178 HD
ENDBRANCH   4   5
ENDBRANCH   3   4
ENDBRANCH   2   3
ENDBRANCH   1   2
END_RES ARG D 557
BEGIN_RES GLU D 570
REMARK  3 active torsions:
REMARK  status: ('A' for Active; 'I' for Inactive)
REMARK    5  A    between atoms: CA   and  CB  
REMARK    6  A    between atoms: CB   and  CG  
REMARK    7  A    between atoms: CG   and  CD  
ROOT
ATOM     14  CA  GLU D 570     -18.033  -6.348 -13.375  1.00 32.92     0.160 C 
ENDROOT
BRANCH  14  15
ATOM     15  CB  GLU D 570     -19.500  -6.345 -13.794  1.00 32.92     0.043 C 
BRANCH  15  16
ATOM     16  CG  GLU D 570     -20.450  -5.570 -12.955  1.00 32.92     0.100 C 
BRANCH  16  17
ATOM     17  CD  GLU D 570     -21.738  -5.241 -13.673  1.00 32.92     0.185 C 
ATOM     18  OE1 GLU D 570     -22.275  -6.113 -14.383  1.00 32.92    -0.647 OA
ATOM     19  OE2 GLU D 570     -22.207  -4.094 -13.538  1.00 32.92    -0.647 OA
ENDBRANCH  16  17
ENDBRANCH  15  16
ENDBRANCH  14  15
END_RES GLU D 570
ENDMDL
MODEL 8
REMARK VINA RESULT:      -3.7      6.267      7.198
REMARK  9 active torsions:
REMARK  status: ('A' for Active; 'I' for Inactive)
REMARK    1  A    between atoms: C_2  and  C_4 
REMARK    2  A    between atoms: C_4  and  O_6 
REMARK    3  A    between atoms: C_9  and  C_11 
REMARK    4  A    between atoms: C_11  and  O_13 
REMARK    5  A    between atoms: O_13  and  C_14 
REMARK    6  A    between atoms: C_14  and  C_15 
REMARK    7  A    between atoms: C_15  and  O_16 
REMARK    8  A    between atoms: O_16  and  C_17 
REMARK    9  A    between atoms: C_17  and  C_19 
ROOT
HETATM    1  C   UNL     1     -26.305   6.949 -10.937  1.00  0.00     0.287 C 
HETATM    2  O   UNL     1     -27.461   7.181 -11.264  1.00  0.00    -0.260 OA
ENDROOT
BRANCH   1   3
HETATM    3  C   UNL     1     -25.210   7.945 -11.084  1.00  0.00     0.004 C 
HETATM    4  C   UNL     1     -23.883   7.608 -11.691  1.00  0.00     0.054 C 
HETATM    5  C   UNL     1     -25.473   9.173 -10.605  1.00  0.00     0.024 C 
ENDBRANCH   1   3
BRANCH   1   6
HETATM    6  O   UNL     1     -25.858   5.746 -10.488  1.00  0.00    -0.323 OA
HETATM    7  C   UNL     1     -25.794   5.692  -9.059  1.00  0.00     0.213 C 
ENDBRANCH   1   6
TORSDOF 9
BEGIN_RES ARG D 557
REMARK  4 active torsions:
REMARK  status: ('A' for Active; 'I' for Inactive)
REMARK    1  A    between atoms: CA   and  CB  
REMARK    2  A    between atoms: CB   and  CG  
REMARK    3  A    between atoms: CG   and  CD  
REMARK    4  A    between atoms: CD   and  NE  
REMARK       I    between atoms: NE   and  CZ  
REMARK       I    between atoms: CZ   and  NH1 
REMARK       I    between atoms: CZ   and  NH2 
ROOT
ATOM      1  CA  ARG D 557     -26.217   2.705 -17.014  1.00 35.49     0.159 C 
ENDROOT
BRANCH   1   2
ATOM      2  CB  ARG D 557     -26.789   1.319 -17.183  1.00 35.49     0.034 C 
BRANCH   2   3
ATOM      3  CG  ARG D 557     -28.232   1.168 -16.962  1.00 35.49     0.027 C 
BRANCH   3   4
ATOM      4  CD  ARG D 557     -28.619  -0.236 -16.696  1.00 35.49     0.116 C 
BRANCH   4   5
ATOM      5  NE  ARG D 557     -27.587  -0.961 -16.003  1.00 35.49    -0.212 N 
ATOM      6  CZ  ARG D 557     -27.393  -2.259 -16.054  1.00 35.49     0.666 C 
ATOM      7  NH1 ARG D 557     -28.163  -3.064 -16.764  1.00 35.49    -0.235 N 
ATOM      8  NH2 ARG D 557     -26.393  -2.745 -15.377  1.00 35.49    -0.235 N 
ATOM      9  HH  ARG D 557     -28.825  -2.766 -17.219  1.00 35.49     0.174 HD
ATOM     10  HH  ARG D 557     -27.987  -3.902 -16.762  1.00 35.49     0.174 HD
ATOM     11  HH  ARG D 557     -25.909  -2.200 -14.934  1.00 35.49     0.174 HD
ATOM     12  HH  ARG D 557     -26.234  -3.577 -15.389  1.00 35.49     0.174 HD
ATOM     13  HE  ARG D 557     -27.089  -0.530 -15.464  1.00 35.49     0.178 HD
ENDBRANCH   4   5
ENDBRANCH   3   4
ENDBRANCH   2   3
ENDBRANCH   1   2
END_RES ARG D 557
BEGIN_RES GLU D 570
REMARK  3 active torsions:
REMARK  status: ('A' for Active; 'I' for Inactive)
REMARK    5  A    between atoms: CA   and  CB  
REMARK    6  A    between atoms: CB   and  CG  
REMARK    7  A    between atoms: CG   and  CD  
ROOT
ATOM     14  CA  GLU D 570     -18.033  -6.348 -13.375  1.00 32.92     0.160 C 
ENDROOT
BRANCH  14  15
ATOM     15  CB  GLU D 570     -19.500  -6.345 -13.794  1.00 32.92     0.043 C 
BRANCH  15  16
ATOM     16  CG  GLU D 570     -19.800  -6.148 -15.236  1.00 32.92     0.100 C 
BRANCH  16  17
ATOM     17  CD  GLU D 570     -21.248  -5.804 -15.495  1.00 32.92     0.185 C 
ATOM     18  OE1 GLU D 570     -21.520  -4.922 -16.332  1.00 32.92    -0.647 OA
ATOM     19  OE2 GLU D 570     -22.119  -6.411 -14.842  1.00 32.92    -0.647 OA
ENDBRANCH  16  17
ENDBRANCH  15  16
ENDBRANCH  14  15
END_RES GLU D 570
ENDMDL
MODEL 9
REMARK VINA RESULT:      -3.7      9.368     11.229
REMARK  9 active torsions:
REMARK  status: ('A' for Active; 'I' for Inactive)
REMARK    1  A    between atoms: C_2  and  C_4 
REMARK    2  A    between atoms: C_4  and  O_6 
REMARK    3  A    between atoms: C_9  and  C_11 
REMARK    4  A    between atoms: C_11  and  O_13 
REMARK    5  A    between atoms: O_13  and  C_14 
REMARK    6  A    between atoms: C_14  and  C_15 
REMARK    7  A    between atoms: C_15  and  O_16 
REMARK    8  A    between atoms: O_16  and  C_17 
REMARK    9  A    between atoms: C_17  and  C_19 
ROOT
HETATM    1  C   UNL     1     -11.714   4.531 -20.008  1.00  0.00     0.287 C 
HETATM    2  O   UNL     1     -12.320   4.888 -19.007  1.00  0.00    -0.260 OA
ENDROOT
BRANCH   1   3
HETATM    3  C   UNL     1     -11.987   3.243 -20.700  1.00  0.00     0.004 C 
HETATM    4  C   UNL     1     -13.321   2.909 -21.293  1.00  0.00     0.054 C 
HETATM    5  C   UNL     1     -10.964   2.372 -20.735  1.00  0.00     0.024 C 
ENDBRANCH   1   3
BRANCH   1   6
HETATM    6  O   UNL     1     -10.672   5.208 -20.560  1.00  0.00    -0.323 OA
HETATM    7  C   UNL     1      -9.778   5.728 -19.570  1.00  0.00     0.213 C 
ENDBRANCH   1   6
TORSDOF 9
BEGIN_RES ARG D 557
REMARK  4 active torsions:
REMARK  status: ('A' for Active; 'I' for Inactive)
REMARK    1  A    between atoms: CA   and  CB  
REMARK    2  A    between atoms: CB   and  CG  
REMARK    3  A    between atoms: CG   and  CD  
REMARK    4  A    between atoms: CD   and  NE  
REMARK       I    between atoms: NE   and  CZ  
REMARK       I    between atoms: CZ   and  NH1 
REMARK       I    between atoms: CZ   and  NH2 
ROOT
ATOM      1  CA  ARG D 557     -26.217   2.705 -17.014  1.00 35.49     0.159 C 
ENDROOT
BRANCH   1   2
ATOM      2  CB  ARG D 557     -26.789   1.319 -17.183  1.00 35.49     0.034 C 
BRANCH   2   3
ATOM      3  CG  ARG D 557     -25.835   0.203 -17.161  1.00 35.49     0.027 C 
BRANCH   3   4
ATOM      4  CD  ARG D 557     -24.745   0.412 -16.180  1.00 35.49     0.116 C 
BRANCH   4   5
ATOM      5  NE  ARG D 557     -24.890  -0.428 -15.021  1.00 35.49    -0.212 N 
ATOM      6  CZ  ARG D 557     -24.080  -1.403 -14.673  1.00 35.49     0.666 C 
ATOM      7  NH1 ARG D 557     -23.019  -1.732 -15.387  1.00 35.49    -0.235 N 
ATOM      8  NH2 ARG D 557     -24.354  -2.049 -13.577  1.00 35.49    -0.235 N 
ATOM      9  HH  ARG D 557     -22.819  -1.320 -16.110  1.00 35.49     0.174 HD
ATOM     10  HH  ARG D 557     -22.526  -2.376 -15.109  1.00 35.49     0.174 HD
ATOM     11  HH  ARG D 557     -25.042  -1.810 -13.133  1.00 35.49     0.174 HD
ATOM     12  HH  ARG D 557     -23.852  -2.682 -13.318  1.00 35.49     0.174 HD
ATOM     13  HE  ARG D 557     -25.587  -0.334 -14.543  1.00 35.49     0.178 HD
ENDBRANCH   4   5
ENDBRANCH   3   4
ENDBRANCH   2   3
ENDBRANCH   1   2
END_RES ARG D 557
BEGIN_RES GLU D 570
REMARK  3 active torsions:
REMARK  status: ('A' for Active; 'I' for Inactive)
REMARK    5  A    between atoms: CA   and  CB  
REMARK    6  A    between atoms: CB   and  CG  
REMARK    7  A    between atoms: CG   and  CD  
ROOT
ATOM     14  CA  GLU D 570     -18.033  -6.348 -13.375  1.00 32.92     0.160 C 
ENDROOT
BRANCH  14  15
ATOM     15  CB  GLU D 570     -19.500  -6.345 -13.794  1.00 32.92     0.043 C 
BRANCH  15  16
ATOM     16  CG  GLU D 570     -20.443  -5.536 -12.979  1.00 32.92     0.100 C 
BRANCH  16  17
ATOM     17  CD  GLU D 570     -21.746  -5.256 -13.690  1.00 32.92     0.185 C 
ATOM     18  OE1 GLU D 570     -22.213  -6.118 -14.460  1.00 32.92    -0.647 OA
ATOM     19  OE2 GLU D 570     -22.298  -4.156 -13.489  1.00 32.92    -0.647 OA
ENDBRANCH  16  17
ENDBRANCH  15  16
ENDBRANCH  14  15
END_RES GLU D 570
ENDMDL
