MODEL 1
REMARK VINA RESULT:      -6.9      0.000      0.000
REMARK  20 active torsions:
REMARK  status: ('A' for Active; 'I' for Inactive)
REMARK    1  A    between atoms: C_2  and  C_3 
REMARK    2  A    between atoms: C_3  and  C_4 
REMARK    3  A    between atoms: C_4  and  C_5 
REMARK    4  A    between atoms: C_5  and  C_6 
REMARK    5  A    between atoms: C_6  and  C_7 
REMARK    6  A    between atoms: C_7  and  C_8 
REMARK    7  A    between atoms: C_8  and  C_9 
REMARK    8  A    between atoms: C_9  and  C_10 
REMARK    9  A    between atoms: C_10  and  C_11 
REMARK   10  A    between atoms: C_11  and  C_12 
REMARK   11  A    between atoms: C_12  and  C_13 
REMARK   12  A    between atoms: C_13  and  C_14 
REMARK   13  A    between atoms: C_14  and  C_15 
REMARK   14  A    between atoms: C_15  and  C_16 
REMARK   15  A    between atoms: C_16  and  C_17 
REMARK   16  A    between atoms: C_17  and  C_18 
REMARK       I    between atoms: C_18  and  N_20 
REMARK   17  A    between atoms: N_20  and  C_21 
REMARK   18  A    between atoms: C_21  and  C_22 
REMARK   19  A    between atoms: C_22  and  C_23 
REMARK   20  A    between atoms: C_23  and  N_24 
ROOT
HETATM    1  C   UNL     1     -20.814  -5.529  -5.150  1.00  0.00     0.000 C 
ENDROOT
BRANCH   1   2
HETATM    2  C   UNL     1     -21.925  -6.537  -4.903  1.00  0.00     0.000 C 
BRANCH   2   3
HETATM    3  C   UNL     1     -21.753  -7.195  -3.545  1.00  0.00     0.000 C 
BRANCH   3   4
HETATM    4  C   UNL     1     -21.677  -6.134  -2.460  1.00  0.00     0.000 C 
BRANCH   4   5
HETATM    5  C   UNL     1     -22.404  -6.611  -1.216  1.00  0.00     0.000 C 
BRANCH   5   6
HETATM    6  C   UNL     1     -21.678  -7.800  -0.615  1.00  0.00     0.000 C 
BRANCH   6   7
HETATM    7  C   UNL     1     -22.681  -8.778  -0.031  1.00  0.00     0.000 C 
BRANCH   7   8
HETATM    8  C   UNL     1     -22.823  -9.982  -0.943  1.00  0.00     0.000 C 
BRANCH   8   9
HETATM    9  C   UNL     1     -23.822 -10.962  -0.355  1.00  0.00     0.000 C 
BRANCH   9  10
HETATM   10  C   UNL     1     -23.763 -12.278  -1.109  1.00  0.00     0.000 C 
BRANCH  10  11
HETATM   11  C   UNL     1     -23.688 -13.438  -0.128  1.00  0.00     0.000 C 
BRANCH  11  12
HETATM   12  C   UNL     1     -23.096 -12.970   1.191  1.00  0.00    -0.000 C 
BRANCH  12  13
HETATM   13  C   UNL     1     -23.456 -13.936   2.312  1.00  0.00    -0.005 C 
HETATM   14  C   UNL     1     -22.248 -14.760   2.712  1.00  0.00     0.005 C 
ENDBRANCH  12  13
ENDBRANCH  11  12
ENDBRANCH  10  11
ENDBRANCH   9  10
ENDBRANCH   8   9
ENDBRANCH   7   8
ENDBRANCH   6   7
ENDBRANCH   5   6
ENDBRANCH   4   5
ENDBRANCH   3   4
ENDBRANCH   2   3
ENDBRANCH   1   2
BRANCH   1  15
HETATM   15  C   UNL     1     -20.078  -5.857  -6.447  1.00  0.00     0.000 C 
BRANCH  15  16
HETATM   16  C   UNL     1     -19.967  -4.623  -7.312  1.00  0.00     0.009 C 
BRANCH  16  17
HETATM   17  C   UNL     1     -21.162  -3.677  -7.160  1.00  0.00     0.103 C 
BRANCH  17  18
HETATM   18  C   UNL     1     -22.263  -4.076  -8.105  1.00  0.00     0.217 C 
HETATM   19  O   UNL     1     -23.394  -4.365  -7.705  1.00  0.00    -0.274 OA
HETATM   20  N   UNL     1     -21.919  -4.094  -9.439  1.00  0.00    -0.361 N 
HETATM   21  H   UNL     1     -20.988  -3.830  -9.745  1.00  0.00     0.162 HD
BRANCH  20  22
HETATM   22  C   UNL     1     -22.916  -4.424 -10.433  1.00  0.00     0.124 C 
BRANCH  22  23
HETATM   23  C   UNL     1     -22.824  -3.527 -11.669  1.00  0.00     0.050 C 
BRANCH  23  24
HETATM   24  C   UNL     1     -24.201  -3.022 -12.130  1.00  0.00     0.273 C 
BRANCH  24  25
HETATM   25  N   UNL     1     -24.308  -2.932 -13.597  1.00  0.00     0.080 N 
HETATM   26  C   UNL     1     -23.088  -2.359 -14.188  1.00  0.00     0.309 C 
HETATM   27  C   UNL     1     -24.523  -4.267 -14.170  1.00  0.00     0.309 C 
ENDBRANCH  24  25
ENDBRANCH  23  24
ENDBRANCH  22  23
ENDBRANCH  20  22
ENDBRANCH  17  18
ENDBRANCH  16  17
ENDBRANCH  15  16
ENDBRANCH   1  15
TORSDOF 20
BEGIN_RES ARG D 557
REMARK  4 active torsions:
REMARK  status: ('A' for Active; 'I' for Inactive)
REMARK    1  A    between atoms: CA   and  CB  
REMARK    2  A    between atoms: CB   and  CG  
REMARK    3  A    between atoms: CG   and  CD  
REMARK    4  A    between atoms: CD   and  NE  
REMARK       I    between atoms: NE   and  CZ  
REMARK       I    between atoms: CZ   and  NH1 
REMARK       I    between atoms: CZ   and  NH2 
ROOT
ATOM      1  CA  ARG D 557     -26.217   2.705 -17.014  1.00 35.49     0.159 C 
ENDROOT
BRANCH   1   2
ATOM      2  CB  ARG D 557     -26.789   1.319 -17.183  1.00 35.49     0.034 C 
BRANCH   2   3
ATOM      3  CG  ARG D 557     -28.238   1.224 -17.398  1.00 35.49     0.027 C 
BRANCH   3   4
ATOM      4  CD  ARG D 557     -28.885   0.271 -16.468  1.00 35.49     0.116 C 
BRANCH   4   5
ATOM      5  NE  ARG D 557     -29.255  -0.958 -17.121  1.00 35.49    -0.212 N 
ATOM      6  CZ  ARG D 557     -28.614  -2.101 -17.025  1.00 35.49     0.666 C 
ATOM      7  NH1 ARG D 557     -27.517  -2.241 -16.304  1.00 35.49    -0.235 N 
ATOM      8  NH2 ARG D 557     -29.105  -3.120 -17.670  1.00 35.49    -0.235 N 
ATOM      9  HH  ARG D 557     -27.178  -1.585 -15.870  1.00 35.49     0.174 HD
ATOM     10  HH  ARG D 557     -27.144  -3.012 -16.277  1.00 35.49     0.174 HD
ATOM     11  HH  ARG D 557     -29.819  -3.002 -18.121  1.00 35.49     0.174 HD
ATOM     12  HH  ARG D 557     -28.722  -3.875 -17.629  1.00 35.49     0.174 HD
ATOM     13  HE  ARG D 557     -29.909  -0.940 -17.664  1.00 35.49     0.178 HD
ENDBRANCH   4   5
ENDBRANCH   3   4
ENDBRANCH   2   3
ENDBRANCH   1   2
END_RES ARG D 557
BEGIN_RES GLU D 570
REMARK  3 active torsions:
REMARK  status: ('A' for Active; 'I' for Inactive)
REMARK    5  A    between atoms: CA   and  CB  
REMARK    6  A    between atoms: CB   and  CG  
REMARK    7  A    between atoms: CG   and  CD  
ROOT
ATOM     14  CA  GLU D 570     -18.033  -6.348 -13.375  1.00 32.92     0.160 C 
ENDROOT
BRANCH  14  15
ATOM     15  CB  GLU D 570     -19.500  -6.345 -13.794  1.00 32.92     0.043 C 
BRANCH  15  16
ATOM     16  CG  GLU D 570     -19.797  -6.239 -15.246  1.00 32.92     0.100 C 
BRANCH  16  17
ATOM     17  CD  GLU D 570     -21.250  -5.938 -15.530  1.00 32.92     0.185 C 
ATOM     18  OE1 GLU D 570     -21.549  -4.855 -16.069  1.00 32.92    -0.647 OA
ATOM     19  OE2 GLU D 570     -22.100  -6.786 -15.194  1.00 32.92    -0.647 OA
ENDBRANCH  16  17
ENDBRANCH  15  16
ENDBRANCH  14  15
END_RES GLU D 570
ENDMDL
MODEL 2
REMARK VINA RESULT:      -6.9      1.446      2.288
REMARK  20 active torsions:
REMARK  status: ('A' for Active; 'I' for Inactive)
REMARK    1  A    between atoms: C_2  and  C_3 
REMARK    2  A    between atoms: C_3  and  C_4 
REMARK    3  A    between atoms: C_4  and  C_5 
REMARK    4  A    between atoms: C_5  and  C_6 
REMARK    5  A    between atoms: C_6  and  C_7 
REMARK    6  A    between atoms: C_7  and  C_8 
REMARK    7  A    between atoms: C_8  and  C_9 
REMARK    8  A    between atoms: C_9  and  C_10 
REMARK    9  A    between atoms: C_10  and  C_11 
REMARK   10  A    between atoms: C_11  and  C_12 
REMARK   11  A    between atoms: C_12  and  C_13 
REMARK   12  A    between atoms: C_13  and  C_14 
REMARK   13  A    between atoms: C_14  and  C_15 
REMARK   14  A    between atoms: C_15  and  C_16 
REMARK   15  A    between atoms: C_16  and  C_17 
REMARK   16  A    between atoms: C_17  and  C_18 
REMARK       I    between atoms: C_18  and  N_20 
REMARK   17  A    between atoms: N_20  and  C_21 
REMARK   18  A    between atoms: C_21  and  C_22 
REMARK   19  A    between atoms: C_22  and  C_23 
REMARK   20  A    between atoms: C_23  and  N_24 
ROOT
HETATM    1  C   UNL     1     -20.814  -5.823  -6.223  1.00  0.00     0.000 C 
ENDROOT
BRANCH   1   2
HETATM    2  C   UNL     1     -20.144  -7.058  -5.642  1.00  0.00     0.000 C 
BRANCH   2   3
HETATM    3  C   UNL     1     -21.035  -7.700  -4.592  1.00  0.00     0.000 C 
BRANCH   3   4
HETATM    4  C   UNL     1     -22.004  -6.673  -4.034  1.00  0.00     0.000 C 
BRANCH   4   5
HETATM    5  C   UNL     1     -21.541  -6.212  -2.664  1.00  0.00     0.000 C 
BRANCH   5   6
HETATM    6  C   UNL     1     -21.582  -7.371  -1.686  1.00  0.00     0.000 C 
BRANCH   6   7
HETATM    7  C   UNL     1     -22.442  -7.008  -0.490  1.00  0.00     0.000 C 
BRANCH   7   8
HETATM    8  C   UNL     1     -22.844  -8.265   0.260  1.00  0.00     0.000 C 
BRANCH   8   9
HETATM    9  C   UNL     1     -21.642  -9.176   0.425  1.00  0.00     0.000 C 
BRANCH   9  10
HETATM   10  C   UNL     1     -22.042 -10.617   0.163  1.00  0.00     0.000 C 
BRANCH  10  11
HETATM   11  C   UNL     1     -23.487 -10.680  -0.306  1.00  0.00     0.000 C 
BRANCH  11  12
HETATM   12  C   UNL     1     -23.581 -11.453  -1.611  1.00  0.00    -0.000 C 
BRANCH  12  13
HETATM   13  C   UNL     1     -22.845 -10.719  -2.724  1.00  0.00    -0.005 C 
HETATM   14  C   UNL     1     -22.359 -11.697  -3.775  1.00  0.00     0.005 C 
ENDBRANCH  12  13
ENDBRANCH  11  12
ENDBRANCH  10  11
ENDBRANCH   9  10
ENDBRANCH   8   9
ENDBRANCH   7   8
ENDBRANCH   6   7
ENDBRANCH   5   6
ENDBRANCH   4   5
ENDBRANCH   3   4
ENDBRANCH   2   3
ENDBRANCH   1   2
BRANCH   1  15
HETATM   15  C   UNL     1     -19.775  -4.912  -6.875  1.00  0.00     0.000 C 
BRANCH  15  16
HETATM   16  C   UNL     1     -20.387  -4.170  -8.040  1.00  0.00     0.009 C 
BRANCH  16  17
HETATM   17  C   UNL     1     -21.785  -3.624  -7.733  1.00  0.00     0.103 C 
BRANCH  17  18
HETATM   18  C   UNL     1     -22.710  -3.889  -8.889  1.00  0.00     0.217 C 
HETATM   19  O   UNL     1     -23.938  -3.891  -8.757  1.00  0.00    -0.274 OA
HETATM   20  N   UNL     1     -22.093  -4.126 -10.098  1.00  0.00    -0.361 N 
HETATM   21  H   UNL     1     -21.082  -4.097 -10.185  1.00  0.00     0.162 HD
BRANCH  20  22
HETATM   22  C   UNL     1     -22.893  -4.352 -11.281  1.00  0.00     0.124 C 
BRANCH  22  23
HETATM   23  C   UNL     1     -23.267  -3.046 -11.986  1.00  0.00     0.050 C 
BRANCH  23  24
HETATM   24  C   UNL     1     -22.721  -2.979 -13.422  1.00  0.00     0.273 C 
BRANCH  24  25
HETATM   25  N   UNL     1     -23.790  -3.002 -14.436  1.00  0.00     0.080 N 
HETATM   26  C   UNL     1     -24.719  -4.120 -14.206  1.00  0.00     0.309 C 
HETATM   27  C   UNL     1     -24.550  -1.746 -14.397  1.00  0.00     0.309 C 
ENDBRANCH  24  25
ENDBRANCH  23  24
ENDBRANCH  22  23
ENDBRANCH  20  22
ENDBRANCH  17  18
ENDBRANCH  16  17
ENDBRANCH  15  16
ENDBRANCH   1  15
TORSDOF 20
BEGIN_RES ARG D 557
REMARK  4 active torsions:
REMARK  status: ('A' for Active; 'I' for Inactive)
REMARK    1  A    between atoms: CA   and  CB  
REMARK    2  A    between atoms: CB   and  CG  
REMARK    3  A    between atoms: CG   and  CD  
REMARK    4  A    between atoms: CD   and  NE  
REMARK       I    between atoms: NE   and  CZ  
REMARK       I    between atoms: CZ   and  NH1 
REMARK       I    between atoms: CZ   and  NH2 
ROOT
ATOM      1  CA  ARG D 557     -26.217   2.705 -17.014  1.00 35.49     0.159 C 
ENDROOT
BRANCH   1   2
ATOM      2  CB  ARG D 557     -26.789   1.319 -17.183  1.00 35.49     0.034 C 
BRANCH   2   3
ATOM      3  CG  ARG D 557     -28.237   1.225 -17.407  1.00 35.49     0.027 C 
BRANCH   3   4
ATOM      4  CD  ARG D 557     -28.894   0.293 -16.462  1.00 35.49     0.116 C 
BRANCH   4   5
ATOM      5  NE  ARG D 557     -28.093  -0.875 -16.206  1.00 35.49    -0.212 N 
ATOM      6  CZ  ARG D 557     -28.311  -2.077 -16.691  1.00 35.49     0.666 C 
ATOM      7  NH1 ARG D 557     -29.333  -2.349 -17.480  1.00 35.49    -0.235 N 
ATOM      8  NH2 ARG D 557     -27.468  -3.015 -16.370  1.00 35.49    -0.235 N 
ATOM      9  HH  ARG D 557     -29.899  -1.747 -17.706  1.00 35.49     0.174 HD
ATOM     10  HH  ARG D 557     -29.423  -3.151 -17.768  1.00 35.49     0.174 HD
ATOM     11  HH  ARG D 557     -26.812  -2.809 -15.864  1.00 35.49     0.174 HD
ATOM     12  HH  ARG D 557     -27.573  -3.803 -16.666  1.00 35.49     0.174 HD
ATOM     13  HE  ARG D 557     -27.454  -0.807 -15.649  1.00 35.49     0.178 HD
ENDBRANCH   4   5
ENDBRANCH   3   4
ENDBRANCH   2   3
ENDBRANCH   1   2
END_RES ARG D 557
BEGIN_RES GLU D 570
REMARK  3 active torsions:
REMARK  status: ('A' for Active; 'I' for Inactive)
REMARK    5  A    between atoms: CA   and  CB  
REMARK    6  A    between atoms: CB   and  CG  
REMARK    7  A    between atoms: CG   and  CD  
ROOT
ATOM     14  CA  GLU D 570     -18.033  -6.348 -13.375  1.00 32.92     0.160 C 
ENDROOT
BRANCH  14  15
ATOM     15  CB  GLU D 570     -19.500  -6.345 -13.794  1.00 32.92     0.043 C 
BRANCH  15  16
ATOM     16  CG  GLU D 570     -19.813  -5.935 -15.187  1.00 32.92     0.100 C 
BRANCH  16  17
ATOM     17  CD  GLU D 570     -21.292  -5.738 -15.425  1.00 32.92     0.185 C 
ATOM     18  OE1 GLU D 570     -22.107  -6.313 -14.679  1.00 32.92    -0.647 OA
ATOM     19  OE2 GLU D 570     -21.639  -5.014 -16.379  1.00 32.92    -0.647 OA
ENDBRANCH  16  17
ENDBRANCH  15  16
ENDBRANCH  14  15
END_RES GLU D 570
ENDMDL
MODEL 3
REMARK VINA RESULT:      -6.8      2.288      4.183
REMARK  20 active torsions:
REMARK  status: ('A' for Active; 'I' for Inactive)
REMARK    1  A    between atoms: C_2  and  C_3 
REMARK    2  A    between atoms: C_3  and  C_4 
REMARK    3  A    between atoms: C_4  and  C_5 
REMARK    4  A    between atoms: C_5  and  C_6 
REMARK    5  A    between atoms: C_6  and  C_7 
REMARK    6  A    between atoms: C_7  and  C_8 
REMARK    7  A    between atoms: C_8  and  C_9 
REMARK    8  A    between atoms: C_9  and  C_10 
REMARK    9  A    between atoms: C_10  and  C_11 
REMARK   10  A    between atoms: C_11  and  C_12 
REMARK   11  A    between atoms: C_12  and  C_13 
REMARK   12  A    between atoms: C_13  and  C_14 
REMARK   13  A    between atoms: C_14  and  C_15 
REMARK   14  A    between atoms: C_15  and  C_16 
REMARK   15  A    between atoms: C_16  and  C_17 
REMARK   16  A    between atoms: C_17  and  C_18 
REMARK       I    between atoms: C_18  and  N_20 
REMARK   17  A    between atoms: N_20  and  C_21 
REMARK   18  A    between atoms: C_21  and  C_22 
REMARK   19  A    between atoms: C_22  and  C_23 
REMARK   20  A    between atoms: C_23  and  N_24 
ROOT
HETATM    1  C   UNL     1     -21.980  -7.582  -1.339  1.00  0.00     0.000 C 
ENDROOT
BRANCH   1   2
HETATM    2  C   UNL     1     -22.853  -7.580  -0.094  1.00  0.00     0.000 C 
BRANCH   2   3
HETATM    3  C   UNL     1     -22.160  -8.312   1.042  1.00  0.00     0.000 C 
BRANCH   3   4
HETATM    4  C   UNL     1     -20.876  -8.950   0.541  1.00  0.00     0.000 C 
BRANCH   4   5
HETATM    5  C   UNL     1     -20.694 -10.318   1.173  1.00  0.00     0.000 C 
BRANCH   5   6
HETATM    6  C   UNL     1     -19.886 -11.212   0.251  1.00  0.00     0.000 C 
BRANCH   6   7
HETATM    7  C   UNL     1     -19.909 -10.654  -1.160  1.00  0.00     0.000 C 
BRANCH   7   8
HETATM    8  C   UNL     1     -20.567 -11.648  -2.100  1.00  0.00     0.000 C 
BRANCH   8   9
HETATM    9  C   UNL     1     -21.856 -11.064  -2.650  1.00  0.00     0.000 C 
BRANCH   9  10
HETATM   10  C   UNL     1     -23.046 -11.841  -2.118  1.00  0.00     0.000 C 
BRANCH  10  11
HETATM   11  C   UNL     1     -23.866 -10.964  -1.184  1.00  0.00     0.000 C 
BRANCH  11  12
HETATM   12  C   UNL     1     -23.890 -11.564   0.212  1.00  0.00    -0.000 C 
BRANCH  12  13
HETATM   13  C   UNL     1     -23.488 -13.033   0.171  1.00  0.00    -0.005 C 
HETATM   14  C   UNL     1     -22.755 -13.418   1.441  1.00  0.00     0.005 C 
ENDBRANCH  12  13
ENDBRANCH  11  12
ENDBRANCH  10  11
ENDBRANCH   9  10
ENDBRANCH   8   9
ENDBRANCH   7   8
ENDBRANCH   6   7
ENDBRANCH   5   6
ENDBRANCH   4   5
ENDBRANCH   3   4
ENDBRANCH   2   3
ENDBRANCH   1   2
BRANCH   1  15
HETATM   15  C   UNL     1     -22.004  -6.208  -2.006  1.00  0.00     0.000 C 
BRANCH  15  16
HETATM   16  C   UNL     1     -21.974  -6.355  -3.509  1.00  0.00     0.009 C 
BRANCH  16  17
HETATM   17  C   UNL     1     -21.108  -7.529  -3.978  1.00  0.00     0.103 C 
BRANCH  17  18
HETATM   18  C   UNL     1     -20.348  -7.149  -5.219  1.00  0.00     0.217 C 
HETATM   19  O   UNL     1     -19.685  -7.972  -5.857  1.00  0.00    -0.274 OA
HETATM   20  N   UNL     1     -20.447  -5.827  -5.591  1.00  0.00    -0.361 N 
HETATM   21  H   UNL     1     -21.017  -5.174  -5.063  1.00  0.00     0.162 HD
BRANCH  20  22
HETATM   22  C   UNL     1     -19.787  -5.367  -6.794  1.00  0.00     0.124 C 
BRANCH  22  23
HETATM   23  C   UNL     1     -20.754  -5.237  -7.973  1.00  0.00     0.050 C 
BRANCH  23  24
HETATM   24  C   UNL     1     -22.011  -4.429  -7.613  1.00  0.00     0.273 C 
BRANCH  24  25
HETATM   25  N   UNL     1     -22.512  -3.629  -8.744  1.00  0.00     0.080 N 
HETATM   26  C   UNL     1     -21.711  -3.858  -9.957  1.00  0.00     0.309 C 
HETATM   27  C   UNL     1     -23.909  -3.981  -9.032  1.00  0.00     0.309 C 
ENDBRANCH  24  25
ENDBRANCH  23  24
ENDBRANCH  22  23
ENDBRANCH  20  22
ENDBRANCH  17  18
ENDBRANCH  16  17
ENDBRANCH  15  16
ENDBRANCH   1  15
TORSDOF 20
BEGIN_RES ARG D 557
REMARK  4 active torsions:
REMARK  status: ('A' for Active; 'I' for Inactive)
REMARK    1  A    between atoms: CA   and  CB  
REMARK    2  A    between atoms: CB   and  CG  
REMARK    3  A    between atoms: CG   and  CD  
REMARK    4  A    between atoms: CD   and  NE  
REMARK       I    between atoms: NE   and  CZ  
REMARK       I    between atoms: CZ   and  NH1 
REMARK       I    between atoms: CZ   and  NH2 
ROOT
ATOM      1  CA  ARG D 557     -26.217   2.705 -17.014  1.00 35.49     0.159 C 
ENDROOT
BRANCH   1   2
ATOM      2  CB  ARG D 557     -26.789   1.319 -17.183  1.00 35.49     0.034 C 
BRANCH   2   3
ATOM      3  CG  ARG D 557     -26.527   0.360 -16.103  1.00 35.49     0.027 C 
BRANCH   3   4
ATOM      4  CD  ARG D 557     -25.085   0.060 -15.952  1.00 35.49     0.116 C 
BRANCH   4   5
ATOM      5  NE  ARG D 557     -24.804  -0.656 -14.736  1.00 35.49    -0.212 N 
ATOM      6  CZ  ARG D 557     -23.813  -1.500 -14.552  1.00 35.49     0.666 C 
ATOM      7  NH1 ARG D 557     -22.950  -1.798 -15.506  1.00 35.49    -0.235 N 
ATOM      8  NH2 ARG D 557     -23.697  -2.043 -13.376  1.00 35.49    -0.235 N 
ATOM      9  HH  ARG D 557     -23.006  -1.450 -16.287  1.00 35.49     0.174 HD
ATOM     10  HH  ARG D 557     -22.322  -2.353 -15.328  1.00 35.49     0.174 HD
ATOM     11  HH  ARG D 557     -24.265  -1.826 -12.777  1.00 35.49     0.174 HD
ATOM     12  HH  ARG D 557     -23.068  -2.589 -13.218  1.00 35.49     0.174 HD
ATOM     13  HE  ARG D 557     -25.353  -0.579 -14.091  1.00 35.49     0.178 HD
ENDBRANCH   4   5
ENDBRANCH   3   4
ENDBRANCH   2   3
ENDBRANCH   1   2
END_RES ARG D 557
BEGIN_RES GLU D 570
REMARK  3 active torsions:
REMARK  status: ('A' for Active; 'I' for Inactive)
REMARK    5  A    between atoms: CA   and  CB  
REMARK    6  A    between atoms: CB   and  CG  
REMARK    7  A    between atoms: CG   and  CD  
ROOT
ATOM     14  CA  GLU D 570     -18.033  -6.348 -13.375  1.00 32.92     0.160 C 
ENDROOT
BRANCH  14  15
ATOM     15  CB  GLU D 570     -19.500  -6.345 -13.794  1.00 32.92     0.043 C 
BRANCH  15  16
ATOM     16  CG  GLU D 570     -20.441  -5.529 -12.985  1.00 32.92     0.100 C 
BRANCH  16  17
ATOM     17  CD  GLU D 570     -21.662  -5.094 -13.761  1.00 32.92     0.185 C 
ATOM     18  OE1 GLU D 570     -21.533  -4.761 -14.955  1.00 32.92    -0.647 OA
ATOM     19  OE2 GLU D 570     -22.757  -5.071 -13.165  1.00 32.92    -0.647 OA
ENDBRANCH  16  17
ENDBRANCH  15  16
ENDBRANCH  14  15
END_RES GLU D 570
ENDMDL
MODEL 4
REMARK VINA RESULT:      -6.7      1.436      2.580
REMARK  20 active torsions:
REMARK  status: ('A' for Active; 'I' for Inactive)
REMARK    1  A    between atoms: C_2  and  C_3 
REMARK    2  A    between atoms: C_3  and  C_4 
REMARK    3  A    between atoms: C_4  and  C_5 
REMARK    4  A    between atoms: C_5  and  C_6 
REMARK    5  A    between atoms: C_6  and  C_7 
REMARK    6  A    between atoms: C_7  and  C_8 
REMARK    7  A    between atoms: C_8  and  C_9 
REMARK    8  A    between atoms: C_9  and  C_10 
REMARK    9  A    between atoms: C_10  and  C_11 
REMARK   10  A    between atoms: C_11  and  C_12 
REMARK   11  A    between atoms: C_12  and  C_13 
REMARK   12  A    between atoms: C_13  and  C_14 
REMARK   13  A    between atoms: C_14  and  C_15 
REMARK   14  A    between atoms: C_15  and  C_16 
REMARK   15  A    between atoms: C_16  and  C_17 
REMARK   16  A    between atoms: C_17  and  C_18 
REMARK       I    between atoms: C_18  and  N_20 
REMARK   17  A    between atoms: N_20  and  C_21 
REMARK   18  A    between atoms: C_21  and  C_22 
REMARK   19  A    between atoms: C_22  and  C_23 
REMARK   20  A    between atoms: C_23  and  N_24 
ROOT
HETATM    1  C   UNL     1     -21.256  -6.281  -3.512  1.00  0.00     0.000 C 
ENDROOT
BRANCH   1   2
HETATM    2  C   UNL     1     -22.203  -6.294  -2.323  1.00  0.00     0.000 C 
BRANCH   2   3
HETATM    3  C   UNL     1     -21.692  -7.238  -1.247  1.00  0.00     0.000 C 
BRANCH   3   4
HETATM    4  C   UNL     1     -22.720  -7.364  -0.136  1.00  0.00     0.000 C 
BRANCH   4   5
HETATM    5  C   UNL     1     -22.432  -8.598   0.700  1.00  0.00     0.000 C 
BRANCH   5   6
HETATM    6  C   UNL     1     -21.043  -9.121   0.390  1.00  0.00     0.000 C 
BRANCH   6   7
HETATM    7  C   UNL     1     -20.813 -10.437   1.109  1.00  0.00     0.000 C 
BRANCH   7   8
HETATM    8  C   UNL     1     -20.450 -11.518   0.107  1.00  0.00     0.000 C 
BRANCH   8   9
HETATM    9  C   UNL     1     -21.341 -12.731   0.309  1.00  0.00     0.000 C 
BRANCH   9  10
HETATM   10  C   UNL     1     -22.742 -12.288   0.691  1.00  0.00     0.000 C 
BRANCH  10  11
HETATM   11  C   UNL     1     -23.693 -12.501  -0.476  1.00  0.00     0.000 C 
BRANCH  11  12
HETATM   12  C   UNL     1     -23.774 -11.241  -1.322  1.00  0.00    -0.000 C 
BRANCH  12  13
HETATM   13  C   UNL     1     -23.097 -11.456  -2.669  1.00  0.00    -0.005 C 
HETATM   14  C   UNL     1     -22.119 -10.334  -2.957  1.00  0.00     0.005 C 
ENDBRANCH  12  13
ENDBRANCH  11  12
ENDBRANCH  10  11
ENDBRANCH   9  10
ENDBRANCH   8   9
ENDBRANCH   7   8
ENDBRANCH   6   7
ENDBRANCH   5   6
ENDBRANCH   4   5
ENDBRANCH   3   4
ENDBRANCH   2   3
ENDBRANCH   1   2
BRANCH   1  15
HETATM   15  C   UNL     1     -21.875  -7.028  -4.691  1.00  0.00     0.000 C 
BRANCH  15  16
HETATM   16  C   UNL     1     -21.344  -6.479  -5.995  1.00  0.00     0.009 C 
BRANCH  16  17
HETATM   17  C   UNL     1     -20.767  -5.066  -5.858  1.00  0.00     0.103 C 
BRANCH  17  18
HETATM   18  C   UNL     1     -21.030  -4.275  -7.110  1.00  0.00     0.217 C 
HETATM   19  O   UNL     1     -20.120  -3.735  -7.746  1.00  0.00    -0.274 OA
HETATM   20  N   UNL     1     -22.352  -4.198  -7.493  1.00  0.00    -0.361 N 
HETATM   21  H   UNL     1     -23.079  -4.669  -6.966  1.00  0.00     0.162 HD
BRANCH  20  22
HETATM   22  C   UNL     1     -22.708  -3.494  -8.705  1.00  0.00     0.124 C 
BRANCH  22  23
HETATM   23  C   UNL     1     -22.905  -4.442  -9.890  1.00  0.00     0.050 C 
BRANCH  23  24
HETATM   24  C   UNL     1     -24.084  -4.024 -10.784  1.00  0.00     0.273 C 
BRANCH  24  25
HETATM   25  N   UNL     1     -23.782  -4.164 -12.220  1.00  0.00     0.080 N 
HETATM   26  C   UNL     1     -24.410  -3.090 -13.005  1.00  0.00     0.309 C 
HETATM   27  C   UNL     1     -22.330  -4.116 -12.437  1.00  0.00     0.309 C 
ENDBRANCH  24  25
ENDBRANCH  23  24
ENDBRANCH  22  23
ENDBRANCH  20  22
ENDBRANCH  17  18
ENDBRANCH  16  17
ENDBRANCH  15  16
ENDBRANCH   1  15
TORSDOF 20
BEGIN_RES ARG D 557
REMARK  4 active torsions:
REMARK  status: ('A' for Active; 'I' for Inactive)
REMARK    1  A    between atoms: CA   and  CB  
REMARK    2  A    between atoms: CB   and  CG  
REMARK    3  A    between atoms: CG   and  CD  
REMARK    4  A    between atoms: CD   and  NE  
REMARK       I    between atoms: NE   and  CZ  
REMARK       I    between atoms: CZ   and  NH1 
REMARK       I    between atoms: CZ   and  NH2 
ROOT
ATOM      1  CA  ARG D 557     -26.217   2.705 -17.014  1.00 35.49     0.159 C 
ENDROOT
BRANCH   1   2
ATOM      2  CB  ARG D 557     -26.789   1.319 -17.183  1.00 35.49     0.034 C 
BRANCH   2   3
ATOM      3  CG  ARG D 557     -28.236   1.225 -17.411  1.00 35.49     0.027 C 
BRANCH   3   4
ATOM      4  CD  ARG D 557     -28.897   0.295 -16.466  1.00 35.49     0.116 C 
BRANCH   4   5
ATOM      5  NE  ARG D 557     -29.314  -0.924 -17.107  1.00 35.49    -0.212 N 
ATOM      6  CZ  ARG D 557     -28.697  -2.082 -17.031  1.00 35.49     0.666 C 
ATOM      7  NH1 ARG D 557     -27.581  -2.247 -16.345  1.00 35.49    -0.235 N 
ATOM      8  NH2 ARG D 557     -29.231  -3.088 -17.661  1.00 35.49    -0.235 N 
ATOM      9  HH  ARG D 557     -27.214  -1.599 -15.922  1.00 35.49     0.174 HD
ATOM     10  HH  ARG D 557     -27.225  -3.026 -16.330  1.00 35.49     0.174 HD
ATOM     11  HH  ARG D 557     -29.955  -2.953 -18.089  1.00 35.49     0.174 HD
ATOM     12  HH  ARG D 557     -28.863  -3.852 -17.632  1.00 35.49     0.174 HD
ATOM     13  HE  ARG D 557     -29.985  -0.891 -17.629  1.00 35.49     0.178 HD
ENDBRANCH   4   5
ENDBRANCH   3   4
ENDBRANCH   2   3
ENDBRANCH   1   2
END_RES ARG D 557
BEGIN_RES GLU D 570
REMARK  3 active torsions:
REMARK  status: ('A' for Active; 'I' for Inactive)
REMARK    5  A    between atoms: CA   and  CB  
REMARK    6  A    between atoms: CB   and  CG  
REMARK    7  A    between atoms: CG   and  CD  
ROOT
ATOM     14  CA  GLU D 570     -18.033  -6.348 -13.375  1.00 32.92     0.160 C 
ENDROOT
BRANCH  14  15
ATOM     15  CB  GLU D 570     -19.500  -6.345 -13.794  1.00 32.92     0.043 C 
BRANCH  15  16
ATOM     16  CG  GLU D 570     -19.797  -6.239 -15.246  1.00 32.92     0.100 C 
BRANCH  16  17
ATOM     17  CD  GLU D 570     -20.751  -7.305 -15.732  1.00 32.92     0.185 C 
ATOM     18  OE1 GLU D 570     -20.663  -8.456 -15.262  1.00 32.92    -0.647 OA
ATOM     19  OE2 GLU D 570     -21.584  -6.991 -16.604  1.00 32.92    -0.647 OA
ENDBRANCH  16  17
ENDBRANCH  15  16
ENDBRANCH  14  15
END_RES GLU D 570
ENDMDL
MODEL 5
REMARK VINA RESULT:      -6.7      2.733      4.696
REMARK  20 active torsions:
REMARK  status: ('A' for Active; 'I' for Inactive)
REMARK    1  A    between atoms: C_2  and  C_3 
REMARK    2  A    between atoms: C_3  and  C_4 
REMARK    3  A    between atoms: C_4  and  C_5 
REMARK    4  A    between atoms: C_5  and  C_6 
REMARK    5  A    between atoms: C_6  and  C_7 
REMARK    6  A    between atoms: C_7  and  C_8 
REMARK    7  A    between atoms: C_8  and  C_9 
REMARK    8  A    between atoms: C_9  and  C_10 
REMARK    9  A    between atoms: C_10  and  C_11 
REMARK   10  A    between atoms: C_11  and  C_12 
REMARK   11  A    between atoms: C_12  and  C_13 
REMARK   12  A    between atoms: C_13  and  C_14 
REMARK   13  A    between atoms: C_14  and  C_15 
REMARK   14  A    between atoms: C_15  and  C_16 
REMARK   15  A    between atoms: C_16  and  C_17 
REMARK   16  A    between atoms: C_17  and  C_18 
REMARK       I    between atoms: C_18  and  N_20 
REMARK   17  A    between atoms: N_20  and  C_21 
REMARK   18  A    between atoms: C_21  and  C_22 
REMARK   19  A    between atoms: C_22  and  C_23 
REMARK   20  A    between atoms: C_23  and  N_24 
ROOT
HETATM    1  C   UNL     1     -22.348  -6.963  -0.904  1.00  0.00     0.000 C 
ENDROOT
BRANCH   1   2
HETATM    2  C   UNL     1     -21.209  -7.922  -0.599  1.00  0.00     0.000 C 
BRANCH   2   3
HETATM    3  C   UNL     1     -21.685  -9.039   0.314  1.00  0.00     0.000 C 
BRANCH   3   4
HETATM    4  C   UNL     1     -23.045  -9.539  -0.142  1.00  0.00     0.000 C 
BRANCH   4   5
HETATM    5  C   UNL     1     -23.038 -11.054  -0.231  1.00  0.00     0.000 C 
BRANCH   5   6
HETATM    6  C   UNL     1     -23.528 -11.495  -1.597  1.00  0.00     0.000 C 
BRANCH   6   7
HETATM    7  C   UNL     1     -22.662 -10.879  -2.680  1.00  0.00     0.000 C 
BRANCH   7   8
HETATM    8  C   UNL     1     -21.349 -11.634  -2.785  1.00  0.00     0.000 C 
BRANCH   8   9
HETATM    9  C   UNL     1     -20.303 -10.761  -3.454  1.00  0.00     0.000 C 
BRANCH   9  10
HETATM   10  C   UNL     1     -19.233 -10.371  -2.451  1.00  0.00     0.000 C 
BRANCH  10  11
HETATM   11  C   UNL     1     -18.302  -9.333  -3.057  1.00  0.00     0.000 C 
BRANCH  11  12
HETATM   12  C   UNL     1     -16.854  -9.763  -2.883  1.00  0.00    -0.000 C 
BRANCH  12  13
HETATM   13  C   UNL     1     -16.762 -10.980  -1.973  1.00  0.00    -0.005 C 
HETATM   14  C   UNL     1     -16.011 -12.103  -2.663  1.00  0.00     0.005 C 
ENDBRANCH  12  13
ENDBRANCH  11  12
ENDBRANCH  10  11
ENDBRANCH   9  10
ENDBRANCH   8   9
ENDBRANCH   7   8
ENDBRANCH   6   7
ENDBRANCH   5   6
ENDBRANCH   4   5
ENDBRANCH   3   4
ENDBRANCH   2   3
ENDBRANCH   1   2
BRANCH   1  15
HETATM   15  C   UNL     1     -22.094  -6.238  -2.224  1.00  0.00     0.000 C 
BRANCH  15  16
HETATM   16  C   UNL     1     -21.127  -7.027  -3.076  1.00  0.00     0.009 C 
BRANCH  16  17
HETATM   17  C   UNL     1     -21.744  -7.501  -4.397  1.00  0.00     0.103 C 
BRANCH  17  18
HETATM   18  C   UNL     1     -22.157  -6.319  -5.229  1.00  0.00     0.217 C 
HETATM   19  O   UNL     1     -23.330  -5.937  -5.286  1.00  0.00    -0.274 OA
HETATM   20  N   UNL     1     -21.140  -5.697  -5.919  1.00  0.00    -0.361 N 
HETATM   21  H   UNL     1     -20.180  -6.015  -5.838  1.00  0.00     0.162 HD
BRANCH  20  22
HETATM   22  C   UNL     1     -21.425  -4.524  -6.717  1.00  0.00     0.124 C 
BRANCH  22  23
HETATM   23  C   UNL     1     -21.634  -4.865  -8.194  1.00  0.00     0.050 C 
BRANCH  23  24
HETATM   24  C   UNL     1     -22.479  -3.809  -8.924  1.00  0.00     0.273 C 
BRANCH  24  25
HETATM   25  N   UNL     1     -23.802  -4.321  -9.323  1.00  0.00     0.080 N 
HETATM   26  C   UNL     1     -24.743  -3.221  -9.590  1.00  0.00     0.309 C 
HETATM   27  C   UNL     1     -23.682  -5.139 -10.537  1.00  0.00     0.309 C 
ENDBRANCH  24  25
ENDBRANCH  23  24
ENDBRANCH  22  23
ENDBRANCH  20  22
ENDBRANCH  17  18
ENDBRANCH  16  17
ENDBRANCH  15  16
ENDBRANCH   1  15
TORSDOF 20
BEGIN_RES ARG D 557
REMARK  4 active torsions:
REMARK  status: ('A' for Active; 'I' for Inactive)
REMARK    1  A    between atoms: CA   and  CB  
REMARK    2  A    between atoms: CB   and  CG  
REMARK    3  A    between atoms: CG   and  CD  
REMARK    4  A    between atoms: CD   and  NE  
REMARK       I    between atoms: NE   and  CZ  
REMARK       I    between atoms: CZ   and  NH1 
REMARK       I    between atoms: CZ   and  NH2 
ROOT
ATOM      1  CA  ARG D 557     -26.217   2.705 -17.014  1.00 35.49     0.159 C 
ENDROOT
BRANCH   1   2
ATOM      2  CB  ARG D 557     -26.789   1.319 -17.183  1.00 35.49     0.034 C 
BRANCH   2   3
ATOM      3  CG  ARG D 557     -25.875   0.194 -16.950  1.00 35.49     0.027 C 
BRANCH   3   4
ATOM      4  CD  ARG D 557     -26.386  -0.745 -15.925  1.00 35.49     0.116 C 
BRANCH   4   5
ATOM      5  NE  ARG D 557     -25.430  -0.972 -14.873  1.00 35.49    -0.212 N 
ATOM      6  CZ  ARG D 557     -25.170  -2.131 -14.309  1.00 35.49     0.666 C 
ATOM      7  NH1 ARG D 557     -25.792  -3.243 -14.653  1.00 35.49    -0.235 N 
ATOM      8  NH2 ARG D 557     -24.255  -2.156 -13.384  1.00 35.49    -0.235 N 
ATOM      9  HH  ARG D 557     -26.396  -3.250 -15.261  1.00 35.49     0.174 HD
ATOM     10  HH  ARG D 557     -25.579  -3.969 -14.253  1.00 35.49     0.174 HD
ATOM     11  HH  ARG D 557     -23.864  -1.423 -13.188  1.00 35.49     0.174 HD
ATOM     12  HH  ARG D 557     -24.056  -2.885 -13.000  1.00 35.49     0.174 HD
ATOM     13  HE  ARG D 557     -25.034  -0.297 -14.540  1.00 35.49     0.178 HD
ENDBRANCH   4   5
ENDBRANCH   3   4
ENDBRANCH   2   3
ENDBRANCH   1   2
END_RES ARG D 557
BEGIN_RES GLU D 570
REMARK  3 active torsions:
REMARK  status: ('A' for Active; 'I' for Inactive)
REMARK    5  A    between atoms: CA   and  CB  
REMARK    6  A    between atoms: CB   and  CG  
REMARK    7  A    between atoms: CG   and  CD  
ROOT
ATOM     14  CA  GLU D 570     -18.033  -6.348 -13.375  1.00 32.92     0.160 C 
ENDROOT
BRANCH  14  15
ATOM     15  CB  GLU D 570     -19.500  -6.345 -13.794  1.00 32.92     0.043 C 
BRANCH  15  16
ATOM     16  CG  GLU D 570     -20.438  -5.512 -12.998  1.00 32.92     0.100 C 
BRANCH  16  17
ATOM     17  CD  GLU D 570     -21.739  -5.239 -13.716  1.00 32.92     0.185 C 
ATOM     18  OE1 GLU D 570     -22.268  -6.153 -14.377  1.00 32.92    -0.647 OA
ATOM     19  OE2 GLU D 570     -22.226  -4.095 -13.629  1.00 32.92    -0.647 OA
ENDBRANCH  16  17
ENDBRANCH  15  16
ENDBRANCH  14  15
END_RES GLU D 570
ENDMDL
MODEL 6
REMARK VINA RESULT:      -6.7      1.953      3.117
REMARK  20 active torsions:
REMARK  status: ('A' for Active; 'I' for Inactive)
REMARK    1  A    between atoms: C_2  and  C_3 
REMARK    2  A    between atoms: C_3  and  C_4 
REMARK    3  A    between atoms: C_4  and  C_5 
REMARK    4  A    between atoms: C_5  and  C_6 
REMARK    5  A    between atoms: C_6  and  C_7 
REMARK    6  A    between atoms: C_7  and  C_8 
REMARK    7  A    between atoms: C_8  and  C_9 
REMARK    8  A    between atoms: C_9  and  C_10 
REMARK    9  A    between atoms: C_10  and  C_11 
REMARK   10  A    between atoms: C_11  and  C_12 
REMARK   11  A    between atoms: C_12  and  C_13 
REMARK   12  A    between atoms: C_13  and  C_14 
REMARK   13  A    between atoms: C_14  and  C_15 
REMARK   14  A    between atoms: C_15  and  C_16 
REMARK   15  A    between atoms: C_16  and  C_17 
REMARK   16  A    between atoms: C_17  and  C_18 
REMARK       I    between atoms: C_18  and  N_20 
REMARK   17  A    between atoms: N_20  and  C_21 
REMARK   18  A    between atoms: C_21  and  C_22 
REMARK   19  A    between atoms: C_22  and  C_23 
REMARK   20  A    between atoms: C_23  and  N_24 
ROOT
HETATM    1  C   UNL     1     -20.911  -5.430  -5.371  1.00  0.00     0.000 C 
ENDROOT
BRANCH   1   2
HETATM    2  C   UNL     1     -21.683  -6.736  -5.458  1.00  0.00     0.000 C 
BRANCH   2   3
HETATM    3  C   UNL     1     -21.686  -7.442  -4.113  1.00  0.00     0.000 C 
BRANCH   3   4
HETATM    4  C   UNL     1     -21.285  -6.471  -3.016  1.00  0.00     0.000 C 
BRANCH   4   5
HETATM    5  C   UNL     1     -22.418  -6.318  -2.018  1.00  0.00     0.000 C 
BRANCH   5   6
HETATM    6  C   UNL     1     -22.022  -6.928  -0.687  1.00  0.00     0.000 C 
BRANCH   6   7
HETATM    7  C   UNL     1     -22.367  -8.406  -0.673  1.00  0.00     0.000 C 
BRANCH   7   8
HETATM    8  C   UNL     1     -21.460  -9.141   0.298  1.00  0.00     0.000 C 
BRANCH   8   9
HETATM    9  C   UNL     1     -21.168 -10.536  -0.223  1.00  0.00     0.000 C 
BRANCH   9  10
HETATM   10  C   UNL     1     -20.847 -10.480  -1.706  1.00  0.00     0.000 C 
BRANCH  10  11
HETATM   11  C   UNL     1     -19.341 -10.481  -1.915  1.00  0.00     0.000 C 
BRANCH  11  12
HETATM   12  C   UNL     1     -18.918  -9.243  -2.687  1.00  0.00    -0.000 C 
BRANCH  12  13
HETATM   13  C   UNL     1     -18.048  -9.624  -3.878  1.00  0.00    -0.005 C 
HETATM   14  C   UNL     1     -18.727  -9.237  -5.177  1.00  0.00     0.005 C 
ENDBRANCH  12  13
ENDBRANCH  11  12
ENDBRANCH  10  11
ENDBRANCH   9  10
ENDBRANCH   8   9
ENDBRANCH   7   8
ENDBRANCH   6   7
ENDBRANCH   5   6
ENDBRANCH   4   5
ENDBRANCH   3   4
ENDBRANCH   2   3
ENDBRANCH   1   2
BRANCH   1  15
HETATM   15  C   UNL     1     -19.806  -5.395  -6.425  1.00  0.00     0.000 C 
BRANCH  15  16
HETATM   16  C   UNL     1     -20.002  -4.217  -7.350  1.00  0.00     0.009 C 
BRANCH  16  17
HETATM   17  C   UNL     1     -21.445  -3.704  -7.369  1.00  0.00     0.103 C 
BRANCH  17  18
HETATM   18  C   UNL     1     -22.130  -4.129  -8.639  1.00  0.00     0.217 C 
HETATM   19  O   UNL     1     -21.517  -4.675  -9.561  1.00  0.00    -0.274 OA
HETATM   20  N   UNL     1     -23.482  -3.869  -8.696  1.00  0.00    -0.361 N 
HETATM   21  H   UNL     1     -23.968  -3.441  -7.915  1.00  0.00     0.162 HD
BRANCH  20  22
HETATM   22  C   UNL     1     -24.243  -4.276  -9.857  1.00  0.00     0.124 C 
BRANCH  22  23
HETATM   23  C   UNL     1     -24.324  -3.173 -10.914  1.00  0.00     0.050 C 
BRANCH  23  24
HETATM   24  C   UNL     1     -24.033  -3.696 -12.330  1.00  0.00     0.273 C 
BRANCH  24  25
HETATM   25  N   UNL     1     -24.091  -2.632 -13.349  1.00  0.00     0.080 N 
HETATM   26  C   UNL     1     -23.002  -2.772 -14.329  1.00  0.00     0.309 C 
HETATM   27  C   UNL     1     -25.373  -2.685 -14.062  1.00  0.00     0.309 C 
ENDBRANCH  24  25
ENDBRANCH  23  24
ENDBRANCH  22  23
ENDBRANCH  20  22
ENDBRANCH  17  18
ENDBRANCH  16  17
ENDBRANCH  15  16
ENDBRANCH   1  15
TORSDOF 20
BEGIN_RES ARG D 557
REMARK  4 active torsions:
REMARK  status: ('A' for Active; 'I' for Inactive)
REMARK    1  A    between atoms: CA   and  CB  
REMARK    2  A    between atoms: CB   and  CG  
REMARK    3  A    between atoms: CG   and  CD  
REMARK    4  A    between atoms: CD   and  NE  
REMARK       I    between atoms: NE   and  CZ  
REMARK       I    between atoms: CZ   and  NH1 
REMARK       I    between atoms: CZ   and  NH2 
ROOT
ATOM      1  CA  ARG D 557     -26.217   2.705 -17.014  1.00 35.49     0.159 C 
ENDROOT
BRANCH   1   2
ATOM      2  CB  ARG D 557     -26.789   1.319 -17.183  1.00 35.49     0.034 C 
BRANCH   2   3
ATOM      3  CG  ARG D 557     -28.155   1.103 -16.691  1.00 35.49     0.027 C 
BRANCH   3   4
ATOM      4  CD  ARG D 557     -28.789  -0.092 -17.291  1.00 35.49     0.116 C 
BRANCH   4   5
ATOM      5  NE  ARG D 557     -28.179  -1.315 -16.839  1.00 35.49    -0.212 N 
ATOM      6  CZ  ARG D 557     -28.654  -2.526 -17.027  1.00 35.49     0.666 C 
ATOM      7  NH1 ARG D 557     -29.789  -2.751 -17.662  1.00 35.49    -0.235 N 
ATOM      8  NH2 ARG D 557     -27.957  -3.523 -16.565  1.00 35.49    -0.235 N 
ATOM      9  HH  ARG D 557     -30.264  -2.110 -17.976  1.00 35.49     0.174 HD
ATOM     10  HH  ARG D 557     -30.048  -3.563 -17.757  1.00 35.49     0.174 HD
ATOM     11  HH  ARG D 557     -27.224  -3.347 -16.166  1.00 35.49     0.174 HD
ATOM     12  HH  ARG D 557     -28.229  -4.319 -16.671  1.00 35.49     0.174 HD
ATOM     13  HE  ARG D 557     -27.481  -1.258 -16.357  1.00 35.49     0.178 HD
ENDBRANCH   4   5
ENDBRANCH   3   4
ENDBRANCH   2   3
ENDBRANCH   1   2
END_RES ARG D 557
BEGIN_RES GLU D 570
REMARK  3 active torsions:
REMARK  status: ('A' for Active; 'I' for Inactive)
REMARK    5  A    between atoms: CA   and  CB  
REMARK    6  A    between atoms: CB   and  CG  
REMARK    7  A    between atoms: CG   and  CD  
ROOT
ATOM     14  CA  GLU D 570     -18.033  -6.348 -13.375  1.00 32.92     0.160 C 
ENDROOT
BRANCH  14  15
ATOM     15  CB  GLU D 570     -19.500  -6.345 -13.794  1.00 32.92     0.043 C 
BRANCH  15  16
ATOM     16  CG  GLU D 570     -20.058  -7.608 -14.342  1.00 32.92     0.100 C 
BRANCH  16  17
ATOM     17  CD  GLU D 570     -20.768  -7.415 -15.662  1.00 32.92     0.185 C 
ATOM     18  OE1 GLU D 570     -21.581  -8.279 -16.044  1.00 32.92    -0.647 OA
ATOM     19  OE2 GLU D 570     -20.496  -6.398 -16.328  1.00 32.92    -0.647 OA
ENDBRANCH  16  17
ENDBRANCH  15  16
ENDBRANCH  14  15
END_RES GLU D 570
ENDMDL
MODEL 7
REMARK VINA RESULT:      -6.7      2.076      3.672
REMARK  20 active torsions:
REMARK  status: ('A' for Active; 'I' for Inactive)
REMARK    1  A    between atoms: C_2  and  C_3 
REMARK    2  A    between atoms: C_3  and  C_4 
REMARK    3  A    between atoms: C_4  and  C_5 
REMARK    4  A    between atoms: C_5  and  C_6 
REMARK    5  A    between atoms: C_6  and  C_7 
REMARK    6  A    between atoms: C_7  and  C_8 
REMARK    7  A    between atoms: C_8  and  C_9 
REMARK    8  A    between atoms: C_9  and  C_10 
REMARK    9  A    between atoms: C_10  and  C_11 
REMARK   10  A    between atoms: C_11  and  C_12 
REMARK   11  A    between atoms: C_12  and  C_13 
REMARK   12  A    between atoms: C_13  and  C_14 
REMARK   13  A    between atoms: C_14  and  C_15 
REMARK   14  A    between atoms: C_15  and  C_16 
REMARK   15  A    between atoms: C_16  and  C_17 
REMARK   16  A    between atoms: C_17  and  C_18 
REMARK       I    between atoms: C_18  and  N_20 
REMARK   17  A    between atoms: N_20  and  C_21 
REMARK   18  A    between atoms: C_21  and  C_22 
REMARK   19  A    between atoms: C_22  and  C_23 
REMARK   20  A    between atoms: C_23  and  N_24 
ROOT
HETATM    1  C   UNL     1     -22.234  -6.347  -2.329  1.00  0.00     0.000 C 
ENDROOT
BRANCH   1   2
HETATM    2  C   UNL     1     -22.271  -6.903  -0.915  1.00  0.00     0.000 C 
BRANCH   2   3
HETATM    3  C   UNL     1     -21.158  -7.918  -0.714  1.00  0.00     0.000 C 
BRANCH   3   4
HETATM    4  C   UNL     1     -21.650  -9.064   0.154  1.00  0.00     0.000 C 
BRANCH   4   5
HETATM    5  C   UNL     1     -23.161  -9.001   0.289  1.00  0.00     0.000 C 
BRANCH   5   6
HETATM    6  C   UNL     1     -23.775 -10.320  -0.142  1.00  0.00     0.000 C 
BRANCH   6   7
HETATM    7  C   UNL     1     -22.725 -11.182  -0.818  1.00  0.00     0.000 C 
BRANCH   7   8
HETATM    8  C   UNL     1     -23.143 -11.482  -2.247  1.00  0.00     0.000 C 
BRANCH   8   9
HETATM    9  C   UNL     1     -22.370 -10.596  -3.207  1.00  0.00     0.000 C 
BRANCH   9  10
HETATM   10  C   UNL     1     -20.878 -10.796  -3.013  1.00  0.00     0.000 C 
BRANCH  10  11
HETATM   11  C   UNL     1     -20.141 -10.519  -4.313  1.00  0.00     0.000 C 
BRANCH  11  12
HETATM   12  C   UNL     1     -21.115 -10.528  -5.480  1.00  0.00    -0.000 C 
BRANCH  12  13
HETATM   13  C   UNL     1     -20.853 -11.722  -6.388  1.00  0.00    -0.005 C 
HETATM   14  C   UNL     1     -22.041 -12.664  -6.383  1.00  0.00     0.005 C 
ENDBRANCH  12  13
ENDBRANCH  11  12
ENDBRANCH  10  11
ENDBRANCH   9  10
ENDBRANCH   8   9
ENDBRANCH   7   8
ENDBRANCH   6   7
ENDBRANCH   5   6
ENDBRANCH   4   5
ENDBRANCH   3   4
ENDBRANCH   2   3
ENDBRANCH   1   2
BRANCH   1  15
HETATM   15  C   UNL     1     -21.185  -7.082  -3.161  1.00  0.00     0.000 C 
BRANCH  15  16
HETATM   16  C   UNL     1     -21.460  -6.893  -4.635  1.00  0.00     0.009 C 
BRANCH  16  17
HETATM   17  C   UNL     1     -20.872  -5.592  -5.191  1.00  0.00     0.103 C 
BRANCH  17  18
HETATM   18  C   UNL     1     -20.885  -5.618  -6.695  1.00  0.00     0.217 C 
HETATM   19  O   UNL     1     -20.124  -6.342  -7.343  1.00  0.00    -0.274 OA
HETATM   20  N   UNL     1     -21.803  -4.782  -7.292  1.00  0.00    -0.361 N 
HETATM   21  H   UNL     1     -22.434  -4.213  -6.737  1.00  0.00     0.162 HD
BRANCH  20  22
HETATM   22  C   UNL     1     -21.925  -4.762  -8.733  1.00  0.00     0.124 C 
BRANCH  22  23
HETATM   23  C   UNL     1     -23.295  -4.258  -9.193  1.00  0.00     0.050 C 
BRANCH  23  24
HETATM   24  C   UNL     1     -23.761  -4.933 -10.493  1.00  0.00     0.273 C 
BRANCH  24  25
HETATM   25  N   UNL     1     -23.358  -4.182 -11.695  1.00  0.00     0.080 N 
HETATM   26  C   UNL     1     -23.248  -5.068 -12.866  1.00  0.00     0.309 C 
HETATM   27  C   UNL     1     -24.344  -3.135 -11.991  1.00  0.00     0.309 C 
ENDBRANCH  24  25
ENDBRANCH  23  24
ENDBRANCH  22  23
ENDBRANCH  20  22
ENDBRANCH  17  18
ENDBRANCH  16  17
ENDBRANCH  15  16
ENDBRANCH   1  15
TORSDOF 20
BEGIN_RES ARG D 557
REMARK  4 active torsions:
REMARK  status: ('A' for Active; 'I' for Inactive)
REMARK    1  A    between atoms: CA   and  CB  
REMARK    2  A    between atoms: CB   and  CG  
REMARK    3  A    between atoms: CG   and  CD  
REMARK    4  A    between atoms: CD   and  NE  
REMARK       I    between atoms: NE   and  CZ  
REMARK       I    between atoms: CZ   and  NH1 
REMARK       I    between atoms: CZ   and  NH2 
ROOT
ATOM      1  CA  ARG D 557     -26.217   2.705 -17.014  1.00 35.49     0.159 C 
ENDROOT
BRANCH   1   2
ATOM      2  CB  ARG D 557     -26.789   1.319 -17.183  1.00 35.49     0.034 C 
BRANCH   2   3
ATOM      3  CG  ARG D 557     -28.232   1.226 -17.438  1.00 35.49     0.027 C 
BRANCH   3   4
ATOM      4  CD  ARG D 557     -28.912   0.302 -16.502  1.00 35.49     0.116 C 
BRANCH   4   5
ATOM      5  NE  ARG D 557     -29.319  -0.919 -17.146  1.00 35.49    -0.212 N 
ATOM      6  CZ  ARG D 557     -28.709  -2.079 -17.049  1.00 35.49     0.666 C 
ATOM      7  NH1 ARG D 557     -27.611  -2.246 -16.335  1.00 35.49    -0.235 N 
ATOM      8  NH2 ARG D 557     -29.232  -3.087 -17.685  1.00 35.49    -0.235 N 
ATOM      9  HH  ARG D 557     -27.251  -1.597 -15.907  1.00 35.49     0.174 HD
ATOM     10  HH  ARG D 557     -27.259  -3.026 -16.307  1.00 35.49     0.174 HD
ATOM     11  HH  ARG D 557     -29.946  -2.952 -18.132  1.00 35.49     0.174 HD
ATOM     12  HH  ARG D 557     -28.869  -3.852 -17.643  1.00 35.49     0.174 HD
ATOM     13  HE  ARG D 557     -29.977  -0.886 -17.684  1.00 35.49     0.178 HD
ENDBRANCH   4   5
ENDBRANCH   3   4
ENDBRANCH   2   3
ENDBRANCH   1   2
END_RES ARG D 557
BEGIN_RES GLU D 570
REMARK  3 active torsions:
REMARK  status: ('A' for Active; 'I' for Inactive)
REMARK    5  A    between atoms: CA   and  CB  
REMARK    6  A    between atoms: CB   and  CG  
REMARK    7  A    between atoms: CG   and  CD  
ROOT
ATOM     14  CA  GLU D 570     -18.033  -6.348 -13.375  1.00 32.92     0.160 C 
ENDROOT
BRANCH  14  15
ATOM     15  CB  GLU D 570     -19.500  -6.345 -13.794  1.00 32.92     0.043 C 
BRANCH  15  16
ATOM     16  CG  GLU D 570     -19.797  -6.258 -15.247  1.00 32.92     0.100 C 
BRANCH  16  17
ATOM     17  CD  GLU D 570     -20.789  -7.299 -15.710  1.00 32.92     0.185 C 
ATOM     18  OE1 GLU D 570     -21.762  -6.942 -16.402  1.00 32.92    -0.647 OA
ATOM     19  OE2 GLU D 570     -20.600  -8.481 -15.362  1.00 32.92    -0.647 OA
ENDBRANCH  16  17
ENDBRANCH  15  16
ENDBRANCH  14  15
END_RES GLU D 570
ENDMDL
MODEL 8
REMARK VINA RESULT:      -6.6      2.542      4.776
REMARK  20 active torsions:
REMARK  status: ('A' for Active; 'I' for Inactive)
REMARK    1  A    between atoms: C_2  and  C_3 
REMARK    2  A    between atoms: C_3  and  C_4 
REMARK    3  A    between atoms: C_4  and  C_5 
REMARK    4  A    between atoms: C_5  and  C_6 
REMARK    5  A    between atoms: C_6  and  C_7 
REMARK    6  A    between atoms: C_7  and  C_8 
REMARK    7  A    between atoms: C_8  and  C_9 
REMARK    8  A    between atoms: C_9  and  C_10 
REMARK    9  A    between atoms: C_10  and  C_11 
REMARK   10  A    between atoms: C_11  and  C_12 
REMARK   11  A    between atoms: C_12  and  C_13 
REMARK   12  A    between atoms: C_13  and  C_14 
REMARK   13  A    between atoms: C_14  and  C_15 
REMARK   14  A    between atoms: C_15  and  C_16 
REMARK   15  A    between atoms: C_16  and  C_17 
REMARK   16  A    between atoms: C_17  and  C_18 
REMARK       I    between atoms: C_18  and  N_20 
REMARK   17  A    between atoms: N_20  and  C_21 
REMARK   18  A    between atoms: C_21  and  C_22 
REMARK   19  A    between atoms: C_22  and  C_23 
REMARK   20  A    between atoms: C_23  and  N_24 
ROOT
HETATM    1  C   UNL     1     -22.334  -6.743  -1.333  1.00  0.00     0.000 C 
ENDROOT
BRANCH   1   2
HETATM    2  C   UNL     1     -22.002  -7.483  -0.047  1.00  0.00     0.000 C 
BRANCH   2   3
HETATM    3  C   UNL     1     -23.109  -8.464   0.302  1.00  0.00     0.000 C 
BRANCH   3   4
HETATM    4  C   UNL     1     -22.680  -9.878  -0.052  1.00  0.00     0.000 C 
BRANCH   4   5
HETATM    5  C   UNL     1     -23.884 -10.802  -0.046  1.00  0.00     0.000 C 
BRANCH   5   6
HETATM    6  C   UNL     1     -24.028 -11.474  -1.399  1.00  0.00     0.000 C 
BRANCH   6   7
HETATM    7  C   UNL     1     -22.705 -11.430  -2.141  1.00  0.00     0.000 C 
BRANCH   7   8
HETATM    8  C   UNL     1     -22.923 -10.938  -3.560  1.00  0.00     0.000 C 
BRANCH   8   9
HETATM    9  C   UNL     1     -21.591 -10.827  -4.279  1.00  0.00     0.000 C 
BRANCH   9  10
HETATM   10  C   UNL     1     -20.465 -10.695  -3.269  1.00  0.00     0.000 C 
BRANCH  10  11
HETATM   11  C   UNL     1     -19.289  -9.960  -3.891  1.00  0.00     0.000 C 
BRANCH  11  12
HETATM   12  C   UNL     1     -18.411  -9.360  -2.805  1.00  0.00    -0.000 C 
BRANCH  12  13
HETATM   13  C   UNL     1     -17.164 -10.208  -2.594  1.00  0.00    -0.005 C 
HETATM   14  C   UNL     1     -15.921  -9.428  -2.978  1.00  0.00     0.005 C 
ENDBRANCH  12  13
ENDBRANCH  11  12
ENDBRANCH  10  11
ENDBRANCH   9  10
ENDBRANCH   8   9
ENDBRANCH   7   8
ENDBRANCH   6   7
ENDBRANCH   5   6
ENDBRANCH   4   5
ENDBRANCH   3   4
ENDBRANCH   2   3
ENDBRANCH   1   2
BRANCH   1  15
HETATM   15  C   UNL     1     -21.493  -7.283  -2.488  1.00  0.00     0.000 C 
BRANCH  15  16
HETATM   16  C   UNL     1     -21.592  -6.363  -3.682  1.00  0.00     0.009 C 
BRANCH  16  17
HETATM   17  C   UNL     1     -21.652  -7.116  -5.014  1.00  0.00     0.103 C 
BRANCH  17  18
HETATM   18  C   UNL     1     -20.677  -6.521  -5.992  1.00  0.00     0.217 C 
HETATM   19  O   UNL     1     -19.728  -7.168  -6.445  1.00  0.00    -0.274 OA
HETATM   20  N   UNL     1     -20.918  -5.211  -6.343  1.00  0.00    -0.361 N 
HETATM   21  H   UNL     1     -21.718  -4.707  -5.974  1.00  0.00     0.162 HD
BRANCH  20  22
HETATM   22  C   UNL     1     -20.062  -4.557  -7.309  1.00  0.00     0.124 C 
BRANCH  22  23
HETATM   23  C   UNL     1     -20.658  -4.573  -8.718  1.00  0.00     0.050 C 
BRANCH  23  24
HETATM   24  C   UNL     1     -22.168  -4.287  -8.718  1.00  0.00     0.273 C 
BRANCH  24  25
HETATM   25  N   UNL     1     -22.830  -4.745  -9.953  1.00  0.00     0.080 N 
HETATM   26  C   UNL     1     -24.183  -4.179 -10.076  1.00  0.00     0.309 C 
HETATM   27  C   UNL     1     -22.045  -4.342 -11.126  1.00  0.00     0.309 C 
ENDBRANCH  24  25
ENDBRANCH  23  24
ENDBRANCH  22  23
ENDBRANCH  20  22
ENDBRANCH  17  18
ENDBRANCH  16  17
ENDBRANCH  15  16
ENDBRANCH   1  15
TORSDOF 20
BEGIN_RES ARG D 557
REMARK  4 active torsions:
REMARK  status: ('A' for Active; 'I' for Inactive)
REMARK    1  A    between atoms: CA   and  CB  
REMARK    2  A    between atoms: CB   and  CG  
REMARK    3  A    between atoms: CG   and  CD  
REMARK    4  A    between atoms: CD   and  NE  
REMARK       I    between atoms: NE   and  CZ  
REMARK       I    between atoms: CZ   and  NH1 
REMARK       I    between atoms: CZ   and  NH2 
ROOT
ATOM      1  CA  ARG D 557     -26.217   2.705 -17.014  1.00 35.49     0.159 C 
ENDROOT
BRANCH   1   2
ATOM      2  CB  ARG D 557     -26.789   1.319 -17.183  1.00 35.49     0.034 C 
BRANCH   2   3
ATOM      3  CG  ARG D 557     -25.838   0.202 -17.135  1.00 35.49     0.027 C 
BRANCH   3   4
ATOM      4  CD  ARG D 557     -24.749   0.429 -16.159  1.00 35.49     0.116 C 
BRANCH   4   5
ATOM      5  NE  ARG D 557     -24.858  -0.436 -15.014  1.00 35.49    -0.212 N 
ATOM      6  CZ  ARG D 557     -24.018  -1.395 -14.693  1.00 35.49     0.666 C 
ATOM      7  NH1 ARG D 557     -22.958  -1.683 -15.424  1.00 35.49    -0.235 N 
ATOM      8  NH2 ARG D 557     -24.262  -2.068 -13.606  1.00 35.49    -0.235 N 
ATOM      9  HH  ARG D 557     -22.777  -1.252 -16.142  1.00 35.49     0.174 HD
ATOM     10  HH  ARG D 557     -22.444  -2.318 -15.164  1.00 35.49     0.174 HD
ATOM     11  HH  ARG D 557     -24.951  -1.855 -13.149  1.00 35.49     0.174 HD
ATOM     12  HH  ARG D 557     -23.741  -2.691 -13.364  1.00 35.49     0.174 HD
ATOM     13  HE  ARG D 557     -25.552  -0.369 -14.527  1.00 35.49     0.178 HD
ENDBRANCH   4   5
ENDBRANCH   3   4
ENDBRANCH   2   3
ENDBRANCH   1   2
END_RES ARG D 557
BEGIN_RES GLU D 570
REMARK  3 active torsions:
REMARK  status: ('A' for Active; 'I' for Inactive)
REMARK    5  A    between atoms: CA   and  CB  
REMARK    6  A    between atoms: CB   and  CG  
REMARK    7  A    between atoms: CG   and  CD  
ROOT
ATOM     14  CA  GLU D 570     -18.033  -6.348 -13.375  1.00 32.92     0.160 C 
ENDROOT
BRANCH  14  15
ATOM     15  CB  GLU D 570     -19.500  -6.345 -13.794  1.00 32.92     0.043 C 
BRANCH  15  16
ATOM     16  CG  GLU D 570     -19.797  -6.230 -15.245  1.00 32.92     0.100 C 
BRANCH  16  17
ATOM     17  CD  GLU D 570     -20.707  -7.326 -15.749  1.00 32.92     0.185 C 
ATOM     18  OE1 GLU D 570     -20.597  -8.471 -15.271  1.00 32.92    -0.647 OA
ATOM     19  OE2 GLU D 570     -21.527  -7.040 -16.644  1.00 32.92    -0.647 OA
ENDBRANCH  16  17
ENDBRANCH  15  16
ENDBRANCH  14  15
END_RES GLU D 570
ENDMDL
MODEL 9
REMARK VINA RESULT:      -6.5      2.166      4.671
REMARK  20 active torsions:
REMARK  status: ('A' for Active; 'I' for Inactive)
REMARK    1  A    between atoms: C_2  and  C_3 
REMARK    2  A    between atoms: C_3  and  C_4 
REMARK    3  A    between atoms: C_4  and  C_5 
REMARK    4  A    between atoms: C_5  and  C_6 
REMARK    5  A    between atoms: C_6  and  C_7 
REMARK    6  A    between atoms: C_7  and  C_8 
REMARK    7  A    between atoms: C_8  and  C_9 
REMARK    8  A    between atoms: C_9  and  C_10 
REMARK    9  A    between atoms: C_10  and  C_11 
REMARK   10  A    between atoms: C_11  and  C_12 
REMARK   11  A    between atoms: C_12  and  C_13 
REMARK   12  A    between atoms: C_13  and  C_14 
REMARK   13  A    between atoms: C_14  and  C_15 
REMARK   14  A    between atoms: C_15  and  C_16 
REMARK   15  A    between atoms: C_16  and  C_17 
REMARK   16  A    between atoms: C_17  and  C_18 
REMARK       I    between atoms: C_18  and  N_20 
REMARK   17  A    between atoms: N_20  and  C_21 
REMARK   18  A    between atoms: C_21  and  C_22 
REMARK   19  A    between atoms: C_22  and  C_23 
REMARK   20  A    between atoms: C_23  and  N_24 
ROOT
HETATM    1  C   UNL     1     -21.634  -7.780  -0.916  1.00  0.00     0.000 C 
ENDROOT
BRANCH   1   2
HETATM    2  C   UNL     1     -22.663  -8.390   0.021  1.00  0.00     0.000 C 
BRANCH   2   3
HETATM    3  C   UNL     1     -22.546  -9.905   0.024  1.00  0.00     0.000 C 
BRANCH   3   4
HETATM    4  C   UNL     1     -23.929 -10.533  -0.012  1.00  0.00     0.000 C 
BRANCH   4   5
HETATM    5  C   UNL     1     -23.992 -11.588  -1.101  1.00  0.00     0.000 C 
BRANCH   5   6
HETATM    6  C   UNL     1     -23.361 -11.056  -2.374  1.00  0.00     0.000 C 
BRANCH   6   7
HETATM    7  C   UNL     1     -22.528 -12.142  -3.031  1.00  0.00     0.000 C 
BRANCH   7   8
HETATM    8  C   UNL     1     -21.800 -11.578  -4.237  1.00  0.00     0.000 C 
BRANCH   8   9
HETATM    9  C   UNL     1     -21.022 -10.338  -3.838  1.00  0.00     0.000 C 
BRANCH   9  10
HETATM   10  C   UNL     1     -20.287  -9.776  -5.041  1.00  0.00     0.000 C 
BRANCH  10  11
HETATM   11  C   UNL     1     -19.019  -9.066  -4.595  1.00  0.00     0.000 C 
BRANCH  11  12
HETATM   12  C   UNL     1     -18.861  -9.176  -3.087  1.00  0.00    -0.000 C 
BRANCH  12  13
HETATM   13  C   UNL     1     -17.513  -9.789  -2.732  1.00  0.00    -0.005 C 
HETATM   14  C   UNL     1     -16.561  -9.695  -3.909  1.00  0.00     0.005 C 
ENDBRANCH  12  13
ENDBRANCH  11  12
ENDBRANCH  10  11
ENDBRANCH   9  10
ENDBRANCH   8   9
ENDBRANCH   7   8
ENDBRANCH   6   7
ENDBRANCH   5   6
ENDBRANCH   4   5
ENDBRANCH   3   4
ENDBRANCH   2   3
ENDBRANCH   1   2
BRANCH   1  15
HETATM   15  C   UNL     1     -22.231  -6.584  -1.655  1.00  0.00     0.000 C 
BRANCH  15  16
HETATM   16  C   UNL     1     -21.412  -6.265  -2.884  1.00  0.00     0.009 C 
BRANCH  16  17
HETATM   17  C   UNL     1     -22.054  -6.771  -4.179  1.00  0.00     0.103 C 
BRANCH  17  18
HETATM   18  C   UNL     1     -21.769  -5.818  -5.307  1.00  0.00     0.217 C 
HETATM   19  O   UNL     1     -22.671  -5.321  -5.988  1.00  0.00    -0.274 OA
HETATM   20  N   UNL     1     -20.437  -5.539  -5.522  1.00  0.00    -0.361 N 
HETATM   21  H   UNL     1     -19.714  -5.942  -4.934  1.00  0.00     0.162 HD
BRANCH  20  22
HETATM   22  C   UNL     1     -20.057  -4.602  -6.556  1.00  0.00     0.124 C 
BRANCH  22  23
HETATM   23  C   UNL     1     -19.997  -5.255  -7.939  1.00  0.00     0.050 C 
BRANCH  23  24
HETATM   24  C   UNL     1     -20.103  -4.227  -9.077  1.00  0.00     0.273 C 
BRANCH  24  25
HETATM   25  N   UNL     1     -21.309  -4.418  -9.901  1.00  0.00     0.080 N 
HETATM   26  C   UNL     1     -22.471  -3.732  -9.315  1.00  0.00     0.309 C 
HETATM   27  C   UNL     1     -21.086  -3.889 -11.253  1.00  0.00     0.309 C 
ENDBRANCH  24  25
ENDBRANCH  23  24
ENDBRANCH  22  23
ENDBRANCH  20  22
ENDBRANCH  17  18
ENDBRANCH  16  17
ENDBRANCH  15  16
ENDBRANCH   1  15
TORSDOF 20
BEGIN_RES ARG D 557
REMARK  4 active torsions:
REMARK  status: ('A' for Active; 'I' for Inactive)
REMARK    1  A    between atoms: CA   and  CB  
REMARK    2  A    between atoms: CB   and  CG  
REMARK    3  A    between atoms: CG   and  CD  
REMARK    4  A    between atoms: CD   and  NE  
REMARK       I    between atoms: NE   and  CZ  
REMARK       I    between atoms: CZ   and  NH1 
REMARK       I    between atoms: CZ   and  NH2 
ROOT
ATOM      1  CA  ARG D 557     -26.217   2.705 -17.014  1.00 35.49     0.159 C 
ENDROOT
BRANCH   1   2
ATOM      2  CB  ARG D 557     -26.789   1.319 -17.183  1.00 35.49     0.034 C 
BRANCH   2   3
ATOM      3  CG  ARG D 557     -28.231   1.226 -17.442  1.00 35.49     0.027 C 
BRANCH   3   4
ATOM      4  CD  ARG D 557     -28.915   0.311 -16.500  1.00 35.49     0.116 C 
BRANCH   4   5
ATOM      5  NE  ARG D 557     -29.293  -0.928 -17.127  1.00 35.49    -0.212 N 
ATOM      6  CZ  ARG D 557     -28.652  -2.070 -17.019  1.00 35.49     0.666 C 
ATOM      7  NH1 ARG D 557     -27.547  -2.199 -16.309  1.00 35.49    -0.235 N 
ATOM      8  NH2 ARG D 557     -29.151  -3.100 -17.640  1.00 35.49    -0.235 N 
ATOM      9  HH  ARG D 557     -27.202  -1.535 -15.890  1.00 35.49     0.174 HD
ATOM     10  HH  ARG D 557     -27.173  -2.969 -16.273  1.00 35.49     0.174 HD
ATOM     11  HH  ARG D 557     -29.870  -2.989 -18.085  1.00 35.49     0.174 HD
ATOM     12  HH  ARG D 557     -28.767  -3.854 -17.590  1.00 35.49     0.174 HD
ATOM     13  HE  ARG D 557     -29.954  -0.920 -17.662  1.00 35.49     0.178 HD
ENDBRANCH   4   5
ENDBRANCH   3   4
ENDBRANCH   2   3
ENDBRANCH   1   2
END_RES ARG D 557
BEGIN_RES GLU D 570
REMARK  3 active torsions:
REMARK  status: ('A' for Active; 'I' for Inactive)
REMARK    5  A    between atoms: CA   and  CB  
REMARK    6  A    between atoms: CB   and  CG  
REMARK    7  A    between atoms: CG   and  CD  
ROOT
ATOM     14  CA  GLU D 570     -18.033  -6.348 -13.375  1.00 32.92     0.160 C 
ENDROOT
BRANCH  14  15
ATOM     15  CB  GLU D 570     -19.500  -6.345 -13.794  1.00 32.92     0.043 C 
BRANCH  15  16
ATOM     16  CG  GLU D 570     -19.798  -6.209 -15.243  1.00 32.92     0.100 C 
BRANCH  16  17
ATOM     17  CD  GLU D 570     -21.069  -5.438 -15.514  1.00 32.92     0.185 C 
ATOM     18  OE1 GLU D 570     -21.376  -5.173 -16.692  1.00 32.92    -0.647 OA
ATOM     19  OE2 GLU D 570     -21.755  -5.081 -14.537  1.00 32.92    -0.647 OA
ENDBRANCH  16  17
ENDBRANCH  15  16
ENDBRANCH  14  15
END_RES GLU D 570
ENDMDL
