MODEL 1
REMARK VINA RESULT:      -6.9      0.000      0.000
REMARK WARNING: 32 MAX_TORS EXCEEDED!!!
REMARK  60 active torsions:
REMARK  status: ('A' for Active; 'I' for Inactive)
REMARK    1  A    between atoms: C_2  and  C_3 
REMARK    2  A    between atoms: C_3  and  C_4 
REMARK    3  A    between atoms: C_4  and  C_5 
REMARK    4  A    between atoms: C_5  and  C_6 
REMARK    5  A    between atoms: C_6  and  C_7 
REMARK    6  A    between atoms: C_7  and  C_8 
REMARK    7  A    between atoms: C_7  and  O_73 
REMARK    8  A    between atoms: C_8  and  C_9 
REMARK    9  A    between atoms: C_10  and  C_11 
REMARK   10  A    between atoms: C_11  and  C_12 
REMARK   11  A    between atoms: C_12  and  C_13 
REMARK   12  A    between atoms: C_13  and  C_14 
REMARK   13  A    between atoms: C_14  and  C_15 
REMARK   14  A    between atoms: C_15  and  C_16 
REMARK   15  A    between atoms: C_16  and  C_17 
REMARK   16  A    between atoms: C_17  and  C_18 
REMARK   17  A    between atoms: C_18  and  O_20 
REMARK   18  A    between atoms: O_20  and  C_21 
REMARK   19  A    between atoms: C_21  and  C_22 
REMARK   20  A    between atoms: C_22  and  C_23 
REMARK   21  A    between atoms: C_22  and  O_52 
REMARK   22  A    between atoms: C_23  and  O_24 
REMARK   23  A    between atoms: O_24  and  C_25 
REMARK   24  A    between atoms: C_25  and  C_27 
REMARK   25  A    between atoms: C_27  and  C_28 
REMARK   26  A    between atoms: C_28  and  C_29 
REMARK   27  A    between atoms: C_29  and  C_30 
REMARK   28  A    between atoms: C_30  and  C_31 
REMARK   29  A    between atoms: C_31  and  C_32 
REMARK   30  A    between atoms: C_32  and  C_33 
REMARK   31  A    between atoms: C_33  and  C_34 
REMARK   32  A    between atoms: C_35  and  C_36 
REMARK   33  A    between atoms: C_36  and  C_37 
REMARK   34  A    between atoms: C_37  and  C_38 
REMARK   35  A    between atoms: C_37  and  O_44 
REMARK   36  A    between atoms: C_38  and  C_39 
REMARK   37  A    between atoms: C_39  and  C_40 
REMARK   38  A    between atoms: C_40  and  C_41 
REMARK   39  A    between atoms: C_41  and  C_42 
REMARK   40  A    between atoms: O_44  and  C_45 
REMARK   41  A    between atoms: C_45  and  C_47 
REMARK   42  A    between atoms: C_48  and  C_49 
REMARK   43  A    between atoms: C_49  and  O_51 
REMARK   44  A    between atoms: O_52  and  C_53 
REMARK   45  A    between atoms: C_53  and  C_55 
REMARK   46  A    between atoms: C_55  and  C_56 
REMARK   47  A    between atoms: C_56  and  C_57 
REMARK   48  A    between atoms: C_57  and  C_58 
REMARK   49  A    between atoms: C_58  and  C_59 
REMARK   50  A    between atoms: C_59  and  C_60 
REMARK   51  A    between atoms: C_60  and  C_61 
REMARK   52  A    between atoms: C_61  and  C_62 
REMARK   53  A    between atoms: C_63  and  C_64 
REMARK   54  A    between atoms: C_64  and  C_65 
REMARK   55  A    between atoms: C_65  and  C_66 
REMARK   56  A    between atoms: C_65  and  O_72 
REMARK   57  A    between atoms: C_66  and  C_67 
REMARK   58  A    between atoms: C_67  and  C_68 
REMARK   59  A    between atoms: C_68  and  C_69 
REMARK   60  A    between atoms: C_69  and  C_70 
ROOT
HETATM    1  C   UNL     1     -21.560  -7.390  -5.366  1.00  0.00     0.180 C 
ENDROOT
BRANCH   1   2
HETATM    2  C   UNL     1     -21.946  -6.549  -4.138  1.00  0.00     0.213 C 
BRANCH   2   3
HETATM    3  O   UNL     1     -21.053  -6.786  -3.036  1.00  0.00    -0.319 OA
BRANCH   3   4
HETATM    4  C   UNL     1     -21.638  -6.953  -1.815  1.00  0.00     0.258 C 
HETATM    5  O   UNL     1     -22.648  -6.359  -1.457  1.00  0.00    -0.265 OA
BRANCH   4   6
HETATM    6  C   UNL     1     -20.875  -7.962  -1.013  1.00  0.00     0.111 C 
BRANCH   6   7
HETATM    7  C   UNL     1     -21.698  -8.420   0.187  1.00  0.00     0.010 C 
BRANCH   7   8
HETATM    8  C   UNL     1     -21.967  -9.920   0.170  1.00  0.00     0.000 C 
BRANCH   8   9
HETATM    9  C   UNL     1     -23.380 -10.196  -0.342  1.00  0.00     0.000 C 
BRANCH   9  10
HETATM   10  C   UNL     1     -23.813 -11.626  -0.041  1.00  0.00     0.000 C 
BRANCH  10  11
HETATM   11  C   UNL     1     -24.144 -12.365  -1.333  1.00  0.00     0.004 C 
BRANCH  11  12
HETATM   12  C   UNL     1     -24.214 -13.873  -1.107  1.00  0.00     0.027 C 
BRANCH  12  13
HETATM   13  C   UNL     1     -23.409 -14.566  -2.168  1.00  0.00    -0.031 C 
HETATM   14  C   UNL     1     -23.450 -14.209  -3.456  1.00  0.00    -0.028 C 
BRANCH  14  15
HETATM   15  C   UNL     1     -22.801 -14.974  -4.573  1.00  0.00     0.058 C 
BRANCH  15  16
HETATM   16  C   UNL     1     -22.725 -14.199  -5.897  1.00  0.00     0.121 C 
BRANCH  16  17
HETATM   17  C   UNL     1     -21.362 -14.239  -6.598  1.00  0.00     0.032 C 
BRANCH  17  18
HETATM   18  C   UNL     1     -20.176 -14.430  -5.661  1.00  0.00     0.002 C 
BRANCH  18  19
HETATM   19  C   UNL     1     -18.885 -14.738  -6.406  1.00  0.00     0.000 C 
BRANCH  19  20
HETATM   20  C   UNL     1     -18.148 -13.446  -6.714  1.00  0.00    -0.000 C 
BRANCH  20  21
HETATM   21  C   UNL     1     -17.644 -13.473  -8.148  1.00  0.00    -0.005 C 
HETATM   22  C   UNL     1     -18.639 -12.813  -9.079  1.00  0.00     0.005 C 
ENDBRANCH  20  21
ENDBRANCH  19  20
ENDBRANCH  18  19
ENDBRANCH  17  18
ENDBRANCH  16  17
BRANCH  16  23
HETATM   23  O   UNL     1     -23.103 -12.837  -5.699  1.00  0.00    -0.395 OA
HETATM   24  H   UNL     1     -23.238 -12.432  -6.573  1.00  0.00     0.210 HD
ENDBRANCH  16  23
ENDBRANCH  15  16
ENDBRANCH  14  15
ENDBRANCH  12  13
ENDBRANCH  11  12
ENDBRANCH  10  11
ENDBRANCH   9  10
ENDBRANCH   8   9
ENDBRANCH   7   8
ENDBRANCH   6   7
ENDBRANCH   4   6
ENDBRANCH   3   4
ENDBRANCH   2   3
ENDBRANCH   1   2
BRANCH   1  25
HETATM   25  C   UNL     1     -20.837  -6.516  -6.393  1.00  0.00     0.213 C 
BRANCH  25  26
HETATM   26  O   UNL     1     -21.030  -5.119  -6.094  1.00  0.00    -0.319 OA
BRANCH  26  27
HETATM   27  C   UNL     1     -21.322  -4.310  -7.161  1.00  0.00     0.258 C 
HETATM   28  O   UNL     1     -21.513  -3.112  -7.107  1.00  0.00    -0.265 OA
BRANCH  27  29
HETATM   29  C   UNL     1     -21.450  -5.122  -8.425  1.00  0.00     0.111 C 
BRANCH  29  30
HETATM   30  C   UNL     1     -21.836  -4.259  -9.620  1.00  0.00     0.010 C 
BRANCH  30  31
HETATM   31  C   UNL     1     -23.319  -4.400  -9.957  1.00  0.00     0.000 C 
BRANCH  31  32
HETATM   32  C   UNL     1     -23.803  -3.266 -10.856  1.00  0.00     0.000 C 
BRANCH  32  33
HETATM   33  C   UNL     1     -22.643  -2.607 -11.610  1.00  0.00     0.000 C 
BRANCH  33  34
HETATM   34  C   UNL     1     -22.721  -2.758 -13.134  1.00  0.00     0.004 C 
BRANCH  34  35
HETATM   35  C   UNL     1     -24.168  -2.859 -13.618  1.00  0.00     0.027 C 
BRANCH  35  36
HETATM   36  C   UNL     1     -24.498  -4.196 -14.206  1.00  0.00    -0.031 C 
HETATM   37  C   UNL     1     -23.643  -5.233 -14.170  1.00  0.00    -0.028 C 
BRANCH  37  38
HETATM   38  C   UNL     1     -23.995  -6.630 -14.598  1.00  0.00     0.059 C 
BRANCH  38  39
HETATM   39  C   UNL     1     -24.811  -6.667 -15.905  1.00  0.00     0.135 C 
BRANCH  39  40
HETATM   40  C   UNL     1     -24.219  -7.665 -16.922  1.00  0.00     0.033 C 
BRANCH  40  41
HETATM   41  C   UNL     1     -24.064  -7.084 -18.335  1.00  0.00     0.002 C 
BRANCH  41  42
HETATM   42  C   UNL     1     -25.393  -6.755 -19.011  1.00  0.00     0.000 C 
BRANCH  42  43
HETATM   43  C   UNL     1     -25.387  -7.133 -20.490  1.00  0.00    -0.000 C 
BRANCH  43  44
HETATM   44  C   UNL     1     -24.187  -8.010 -20.802  1.00  0.00    -0.005 C 
HETATM   45  C   UNL     1     -23.865  -7.967 -22.282  1.00  0.00     0.005 C 
ENDBRANCH  43  44
ENDBRANCH  42  43
ENDBRANCH  41  42
ENDBRANCH  40  41
ENDBRANCH  39  40
BRANCH  39  46
HETATM   46  O   UNL     1     -26.156  -7.106 -15.623  1.00  0.00    -0.312 OA
BRANCH  46  47
HETATM   47  C   UNL     1     -27.160  -6.272 -15.988  1.00  0.00     0.283 C 
HETATM   48  O   UNL     1     -27.115  -5.050 -16.060  1.00  0.00    -0.260 OA
BRANCH  47  49
HETATM   49  C   UNL     1     -28.344  -7.080 -16.313  1.00  0.00     0.089 C 
HETATM   50  C   UNL     1     -28.983  -6.721 -17.425  1.00  0.00     0.087 C 
BRANCH  50  51
HETATM   51  C   UNL     1     -30.191  -7.450 -17.849  1.00  0.00     0.165 C 
HETATM   52  O   UNL     1     -30.193  -8.333 -18.683  1.00  0.00    -0.647 OA
BRANCH  51  53
HETATM   53  O   UNL     1     -31.268  -7.003 -17.176  1.00  0.00    -0.773 OA
HETATM   54  H   UNL     1     -31.054  -6.741 -16.256  1.00  0.00     0.167 HD
ENDBRANCH  51  53
ENDBRANCH  50  51
ENDBRANCH  47  49
ENDBRANCH  46  47
ENDBRANCH  39  46
ENDBRANCH  38  39
ENDBRANCH  37  38
ENDBRANCH  35  36
ENDBRANCH  34  35
ENDBRANCH  33  34
ENDBRANCH  32  33
ENDBRANCH  31  32
ENDBRANCH  30  31
ENDBRANCH  29  30
ENDBRANCH  27  29
ENDBRANCH  26  27
ENDBRANCH  25  26
ENDBRANCH   1  25
BRANCH   1  55
HETATM   55  O   UNL     1     -20.681  -8.473  -4.952  1.00  0.00    -0.312 OA
BRANCH  55  56
HETATM   56  C   UNL     1     -21.194  -9.737  -5.053  1.00  0.00     0.259 C 
HETATM   57  O   UNL     1     -21.188 -10.425  -6.064  1.00  0.00    -0.265 OA
BRANCH  56  58
HETATM   58  C   UNL     1     -21.849 -10.166  -3.776  1.00  0.00     0.111 C 
BRANCH  58  59
HETATM   59  C   UNL     1     -21.167 -11.403  -3.212  1.00  0.00     0.010 C 
BRANCH  59  60
HETATM   60  C   UNL     1     -19.770 -11.087  -2.679  1.00  0.00     0.000 C 
BRANCH  60  61
HETATM   61  C   UNL     1     -18.706 -11.753  -3.539  1.00  0.00     0.000 C 
BRANCH  61  62
HETATM   62  C   UNL     1     -17.759 -10.715  -4.126  1.00  0.00     0.000 C 
BRANCH  62  63
HETATM   63  C   UNL     1     -17.443  -9.641  -3.091  1.00  0.00     0.004 C 
BRANCH  63  64
HETATM   64  C   UNL     1     -15.964  -9.670  -2.737  1.00  0.00     0.027 C 
BRANCH  64  65
HETATM   65  C   UNL     1     -15.573 -10.980  -2.127  1.00  0.00    -0.031 C 
HETATM   66  C   UNL     1     -16.076 -11.415  -0.965  1.00  0.00    -0.028 C 
BRANCH  66  67
HETATM   67  C   UNL     1     -15.842 -12.784  -0.414  1.00  0.00     0.058 C 
BRANCH  67  68
HETATM   68  C   UNL     1     -16.987 -13.230   0.507  1.00  0.00     0.121 C 
BRANCH  68  69
HETATM   69  C   UNL     1     -18.284 -13.557  -0.248  1.00  0.00     0.032 C 
BRANCH  69  70
HETATM   70  C   UNL     1     -19.260 -14.362   0.622  1.00  0.00     0.002 C 
BRANCH  70  71
HETATM   71  C   UNL     1     -20.730 -14.087   0.297  1.00  0.00     0.000 C 
BRANCH  71  72
HETATM   72  C   UNL     1     -21.496 -13.529   1.494  1.00  0.00    -0.000 C 
BRANCH  72  73
HETATM   73  C   UNL     1     -22.529 -14.522   2.014  1.00  0.00    -0.005 C 
HETATM   74  C   UNL     1     -22.271 -14.837   3.478  1.00  0.00     0.005 C 
ENDBRANCH  72  73
ENDBRANCH  71  72
ENDBRANCH  70  71
ENDBRANCH  69  70
ENDBRANCH  68  69
BRANCH  68  75
HETATM   75  O   UNL     1     -16.551 -14.386   1.220  1.00  0.00    -0.395 OA
HETATM   76  H   UNL     1     -16.488 -14.144   2.160  1.00  0.00     0.210 HD
ENDBRANCH  68  75
ENDBRANCH  67  68
ENDBRANCH  66  67
ENDBRANCH  64  65
ENDBRANCH  63  64
ENDBRANCH  62  63
ENDBRANCH  61  62
ENDBRANCH  60  61
ENDBRANCH  59  60
ENDBRANCH  58  59
ENDBRANCH  56  58
ENDBRANCH  55  56
ENDBRANCH   1  55
TORSDOF 60
BEGIN_RES ARG D 557
REMARK  4 active torsions:
REMARK  status: ('A' for Active; 'I' for Inactive)
REMARK    1  A    between atoms: CA   and  CB  
REMARK    2  A    between atoms: CB   and  CG  
REMARK    3  A    between atoms: CG   and  CD  
REMARK    4  A    between atoms: CD   and  NE  
REMARK       I    between atoms: NE   and  CZ  
REMARK       I    between atoms: CZ   and  NH1 
REMARK       I    between atoms: CZ   and  NH2 
ROOT
ATOM      1  CA  ARG D 557     -26.217   2.705 -17.014  1.00 35.49     0.159 C 
ENDROOT
BRANCH   1   2
ATOM      2  CB  ARG D 557     -26.789   1.319 -17.183  1.00 35.49     0.034 C 
BRANCH   2   3
ATOM      3  CG  ARG D 557     -28.226   1.228 -17.470  1.00 35.49     0.027 C 
BRANCH   3   4
ATOM      4  CD  ARG D 557     -28.929   0.309 -16.546  1.00 35.49     0.116 C 
BRANCH   4   5
ATOM      5  NE  ARG D 557     -29.264  -0.941 -17.174  1.00 35.49    -0.212 N 
ATOM      6  CZ  ARG D 557     -28.614  -2.074 -17.024  1.00 35.49     0.666 C 
ATOM      7  NH1 ARG D 557     -27.539  -2.180 -16.265  1.00 35.49    -0.235 N 
ATOM      8  NH2 ARG D 557     -29.072  -3.116 -17.655  1.00 35.49    -0.235 N 
ATOM      9  HH  ARG D 557     -27.222  -1.508 -15.840  1.00 35.49     0.174 HD
ATOM     10  HH  ARG D 557     -27.159  -2.945 -16.203  1.00 35.49     0.174 HD
ATOM     11  HH  ARG D 557     -29.772  -3.020 -18.132  1.00 35.49     0.174 HD
ATOM     12  HH  ARG D 557     -28.682  -3.866 -17.580  1.00 35.49     0.174 HD
ATOM     13  HE  ARG D 557     -29.900  -0.947 -17.738  1.00 35.49     0.178 HD
ENDBRANCH   4   5
ENDBRANCH   3   4
ENDBRANCH   2   3
ENDBRANCH   1   2
END_RES ARG D 557
BEGIN_RES GLU D 570
REMARK  3 active torsions:
REMARK  status: ('A' for Active; 'I' for Inactive)
REMARK    5  A    between atoms: CA   and  CB  
REMARK    6  A    between atoms: CB   and  CG  
REMARK    7  A    between atoms: CG   and  CD  
ROOT
ATOM     14  CA  GLU D 570     -18.033  -6.348 -13.375  1.00 32.92     0.160 C 
ENDROOT
BRANCH  14  15
ATOM     15  CB  GLU D 570     -19.500  -6.345 -13.794  1.00 32.92     0.043 C 
BRANCH  15  16
ATOM     16  CG  GLU D 570     -20.077  -7.627 -14.275  1.00 32.92     0.100 C 
BRANCH  16  17
ATOM     17  CD  GLU D 570     -20.621  -7.537 -15.682  1.00 32.92     0.185 C 
ATOM     18  OE1 GLU D 570     -20.910  -8.587 -16.287  1.00 32.92    -0.647 OA
ATOM     19  OE2 GLU D 570     -20.743  -6.405 -16.191  1.00 32.92    -0.647 OA
ENDBRANCH  16  17
ENDBRANCH  15  16
ENDBRANCH  14  15
END_RES GLU D 570
ENDMDL
MODEL 2
REMARK VINA RESULT:      -6.8      1.482      2.645
REMARK WARNING: 32 MAX_TORS EXCEEDED!!!
REMARK  60 active torsions:
REMARK  status: ('A' for Active; 'I' for Inactive)
REMARK    1  A    between atoms: C_2  and  C_3 
REMARK    2  A    between atoms: C_3  and  C_4 
REMARK    3  A    between atoms: C_4  and  C_5 
REMARK    4  A    between atoms: C_5  and  C_6 
REMARK    5  A    between atoms: C_6  and  C_7 
REMARK    6  A    between atoms: C_7  and  C_8 
REMARK    7  A    between atoms: C_7  and  O_73 
REMARK    8  A    between atoms: C_8  and  C_9 
REMARK    9  A    between atoms: C_10  and  C_11 
REMARK   10  A    between atoms: C_11  and  C_12 
REMARK   11  A    between atoms: C_12  and  C_13 
REMARK   12  A    between atoms: C_13  and  C_14 
REMARK   13  A    between atoms: C_14  and  C_15 
REMARK   14  A    between atoms: C_15  and  C_16 
REMARK   15  A    between atoms: C_16  and  C_17 
REMARK   16  A    between atoms: C_17  and  C_18 
REMARK   17  A    between atoms: C_18  and  O_20 
REMARK   18  A    between atoms: O_20  and  C_21 
REMARK   19  A    between atoms: C_21  and  C_22 
REMARK   20  A    between atoms: C_22  and  C_23 
REMARK   21  A    between atoms: C_22  and  O_52 
REMARK   22  A    between atoms: C_23  and  O_24 
REMARK   23  A    between atoms: O_24  and  C_25 
REMARK   24  A    between atoms: C_25  and  C_27 
REMARK   25  A    between atoms: C_27  and  C_28 
REMARK   26  A    between atoms: C_28  and  C_29 
REMARK   27  A    between atoms: C_29  and  C_30 
REMARK   28  A    between atoms: C_30  and  C_31 
REMARK   29  A    between atoms: C_31  and  C_32 
REMARK   30  A    between atoms: C_32  and  C_33 
REMARK   31  A    between atoms: C_33  and  C_34 
REMARK   32  A    between atoms: C_35  and  C_36 
REMARK   33  A    between atoms: C_36  and  C_37 
REMARK   34  A    between atoms: C_37  and  C_38 
REMARK   35  A    between atoms: C_37  and  O_44 
REMARK   36  A    between atoms: C_38  and  C_39 
REMARK   37  A    between atoms: C_39  and  C_40 
REMARK   38  A    between atoms: C_40  and  C_41 
REMARK   39  A    between atoms: C_41  and  C_42 
REMARK   40  A    between atoms: O_44  and  C_45 
REMARK   41  A    between atoms: C_45  and  C_47 
REMARK   42  A    between atoms: C_48  and  C_49 
REMARK   43  A    between atoms: C_49  and  O_51 
REMARK   44  A    between atoms: O_52  and  C_53 
REMARK   45  A    between atoms: C_53  and  C_55 
REMARK   46  A    between atoms: C_55  and  C_56 
REMARK   47  A    between atoms: C_56  and  C_57 
REMARK   48  A    between atoms: C_57  and  C_58 
REMARK   49  A    between atoms: C_58  and  C_59 
REMARK   50  A    between atoms: C_59  and  C_60 
REMARK   51  A    between atoms: C_60  and  C_61 
REMARK   52  A    between atoms: C_61  and  C_62 
REMARK   53  A    between atoms: C_63  and  C_64 
REMARK   54  A    between atoms: C_64  and  C_65 
REMARK   55  A    between atoms: C_65  and  C_66 
REMARK   56  A    between atoms: C_65  and  O_72 
REMARK   57  A    between atoms: C_66  and  C_67 
REMARK   58  A    between atoms: C_67  and  C_68 
REMARK   59  A    between atoms: C_68  and  C_69 
REMARK   60  A    between atoms: C_69  and  C_70 
ROOT
HETATM    1  C   UNL     1     -21.401  -7.182  -5.334  1.00  0.00     0.180 C 
ENDROOT
BRANCH   1   2
HETATM    2  C   UNL     1     -21.943  -6.332  -4.172  1.00  0.00     0.213 C 
BRANCH   2   3
HETATM    3  O   UNL     1     -21.080  -6.399  -3.024  1.00  0.00    -0.319 OA
BRANCH   3   4
HETATM    4  C   UNL     1     -21.657  -6.824  -1.864  1.00  0.00     0.258 C 
HETATM    5  O   UNL     1     -22.688  -6.348  -1.401  1.00  0.00    -0.265 OA
BRANCH   4   6
HETATM    6  C   UNL     1     -20.857  -7.943  -1.271  1.00  0.00     0.111 C 
BRANCH   6   7
HETATM    7  C   UNL     1     -21.357  -8.268   0.133  1.00  0.00     0.010 C 
BRANCH   7   8
HETATM    8  C   UNL     1     -21.642  -9.754   0.320  1.00  0.00     0.000 C 
BRANCH   8   9
HETATM    9  C   UNL     1     -23.037 -10.093  -0.202  1.00  0.00     0.000 C 
BRANCH   9  10
HETATM   10  C   UNL     1     -23.407 -11.542   0.095  1.00  0.00     0.000 C 
BRANCH  10  11
HETATM   11  C   UNL     1     -24.182 -12.143  -1.072  1.00  0.00     0.004 C 
BRANCH  11  12
HETATM   12  C   UNL     1     -24.253 -13.664  -0.966  1.00  0.00     0.027 C 
BRANCH  12  13
HETATM   13  C   UNL     1     -23.229 -14.268  -1.882  1.00  0.00    -0.031 C 
HETATM   14  C   UNL     1     -23.552 -14.875  -3.030  1.00  0.00    -0.028 C 
BRANCH  14  15
HETATM   15  C   UNL     1     -22.588 -15.639  -3.890  1.00  0.00     0.058 C 
BRANCH  15  16
HETATM   16  C   UNL     1     -23.147 -16.012  -5.272  1.00  0.00     0.121 C 
BRANCH  16  17
HETATM   17  C   UNL     1     -22.355 -15.463  -6.464  1.00  0.00     0.032 C 
BRANCH  17  18
HETATM   18  C   UNL     1     -21.768 -14.073  -6.246  1.00  0.00     0.002 C 
BRANCH  18  19
HETATM   19  C   UNL     1     -20.299 -13.990  -6.638  1.00  0.00     0.000 C 
BRANCH  19  20
HETATM   20  C   UNL     1     -20.159 -13.228  -7.945  1.00  0.00    -0.000 C 
BRANCH  20  21
HETATM   21  C   UNL     1     -18.830 -12.490  -7.966  1.00  0.00    -0.005 C 
HETATM   22  C   UNL     1     -17.855 -13.166  -8.907  1.00  0.00     0.005 C 
ENDBRANCH  20  21
ENDBRANCH  19  20
ENDBRANCH  18  19
ENDBRANCH  17  18
ENDBRANCH  16  17
BRANCH  16  23
HETATM   23  O   UNL     1     -24.507 -15.593  -5.388  1.00  0.00    -0.395 OA
HETATM   24  H   UNL     1     -24.526 -14.622  -5.357  1.00  0.00     0.210 HD
ENDBRANCH  16  23
ENDBRANCH  15  16
ENDBRANCH  14  15
ENDBRANCH  12  13
ENDBRANCH  11  12
ENDBRANCH  10  11
ENDBRANCH   9  10
ENDBRANCH   8   9
ENDBRANCH   7   8
ENDBRANCH   6   7
ENDBRANCH   4   6
ENDBRANCH   3   4
ENDBRANCH   2   3
ENDBRANCH   1   2
BRANCH   1  25
HETATM   25  C   UNL     1     -20.532  -6.320  -6.252  1.00  0.00     0.213 C 
BRANCH  25  26
HETATM   26  O   UNL     1     -20.813  -4.921  -6.049  1.00  0.00    -0.319 OA
BRANCH  26  27
HETATM   27  C   UNL     1     -21.157  -4.207  -7.167  1.00  0.00     0.258 C 
HETATM   28  O   UNL     1     -21.393  -3.017  -7.199  1.00  0.00    -0.265 OA
BRANCH  27  29
HETATM   29  C   UNL     1     -21.279  -5.118  -8.362  1.00  0.00     0.111 C 
BRANCH  29  30
HETATM   30  C   UNL     1     -21.640  -4.350  -9.628  1.00  0.00     0.010 C 
BRANCH  30  31
HETATM   31  C   UNL     1     -23.103  -4.561 -10.014  1.00  0.00     0.000 C 
BRANCH  31  32
HETATM   32  C   UNL     1     -23.641  -3.396 -10.839  1.00  0.00     0.000 C 
BRANCH  32  33
HETATM   33  C   UNL     1     -22.539  -2.734 -11.673  1.00  0.00     0.000 C 
BRANCH  33  34
HETATM   34  C   UNL     1     -22.778  -2.794 -13.186  1.00  0.00     0.004 C 
BRANCH  34  35
HETATM   35  C   UNL     1     -24.257  -3.000 -13.517  1.00  0.00     0.027 C 
BRANCH  35  36
HETATM   36  C   UNL     1     -24.525  -4.291 -14.226  1.00  0.00    -0.031 C 
HETATM   37  C   UNL     1     -23.664  -5.323 -14.200  1.00  0.00    -0.028 C 
BRANCH  37  38
HETATM   38  C   UNL     1     -23.966  -6.686 -14.757  1.00  0.00     0.059 C 
BRANCH  38  39
HETATM   39  C   UNL     1     -24.754  -6.630 -16.080  1.00  0.00     0.135 C 
BRANCH  39  40
HETATM   40  C   UNL     1     -24.215  -7.642 -17.112  1.00  0.00     0.033 C 
BRANCH  40  41
HETATM   41  C   UNL     1     -23.745  -6.993 -18.422  1.00  0.00     0.002 C 
BRANCH  41  42
HETATM   42  C   UNL     1     -24.853  -6.842 -19.462  1.00  0.00     0.000 C 
BRANCH  42  43
HETATM   43  C   UNL     1     -24.783  -7.931 -20.529  1.00  0.00    -0.000 C 
BRANCH  43  44
HETATM   44  C   UNL     1     -24.643  -7.309 -21.907  1.00  0.00    -0.005 C 
HETATM   45  C   UNL     1     -23.540  -7.990 -22.691  1.00  0.00     0.005 C 
ENDBRANCH  43  44
ENDBRANCH  42  43
ENDBRANCH  41  42
ENDBRANCH  40  41
ENDBRANCH  39  40
BRANCH  39  46
HETATM   46  O   UNL     1     -26.134  -6.976 -15.837  1.00  0.00    -0.312 OA
BRANCH  46  47
HETATM   47  C   UNL     1     -27.071  -6.115 -16.302  1.00  0.00     0.283 C 
HETATM   48  O   UNL     1     -26.918  -4.927 -16.560  1.00  0.00    -0.260 OA
BRANCH  47  49
HETATM   49  C   UNL     1     -28.334  -6.847 -16.476  1.00  0.00     0.089 C 
HETATM   50  C   UNL     1     -28.873  -6.759 -17.690  1.00  0.00     0.087 C 
BRANCH  50  51
HETATM   51  C   UNL     1     -30.146  -7.442 -17.982  1.00  0.00     0.165 C 
HETATM   52  O   UNL     1     -30.273  -8.308 -18.824  1.00  0.00    -0.647 OA
BRANCH  51  53
HETATM   53  O   UNL     1     -31.122  -6.977 -17.181  1.00  0.00    -0.773 OA
HETATM   54  H   UNL     1     -31.232  -6.005 -17.248  1.00  0.00     0.167 HD
ENDBRANCH  51  53
ENDBRANCH  50  51
ENDBRANCH  47  49
ENDBRANCH  46  47
ENDBRANCH  39  46
ENDBRANCH  38  39
ENDBRANCH  37  38
ENDBRANCH  35  36
ENDBRANCH  34  35
ENDBRANCH  33  34
ENDBRANCH  32  33
ENDBRANCH  31  32
ENDBRANCH  30  31
ENDBRANCH  29  30
ENDBRANCH  27  29
ENDBRANCH  26  27
ENDBRANCH  25  26
ENDBRANCH   1  25
BRANCH   1  55
HETATM   55  O   UNL     1     -20.601  -8.273  -4.800  1.00  0.00    -0.312 OA
BRANCH  55  56
HETATM   56  C   UNL     1     -21.065  -9.537  -5.048  1.00  0.00     0.259 C 
HETATM   57  O   UNL     1     -20.808 -10.203  -6.040  1.00  0.00    -0.265 OA
BRANCH  56  58
HETATM   58  C   UNL     1     -22.007  -9.994  -3.977  1.00  0.00     0.111 C 
BRANCH  58  59
HETATM   59  C   UNL     1     -21.808 -11.473  -3.682  1.00  0.00     0.010 C 
BRANCH  59  60
HETATM   60  C   UNL     1     -20.759 -11.699  -2.596  1.00  0.00     0.000 C 
BRANCH  60  61
HETATM   61  C   UNL     1     -19.727 -12.721  -3.052  1.00  0.00     0.000 C 
BRANCH  61  62
HETATM   62  C   UNL     1     -18.629 -12.052  -3.867  1.00  0.00     0.000 C 
BRANCH  62  63
HETATM   63  C   UNL     1     -18.238 -10.720  -3.236  1.00  0.00     0.004 C 
BRANCH  63  64
HETATM   64  C   UNL     1     -17.246  -9.987  -4.126  1.00  0.00     0.027 C 
BRANCH  64  65
HETATM   65  C   UNL     1     -16.801 -10.843  -5.270  1.00  0.00    -0.031 C 
HETATM   66  C   UNL     1     -15.555 -10.805  -5.760  1.00  0.00    -0.028 C 
BRANCH  66  67
HETATM   67  C   UNL     1     -15.030 -11.761  -6.781  1.00  0.00     0.058 C 
BRANCH  67  68
HETATM   68  C   UNL     1     -14.090 -12.803  -6.155  1.00  0.00     0.121 C 
BRANCH  68  69
HETATM   69  C   UNL     1     -13.698 -12.477  -4.707  1.00  0.00     0.032 C 
BRANCH  69  70
HETATM   70  C   UNL     1     -13.401 -13.748  -3.899  1.00  0.00     0.002 C 
BRANCH  70  71
HETATM   71  C   UNL     1     -14.643 -14.352  -3.239  1.00  0.00     0.000 C 
BRANCH  71  72
HETATM   72  C   UNL     1     -15.535 -13.290  -2.599  1.00  0.00    -0.000 C 
BRANCH  72  73
HETATM   73  C   UNL     1     -15.098 -12.972  -1.175  1.00  0.00    -0.005 C 
HETATM   74  C   UNL     1     -15.999 -11.909  -0.569  1.00  0.00     0.005 C 
ENDBRANCH  72  73
ENDBRANCH  71  72
ENDBRANCH  70  71
ENDBRANCH  69  70
ENDBRANCH  68  69
BRANCH  68  75
HETATM   75  O   UNL     1     -14.752 -14.067  -6.193  1.00  0.00    -0.395 OA
HETATM   76  H   UNL     1     -14.648 -14.477  -5.317  1.00  0.00     0.210 HD
ENDBRANCH  68  75
ENDBRANCH  67  68
ENDBRANCH  66  67
ENDBRANCH  64  65
ENDBRANCH  63  64
ENDBRANCH  62  63
ENDBRANCH  61  62
ENDBRANCH  60  61
ENDBRANCH  59  60
ENDBRANCH  58  59
ENDBRANCH  56  58
ENDBRANCH  55  56
ENDBRANCH   1  55
TORSDOF 60
BEGIN_RES ARG D 557
REMARK  4 active torsions:
REMARK  status: ('A' for Active; 'I' for Inactive)
REMARK    1  A    between atoms: CA   and  CB  
REMARK    2  A    between atoms: CB   and  CG  
REMARK    3  A    between atoms: CG   and  CD  
REMARK    4  A    between atoms: CD   and  NE  
REMARK       I    between atoms: NE   and  CZ  
REMARK       I    between atoms: CZ   and  NH1 
REMARK       I    between atoms: CZ   and  NH2 
ROOT
ATOM      1  CA  ARG D 557     -26.217   2.705 -17.014  1.00 35.49     0.159 C 
ENDROOT
BRANCH   1   2
ATOM      2  CB  ARG D 557     -26.789   1.319 -17.183  1.00 35.49     0.034 C 
BRANCH   2   3
ATOM      3  CG  ARG D 557     -28.214   1.229 -17.526  1.00 35.49     0.027 C 
BRANCH   3   4
ATOM      4  CD  ARG D 557     -28.962   0.347 -16.602  1.00 35.49     0.116 C 
BRANCH   4   5
ATOM      5  NE  ARG D 557     -29.287  -0.919 -17.204  1.00 35.49    -0.212 N 
ATOM      6  CZ  ARG D 557     -28.636  -2.046 -17.023  1.00 35.49     0.666 C 
ATOM      7  NH1 ARG D 557     -27.569  -2.131 -16.250  1.00 35.49    -0.235 N 
ATOM      8  NH2 ARG D 557     -29.085  -3.104 -17.633  1.00 35.49    -0.235 N 
ATOM      9  HH  ARG D 557     -27.257  -1.448 -15.837  1.00 35.49     0.174 HD
ATOM     10  HH  ARG D 557     -27.186  -2.894 -16.167  1.00 35.49     0.174 HD
ATOM     11  HH  ARG D 557     -29.780  -3.020 -18.120  1.00 35.49     0.174 HD
ATOM     12  HH  ARG D 557     -28.693  -3.850 -17.537  1.00 35.49     0.174 HD
ATOM     13  HE  ARG D 557     -29.918  -0.940 -17.774  1.00 35.49     0.178 HD
ENDBRANCH   4   5
ENDBRANCH   3   4
ENDBRANCH   2   3
ENDBRANCH   1   2
END_RES ARG D 557
BEGIN_RES GLU D 570
REMARK  3 active torsions:
REMARK  status: ('A' for Active; 'I' for Inactive)
REMARK    5  A    between atoms: CA   and  CB  
REMARK    6  A    between atoms: CB   and  CG  
REMARK    7  A    between atoms: CG   and  CD  
ROOT
ATOM     14  CA  GLU D 570     -18.033  -6.348 -13.375  1.00 32.92     0.160 C 
ENDROOT
BRANCH  14  15
ATOM     15  CB  GLU D 570     -19.500  -6.345 -13.794  1.00 32.92     0.043 C 
BRANCH  15  16
ATOM     16  CG  GLU D 570     -20.078  -7.628 -14.272  1.00 32.92     0.100 C 
BRANCH  16  17
ATOM     17  CD  GLU D 570     -20.587  -7.552 -15.693  1.00 32.92     0.185 C 
ATOM     18  OE1 GLU D 570     -20.758  -6.434 -16.215  1.00 32.92    -0.647 OA
ATOM     19  OE2 GLU D 570     -20.832  -8.622 -16.283  1.00 32.92    -0.647 OA
ENDBRANCH  16  17
ENDBRANCH  15  16
ENDBRANCH  14  15
END_RES GLU D 570
ENDMDL
MODEL 3
REMARK VINA RESULT:      -6.7      2.007      4.844
REMARK WARNING: 32 MAX_TORS EXCEEDED!!!
REMARK  60 active torsions:
REMARK  status: ('A' for Active; 'I' for Inactive)
REMARK    1  A    between atoms: C_2  and  C_3 
REMARK    2  A    between atoms: C_3  and  C_4 
REMARK    3  A    between atoms: C_4  and  C_5 
REMARK    4  A    between atoms: C_5  and  C_6 
REMARK    5  A    between atoms: C_6  and  C_7 
REMARK    6  A    between atoms: C_7  and  C_8 
REMARK    7  A    between atoms: C_7  and  O_73 
REMARK    8  A    between atoms: C_8  and  C_9 
REMARK    9  A    between atoms: C_10  and  C_11 
REMARK   10  A    between atoms: C_11  and  C_12 
REMARK   11  A    between atoms: C_12  and  C_13 
REMARK   12  A    between atoms: C_13  and  C_14 
REMARK   13  A    between atoms: C_14  and  C_15 
REMARK   14  A    between atoms: C_15  and  C_16 
REMARK   15  A    between atoms: C_16  and  C_17 
REMARK   16  A    between atoms: C_17  and  C_18 
REMARK   17  A    between atoms: C_18  and  O_20 
REMARK   18  A    between atoms: O_20  and  C_21 
REMARK   19  A    between atoms: C_21  and  C_22 
REMARK   20  A    between atoms: C_22  and  C_23 
REMARK   21  A    between atoms: C_22  and  O_52 
REMARK   22  A    between atoms: C_23  and  O_24 
REMARK   23  A    between atoms: O_24  and  C_25 
REMARK   24  A    between atoms: C_25  and  C_27 
REMARK   25  A    between atoms: C_27  and  C_28 
REMARK   26  A    between atoms: C_28  and  C_29 
REMARK   27  A    between atoms: C_29  and  C_30 
REMARK   28  A    between atoms: C_30  and  C_31 
REMARK   29  A    between atoms: C_31  and  C_32 
REMARK   30  A    between atoms: C_32  and  C_33 
REMARK   31  A    between atoms: C_33  and  C_34 
REMARK   32  A    between atoms: C_35  and  C_36 
REMARK   33  A    between atoms: C_36  and  C_37 
REMARK   34  A    between atoms: C_37  and  C_38 
REMARK   35  A    between atoms: C_37  and  O_44 
REMARK   36  A    between atoms: C_38  and  C_39 
REMARK   37  A    between atoms: C_39  and  C_40 
REMARK   38  A    between atoms: C_40  and  C_41 
REMARK   39  A    between atoms: C_41  and  C_42 
REMARK   40  A    between atoms: O_44  and  C_45 
REMARK   41  A    between atoms: C_45  and  C_47 
REMARK   42  A    between atoms: C_48  and  C_49 
REMARK   43  A    between atoms: C_49  and  O_51 
REMARK   44  A    between atoms: O_52  and  C_53 
REMARK   45  A    between atoms: C_53  and  C_55 
REMARK   46  A    between atoms: C_55  and  C_56 
REMARK   47  A    between atoms: C_56  and  C_57 
REMARK   48  A    between atoms: C_57  and  C_58 
REMARK   49  A    between atoms: C_58  and  C_59 
REMARK   50  A    between atoms: C_59  and  C_60 
REMARK   51  A    between atoms: C_60  and  C_61 
REMARK   52  A    between atoms: C_61  and  C_62 
REMARK   53  A    between atoms: C_63  and  C_64 
REMARK   54  A    between atoms: C_64  and  C_65 
REMARK   55  A    between atoms: C_65  and  C_66 
REMARK   56  A    between atoms: C_65  and  O_72 
REMARK   57  A    between atoms: C_66  and  C_67 
REMARK   58  A    between atoms: C_67  and  C_68 
REMARK   59  A    between atoms: C_68  and  C_69 
REMARK   60  A    between atoms: C_69  and  C_70 
ROOT
HETATM    1  C   UNL     1     -21.003  -7.608  -2.775  1.00  0.00     0.180 C 
ENDROOT
BRANCH   1   2
HETATM    2  C   UNL     1     -19.739  -8.452  -2.542  1.00  0.00     0.213 C 
BRANCH   2   3
HETATM    3  O   UNL     1     -19.760  -9.658  -3.325  1.00  0.00    -0.319 OA
BRANCH   3   4
HETATM    4  C   UNL     1     -20.128 -10.794  -2.665  1.00  0.00     0.258 C 
HETATM    5  O   UNL     1     -21.221 -11.334  -2.794  1.00  0.00    -0.265 OA
BRANCH   4   6
HETATM    6  C   UNL     1     -19.006 -11.267  -1.792  1.00  0.00     0.111 C 
BRANCH   6   7
HETATM    7  C   UNL     1     -19.515 -11.557  -0.384  1.00  0.00     0.010 C 
BRANCH   7   8
HETATM    8  C   UNL     1     -18.455 -12.210   0.496  1.00  0.00     0.000 C 
BRANCH   8   9
HETATM    9  C   UNL     1     -17.063 -11.946  -0.073  1.00  0.00     0.000 C 
BRANCH   9  10
HETATM   10  C   UNL     1     -15.971 -12.428   0.876  1.00  0.00     0.000 C 
BRANCH  10  11
HETATM   11  C   UNL     1     -14.922 -13.230   0.115  1.00  0.00     0.004 C 
BRANCH  11  12
HETATM   12  C   UNL     1     -15.435 -13.652  -1.260  1.00  0.00     0.027 C 
BRANCH  12  13
HETATM   13  C   UNL     1     -14.264 -13.923  -2.159  1.00  0.00    -0.031 C 
HETATM   14  C   UNL     1     -14.400 -14.413  -3.396  1.00  0.00    -0.028 C 
BRANCH  14  15
HETATM   15  C   UNL     1     -13.261 -14.859  -4.265  1.00  0.00     0.058 C 
BRANCH  15  16
HETATM   16  C   UNL     1     -13.349 -14.359  -5.714  1.00  0.00     0.121 C 
BRANCH  16  17
HETATM   17  C   UNL     1     -14.677 -13.694  -6.094  1.00  0.00     0.032 C 
BRANCH  17  18
HETATM   18  C   UNL     1     -14.570 -12.208  -6.416  1.00  0.00     0.002 C 
BRANCH  18  19
HETATM   19  C   UNL     1     -14.764 -11.328  -5.189  1.00  0.00     0.000 C 
BRANCH  19  20
HETATM   20  C   UNL     1     -15.736 -10.206  -5.509  1.00  0.00    -0.000 C 
BRANCH  20  21
HETATM   21  C   UNL     1     -16.590  -9.904  -4.288  1.00  0.00    -0.005 C 
HETATM   22  C   UNL     1     -15.801 -10.124  -3.014  1.00  0.00     0.005 C 
ENDBRANCH  20  21
ENDBRANCH  19  20
ENDBRANCH  18  19
ENDBRANCH  17  18
ENDBRANCH  16  17
BRANCH  16  23
HETATM   23  O   UNL     1     -13.089 -15.426  -6.627  1.00  0.00    -0.395 OA
HETATM   24  H   UNL     1     -13.546 -16.219  -6.299  1.00  0.00     0.210 HD
ENDBRANCH  16  23
ENDBRANCH  15  16
ENDBRANCH  14  15
ENDBRANCH  12  13
ENDBRANCH  11  12
ENDBRANCH  10  11
ENDBRANCH   9  10
ENDBRANCH   8   9
ENDBRANCH   7   8
ENDBRANCH   6   7
ENDBRANCH   4   6
ENDBRANCH   3   4
ENDBRANCH   2   3
ENDBRANCH   1   2
BRANCH   1  25
HETATM   25  C   UNL     1     -21.408  -7.667  -4.250  1.00  0.00     0.213 C 
BRANCH  25  26
HETATM   26  O   UNL     1     -20.406  -7.039  -5.075  1.00  0.00    -0.319 OA
BRANCH  26  27
HETATM   27  C   UNL     1     -20.843  -6.022  -5.883  1.00  0.00     0.258 C 
HETATM   28  O   UNL     1     -21.956  -5.538  -5.869  1.00  0.00    -0.265 OA
BRANCH  27  29
HETATM   29  C   UNL     1     -19.767  -5.621  -6.860  1.00  0.00     0.111 C 
BRANCH  29  30
HETATM   30  C   UNL     1     -20.110  -4.323  -7.582  1.00  0.00     0.010 C 
BRANCH  30  31
HETATM   31  C   UNL     1     -20.264  -4.543  -9.086  1.00  0.00     0.000 C 
BRANCH  31  32
HETATM   32  C   UNL     1     -21.589  -3.991  -9.603  1.00  0.00     0.000 C 
BRANCH  32  33
HETATM   33  C   UNL     1     -21.464  -3.468 -11.039  1.00  0.00     0.000 C 
BRANCH  33  34
HETATM   34  C   UNL     1     -22.720  -2.757 -11.556  1.00  0.00     0.004 C 
BRANCH  34  35
HETATM   35  C   UNL     1     -22.960  -3.040 -13.040  1.00  0.00     0.027 C 
BRANCH  35  36
HETATM   36  C   UNL     1     -23.610  -4.366 -13.285  1.00  0.00    -0.031 C 
HETATM   37  C   UNL     1     -23.398  -5.079 -14.405  1.00  0.00    -0.028 C 
BRANCH  37  38
HETATM   38  C   UNL     1     -23.897  -6.481 -14.618  1.00  0.00     0.059 C 
BRANCH  38  39
HETATM   39  C   UNL     1     -24.752  -6.623 -15.892  1.00  0.00     0.135 C 
BRANCH  39  40
HETATM   40  C   UNL     1     -24.158  -7.660 -16.869  1.00  0.00     0.033 C 
BRANCH  40  41
HETATM   41  C   UNL     1     -24.020  -7.142 -18.307  1.00  0.00     0.002 C 
BRANCH  41  42
HETATM   42  C   UNL     1     -25.355  -6.804 -18.967  1.00  0.00     0.000 C 
BRANCH  42  43
HETATM   43  C   UNL     1     -25.327  -7.060 -20.471  1.00  0.00    -0.000 C 
BRANCH  43  44
HETATM   44  C   UNL     1     -24.135  -7.929 -20.833  1.00  0.00    -0.005 C 
HETATM   45  C   UNL     1     -23.948  -7.980 -22.336  1.00  0.00     0.005 C 
ENDBRANCH  43  44
ENDBRANCH  42  43
ENDBRANCH  41  42
ENDBRANCH  40  41
ENDBRANCH  39  40
BRANCH  39  46
HETATM   46  O   UNL     1     -26.071  -7.090 -15.540  1.00  0.00    -0.312 OA
BRANCH  46  47
HETATM   47  C   UNL     1     -27.107  -6.259 -15.813  1.00  0.00     0.283 C 
HETATM   48  O   UNL     1     -27.102  -5.035 -15.770  1.00  0.00    -0.260 OA
BRANCH  47  49
HETATM   49  C   UNL     1     -28.268  -7.072 -16.202  1.00  0.00     0.089 C 
HETATM   50  C   UNL     1     -28.969  -6.598 -17.230  1.00  0.00     0.087 C 
BRANCH  50  51
HETATM   51  C   UNL     1     -30.162  -7.320 -17.705  1.00  0.00     0.165 C 
HETATM   52  O   UNL     1     -30.123  -8.275 -18.454  1.00  0.00    -0.647 OA
BRANCH  51  53
HETATM   53  O   UNL     1     -31.277  -6.778 -17.181  1.00  0.00    -0.773 OA
HETATM   54  H   UNL     1     -32.085  -7.284 -17.409  1.00  0.00     0.167 HD
ENDBRANCH  51  53
ENDBRANCH  50  51
ENDBRANCH  47  49
ENDBRANCH  46  47
ENDBRANCH  39  46
ENDBRANCH  38  39
ENDBRANCH  37  38
ENDBRANCH  35  36
ENDBRANCH  34  35
ENDBRANCH  33  34
ENDBRANCH  32  33
ENDBRANCH  31  32
ENDBRANCH  30  31
ENDBRANCH  29  30
ENDBRANCH  27  29
ENDBRANCH  26  27
ENDBRANCH  25  26
ENDBRANCH   1  25
BRANCH   1  55
HETATM   55  O   UNL     1     -22.087  -8.128  -1.957  1.00  0.00    -0.312 OA
BRANCH  55  56
HETATM   56  C   UNL     1     -22.456  -7.358  -0.887  1.00  0.00     0.259 C 
HETATM   57  O   UNL     1     -22.370  -6.140  -0.828  1.00  0.00    -0.265 OA
BRANCH  56  58
HETATM   58  C   UNL     1     -22.919  -8.202   0.260  1.00  0.00     0.111 C 
BRANCH  58  59
HETATM   59  C   UNL     1     -22.568  -9.664   0.028  1.00  0.00     0.010 C 
BRANCH  59  60
HETATM   60  C   UNL     1     -23.817 -10.536  -0.088  1.00  0.00     0.000 C 
BRANCH  60  61
HETATM   61  C   UNL     1     -23.459 -12.007   0.069  1.00  0.00     0.000 C 
BRANCH  61  62
HETATM   62  C   UNL     1     -24.050 -12.830  -1.067  1.00  0.00     0.000 C 
BRANCH  62  63
HETATM   63  C   UNL     1     -23.004 -13.787  -1.628  1.00  0.00     0.004 C 
BRANCH  63  64
HETATM   64  C   UNL     1     -22.377 -14.598  -0.504  1.00  0.00     0.027 C 
BRANCH  64  65
HETATM   65  C   UNL     1     -20.935 -14.889  -0.778  1.00  0.00    -0.031 C 
HETATM   66  C   UNL     1     -20.378 -14.711  -1.983  1.00  0.00    -0.028 C 
BRANCH  66  67
HETATM   67  C   UNL     1     -18.912 -14.826  -2.251  1.00  0.00     0.058 C 
BRANCH  67  68
HETATM   68  C   UNL     1     -18.610 -14.861  -3.756  1.00  0.00     0.121 C 
BRANCH  68  69
HETATM   69  C   UNL     1     -17.954 -13.574  -4.276  1.00  0.00     0.032 C 
BRANCH  69  70
HETATM   70  C   UNL     1     -18.328 -13.296  -5.739  1.00  0.00     0.002 C 
BRANCH  70  71
HETATM   71  C   UNL     1     -19.216 -12.062  -5.914  1.00  0.00     0.000 C 
BRANCH  71  72
HETATM   72  C   UNL     1     -20.559 -12.399  -6.559  1.00  0.00    -0.000 C 
BRANCH  72  73
HETATM   73  C   UNL     1     -21.393 -13.318  -5.676  1.00  0.00    -0.005 C 
HETATM   74  C   UNL     1     -22.823 -12.812  -5.586  1.00  0.00     0.005 C 
ENDBRANCH  72  73
ENDBRANCH  71  72
ENDBRANCH  70  71
ENDBRANCH  69  70
ENDBRANCH  68  69
BRANCH  68  75
HETATM   75  O   UNL     1     -17.743 -15.967  -4.004  1.00  0.00    -0.395 OA
HETATM   76  H   UNL     1     -17.507 -15.948  -4.947  1.00  0.00     0.210 HD
ENDBRANCH  68  75
ENDBRANCH  67  68
ENDBRANCH  66  67
ENDBRANCH  64  65
ENDBRANCH  63  64
ENDBRANCH  62  63
ENDBRANCH  61  62
ENDBRANCH  60  61
ENDBRANCH  59  60
ENDBRANCH  58  59
ENDBRANCH  56  58
ENDBRANCH  55  56
ENDBRANCH   1  55
TORSDOF 60
BEGIN_RES ARG D 557
REMARK  4 active torsions:
REMARK  status: ('A' for Active; 'I' for Inactive)
REMARK    1  A    between atoms: CA   and  CB  
REMARK    2  A    between atoms: CB   and  CG  
REMARK    3  A    between atoms: CG   and  CD  
REMARK    4  A    between atoms: CD   and  NE  
REMARK       I    between atoms: NE   and  CZ  
REMARK       I    between atoms: CZ   and  NH1 
REMARK       I    between atoms: CZ   and  NH2 
ROOT
ATOM      1  CA  ARG D 557     -26.217   2.705 -17.014  1.00 35.49     0.159 C 
ENDROOT
BRANCH   1   2
ATOM      2  CB  ARG D 557     -26.789   1.319 -17.183  1.00 35.49     0.034 C 
BRANCH   2   3
ATOM      3  CG  ARG D 557     -28.223   1.228 -17.485  1.00 35.49     0.027 C 
BRANCH   3   4
ATOM      4  CD  ARG D 557     -28.941   0.333 -16.550  1.00 35.49     0.116 C 
BRANCH   4   5
ATOM      5  NE  ARG D 557     -29.263  -0.934 -17.151  1.00 35.49    -0.212 N 
ATOM      6  CZ  ARG D 557     -28.590  -2.052 -16.992  1.00 35.49     0.666 C 
ATOM      7  NH1 ARG D 557     -27.502  -2.126 -16.248  1.00 35.49    -0.235 N 
ATOM      8  NH2 ARG D 557     -29.039  -3.114 -17.597  1.00 35.49    -0.235 N 
ATOM      9  HH  ARG D 557     -27.190  -1.441 -15.840  1.00 35.49     0.174 HD
ATOM     10  HH  ARG D 557     -27.107  -2.883 -16.180  1.00 35.49     0.174 HD
ATOM     11  HH  ARG D 557     -29.748  -3.038 -18.065  1.00 35.49     0.174 HD
ATOM     12  HH  ARG D 557     -28.634  -3.854 -17.516  1.00 35.49     0.174 HD
ATOM     13  HE  ARG D 557     -29.908  -0.962 -17.704  1.00 35.49     0.178 HD
ENDBRANCH   4   5
ENDBRANCH   3   4
ENDBRANCH   2   3
ENDBRANCH   1   2
END_RES ARG D 557
BEGIN_RES GLU D 570
REMARK  3 active torsions:
REMARK  status: ('A' for Active; 'I' for Inactive)
REMARK    5  A    between atoms: CA   and  CB  
REMARK    6  A    between atoms: CB   and  CG  
REMARK    7  A    between atoms: CG   and  CD  
ROOT
ATOM     14  CA  GLU D 570     -18.033  -6.348 -13.375  1.00 32.92     0.160 C 
ENDROOT
BRANCH  14  15
ATOM     15  CB  GLU D 570     -19.500  -6.345 -13.794  1.00 32.92     0.043 C 
BRANCH  15  16
ATOM     16  CG  GLU D 570     -19.858  -5.601 -15.029  1.00 32.92     0.100 C 
BRANCH  16  17
ATOM     17  CD  GLU D 570     -20.523  -6.471 -16.070  1.00 32.92     0.185 C 
ATOM     18  OE1 GLU D 570     -20.724  -7.674 -15.814  1.00 32.92    -0.647 OA
ATOM     19  OE2 GLU D 570     -20.831  -5.948 -17.159  1.00 32.92    -0.647 OA
ENDBRANCH  16  17
ENDBRANCH  15  16
ENDBRANCH  14  15
END_RES GLU D 570
ENDMDL
MODEL 4
REMARK VINA RESULT:      -6.6      1.425      2.721
REMARK WARNING: 32 MAX_TORS EXCEEDED!!!
REMARK  60 active torsions:
REMARK  status: ('A' for Active; 'I' for Inactive)
REMARK    1  A    between atoms: C_2  and  C_3 
REMARK    2  A    between atoms: C_3  and  C_4 
REMARK    3  A    between atoms: C_4  and  C_5 
REMARK    4  A    between atoms: C_5  and  C_6 
REMARK    5  A    between atoms: C_6  and  C_7 
REMARK    6  A    between atoms: C_7  and  C_8 
REMARK    7  A    between atoms: C_7  and  O_73 
REMARK    8  A    between atoms: C_8  and  C_9 
REMARK    9  A    between atoms: C_10  and  C_11 
REMARK   10  A    between atoms: C_11  and  C_12 
REMARK   11  A    between atoms: C_12  and  C_13 
REMARK   12  A    between atoms: C_13  and  C_14 
REMARK   13  A    between atoms: C_14  and  C_15 
REMARK   14  A    between atoms: C_15  and  C_16 
REMARK   15  A    between atoms: C_16  and  C_17 
REMARK   16  A    between atoms: C_17  and  C_18 
REMARK   17  A    between atoms: C_18  and  O_20 
REMARK   18  A    between atoms: O_20  and  C_21 
REMARK   19  A    between atoms: C_21  and  C_22 
REMARK   20  A    between atoms: C_22  and  C_23 
REMARK   21  A    between atoms: C_22  and  O_52 
REMARK   22  A    between atoms: C_23  and  O_24 
REMARK   23  A    between atoms: O_24  and  C_25 
REMARK   24  A    between atoms: C_25  and  C_27 
REMARK   25  A    between atoms: C_27  and  C_28 
REMARK   26  A    between atoms: C_28  and  C_29 
REMARK   27  A    between atoms: C_29  and  C_30 
REMARK   28  A    between atoms: C_30  and  C_31 
REMARK   29  A    between atoms: C_31  and  C_32 
REMARK   30  A    between atoms: C_32  and  C_33 
REMARK   31  A    between atoms: C_33  and  C_34 
REMARK   32  A    between atoms: C_35  and  C_36 
REMARK   33  A    between atoms: C_36  and  C_37 
REMARK   34  A    between atoms: C_37  and  C_38 
REMARK   35  A    between atoms: C_37  and  O_44 
REMARK   36  A    between atoms: C_38  and  C_39 
REMARK   37  A    between atoms: C_39  and  C_40 
REMARK   38  A    between atoms: C_40  and  C_41 
REMARK   39  A    between atoms: C_41  and  C_42 
REMARK   40  A    between atoms: O_44  and  C_45 
REMARK   41  A    between atoms: C_45  and  C_47 
REMARK   42  A    between atoms: C_48  and  C_49 
REMARK   43  A    between atoms: C_49  and  O_51 
REMARK   44  A    between atoms: O_52  and  C_53 
REMARK   45  A    between atoms: C_53  and  C_55 
REMARK   46  A    between atoms: C_55  and  C_56 
REMARK   47  A    between atoms: C_56  and  C_57 
REMARK   48  A    between atoms: C_57  and  C_58 
REMARK   49  A    between atoms: C_58  and  C_59 
REMARK   50  A    between atoms: C_59  and  C_60 
REMARK   51  A    between atoms: C_60  and  C_61 
REMARK   52  A    between atoms: C_61  and  C_62 
REMARK   53  A    between atoms: C_63  and  C_64 
REMARK   54  A    between atoms: C_64  and  C_65 
REMARK   55  A    between atoms: C_65  and  C_66 
REMARK   56  A    between atoms: C_65  and  O_72 
REMARK   57  A    between atoms: C_66  and  C_67 
REMARK   58  A    between atoms: C_67  and  C_68 
REMARK   59  A    between atoms: C_68  and  C_69 
REMARK   60  A    between atoms: C_69  and  C_70 
ROOT
HETATM    1  C   UNL     1     -20.951  -7.379  -5.619  1.00  0.00     0.180 C 
ENDROOT
BRANCH   1   2
HETATM    2  C   UNL     1     -21.890  -6.767  -4.566  1.00  0.00     0.213 C 
BRANCH   2   3
HETATM    3  O   UNL     1     -21.173  -6.387  -3.380  1.00  0.00    -0.319 OA
BRANCH   3   4
HETATM    4  C   UNL     1     -21.793  -6.650  -2.194  1.00  0.00     0.258 C 
HETATM    5  O   UNL     1     -22.753  -6.015  -1.771  1.00  0.00    -0.265 OA
BRANCH   4   6
HETATM    6  C   UNL     1     -21.137  -7.815  -1.518  1.00  0.00     0.111 C 
BRANCH   6   7
HETATM    7  C   UNL     1     -21.609  -7.925  -0.072  1.00  0.00     0.010 C 
BRANCH   7   8
HETATM    8  C   UNL     1     -22.011  -9.347   0.303  1.00  0.00     0.000 C 
BRANCH   8   9
HETATM    9  C   UNL     1     -23.500  -9.561   0.036  1.00  0.00     0.000 C 
BRANCH   9  10
HETATM   10  C   UNL     1     -23.822 -11.036  -0.176  1.00  0.00     0.000 C 
BRANCH  10  11
HETATM   11  C   UNL     1     -23.377 -11.484  -1.564  1.00  0.00     0.004 C 
BRANCH  11  12
HETATM   12  C   UNL     1     -22.707 -12.855  -1.515  1.00  0.00     0.027 C 
BRANCH  12  13
HETATM   13  C   UNL     1     -22.404 -13.302  -2.916  1.00  0.00    -0.031 C 
HETATM   14  C   UNL     1     -22.511 -12.490  -3.974  1.00  0.00    -0.028 C 
BRANCH  14  15
HETATM   15  C   UNL     1     -22.386 -12.933  -5.403  1.00  0.00     0.058 C 
BRANCH  15  16
HETATM   16  C   UNL     1     -22.518 -14.450  -5.599  1.00  0.00     0.121 C 
BRANCH  16  17
HETATM   17  C   UNL     1     -21.270 -15.147  -6.154  1.00  0.00     0.032 C 
BRANCH  17  18
HETATM   18  C   UNL     1     -20.377 -14.255  -7.007  1.00  0.00     0.002 C 
BRANCH  18  19
HETATM   19  C   UNL     1     -18.908 -14.357  -6.621  1.00  0.00     0.000 C 
BRANCH  19  20
HETATM   20  C   UNL     1     -18.268 -12.979  -6.660  1.00  0.00    -0.000 C 
BRANCH  20  21
HETATM   21  C   UNL     1     -16.759 -13.118  -6.767  1.00  0.00    -0.005 C 
HETATM   22  C   UNL     1     -16.075 -11.803  -6.457  1.00  0.00     0.005 C 
ENDBRANCH  20  21
ENDBRANCH  19  20
ENDBRANCH  18  19
ENDBRANCH  17  18
ENDBRANCH  16  17
BRANCH  16  23
HETATM   23  O   UNL     1     -23.628 -14.748  -6.446  1.00  0.00    -0.395 OA
HETATM   24  H   UNL     1     -23.840 -13.947  -6.956  1.00  0.00     0.210 HD
ENDBRANCH  16  23
ENDBRANCH  15  16
ENDBRANCH  14  15
ENDBRANCH  12  13
ENDBRANCH  11  12
ENDBRANCH  10  11
ENDBRANCH   9  10
ENDBRANCH   8   9
ENDBRANCH   7   8
ENDBRANCH   6   7
ENDBRANCH   4   6
ENDBRANCH   3   4
ENDBRANCH   2   3
ENDBRANCH   1   2
BRANCH   1  25
HETATM   25  C   UNL     1     -20.670  -6.360  -6.726  1.00  0.00     0.213 C 
BRANCH  25  26
HETATM   26  O   UNL     1     -21.095  -5.043  -6.321  1.00  0.00    -0.319 OA
BRANCH  26  27
HETATM   27  C   UNL     1     -21.343  -4.153  -7.333  1.00  0.00     0.258 C 
HETATM   28  O   UNL     1     -21.509  -2.958  -7.197  1.00  0.00    -0.265 OA
BRANCH  27  29
HETATM   29  C   UNL     1     -21.459  -4.870  -8.654  1.00  0.00     0.111 C 
BRANCH  29  30
HETATM   30  C   UNL     1     -20.449  -4.353  -9.672  1.00  0.00     0.010 C 
BRANCH  30  31
HETATM   31  C   UNL     1     -21.046  -4.301 -11.078  1.00  0.00     0.000 C 
BRANCH  31  32
HETATM   32  C   UNL     1     -22.443  -3.687 -11.073  1.00  0.00     0.000 C 
BRANCH  32  33
HETATM   33  C   UNL     1     -22.457  -2.306 -11.740  1.00  0.00     0.000 C 
BRANCH  33  34
HETATM   34  C   UNL     1     -23.214  -2.264 -13.074  1.00  0.00     0.004 C 
BRANCH  34  35
HETATM   35  C   UNL     1     -24.260  -3.375 -13.165  1.00  0.00     0.027 C 
BRANCH  35  36
HETATM   36  C   UNL     1     -23.912  -4.428 -14.170  1.00  0.00    -0.031 C 
HETATM   37  C   UNL     1     -23.794  -5.727 -13.846  1.00  0.00    -0.028 C 
BRANCH  37  38
HETATM   38  C   UNL     1     -23.609  -6.832 -14.848  1.00  0.00     0.059 C 
BRANCH  38  39
HETATM   39  C   UNL     1     -24.551  -6.702 -16.061  1.00  0.00     0.135 C 
BRANCH  39  40
HETATM   40  C   UNL     1     -24.176  -7.689 -17.186  1.00  0.00     0.033 C 
BRANCH  40  41
HETATM   41  C   UNL     1     -24.036  -7.027 -18.564  1.00  0.00     0.002 C 
BRANCH  41  42
HETATM   42  C   UNL     1     -25.368  -6.814 -19.280  1.00  0.00     0.000 C 
BRANCH  42  43
HETATM   43  C   UNL     1     -25.179  -6.598 -20.779  1.00  0.00    -0.000 C 
BRANCH  43  44
HETATM   44  C   UNL     1     -24.883  -7.919 -21.466  1.00  0.00    -0.005 C 
HETATM   45  C   UNL     1     -23.863  -7.730 -22.571  1.00  0.00     0.005 C 
ENDBRANCH  43  44
ENDBRANCH  42  43
ENDBRANCH  41  42
ENDBRANCH  40  41
ENDBRANCH  39  40
BRANCH  39  46
HETATM   46  O   UNL     1     -25.901  -7.017 -15.661  1.00  0.00    -0.312 OA
BRANCH  46  47
HETATM   47  C   UNL     1     -26.863  -6.126 -16.003  1.00  0.00     0.283 C 
HETATM   48  O   UNL     1     -26.733  -4.916 -16.140  1.00  0.00    -0.260 OA
BRANCH  47  49
HETATM   49  C   UNL     1     -28.122  -6.855 -16.212  1.00  0.00     0.089 C 
HETATM   50  C   UNL     1     -28.614  -6.787 -17.448  1.00  0.00     0.087 C 
BRANCH  50  51
HETATM   51  C   UNL     1     -29.878  -7.469 -17.776  1.00  0.00     0.165 C 
HETATM   52  O   UNL     1     -30.964  -7.124 -17.354  1.00  0.00    -0.647 OA
BRANCH  51  53
HETATM   53  O   UNL     1     -29.651  -8.501 -18.609  1.00  0.00    -0.773 OA
HETATM   54  H   UNL     1     -30.418  -9.109 -18.673  1.00  0.00     0.167 HD
ENDBRANCH  51  53
ENDBRANCH  50  51
ENDBRANCH  47  49
ENDBRANCH  46  47
ENDBRANCH  39  46
ENDBRANCH  38  39
ENDBRANCH  37  38
ENDBRANCH  35  36
ENDBRANCH  34  35
ENDBRANCH  33  34
ENDBRANCH  32  33
ENDBRANCH  31  32
ENDBRANCH  30  31
ENDBRANCH  29  30
ENDBRANCH  27  29
ENDBRANCH  26  27
ENDBRANCH  25  26
ENDBRANCH   1  25
BRANCH   1  55
HETATM   55  O   UNL     1     -19.699  -7.759  -4.986  1.00  0.00    -0.312 OA
BRANCH  55  56
HETATM   56  C   UNL     1     -19.241  -9.019  -5.264  1.00  0.00     0.259 C 
HETATM   57  O   UNL     1     -18.331  -9.287  -6.035  1.00  0.00    -0.265 OA
BRANCH  56  58
HETATM   58  C   UNL     1     -20.050 -10.063  -4.559  1.00  0.00     0.111 C 
BRANCH  58  59
HETATM   59  C   UNL     1     -19.152 -10.971  -3.733  1.00  0.00     0.010 C 
BRANCH  59  60
HETATM   60  C   UNL     1     -18.797 -10.344  -2.386  1.00  0.00     0.000 C 
BRANCH  60  61
HETATM   61  C   UNL     1     -19.283 -11.223  -1.242  1.00  0.00     0.000 C 
BRANCH  61  62
HETATM   62  C   UNL     1     -18.914 -12.680  -1.486  1.00  0.00     0.000 C 
BRANCH  62  63
HETATM   63  C   UNL     1     -18.128 -13.232  -0.302  1.00  0.00     0.004 C 
BRANCH  63  64
HETATM   64  C   UNL     1     -17.346 -12.118   0.377  1.00  0.00     0.027 C 
BRANCH  64  65
HETATM   65  C   UNL     1     -16.280 -12.664   1.272  1.00  0.00    -0.031 C 
HETATM   66  C   UNL     1     -15.881 -13.942   1.226  1.00  0.00    -0.028 C 
BRANCH  66  67
HETATM   67  C   UNL     1     -14.708 -14.480   1.979  1.00  0.00     0.058 C 
BRANCH  67  68
HETATM   68  C   UNL     1     -13.657 -15.086   1.038  1.00  0.00     0.121 C 
BRANCH  68  69
HETATM   69  C   UNL     1     -13.252 -14.148  -0.109  1.00  0.00     0.032 C 
BRANCH  69  70
HETATM   70  C   UNL     1     -13.503 -14.788  -1.482  1.00  0.00     0.002 C 
BRANCH  70  71
HETATM   71  C   UNL     1     -13.107 -13.885  -2.653  1.00  0.00     0.000 C 
BRANCH  71  72
HETATM   72  C   UNL     1     -14.261 -13.658  -3.627  1.00  0.00    -0.000 C 
BRANCH  72  73
HETATM   73  C   UNL     1     -15.487 -13.089  -2.925  1.00  0.00    -0.005 C 
HETATM   74  C   UNL     1     -15.342 -11.588  -2.736  1.00  0.00     0.005 C 
ENDBRANCH  72  73
ENDBRANCH  71  72
ENDBRANCH  70  71
ENDBRANCH  69  70
ENDBRANCH  68  69
BRANCH  68  75
HETATM   75  O   UNL     1     -12.504 -15.406   1.816  1.00  0.00    -0.395 OA
HETATM   76  H   UNL     1     -11.786 -14.815   1.531  1.00  0.00     0.210 HD
ENDBRANCH  68  75
ENDBRANCH  67  68
ENDBRANCH  66  67
ENDBRANCH  64  65
ENDBRANCH  63  64
ENDBRANCH  62  63
ENDBRANCH  61  62
ENDBRANCH  60  61
ENDBRANCH  59  60
ENDBRANCH  58  59
ENDBRANCH  56  58
ENDBRANCH  55  56
ENDBRANCH   1  55
TORSDOF 60
BEGIN_RES ARG D 557
REMARK  4 active torsions:
REMARK  status: ('A' for Active; 'I' for Inactive)
REMARK    1  A    between atoms: CA   and  CB  
REMARK    2  A    between atoms: CB   and  CG  
REMARK    3  A    between atoms: CG   and  CD  
REMARK    4  A    between atoms: CD   and  NE  
REMARK       I    between atoms: NE   and  CZ  
REMARK       I    between atoms: CZ   and  NH1 
REMARK       I    between atoms: CZ   and  NH2 
ROOT
ATOM      1  CA  ARG D 557     -26.217   2.705 -17.014  1.00 35.49     0.159 C 
ENDROOT
BRANCH   1   2
ATOM      2  CB  ARG D 557     -26.789   1.319 -17.183  1.00 35.49     0.034 C 
BRANCH   2   3
ATOM      3  CG  ARG D 557     -28.228   1.227 -17.457  1.00 35.49     0.027 C 
BRANCH   3   4
ATOM      4  CD  ARG D 557     -28.922   0.305 -16.529  1.00 35.49     0.116 C 
BRANCH   4   5
ATOM      5  NE  ARG D 557     -29.235  -0.955 -17.149  1.00 35.49    -0.212 N 
ATOM      6  CZ  ARG D 557     -28.567  -2.076 -16.990  1.00 35.49     0.666 C 
ATOM      7  NH1 ARG D 557     -27.492  -2.159 -16.228  1.00 35.49    -0.235 N 
ATOM      8  NH2 ARG D 557     -29.006  -3.130 -17.614  1.00 35.49    -0.235 N 
ATOM      9  HH  ARG D 557     -27.186  -1.479 -15.807  1.00 35.49     0.174 HD
ATOM     10  HH  ARG D 557     -27.099  -2.918 -16.160  1.00 35.49     0.174 HD
ATOM     11  HH  ARG D 557     -29.707  -3.048 -18.093  1.00 35.49     0.174 HD
ATOM     12  HH  ARG D 557     -28.604  -3.872 -17.533  1.00 35.49     0.174 HD
ATOM     13  HE  ARG D 557     -29.870  -0.976 -17.714  1.00 35.49     0.178 HD
ENDBRANCH   4   5
ENDBRANCH   3   4
ENDBRANCH   2   3
ENDBRANCH   1   2
END_RES ARG D 557
BEGIN_RES GLU D 570
REMARK  3 active torsions:
REMARK  status: ('A' for Active; 'I' for Inactive)
REMARK    5  A    between atoms: CA   and  CB  
REMARK    6  A    between atoms: CB   and  CG  
REMARK    7  A    between atoms: CG   and  CD  
ROOT
ATOM     14  CA  GLU D 570     -18.033  -6.348 -13.375  1.00 32.92     0.160 C 
ENDROOT
BRANCH  14  15
ATOM     15  CB  GLU D 570     -19.500  -6.345 -13.794  1.00 32.92     0.043 C 
BRANCH  15  16
ATOM     16  CG  GLU D 570     -20.076  -7.626 -14.278  1.00 32.92     0.100 C 
BRANCH  16  17
ATOM     17  CD  GLU D 570     -20.482  -7.578 -15.732  1.00 32.92     0.185 C 
ATOM     18  OE1 GLU D 570     -20.470  -6.484 -16.328  1.00 32.92    -0.647 OA
ATOM     19  OE2 GLU D 570     -20.832  -8.643 -16.277  1.00 32.92    -0.647 OA
ENDBRANCH  16  17
ENDBRANCH  15  16
ENDBRANCH  14  15
END_RES GLU D 570
ENDMDL
MODEL 5
REMARK VINA RESULT:      -6.5      2.870     11.634
REMARK WARNING: 32 MAX_TORS EXCEEDED!!!
REMARK  60 active torsions:
REMARK  status: ('A' for Active; 'I' for Inactive)
REMARK    1  A    between atoms: C_2  and  C_3 
REMARK    2  A    between atoms: C_3  and  C_4 
REMARK    3  A    between atoms: C_4  and  C_5 
REMARK    4  A    between atoms: C_5  and  C_6 
REMARK    5  A    between atoms: C_6  and  C_7 
REMARK    6  A    between atoms: C_7  and  C_8 
REMARK    7  A    between atoms: C_7  and  O_73 
REMARK    8  A    between atoms: C_8  and  C_9 
REMARK    9  A    between atoms: C_10  and  C_11 
REMARK   10  A    between atoms: C_11  and  C_12 
REMARK   11  A    between atoms: C_12  and  C_13 
REMARK   12  A    between atoms: C_13  and  C_14 
REMARK   13  A    between atoms: C_14  and  C_15 
REMARK   14  A    between atoms: C_15  and  C_16 
REMARK   15  A    between atoms: C_16  and  C_17 
REMARK   16  A    between atoms: C_17  and  C_18 
REMARK   17  A    between atoms: C_18  and  O_20 
REMARK   18  A    between atoms: O_20  and  C_21 
REMARK   19  A    between atoms: C_21  and  C_22 
REMARK   20  A    between atoms: C_22  and  C_23 
REMARK   21  A    between atoms: C_22  and  O_52 
REMARK   22  A    between atoms: C_23  and  O_24 
REMARK   23  A    between atoms: O_24  and  C_25 
REMARK   24  A    between atoms: C_25  and  C_27 
REMARK   25  A    between atoms: C_27  and  C_28 
REMARK   26  A    between atoms: C_28  and  C_29 
REMARK   27  A    between atoms: C_29  and  C_30 
REMARK   28  A    between atoms: C_30  and  C_31 
REMARK   29  A    between atoms: C_31  and  C_32 
REMARK   30  A    between atoms: C_32  and  C_33 
REMARK   31  A    between atoms: C_33  and  C_34 
REMARK   32  A    between atoms: C_35  and  C_36 
REMARK   33  A    between atoms: C_36  and  C_37 
REMARK   34  A    between atoms: C_37  and  C_38 
REMARK   35  A    between atoms: C_37  and  O_44 
REMARK   36  A    between atoms: C_38  and  C_39 
REMARK   37  A    between atoms: C_39  and  C_40 
REMARK   38  A    between atoms: C_40  and  C_41 
REMARK   39  A    between atoms: C_41  and  C_42 
REMARK   40  A    between atoms: O_44  and  C_45 
REMARK   41  A    between atoms: C_45  and  C_47 
REMARK   42  A    between atoms: C_48  and  C_49 
REMARK   43  A    between atoms: C_49  and  O_51 
REMARK   44  A    between atoms: O_52  and  C_53 
REMARK   45  A    between atoms: C_53  and  C_55 
REMARK   46  A    between atoms: C_55  and  C_56 
REMARK   47  A    between atoms: C_56  and  C_57 
REMARK   48  A    between atoms: C_57  and  C_58 
REMARK   49  A    between atoms: C_58  and  C_59 
REMARK   50  A    between atoms: C_59  and  C_60 
REMARK   51  A    between atoms: C_60  and  C_61 
REMARK   52  A    between atoms: C_61  and  C_62 
REMARK   53  A    between atoms: C_63  and  C_64 
REMARK   54  A    between atoms: C_64  and  C_65 
REMARK   55  A    between atoms: C_65  and  C_66 
REMARK   56  A    between atoms: C_65  and  O_72 
REMARK   57  A    between atoms: C_66  and  C_67 
REMARK   58  A    between atoms: C_67  and  C_68 
REMARK   59  A    between atoms: C_68  and  C_69 
REMARK   60  A    between atoms: C_69  and  C_70 
ROOT
HETATM    1  C   UNL     1     -20.649  -8.379  -4.082  1.00  0.00     0.180 C 
ENDROOT
BRANCH   1   2
HETATM    2  C   UNL     1     -20.013  -7.809  -5.360  1.00  0.00     0.213 C 
BRANCH   2   3
HETATM    3  O   UNL     1     -20.929  -6.958  -6.070  1.00  0.00    -0.319 OA
BRANCH   3   4
HETATM    4  C   UNL     1     -20.369  -5.972  -6.827  1.00  0.00     0.258 C 
HETATM    5  O   UNL     1     -19.698  -6.183  -7.831  1.00  0.00    -0.265 OA
BRANCH   4   6
HETATM    6  C   UNL     1     -20.707  -4.630  -6.256  1.00  0.00     0.111 C 
BRANCH   6   7
HETATM    7  C   UNL     1     -21.348  -3.745  -7.321  1.00  0.00     0.010 C 
BRANCH   7   8
HETATM    8  C   UNL     1     -22.708  -4.269  -7.771  1.00  0.00     0.000 C 
BRANCH   8   9
HETATM    9  C   UNL     1     -22.802  -4.249  -9.295  1.00  0.00     0.000 C 
BRANCH   9  10
HETATM   10  C   UNL     1     -21.436  -4.026  -9.935  1.00  0.00     0.000 C 
BRANCH  10  11
HETATM   11  C   UNL     1     -21.482  -4.373 -11.420  1.00  0.00     0.004 C 
BRANCH  11  12
HETATM   12  C   UNL     1     -22.912  -4.632 -11.885  1.00  0.00     0.027 C 
BRANCH  12  13
HETATM   13  C   UNL     1     -22.881  -5.213 -13.268  1.00  0.00    -0.031 C 
HETATM   14  C   UNL     1     -23.985  -5.609 -13.912  1.00  0.00    -0.028 C 
BRANCH  14  15
HETATM   15  C   UNL     1     -23.990  -6.349 -15.218  1.00  0.00     0.058 C 
BRANCH  15  16
HETATM   16  C   UNL     1     -25.377  -6.458 -15.867  1.00  0.00     0.121 C 
BRANCH  16  17
HETATM   17  C   UNL     1     -26.394  -5.406 -15.411  1.00  0.00     0.032 C 
BRANCH  17  18
HETATM   18  C   UNL     1     -27.189  -4.764 -16.542  1.00  0.00     0.002 C 
BRANCH  18  19
HETATM   19  C   UNL     1     -27.782  -5.791 -17.496  1.00  0.00     0.000 C 
BRANCH  19  20
HETATM   20  C   UNL     1     -28.745  -5.109 -18.452  1.00  0.00    -0.000 C 
BRANCH  20  21
HETATM   21  C   UNL     1     -29.612  -4.121 -17.688  1.00  0.00    -0.005 C 
HETATM   22  C   UNL     1     -30.747  -4.836 -16.985  1.00  0.00     0.005 C 
ENDBRANCH  20  21
ENDBRANCH  19  20
ENDBRANCH  18  19
ENDBRANCH  17  18
ENDBRANCH  16  17
BRANCH  16  23
HETATM   23  O   UNL     1     -25.928  -7.757 -15.650  1.00  0.00    -0.395 OA
HETATM   24  H   UNL     1     -26.639  -7.895 -16.298  1.00  0.00     0.210 HD
ENDBRANCH  16  23
ENDBRANCH  15  16
ENDBRANCH  14  15
ENDBRANCH  12  13
ENDBRANCH  11  12
ENDBRANCH  10  11
ENDBRANCH   9  10
ENDBRANCH   8   9
ENDBRANCH   7   8
ENDBRANCH   6   7
ENDBRANCH   4   6
ENDBRANCH   3   4
ENDBRANCH   2   3
ENDBRANCH   1   2
BRANCH   1  25
HETATM   25  C   UNL     1     -21.026  -7.240  -3.131  1.00  0.00     0.213 C 
BRANCH  25  26
HETATM   26  O   UNL     1     -20.949  -7.679  -1.760  1.00  0.00    -0.319 OA
BRANCH  26  27
HETATM   27  C   UNL     1     -21.960  -7.259  -0.936  1.00  0.00     0.258 C 
HETATM   28  O   UNL     1     -22.709  -6.328  -1.155  1.00  0.00    -0.265 OA
BRANCH  27  29
HETATM   29  C   UNL     1     -21.981  -8.069   0.335  1.00  0.00     0.111 C 
BRANCH  29  30
HETATM   30  C   UNL     1     -23.286  -8.838   0.499  1.00  0.00     0.010 C 
BRANCH  30  31
HETATM   31  C   UNL     1     -23.349 -10.041  -0.440  1.00  0.00     0.000 C 
BRANCH  31  32
HETATM   32  C   UNL     1     -23.804 -11.302   0.289  1.00  0.00     0.000 C 
BRANCH  32  33
HETATM   33  C   UNL     1     -23.917 -12.498  -0.663  1.00  0.00     0.000 C 
BRANCH  33  34
HETATM   34  C   UNL     1     -23.091 -13.718  -0.235  1.00  0.00     0.004 C 
BRANCH  34  35
HETATM   35  C   UNL     1     -23.014 -14.766  -1.345  1.00  0.00     0.027 C 
BRANCH  35  36
HETATM   36  C   UNL     1     -21.614 -15.209  -1.636  1.00  0.00    -0.031 C 
HETATM   37  C   UNL     1     -21.118 -15.270  -2.884  1.00  0.00    -0.028 C 
BRANCH  37  38
HETATM   38  C   UNL     1     -19.677 -15.549  -3.206  1.00  0.00     0.059 C 
BRANCH  38  39
HETATM   39  C   UNL     1     -19.160 -14.720  -4.397  1.00  0.00     0.135 C 
BRANCH  39  40
HETATM   40  C   UNL     1     -20.314 -14.070  -5.188  1.00  0.00     0.033 C 
BRANCH  40  41
HETATM   41  C   UNL     1     -20.413 -14.554  -6.642  1.00  0.00     0.002 C 
BRANCH  41  42
HETATM   42  C   UNL     1     -20.567 -13.422  -7.655  1.00  0.00     0.000 C 
BRANCH  42  43
HETATM   43  C   UNL     1     -19.405 -13.383  -8.645  1.00  0.00    -0.000 C 
BRANCH  43  44
HETATM   44  C   UNL     1     -18.413 -12.305  -8.246  1.00  0.00    -0.005 C 
HETATM   45  C   UNL     1     -17.169 -12.922  -7.638  1.00  0.00     0.005 C 
ENDBRANCH  43  44
ENDBRANCH  42  43
ENDBRANCH  41  42
ENDBRANCH  40  41
ENDBRANCH  39  40
BRANCH  39  46
HETATM   46  O   UNL     1     -18.328 -13.644  -3.914  1.00  0.00    -0.312 OA
BRANCH  46  47
HETATM   47  C   UNL     1     -16.988 -13.812  -4.022  1.00  0.00     0.283 C 
HETATM   48  O   UNL     1     -16.401 -14.771  -4.509  1.00  0.00    -0.260 OA
BRANCH  47  49
HETATM   49  C   UNL     1     -16.322 -12.624  -3.467  1.00  0.00     0.089 C 
HETATM   50  C   UNL     1     -17.091 -11.542  -3.371  1.00  0.00     0.087 C 
BRANCH  50  51
HETATM   51  C   UNL     1     -16.532 -10.286  -2.840  1.00  0.00     0.165 C 
HETATM   52  O   UNL     1     -15.445 -10.201  -2.304  1.00  0.00    -0.647 OA
BRANCH  51  53
HETATM   53  O   UNL     1     -17.387  -9.268  -3.047  1.00  0.00    -0.773 OA
HETATM   54  H   UNL     1     -18.001  -9.438  -3.792  1.00  0.00     0.167 HD
ENDBRANCH  51  53
ENDBRANCH  50  51
ENDBRANCH  47  49
ENDBRANCH  46  47
ENDBRANCH  39  46
ENDBRANCH  38  39
ENDBRANCH  37  38
ENDBRANCH  35  36
ENDBRANCH  34  35
ENDBRANCH  33  34
ENDBRANCH  32  33
ENDBRANCH  31  32
ENDBRANCH  30  31
ENDBRANCH  29  30
ENDBRANCH  27  29
ENDBRANCH  26  27
ENDBRANCH  25  26
ENDBRANCH   1  25
BRANCH   1  55
HETATM   55  O   UNL     1     -21.845  -9.129  -4.432  1.00  0.00    -0.312 OA
BRANCH  55  56
HETATM   56  C   UNL     1     -21.926 -10.400  -3.932  1.00  0.00     0.259 C 
HETATM   57  O   UNL     1     -22.959 -11.037  -3.779  1.00  0.00    -0.265 OA
BRANCH  56  58
HETATM   58  C   UNL     1     -20.581 -10.910  -3.513  1.00  0.00     0.111 C 
BRANCH  58  59
HETATM   59  C   UNL     1     -20.687 -11.702  -2.218  1.00  0.00     0.010 C 
BRANCH  59  60
HETATM   60  C   UNL     1     -19.931 -11.024  -1.077  1.00  0.00     0.000 C 
BRANCH  60  61
HETATM   61  C   UNL     1     -19.634 -12.021   0.034  1.00  0.00     0.000 C 
BRANCH  61  62
HETATM   62  C   UNL     1     -18.632 -13.067  -0.434  1.00  0.00     0.000 C 
BRANCH  62  63
HETATM   63  C   UNL     1     -17.536 -13.254   0.610  1.00  0.00     0.004 C 
BRANCH  63  64
HETATM   64  C   UNL     1     -16.399 -12.276   0.360  1.00  0.00     0.027 C 
BRANCH  64  65
HETATM   65  C   UNL     1     -15.137 -12.719   1.032  1.00  0.00    -0.031 C 
HETATM   66  C   UNL     1     -14.707 -13.987   0.997  1.00  0.00    -0.028 C 
BRANCH  66  67
HETATM   67  C   UNL     1     -13.374 -14.431   1.507  1.00  0.00     0.058 C 
BRANCH  67  68
HETATM   68  C   UNL     1     -12.263 -14.200   0.471  1.00  0.00     0.121 C 
BRANCH  68  69
HETATM   69  C   UNL     1     -10.990 -13.584   1.070  1.00  0.00     0.032 C 
BRANCH  69  70
HETATM   70  C   UNL     1      -9.774 -14.502   0.884  1.00  0.00     0.002 C 
BRANCH  70  71
HETATM   71  C   UNL     1      -8.699 -14.309   1.955  1.00  0.00     0.000 C 
BRANCH  71  72
HETATM   72  C   UNL     1      -9.227 -13.574   3.185  1.00  0.00    -0.000 C 
BRANCH  72  73
HETATM   73  C   UNL     1      -8.646 -14.141   4.474  1.00  0.00    -0.005 C 
HETATM   74  C   UNL     1      -9.097 -13.315   5.667  1.00  0.00     0.005 C 
ENDBRANCH  72  73
ENDBRANCH  71  72
ENDBRANCH  70  71
ENDBRANCH  69  70
ENDBRANCH  68  69
BRANCH  68  75
HETATM   75  O   UNL     1     -11.946 -15.459  -0.120  1.00  0.00    -0.395 OA
HETATM   76  H   UNL     1     -11.268 -15.880   0.435  1.00  0.00     0.210 HD
ENDBRANCH  68  75
ENDBRANCH  67  68
ENDBRANCH  66  67
ENDBRANCH  64  65
ENDBRANCH  63  64
ENDBRANCH  62  63
ENDBRANCH  61  62
ENDBRANCH  60  61
ENDBRANCH  59  60
ENDBRANCH  58  59
ENDBRANCH  56  58
ENDBRANCH  55  56
ENDBRANCH   1  55
TORSDOF 60
BEGIN_RES ARG D 557
REMARK  4 active torsions:
REMARK  status: ('A' for Active; 'I' for Inactive)
REMARK    1  A    between atoms: CA   and  CB  
REMARK    2  A    between atoms: CB   and  CG  
REMARK    3  A    between atoms: CG   and  CD  
REMARK    4  A    between atoms: CD   and  NE  
REMARK       I    between atoms: NE   and  CZ  
REMARK       I    between atoms: CZ   and  NH1 
REMARK       I    between atoms: CZ   and  NH2 
ROOT
ATOM      1  CA  ARG D 557     -26.217   2.705 -17.014  1.00 35.49     0.159 C 
ENDROOT
BRANCH   1   2
ATOM      2  CB  ARG D 557     -26.789   1.319 -17.183  1.00 35.49     0.034 C 
BRANCH   2   3
ATOM      3  CG  ARG D 557     -25.977   0.204 -16.681  1.00 35.49     0.027 C 
BRANCH   3   4
ATOM      4  CD  ARG D 557     -26.806  -0.926 -16.201  1.00 35.49     0.116 C 
BRANCH   4   5
ATOM      5  NE  ARG D 557     -26.194  -1.616 -15.096  1.00 35.49    -0.212 N 
ATOM      6  CZ  ARG D 557     -24.969  -1.429 -14.657  1.00 35.49     0.666 C 
ATOM      7  NH1 ARG D 557     -24.140  -0.567 -15.215  1.00 35.49    -0.235 N 
ATOM      8  NH2 ARG D 557     -24.587  -2.128 -13.628  1.00 35.49    -0.235 N 
ATOM      9  HH  ARG D 557     -24.371  -0.094 -15.891  1.00 35.49     0.174 HD
ATOM     10  HH  ARG D 557     -23.354  -0.485 -14.883  1.00 35.49     0.174 HD
ATOM     11  HH  ARG D 557     -25.147  -2.672 -13.283  1.00 35.49     0.174 HD
ATOM     12  HH  ARG D 557     -23.806  -2.032 -13.313  1.00 35.49     0.174 HD
ATOM     13  HE  ARG D 557     -26.633  -2.241 -14.723  1.00 35.49     0.178 HD
ENDBRANCH   4   5
ENDBRANCH   3   4
ENDBRANCH   2   3
ENDBRANCH   1   2
END_RES ARG D 557
BEGIN_RES GLU D 570
REMARK  3 active torsions:
REMARK  status: ('A' for Active; 'I' for Inactive)
REMARK    5  A    between atoms: CA   and  CB  
REMARK    6  A    between atoms: CB   and  CG  
REMARK    7  A    between atoms: CG   and  CD  
ROOT
ATOM     14  CA  GLU D 570     -18.033  -6.348 -13.375  1.00 32.92     0.160 C 
ENDROOT
BRANCH  14  15
ATOM     15  CB  GLU D 570     -19.500  -6.345 -13.794  1.00 32.92     0.043 C 
BRANCH  15  16
ATOM     16  CG  GLU D 570     -20.085  -7.633 -14.249  1.00 32.92     0.100 C 
BRANCH  16  17
ATOM     17  CD  GLU D 570     -20.537  -7.599 -15.690  1.00 32.92     0.185 C 
ATOM     18  OE1 GLU D 570     -20.604  -6.502 -16.277  1.00 32.92    -0.647 OA
ATOM     19  OE2 GLU D 570     -20.844  -8.679 -16.232  1.00 32.92    -0.647 OA
ENDBRANCH  16  17
ENDBRANCH  15  16
ENDBRANCH  14  15
END_RES GLU D 570
ENDMDL
MODEL 6
REMARK VINA RESULT:      -6.5      1.916      3.544
REMARK WARNING: 32 MAX_TORS EXCEEDED!!!
REMARK  60 active torsions:
REMARK  status: ('A' for Active; 'I' for Inactive)
REMARK    1  A    between atoms: C_2  and  C_3 
REMARK    2  A    between atoms: C_3  and  C_4 
REMARK    3  A    between atoms: C_4  and  C_5 
REMARK    4  A    between atoms: C_5  and  C_6 
REMARK    5  A    between atoms: C_6  and  C_7 
REMARK    6  A    between atoms: C_7  and  C_8 
REMARK    7  A    between atoms: C_7  and  O_73 
REMARK    8  A    between atoms: C_8  and  C_9 
REMARK    9  A    between atoms: C_10  and  C_11 
REMARK   10  A    between atoms: C_11  and  C_12 
REMARK   11  A    between atoms: C_12  and  C_13 
REMARK   12  A    between atoms: C_13  and  C_14 
REMARK   13  A    between atoms: C_14  and  C_15 
REMARK   14  A    between atoms: C_15  and  C_16 
REMARK   15  A    between atoms: C_16  and  C_17 
REMARK   16  A    between atoms: C_17  and  C_18 
REMARK   17  A    between atoms: C_18  and  O_20 
REMARK   18  A    between atoms: O_20  and  C_21 
REMARK   19  A    between atoms: C_21  and  C_22 
REMARK   20  A    between atoms: C_22  and  C_23 
REMARK   21  A    between atoms: C_22  and  O_52 
REMARK   22  A    between atoms: C_23  and  O_24 
REMARK   23  A    between atoms: O_24  and  C_25 
REMARK   24  A    between atoms: C_25  and  C_27 
REMARK   25  A    between atoms: C_27  and  C_28 
REMARK   26  A    between atoms: C_28  and  C_29 
REMARK   27  A    between atoms: C_29  and  C_30 
REMARK   28  A    between atoms: C_30  and  C_31 
REMARK   29  A    between atoms: C_31  and  C_32 
REMARK   30  A    between atoms: C_32  and  C_33 
REMARK   31  A    between atoms: C_33  and  C_34 
REMARK   32  A    between atoms: C_35  and  C_36 
REMARK   33  A    between atoms: C_36  and  C_37 
REMARK   34  A    between atoms: C_37  and  C_38 
REMARK   35  A    between atoms: C_37  and  O_44 
REMARK   36  A    between atoms: C_38  and  C_39 
REMARK   37  A    between atoms: C_39  and  C_40 
REMARK   38  A    between atoms: C_40  and  C_41 
REMARK   39  A    between atoms: C_41  and  C_42 
REMARK   40  A    between atoms: O_44  and  C_45 
REMARK   41  A    between atoms: C_45  and  C_47 
REMARK   42  A    between atoms: C_48  and  C_49 
REMARK   43  A    between atoms: C_49  and  O_51 
REMARK   44  A    between atoms: O_52  and  C_53 
REMARK   45  A    between atoms: C_53  and  C_55 
REMARK   46  A    between atoms: C_55  and  C_56 
REMARK   47  A    between atoms: C_56  and  C_57 
REMARK   48  A    between atoms: C_57  and  C_58 
REMARK   49  A    between atoms: C_58  and  C_59 
REMARK   50  A    between atoms: C_59  and  C_60 
REMARK   51  A    between atoms: C_60  and  C_61 
REMARK   52  A    between atoms: C_61  and  C_62 
REMARK   53  A    between atoms: C_63  and  C_64 
REMARK   54  A    between atoms: C_64  and  C_65 
REMARK   55  A    between atoms: C_65  and  C_66 
REMARK   56  A    between atoms: C_65  and  O_72 
REMARK   57  A    between atoms: C_66  and  C_67 
REMARK   58  A    between atoms: C_67  and  C_68 
REMARK   59  A    between atoms: C_68  and  C_69 
REMARK   60  A    between atoms: C_69  and  C_70 
ROOT
HETATM    1  C   UNL     1     -21.684  -4.808  -7.990  1.00  0.00     0.180 C 
ENDROOT
BRANCH   1   2
HETATM    2  C   UNL     1     -22.611  -4.545  -6.792  1.00  0.00     0.213 C 
BRANCH   2   3
HETATM    3  O   UNL     1     -22.185  -5.273  -5.627  1.00  0.00    -0.319 OA
BRANCH   3   4
HETATM    4  C   UNL     1     -23.116  -6.091  -5.058  1.00  0.00     0.258 C 
HETATM    5  O   UNL     1     -24.320  -6.009  -5.275  1.00  0.00    -0.265 OA
BRANCH   4   6
HETATM    6  C   UNL     1     -22.447  -7.085  -4.159  1.00  0.00     0.111 C 
BRANCH   6   7
HETATM    7  C   UNL     1     -21.618  -6.368  -3.098  1.00  0.00     0.010 C 
BRANCH   7   8
HETATM    8  C   UNL     1     -21.254  -7.277  -1.929  1.00  0.00     0.000 C 
BRANCH   8   9
HETATM    9  C   UNL     1     -22.303  -7.160  -0.825  1.00  0.00     0.000 C 
BRANCH   9  10
HETATM   10  C   UNL     1     -21.953  -8.036   0.372  1.00  0.00     0.000 C 
BRANCH  10  11
HETATM   11  C   UNL     1     -21.841  -9.496  -0.051  1.00  0.00     0.004 C 
BRANCH  11  12
HETATM   12  C   UNL     1     -23.209 -10.173  -0.073  1.00  0.00     0.027 C 
BRANCH  12  13
HETATM   13  C   UNL     1     -23.395 -10.862  -1.393  1.00  0.00    -0.031 C 
HETATM   14  C   UNL     1     -22.566 -10.679  -2.428  1.00  0.00    -0.028 C 
BRANCH  14  15
HETATM   15  C   UNL     1     -22.803 -11.209  -3.812  1.00  0.00     0.058 C 
BRANCH  15  16
HETATM   16  C   UNL     1     -21.725 -12.189  -4.298  1.00  0.00     0.121 C 
BRANCH  16  17
HETATM   17  C   UNL     1     -20.743 -12.663  -3.220  1.00  0.00     0.032 C 
BRANCH  17  18
HETATM   18  C   UNL     1     -19.279 -12.375  -3.529  1.00  0.00     0.002 C 
BRANCH  18  19
HETATM   19  C   UNL     1     -18.486 -13.638  -3.832  1.00  0.00     0.000 C 
BRANCH  19  20
HETATM   20  C   UNL     1     -17.872 -13.540  -5.219  1.00  0.00    -0.000 C 
BRANCH  20  21
HETATM   21  C   UNL     1     -16.396 -13.895  -5.152  1.00  0.00    -0.005 C 
HETATM   22  C   UNL     1     -15.705 -13.566  -6.458  1.00  0.00     0.005 C 
ENDBRANCH  20  21
ENDBRANCH  19  20
ENDBRANCH  18  19
ENDBRANCH  17  18
ENDBRANCH  16  17
BRANCH  16  23
HETATM   23  O   UNL     1     -20.985 -11.620  -5.378  1.00  0.00    -0.395 OA
HETATM   24  H   UNL     1     -20.062 -11.516  -5.088  1.00  0.00     0.210 HD
ENDBRANCH  16  23
ENDBRANCH  15  16
ENDBRANCH  14  15
ENDBRANCH  12  13
ENDBRANCH  11  12
ENDBRANCH  10  11
ENDBRANCH   9  10
ENDBRANCH   8   9
ENDBRANCH   7   8
ENDBRANCH   6   7
ENDBRANCH   4   6
ENDBRANCH   3   4
ENDBRANCH   2   3
ENDBRANCH   1   2
BRANCH   1  25
HETATM   25  C   UNL     1     -22.357  -4.347  -9.285  1.00  0.00     0.213 C 
BRANCH  25  26
HETATM   26  O   UNL     1     -23.739  -4.016  -9.046  1.00  0.00    -0.319 OA
BRANCH  26  27
HETATM   27  C   UNL     1     -24.398  -3.403 -10.079  1.00  0.00     0.258 C 
HETATM   28  O   UNL     1     -25.603  -3.285 -10.177  1.00  0.00    -0.265 OA
BRANCH  27  29
HETATM   29  C   UNL     1     -23.424  -2.947 -11.135  1.00  0.00     0.111 C 
BRANCH  29  30
HETATM   30  C   UNL     1     -24.051  -2.940 -12.524  1.00  0.00     0.010 C 
BRANCH  30  31
HETATM   31  C   UNL     1     -22.988  -2.888 -13.619  1.00  0.00     0.000 C 
BRANCH  31  32
HETATM   32  C   UNL     1     -22.702  -4.273 -14.192  1.00  0.00     0.000 C 
BRANCH  32  33
HETATM   33  C   UNL     1     -23.857  -5.245 -13.930  1.00  0.00     0.000 C 
BRANCH  33  34
HETATM   34  C   UNL     1     -23.680  -6.619 -14.589  1.00  0.00     0.004 C 
BRANCH  34  35
HETATM   35  C   UNL     1     -24.240  -6.639 -16.012  1.00  0.00     0.027 C 
BRANCH  35  36
HETATM   36  C   UNL     1     -25.652  -7.132 -16.080  1.00  0.00    -0.031 C 
HETATM   37  C   UNL     1     -26.711  -6.309 -15.988  1.00  0.00    -0.028 C 
BRANCH  37  38
HETATM   38  C   UNL     1     -28.133  -6.739 -16.216  1.00  0.00     0.059 C 
BRANCH  38  39
HETATM   39  C   UNL     1     -28.781  -6.041 -17.427  1.00  0.00     0.135 C 
BRANCH  39  40
HETATM   40  C   UNL     1     -28.590  -6.852 -18.726  1.00  0.00     0.033 C 
BRANCH  40  41
HETATM   41  C   UNL     1     -27.437  -6.342 -19.604  1.00  0.00     0.002 C 
BRANCH  41  42
HETATM   42  C   UNL     1     -26.814  -7.424 -20.484  1.00  0.00     0.000 C 
BRANCH  42  43
HETATM   43  C   UNL     1     -25.291  -7.426 -20.387  1.00  0.00    -0.000 C 
BRANCH  43  44
HETATM   44  C   UNL     1     -24.684  -6.812 -21.636  1.00  0.00    -0.005 C 
HETATM   45  C   UNL     1     -23.920  -7.855 -22.427  1.00  0.00     0.005 C 
ENDBRANCH  43  44
ENDBRANCH  42  43
ENDBRANCH  41  42
ENDBRANCH  40  41
ENDBRANCH  39  40
BRANCH  39  46
HETATM   46  O   UNL     1     -30.204  -5.924 -17.214  1.00  0.00    -0.312 OA
BRANCH  46  47
HETATM   47  C   UNL     1     -30.729  -4.676 -17.265  1.00  0.00     0.283 C 
HETATM   48  O   UNL     1     -30.348  -3.743 -17.962  1.00  0.00    -0.260 OA
BRANCH  47  49
HETATM   49  C   UNL     1     -31.873  -4.612 -16.344  1.00  0.00     0.089 C 
HETATM   50  C   UNL     1     -33.017  -4.208 -16.894  1.00  0.00     0.087 C 
BRANCH  50  51
HETATM   51  C   UNL     1     -34.231  -4.094 -16.068  1.00  0.00     0.165 C 
HETATM   52  O   UNL     1     -34.789  -3.042 -15.824  1.00  0.00    -0.647 OA
BRANCH  51  53
HETATM   53  O   UNL     1     -34.626  -5.308 -15.644  1.00  0.00    -0.773 OA
HETATM   54  H   UNL     1     -35.530  -5.299 -15.263  1.00  0.00     0.167 HD
ENDBRANCH  51  53
ENDBRANCH  50  51
ENDBRANCH  47  49
ENDBRANCH  46  47
ENDBRANCH  39  46
ENDBRANCH  38  39
ENDBRANCH  37  38
ENDBRANCH  35  36
ENDBRANCH  34  35
ENDBRANCH  33  34
ENDBRANCH  32  33
ENDBRANCH  31  32
ENDBRANCH  30  31
ENDBRANCH  29  30
ENDBRANCH  27  29
ENDBRANCH  26  27
ENDBRANCH  25  26
ENDBRANCH   1  25
BRANCH   1  55
HETATM   55  O   UNL     1     -20.441  -4.074  -7.807  1.00  0.00    -0.312 OA
BRANCH  55  56
HETATM   56  C   UNL     1     -19.341  -4.824  -7.491  1.00  0.00     0.259 C 
HETATM   57  O   UNL     1     -18.198  -4.399  -7.395  1.00  0.00    -0.265 OA
BRANCH  56  58
HETATM   58  C   UNL     1     -19.690  -6.273  -7.344  1.00  0.00     0.111 C 
BRANCH  58  59
HETATM   59  C   UNL     1     -19.282  -6.788  -5.972  1.00  0.00     0.010 C 
BRANCH  59  60
HETATM   60  C   UNL     1     -19.655  -8.257  -5.784  1.00  0.00     0.000 C 
BRANCH  60  61
HETATM   61  C   UNL     1     -18.544  -9.004  -5.061  1.00  0.00     0.000 C 
BRANCH  61  62
HETATM   62  C   UNL     1     -17.790  -9.912  -6.023  1.00  0.00     0.000 C 
BRANCH  62  63
HETATM   63  C   UNL     1     -16.335 -10.051  -5.589  1.00  0.00     0.004 C 
BRANCH  63  64
HETATM   64  C   UNL     1     -16.181  -9.654  -4.129  1.00  0.00     0.027 C 
BRANCH  64  65
HETATM   65  C   UNL     1     -16.065 -10.855  -3.244  1.00  0.00    -0.031 C 
HETATM   66  C   UNL     1     -16.301 -10.808  -1.927  1.00  0.00    -0.028 C 
BRANCH  66  67
HETATM   67  C   UNL     1     -16.363 -12.014  -1.046  1.00  0.00     0.058 C 
BRANCH  67  68
HETATM   68  C   UNL     1     -17.133 -11.730   0.252  1.00  0.00     0.121 C 
BRANCH  68  69
HETATM   69  C   UNL     1     -18.579 -12.249   0.229  1.00  0.00     0.032 C 
BRANCH  69  70
HETATM   70  C   UNL     1     -18.642 -13.737  -0.142  1.00  0.00     0.002 C 
BRANCH  70  71
HETATM   71  C   UNL     1     -19.992 -14.385   0.177  1.00  0.00     0.000 C 
BRANCH  71  72
HETATM   72  C   UNL     1     -21.071 -13.353   0.498  1.00  0.00    -0.000 C 
BRANCH  72  73
HETATM   73  C   UNL     1     -21.915 -13.776   1.694  1.00  0.00    -0.005 C 
HETATM   74  C   UNL     1     -23.373 -13.410   1.468  1.00  0.00     0.005 C 
ENDBRANCH  72  73
ENDBRANCH  71  72
ENDBRANCH  70  71
ENDBRANCH  69  70
ENDBRANCH  68  69
BRANCH  68  75
HETATM   75  O   UNL     1     -16.426 -12.351   1.325  1.00  0.00    -0.395 OA
HETATM   76  H   UNL     1     -15.601 -11.855   1.458  1.00  0.00     0.210 HD
ENDBRANCH  68  75
ENDBRANCH  67  68
ENDBRANCH  66  67
ENDBRANCH  64  65
ENDBRANCH  63  64
ENDBRANCH  62  63
ENDBRANCH  61  62
ENDBRANCH  60  61
ENDBRANCH  59  60
ENDBRANCH  58  59
ENDBRANCH  56  58
ENDBRANCH  55  56
ENDBRANCH   1  55
TORSDOF 60
BEGIN_RES ARG D 557
REMARK  4 active torsions:
REMARK  status: ('A' for Active; 'I' for Inactive)
REMARK    1  A    between atoms: CA   and  CB  
REMARK    2  A    between atoms: CB   and  CG  
REMARK    3  A    between atoms: CG   and  CD  
REMARK    4  A    between atoms: CD   and  NE  
REMARK       I    between atoms: NE   and  CZ  
REMARK       I    between atoms: CZ   and  NH1 
REMARK       I    between atoms: CZ   and  NH2 
ROOT
ATOM      1  CA  ARG D 557     -26.217   2.705 -17.014  1.00 35.49     0.159 C 
ENDROOT
BRANCH   1   2
ATOM      2  CB  ARG D 557     -26.789   1.319 -17.183  1.00 35.49     0.034 C 
BRANCH   2   3
ATOM      3  CG  ARG D 557     -28.234   1.170 -16.973  1.00 35.49     0.027 C 
BRANCH   3   4
ATOM      4  CD  ARG D 557     -28.600  -0.187 -16.508  1.00 35.49     0.116 C 
BRANCH   4   5
ATOM      5  NE  ARG D 557     -27.498  -0.857 -15.869  1.00 35.49    -0.212 N 
ATOM      6  CZ  ARG D 557     -27.193  -2.128 -15.999  1.00 35.49     0.666 C 
ATOM      7  NH1 ARG D 557     -27.900  -2.955 -16.746  1.00 35.49    -0.235 N 
ATOM      8  NH2 ARG D 557     -26.144  -2.562 -15.361  1.00 35.49    -0.235 N 
ATOM      9  HH  ARG D 557     -28.593  -2.691 -17.176  1.00 35.49     0.174 HD
ATOM     10  HH  ARG D 557     -27.651  -3.774 -16.795  1.00 35.49     0.174 HD
ATOM     11  HH  ARG D 557     -25.702  -2.004 -14.891  1.00 35.49     0.174 HD
ATOM     12  HH  ARG D 557     -25.913  -3.375 -15.423  1.00 35.49     0.174 HD
ATOM     13  HE  ARG D 557     -27.032  -0.416 -15.311  1.00 35.49     0.178 HD
ENDBRANCH   4   5
ENDBRANCH   3   4
ENDBRANCH   2   3
ENDBRANCH   1   2
END_RES ARG D 557
BEGIN_RES GLU D 570
REMARK  3 active torsions:
REMARK  status: ('A' for Active; 'I' for Inactive)
REMARK    5  A    between atoms: CA   and  CB  
REMARK    6  A    between atoms: CB   and  CG  
REMARK    7  A    between atoms: CG   and  CD  
ROOT
ATOM     14  CA  GLU D 570     -18.033  -6.348 -13.375  1.00 32.92     0.160 C 
ENDROOT
BRANCH  14  15
ATOM     15  CB  GLU D 570     -19.500  -6.345 -13.794  1.00 32.92     0.043 C 
BRANCH  15  16
ATOM     16  CG  GLU D 570     -20.077  -7.627 -14.275  1.00 32.92     0.100 C 
BRANCH  16  17
ATOM     17  CD  GLU D 570     -20.514  -7.570 -15.721  1.00 32.92     0.185 C 
ATOM     18  OE1 GLU D 570     -20.854  -8.624 -16.292  1.00 32.92    -0.647 OA
ATOM     19  OE2 GLU D 570     -20.501  -6.463 -16.293  1.00 32.92    -0.647 OA
ENDBRANCH  16  17
ENDBRANCH  15  16
ENDBRANCH  14  15
END_RES GLU D 570
ENDMDL
MODEL 7
REMARK VINA RESULT:      -6.4      2.578     12.434
REMARK WARNING: 32 MAX_TORS EXCEEDED!!!
REMARK  60 active torsions:
REMARK  status: ('A' for Active; 'I' for Inactive)
REMARK    1  A    between atoms: C_2  and  C_3 
REMARK    2  A    between atoms: C_3  and  C_4 
REMARK    3  A    between atoms: C_4  and  C_5 
REMARK    4  A    between atoms: C_5  and  C_6 
REMARK    5  A    between atoms: C_6  and  C_7 
REMARK    6  A    between atoms: C_7  and  C_8 
REMARK    7  A    between atoms: C_7  and  O_73 
REMARK    8  A    between atoms: C_8  and  C_9 
REMARK    9  A    between atoms: C_10  and  C_11 
REMARK   10  A    between atoms: C_11  and  C_12 
REMARK   11  A    between atoms: C_12  and  C_13 
REMARK   12  A    between atoms: C_13  and  C_14 
REMARK   13  A    between atoms: C_14  and  C_15 
REMARK   14  A    between atoms: C_15  and  C_16 
REMARK   15  A    between atoms: C_16  and  C_17 
REMARK   16  A    between atoms: C_17  and  C_18 
REMARK   17  A    between atoms: C_18  and  O_20 
REMARK   18  A    between atoms: O_20  and  C_21 
REMARK   19  A    between atoms: C_21  and  C_22 
REMARK   20  A    between atoms: C_22  and  C_23 
REMARK   21  A    between atoms: C_22  and  O_52 
REMARK   22  A    between atoms: C_23  and  O_24 
REMARK   23  A    between atoms: O_24  and  C_25 
REMARK   24  A    between atoms: C_25  and  C_27 
REMARK   25  A    between atoms: C_27  and  C_28 
REMARK   26  A    between atoms: C_28  and  C_29 
REMARK   27  A    between atoms: C_29  and  C_30 
REMARK   28  A    between atoms: C_30  and  C_31 
REMARK   29  A    between atoms: C_31  and  C_32 
REMARK   30  A    between atoms: C_32  and  C_33 
REMARK   31  A    between atoms: C_33  and  C_34 
REMARK   32  A    between atoms: C_35  and  C_36 
REMARK   33  A    between atoms: C_36  and  C_37 
REMARK   34  A    between atoms: C_37  and  C_38 
REMARK   35  A    between atoms: C_37  and  O_44 
REMARK   36  A    between atoms: C_38  and  C_39 
REMARK   37  A    between atoms: C_39  and  C_40 
REMARK   38  A    between atoms: C_40  and  C_41 
REMARK   39  A    between atoms: C_41  and  C_42 
REMARK   40  A    between atoms: O_44  and  C_45 
REMARK   41  A    between atoms: C_45  and  C_47 
REMARK   42  A    between atoms: C_48  and  C_49 
REMARK   43  A    between atoms: C_49  and  O_51 
REMARK   44  A    between atoms: O_52  and  C_53 
REMARK   45  A    between atoms: C_53  and  C_55 
REMARK   46  A    between atoms: C_55  and  C_56 
REMARK   47  A    between atoms: C_56  and  C_57 
REMARK   48  A    between atoms: C_57  and  C_58 
REMARK   49  A    between atoms: C_58  and  C_59 
REMARK   50  A    between atoms: C_59  and  C_60 
REMARK   51  A    between atoms: C_60  and  C_61 
REMARK   52  A    between atoms: C_61  and  C_62 
REMARK   53  A    between atoms: C_63  and  C_64 
REMARK   54  A    between atoms: C_64  and  C_65 
REMARK   55  A    between atoms: C_65  and  C_66 
REMARK   56  A    between atoms: C_65  and  O_72 
REMARK   57  A    between atoms: C_66  and  C_67 
REMARK   58  A    between atoms: C_67  and  C_68 
REMARK   59  A    between atoms: C_68  and  C_69 
REMARK   60  A    between atoms: C_69  and  C_70 
ROOT
HETATM    1  C   UNL     1     -19.956  -9.018  -4.813  1.00  0.00     0.180 C 
ENDROOT
BRANCH   1   2
HETATM    2  C   UNL     1     -20.748  -7.713  -4.629  1.00  0.00     0.213 C 
BRANCH   2   3
HETATM    3  O   UNL     1     -20.426  -6.754  -5.651  1.00  0.00    -0.319 OA
BRANCH   3   4
HETATM    4  C   UNL     1     -21.230  -5.654  -5.715  1.00  0.00     0.258 C 
HETATM    5  O   UNL     1     -22.431  -5.672  -5.471  1.00  0.00    -0.265 OA
BRANCH   4   6
HETATM    6  C   UNL     1     -20.427  -4.452  -6.109  1.00  0.00     0.111 C 
BRANCH   6   7
HETATM    7  C   UNL     1     -19.781  -4.669  -7.474  1.00  0.00     0.010 C 
BRANCH   7   8
HETATM    8  C   UNL     1     -20.763  -4.467  -8.622  1.00  0.00     0.000 C 
BRANCH   8   9
HETATM    9  C   UNL     1     -20.067  -4.711  -9.960  1.00  0.00     0.000 C 
BRANCH   9  10
HETATM   10  C   UNL     1     -20.455  -3.657 -10.991  1.00  0.00     0.000 C 
BRANCH  10  11
HETATM   11  C   UNL     1     -21.920  -3.811 -11.383  1.00  0.00     0.004 C 
BRANCH  11  12
HETATM   12  C   UNL     1     -22.074  -3.990 -12.891  1.00  0.00     0.027 C 
BRANCH  12  13
HETATM   13  C   UNL     1     -22.888  -5.222 -13.158  1.00  0.00    -0.031 C 
HETATM   14  C   UNL     1     -23.291  -5.572 -14.385  1.00  0.00    -0.028 C 
BRANCH  14  15
HETATM   15  C   UNL     1     -24.244  -6.693 -14.682  1.00  0.00     0.058 C 
BRANCH  15  16
HETATM   16  C   UNL     1     -24.473  -6.937 -16.181  1.00  0.00     0.121 C 
BRANCH  16  17
HETATM   17  C   UNL     1     -25.867  -6.562 -16.696  1.00  0.00     0.032 C 
BRANCH  17  18
HETATM   18  C   UNL     1     -27.006  -6.913 -15.746  1.00  0.00     0.002 C 
BRANCH  18  19
HETATM   19  C   UNL     1     -28.375  -6.781 -16.399  1.00  0.00     0.000 C 
BRANCH  19  20
HETATM   20  C   UNL     1     -29.084  -5.549 -15.862  1.00  0.00    -0.000 C 
BRANCH  20  21
HETATM   21  C   UNL     1     -30.226  -5.170 -16.791  1.00  0.00    -0.005 C 
HETATM   22  C   UNL     1     -30.987  -6.402 -17.236  1.00  0.00     0.005 C 
ENDBRANCH  20  21
ENDBRANCH  19  20
ENDBRANCH  18  19
ENDBRANCH  17  18
ENDBRANCH  16  17
BRANCH  16  23
HETATM   23  O   UNL     1     -24.210  -8.301 -16.509  1.00  0.00    -0.395 OA
HETATM   24  H   UNL     1     -24.973  -8.831 -16.225  1.00  0.00     0.210 HD
ENDBRANCH  16  23
ENDBRANCH  15  16
ENDBRANCH  14  15
ENDBRANCH  12  13
ENDBRANCH  11  12
ENDBRANCH  10  11
ENDBRANCH   9  10
ENDBRANCH   8   9
ENDBRANCH   7   8
ENDBRANCH   6   7
ENDBRANCH   4   6
ENDBRANCH   3   4
ENDBRANCH   2   3
ENDBRANCH   1   2
BRANCH   1  25
HETATM   25  C   UNL     1     -18.679  -8.977  -3.970  1.00  0.00     0.213 C 
BRANCH  25  26
HETATM   26  O   UNL     1     -17.758 -10.001  -4.398  1.00  0.00    -0.319 OA
BRANCH  26  27
HETATM   27  C   UNL     1     -16.434  -9.770  -4.128  1.00  0.00     0.258 C 
HETATM   28  O   UNL     1     -15.555  -9.652  -4.957  1.00  0.00    -0.265 OA
BRANCH  27  29
HETATM   29  C   UNL     1     -16.190  -9.754  -2.641  1.00  0.00     0.111 C 
BRANCH  29  30
HETATM   30  C   UNL     1     -15.652 -11.087  -2.137  1.00  0.00     0.010 C 
BRANCH  30  31
HETATM   31  C   UNL     1     -16.414 -11.570  -0.904  1.00  0.00     0.000 C 
BRANCH  31  32
HETATM   32  C   UNL     1     -15.468 -11.933   0.236  1.00  0.00     0.000 C 
BRANCH  32  33
HETATM   33  C   UNL     1     -16.099 -12.948   1.196  1.00  0.00     0.000 C 
BRANCH  33  34
HETATM   34  C   UNL     1     -17.243 -13.763   0.580  1.00  0.00     0.004 C 
BRANCH  34  35
HETATM   35  C   UNL     1     -16.877 -15.243   0.453  1.00  0.00     0.027 C 
BRANCH  35  36
HETATM   36  C   UNL     1     -16.750 -15.695  -0.969  1.00  0.00    -0.031 C 
HETATM   37  C   UNL     1     -16.536 -14.840  -1.984  1.00  0.00    -0.028 C 
BRANCH  37  38
HETATM   38  C   UNL     1     -16.240 -15.264  -3.395  1.00  0.00     0.059 C 
BRANCH  38  39
HETATM   39  C   UNL     1     -14.963 -14.611  -3.959  1.00  0.00     0.135 C 
BRANCH  39  40
HETATM   40  C   UNL     1     -13.745 -15.552  -3.856  1.00  0.00     0.033 C 
BRANCH  40  41
HETATM   41  C   UNL     1     -12.634 -15.022  -2.938  1.00  0.00     0.002 C 
BRANCH  41  42
HETATM   42  C   UNL     1     -13.141 -14.097  -1.835  1.00  0.00     0.000 C 
BRANCH  42  43
HETATM   43  C   UNL     1     -13.158 -14.790  -0.475  1.00  0.00    -0.000 C 
BRANCH  43  44
HETATM   44  C   UNL     1     -12.117 -14.174   0.442  1.00  0.00    -0.005 C 
HETATM   45  C   UNL     1     -11.106 -15.215   0.878  1.00  0.00     0.005 C 
ENDBRANCH  43  44
ENDBRANCH  42  43
ENDBRANCH  41  42
ENDBRANCH  40  41
ENDBRANCH  39  40
BRANCH  39  46
HETATM   46  O   UNL     1     -15.148 -14.319  -5.360  1.00  0.00    -0.312 OA
BRANCH  46  47
HETATM   47  C   UNL     1     -14.831 -13.067  -5.770  1.00  0.00     0.283 C 
HETATM   48  O   UNL     1     -13.790 -12.460  -5.550  1.00  0.00    -0.260 OA
BRANCH  47  49
HETATM   49  C   UNL     1     -15.951 -12.536  -6.560  1.00  0.00     0.089 C 
HETATM   50  C   UNL     1     -17.147 -13.026  -6.241  1.00  0.00     0.087 C 
BRANCH  50  51
HETATM   51  C   UNL     1     -18.346 -12.578  -6.972  1.00  0.00     0.165 C 
HETATM   52  O   UNL     1     -19.224 -13.325  -7.355  1.00  0.00    -0.647 OA
BRANCH  51  53
HETATM   53  O   UNL     1     -18.324 -11.243  -7.134  1.00  0.00    -0.773 OA
HETATM   54  H   UNL     1     -18.191 -10.763  -6.289  1.00  0.00     0.167 HD
ENDBRANCH  51  53
ENDBRANCH  50  51
ENDBRANCH  47  49
ENDBRANCH  46  47
ENDBRANCH  39  46
ENDBRANCH  38  39
ENDBRANCH  37  38
ENDBRANCH  35  36
ENDBRANCH  34  35
ENDBRANCH  33  34
ENDBRANCH  32  33
ENDBRANCH  31  32
ENDBRANCH  30  31
ENDBRANCH  29  30
ENDBRANCH  27  29
ENDBRANCH  26  27
ENDBRANCH  25  26
ENDBRANCH   1  25
BRANCH   1  55
HETATM   55  O   UNL     1     -20.775 -10.143  -4.390  1.00  0.00    -0.312 OA
BRANCH  55  56
HETATM   56  C   UNL     1     -21.251 -10.949  -5.389  1.00  0.00     0.259 C 
HETATM   57  O   UNL     1     -21.211 -10.694  -6.584  1.00  0.00    -0.265 OA
BRANCH  56  58
HETATM   58  C   UNL     1     -21.910 -12.175  -4.835  1.00  0.00     0.111 C 
BRANCH  58  59
HETATM   59  C   UNL     1     -22.703 -12.893  -5.916  1.00  0.00     0.010 C 
BRANCH  59  60
HETATM   60  C   UNL     1     -23.191 -14.262  -5.446  1.00  0.00     0.000 C 
BRANCH  60  61
HETATM   61  C   UNL     1     -22.929 -15.318  -6.510  1.00  0.00     0.000 C 
BRANCH  61  62
HETATM   62  C   UNL     1     -21.499 -15.835  -6.416  1.00  0.00     0.000 C 
BRANCH  62  63
HETATM   63  C   UNL     1     -21.232 -16.405  -5.028  1.00  0.00     0.004 C 
BRANCH  63  64
HETATM   64  C   UNL     1     -20.005 -15.747  -4.416  1.00  0.00     0.027 C 
BRANCH  64  65
HETATM   65  C   UNL     1     -20.276 -15.271  -3.024  1.00  0.00    -0.031 C 
HETATM   66  C   UNL     1     -19.932 -14.048  -2.599  1.00  0.00    -0.028 C 
BRANCH  66  67
HETATM   67  C   UNL     1     -20.337 -13.479  -1.278  1.00  0.00     0.058 C 
BRANCH  67  68
HETATM   68  C   UNL     1     -20.368 -11.943  -1.306  1.00  0.00     0.121 C 
BRANCH  68  69
HETATM   69  C   UNL     1     -20.000 -11.302   0.040  1.00  0.00     0.032 C 
BRANCH  69  70
HETATM   70  C   UNL     1     -21.197 -10.575   0.669  1.00  0.00     0.002 C 
BRANCH  70  71
HETATM   71  C   UNL     1     -20.801  -9.325   1.458  1.00  0.00     0.000 C 
BRANCH  71  72
HETATM   72  C   UNL     1     -21.695  -8.129   1.141  1.00  0.00    -0.000 C 
BRANCH  72  73
HETATM   73  C   UNL     1     -22.444  -8.318  -0.172  1.00  0.00    -0.005 C 
HETATM   74  C   UNL     1     -22.185  -7.145  -1.103  1.00  0.00     0.005 C 
ENDBRANCH  72  73
ENDBRANCH  71  72
ENDBRANCH  70  71
ENDBRANCH  69  70
ENDBRANCH  68  69
BRANCH  68  75
HETATM   75  O   UNL     1     -19.448 -11.505  -2.305  1.00  0.00    -0.395 OA
HETATM   76  H   UNL     1     -19.673 -11.965  -3.132  1.00  0.00     0.210 HD
ENDBRANCH  68  75
ENDBRANCH  67  68
ENDBRANCH  66  67
ENDBRANCH  64  65
ENDBRANCH  63  64
ENDBRANCH  62  63
ENDBRANCH  61  62
ENDBRANCH  60  61
ENDBRANCH  59  60
ENDBRANCH  58  59
ENDBRANCH  56  58
ENDBRANCH  55  56
ENDBRANCH   1  55
TORSDOF 60
BEGIN_RES ARG D 557
REMARK  4 active torsions:
REMARK  status: ('A' for Active; 'I' for Inactive)
REMARK    1  A    between atoms: CA   and  CB  
REMARK    2  A    between atoms: CB   and  CG  
REMARK    3  A    between atoms: CG   and  CD  
REMARK    4  A    between atoms: CD   and  NE  
REMARK       I    between atoms: NE   and  CZ  
REMARK       I    between atoms: CZ   and  NH1 
REMARK       I    between atoms: CZ   and  NH2 
ROOT
ATOM      1  CA  ARG D 557     -26.217   2.705 -17.014  1.00 35.49     0.159 C 
ENDROOT
BRANCH   1   2
ATOM      2  CB  ARG D 557     -26.789   1.319 -17.183  1.00 35.49     0.034 C 
BRANCH   2   3
ATOM      3  CG  ARG D 557     -25.865   0.195 -16.988  1.00 35.49     0.027 C 
BRANCH   3   4
ATOM      4  CD  ARG D 557     -26.425  -0.847 -16.096  1.00 35.49     0.116 C 
BRANCH   4   5
ATOM      5  NE  ARG D 557     -25.603  -1.064 -14.934  1.00 35.49    -0.212 N 
ATOM      6  CZ  ARG D 557     -25.449  -2.207 -14.305  1.00 35.49     0.666 C 
ATOM      7  NH1 ARG D 557     -26.066  -3.312 -14.681  1.00 35.49    -0.235 N 
ATOM      8  NH2 ARG D 557     -24.647  -2.225 -13.280  1.00 35.49    -0.235 N 
ATOM      9  HH  ARG D 557     -26.597  -3.324 -15.354  1.00 35.49     0.174 HD
ATOM     10  HH  ARG D 557     -25.925  -4.029 -14.234  1.00 35.49     0.174 HD
ATOM     11  HH  ARG D 557     -24.257  -1.499 -13.065  1.00 35.49     0.174 HD
ATOM     12  HH  ARG D 557     -24.519  -2.946 -12.852  1.00 35.49     0.174 HD
ATOM     13  HE  ARG D 557     -25.226  -0.389 -14.580  1.00 35.49     0.178 HD
ENDBRANCH   4   5
ENDBRANCH   3   4
ENDBRANCH   2   3
ENDBRANCH   1   2
END_RES ARG D 557
BEGIN_RES GLU D 570
REMARK  3 active torsions:
REMARK  status: ('A' for Active; 'I' for Inactive)
REMARK    5  A    between atoms: CA   and  CB  
REMARK    6  A    between atoms: CB   and  CG  
REMARK    7  A    between atoms: CG   and  CD  
ROOT
ATOM     14  CA  GLU D 570     -18.033  -6.348 -13.375  1.00 32.92     0.160 C 
ENDROOT
BRANCH  14  15
ATOM     15  CB  GLU D 570     -19.500  -6.345 -13.794  1.00 32.92     0.043 C 
BRANCH  15  16
ATOM     16  CG  GLU D 570     -20.077  -7.627 -14.275  1.00 32.92     0.100 C 
BRANCH  16  17
ATOM     17  CD  GLU D 570     -20.627  -7.535 -15.680  1.00 32.92     0.185 C 
ATOM     18  OE1 GLU D 570     -20.502  -6.468 -16.310  1.00 32.92    -0.647 OA
ATOM     19  OE2 GLU D 570     -21.203  -8.537 -16.148  1.00 32.92    -0.647 OA
ENDBRANCH  16  17
ENDBRANCH  15  16
ENDBRANCH  14  15
END_RES GLU D 570
ENDMDL
MODEL 8
REMARK VINA RESULT:      -6.4      3.951     12.873
REMARK WARNING: 32 MAX_TORS EXCEEDED!!!
REMARK  60 active torsions:
REMARK  status: ('A' for Active; 'I' for Inactive)
REMARK    1  A    between atoms: C_2  and  C_3 
REMARK    2  A    between atoms: C_3  and  C_4 
REMARK    3  A    between atoms: C_4  and  C_5 
REMARK    4  A    between atoms: C_5  and  C_6 
REMARK    5  A    between atoms: C_6  and  C_7 
REMARK    6  A    between atoms: C_7  and  C_8 
REMARK    7  A    between atoms: C_7  and  O_73 
REMARK    8  A    between atoms: C_8  and  C_9 
REMARK    9  A    between atoms: C_10  and  C_11 
REMARK   10  A    between atoms: C_11  and  C_12 
REMARK   11  A    between atoms: C_12  and  C_13 
REMARK   12  A    between atoms: C_13  and  C_14 
REMARK   13  A    between atoms: C_14  and  C_15 
REMARK   14  A    between atoms: C_15  and  C_16 
REMARK   15  A    between atoms: C_16  and  C_17 
REMARK   16  A    between atoms: C_17  and  C_18 
REMARK   17  A    between atoms: C_18  and  O_20 
REMARK   18  A    between atoms: O_20  and  C_21 
REMARK   19  A    between atoms: C_21  and  C_22 
REMARK   20  A    between atoms: C_22  and  C_23 
REMARK   21  A    between atoms: C_22  and  O_52 
REMARK   22  A    between atoms: C_23  and  O_24 
REMARK   23  A    between atoms: O_24  and  C_25 
REMARK   24  A    between atoms: C_25  and  C_27 
REMARK   25  A    between atoms: C_27  and  C_28 
REMARK   26  A    between atoms: C_28  and  C_29 
REMARK   27  A    between atoms: C_29  and  C_30 
REMARK   28  A    between atoms: C_30  and  C_31 
REMARK   29  A    between atoms: C_31  and  C_32 
REMARK   30  A    between atoms: C_32  and  C_33 
REMARK   31  A    between atoms: C_33  and  C_34 
REMARK   32  A    between atoms: C_35  and  C_36 
REMARK   33  A    between atoms: C_36  and  C_37 
REMARK   34  A    between atoms: C_37  and  C_38 
REMARK   35  A    between atoms: C_37  and  O_44 
REMARK   36  A    between atoms: C_38  and  C_39 
REMARK   37  A    between atoms: C_39  and  C_40 
REMARK   38  A    between atoms: C_40  and  C_41 
REMARK   39  A    between atoms: C_41  and  C_42 
REMARK   40  A    between atoms: O_44  and  C_45 
REMARK   41  A    between atoms: C_45  and  C_47 
REMARK   42  A    between atoms: C_48  and  C_49 
REMARK   43  A    between atoms: C_49  and  O_51 
REMARK   44  A    between atoms: O_52  and  C_53 
REMARK   45  A    between atoms: C_53  and  C_55 
REMARK   46  A    between atoms: C_55  and  C_56 
REMARK   47  A    between atoms: C_56  and  C_57 
REMARK   48  A    between atoms: C_57  and  C_58 
REMARK   49  A    between atoms: C_58  and  C_59 
REMARK   50  A    between atoms: C_59  and  C_60 
REMARK   51  A    between atoms: C_60  and  C_61 
REMARK   52  A    between atoms: C_61  and  C_62 
REMARK   53  A    between atoms: C_63  and  C_64 
REMARK   54  A    between atoms: C_64  and  C_65 
REMARK   55  A    between atoms: C_65  and  C_66 
REMARK   56  A    between atoms: C_65  and  O_72 
REMARK   57  A    between atoms: C_66  and  C_67 
REMARK   58  A    between atoms: C_67  and  C_68 
REMARK   59  A    between atoms: C_68  and  C_69 
REMARK   60  A    between atoms: C_69  and  C_70 
ROOT
HETATM    1  C   UNL     1     -15.064 -12.043  -2.993  1.00  0.00     0.180 C 
ENDROOT
BRANCH   1   2
HETATM    2  C   UNL     1     -15.909 -13.249  -2.551  1.00  0.00     0.213 C 
BRANCH   2   3
HETATM    3  O   UNL     1     -15.841 -13.447  -1.128  1.00  0.00    -0.319 OA
BRANCH   3   4
HETATM    4  C   UNL     1     -16.485 -12.520  -0.363  1.00  0.00     0.258 C 
HETATM    5  O   UNL     1     -17.635 -12.147  -0.567  1.00  0.00    -0.265 OA
BRANCH   4   6
HETATM    6  C   UNL     1     -15.589 -12.054   0.744  1.00  0.00     0.111 C 
BRANCH   6   7
HETATM    7  C   UNL     1     -14.847 -13.237   1.359  1.00  0.00     0.010 C 
BRANCH   7   8
HETATM    8  C   UNL     1     -15.554 -13.792   2.591  1.00  0.00     0.000 C 
BRANCH   8   9
HETATM    9  C   UNL     1     -14.901 -15.101   3.027  1.00  0.00     0.000 C 
BRANCH   9  10
HETATM   10  C   UNL     1     -14.858 -15.224   4.546  1.00  0.00     0.000 C 
BRANCH  10  11
HETATM   11  C   UNL     1     -13.529 -15.823   4.994  1.00  0.00     0.004 C 
BRANCH  11  12
HETATM   12  C   UNL     1     -13.175 -15.385   6.413  1.00  0.00     0.027 C 
BRANCH  12  13
HETATM   13  C   UNL     1     -11.726 -15.682   6.670  1.00  0.00    -0.031 C 
HETATM   14  C   UNL     1     -10.807 -14.722   6.826  1.00  0.00    -0.028 C 
BRANCH  14  15
HETATM   15  C   UNL     1      -9.329 -14.965   6.914  1.00  0.00     0.058 C 
BRANCH  15  16
HETATM   16  C   UNL     1      -8.613 -14.948   5.556  1.00  0.00     0.121 C 
BRANCH  16  17
HETATM   17  C   UNL     1      -9.069 -13.846   4.592  1.00  0.00     0.032 C 
BRANCH  17  18
HETATM   18  C   UNL     1      -8.712 -14.096   3.132  1.00  0.00     0.002 C 
BRANCH  18  19
HETATM   19  C   UNL     1      -9.626 -13.352   2.170  1.00  0.00     0.000 C 
BRANCH  19  20
HETATM   20  C   UNL     1     -10.113 -14.299   1.086  1.00  0.00    -0.000 C 
BRANCH  20  21
HETATM   21  C   UNL     1     -11.515 -14.782   1.419  1.00  0.00    -0.005 C 
HETATM   22  C   UNL     1     -11.484 -16.206   1.931  1.00  0.00     0.005 C 
ENDBRANCH  20  21
ENDBRANCH  19  20
ENDBRANCH  18  19
ENDBRANCH  17  18
ENDBRANCH  16  17
BRANCH  16  23
HETATM   23  O   UNL     1      -8.745 -16.212   4.907  1.00  0.00    -0.395 OA
HETATM   24  H   UNL     1      -7.918 -16.393   4.429  1.00  0.00     0.210 HD
ENDBRANCH  16  23
ENDBRANCH  15  16
ENDBRANCH  14  15
ENDBRANCH  12  13
ENDBRANCH  11  12
ENDBRANCH  10  11
ENDBRANCH   9  10
ENDBRANCH   8   9
ENDBRANCH   7   8
ENDBRANCH   6   7
ENDBRANCH   4   6
ENDBRANCH   3   4
ENDBRANCH   2   3
ENDBRANCH   1   2
BRANCH   1  25
HETATM   25  C   UNL     1     -13.913 -12.509  -3.887  1.00  0.00     0.213 C 
BRANCH  25  26
HETATM   26  O   UNL     1     -14.410 -13.321  -4.969  1.00  0.00    -0.319 OA
BRANCH  26  27
HETATM   27  C   UNL     1     -14.194 -12.839  -6.233  1.00  0.00     0.258 C 
HETATM   28  O   UNL     1     -13.114 -12.766  -6.785  1.00  0.00    -0.265 OA
BRANCH  27  29
HETATM   29  C   UNL     1     -15.479 -12.334  -6.837  1.00  0.00     0.111 C 
BRANCH  29  30
HETATM   30  C   UNL     1     -16.594 -13.369  -6.750  1.00  0.00     0.010 C 
BRANCH  30  31
HETATM   31  C   UNL     1     -17.906 -12.741  -6.282  1.00  0.00     0.000 C 
BRANCH  31  32
HETATM   32  C   UNL     1     -18.687 -12.136  -7.444  1.00  0.00     0.000 C 
BRANCH  32  33
HETATM   33  C   UNL     1     -19.783 -13.084  -7.945  1.00  0.00     0.000 C 
BRANCH  33  34
HETATM   34  C   UNL     1     -20.935 -13.287  -6.954  1.00  0.00     0.004 C 
BRANCH  34  35
HETATM   35  C   UNL     1     -21.641 -11.970  -6.630  1.00  0.00     0.027 C 
BRANCH  35  36
HETATM   36  C   UNL     1     -21.625 -11.639  -5.170  1.00  0.00    -0.031 C 
HETATM   37  C   UNL     1     -21.121 -12.474  -4.245  1.00  0.00    -0.028 C 
BRANCH  37  38
HETATM   38  C   UNL     1     -20.935 -12.114  -2.797  1.00  0.00     0.059 C 
BRANCH  38  39
HETATM   39  C   UNL     1     -22.188 -12.396  -1.946  1.00  0.00     0.135 C 
BRANCH  39  40
HETATM   40  C   UNL     1     -23.181 -11.216  -1.979  1.00  0.00     0.033 C 
BRANCH  40  41
HETATM   41  C   UNL     1     -23.880 -10.962  -0.636  1.00  0.00     0.002 C 
BRANCH  41  42
HETATM   42  C   UNL     1     -23.506  -9.629   0.007  1.00  0.00     0.000 C 
BRANCH  42  43
HETATM   43  C   UNL     1     -22.143  -9.132  -0.468  1.00  0.00    -0.000 C 
BRANCH  43  44
HETATM   44  C   UNL     1     -21.575  -8.131   0.522  1.00  0.00    -0.005 C 
HETATM   45  C   UNL     1     -20.863  -8.844   1.654  1.00  0.00     0.005 C 
ENDBRANCH  43  44
ENDBRANCH  42  43
ENDBRANCH  41  42
ENDBRANCH  40  41
ENDBRANCH  39  40
BRANCH  39  46
HETATM   46  O   UNL     1     -22.886 -13.543  -2.477  1.00  0.00    -0.312 OA
BRANCH  46  47
HETATM   47  C   UNL     1     -23.562 -14.312  -1.589  1.00  0.00     0.283 C 
HETATM   48  O   UNL     1     -24.568 -14.977  -1.804  1.00  0.00    -0.260 OA
BRANCH  47  49
HETATM   49  C   UNL     1     -22.874 -14.242  -0.292  1.00  0.00     0.089 C 
HETATM   50  C   UNL     1     -23.620 -14.575   0.760  1.00  0.00     0.087 C 
BRANCH  50  51
HETATM   51  C   UNL     1     -23.044 -14.533   2.115  1.00  0.00     0.165 C 
HETATM   52  O   UNL     1     -21.854 -14.595   2.348  1.00  0.00    -0.647 OA
BRANCH  51  53
HETATM   53  O   UNL     1     -24.018 -14.404   3.034  1.00  0.00    -0.773 OA
HETATM   54  H   UNL     1     -24.155 -13.473   3.310  1.00  0.00     0.167 HD
ENDBRANCH  51  53
ENDBRANCH  50  51
ENDBRANCH  47  49
ENDBRANCH  46  47
ENDBRANCH  39  46
ENDBRANCH  38  39
ENDBRANCH  37  38
ENDBRANCH  35  36
ENDBRANCH  34  35
ENDBRANCH  33  34
ENDBRANCH  32  33
ENDBRANCH  31  32
ENDBRANCH  30  31
ENDBRANCH  29  30
ENDBRANCH  27  29
ENDBRANCH  26  27
ENDBRANCH  25  26
ENDBRANCH   1  25
BRANCH   1  55
HETATM   55  O   UNL     1     -15.903 -11.113  -3.732  1.00  0.00    -0.312 OA
BRANCH  55  56
HETATM   56  C   UNL     1     -16.318 -10.002  -3.048  1.00  0.00     0.259 C 
HETATM   57  O   UNL     1     -15.620  -9.326  -2.306  1.00  0.00    -0.265 OA
BRANCH  56  58
HETATM   58  C   UNL     1     -17.779  -9.745  -3.257  1.00  0.00     0.111 C 
BRANCH  58  59
HETATM   59  C   UNL     1     -18.096  -9.625  -4.740  1.00  0.00     0.010 C 
BRANCH  59  60
HETATM   60  C   UNL     1     -19.401  -8.868  -4.981  1.00  0.00     0.000 C 
BRANCH  60  61
HETATM   61  C   UNL     1     -20.079  -8.538  -3.659  1.00  0.00     0.000 C 
BRANCH  61  62
HETATM   62  C   UNL     1     -21.560  -8.252  -3.870  1.00  0.00     0.000 C 
BRANCH  62  63
HETATM   63  C   UNL     1     -21.908  -6.858  -3.359  1.00  0.00     0.004 C 
BRANCH  63  64
HETATM   64  C   UNL     1     -21.127  -5.805  -4.129  1.00  0.00     0.027 C 
BRANCH  64  65
HETATM   65  C   UNL     1     -21.562  -5.738  -5.559  1.00  0.00    -0.031 C 
HETATM   66  C   UNL     1     -20.735  -5.386  -6.551  1.00  0.00    -0.028 C 
BRANCH  66  67
HETATM   67  C   UNL     1     -21.084  -5.473  -8.002  1.00  0.00     0.058 C 
BRANCH  67  68
HETATM   68  C   UNL     1     -20.078  -4.709  -8.876  1.00  0.00     0.121 C 
BRANCH  68  69
HETATM   69  C   UNL     1     -20.741  -3.713  -9.838  1.00  0.00     0.032 C 
BRANCH  69  70
HETATM   70  C   UNL     1     -20.757  -4.241 -11.280  1.00  0.00     0.002 C 
BRANCH  70  71
HETATM   71  C   UNL     1     -21.984  -3.791 -12.076  1.00  0.00     0.000 C 
BRANCH  71  72
HETATM   72  C   UNL     1     -23.275  -4.428 -11.566  1.00  0.00    -0.000 C 
BRANCH  72  73
HETATM   73  C   UNL     1     -24.293  -3.376 -11.144  1.00  0.00    -0.005 C 
HETATM   74  C   UNL     1     -24.519  -3.430  -9.642  1.00  0.00     0.005 C 
ENDBRANCH  72  73
ENDBRANCH  71  72
ENDBRANCH  70  71
ENDBRANCH  69  70
ENDBRANCH  68  69
BRANCH  68  75
HETATM   75  O   UNL     1     -19.188  -4.007  -8.008  1.00  0.00    -0.395 OA
HETATM   76  H   UNL     1     -18.377  -3.821  -8.511  1.00  0.00     0.210 HD
ENDBRANCH  68  75
ENDBRANCH  67  68
ENDBRANCH  66  67
ENDBRANCH  64  65
ENDBRANCH  63  64
ENDBRANCH  62  63
ENDBRANCH  61  62
ENDBRANCH  60  61
ENDBRANCH  59  60
ENDBRANCH  58  59
ENDBRANCH  56  58
ENDBRANCH  55  56
ENDBRANCH   1  55
TORSDOF 60
BEGIN_RES ARG D 557
REMARK  4 active torsions:
REMARK  status: ('A' for Active; 'I' for Inactive)
REMARK    1  A    between atoms: CA   and  CB  
REMARK    2  A    between atoms: CB   and  CG  
REMARK    3  A    between atoms: CG   and  CD  
REMARK    4  A    between atoms: CD   and  NE  
REMARK       I    between atoms: NE   and  CZ  
REMARK       I    between atoms: CZ   and  NH1 
REMARK       I    between atoms: CZ   and  NH2 
ROOT
ATOM      1  CA  ARG D 557     -26.217   2.705 -17.014  1.00 35.49     0.159 C 
ENDROOT
BRANCH   1   2
ATOM      2  CB  ARG D 557     -26.789   1.319 -17.183  1.00 35.49     0.034 C 
BRANCH   2   3
ATOM      3  CG  ARG D 557     -28.232   1.226 -17.438  1.00 35.49     0.027 C 
BRANCH   3   4
ATOM      4  CD  ARG D 557     -28.912   0.304 -16.500  1.00 35.49     0.116 C 
BRANCH   4   5
ATOM      5  NE  ARG D 557     -28.140  -0.885 -16.252  1.00 35.49    -0.212 N 
ATOM      6  CZ  ARG D 557     -28.396  -2.081 -16.733  1.00 35.49     0.666 C 
ATOM      7  NH1 ARG D 557     -29.435  -2.326 -17.509  1.00 35.49    -0.235 N 
ATOM      8  NH2 ARG D 557     -27.575  -3.041 -16.421  1.00 35.49    -0.235 N 
ATOM      9  HH  ARG D 557     -29.987  -1.708 -17.729  1.00 35.49     0.174 HD
ATOM     10  HH  ARG D 557     -29.550  -3.125 -17.795  1.00 35.49     0.174 HD
ATOM     11  HH  ARG D 557     -26.909  -2.852 -15.923  1.00 35.49     0.174 HD
ATOM     12  HH  ARG D 557     -27.705  -3.826 -16.715  1.00 35.49     0.174 HD
ATOM     13  HE  ARG D 557     -27.493  -0.833 -15.703  1.00 35.49     0.178 HD
ENDBRANCH   4   5
ENDBRANCH   3   4
ENDBRANCH   2   3
ENDBRANCH   1   2
END_RES ARG D 557
BEGIN_RES GLU D 570
REMARK  3 active torsions:
REMARK  status: ('A' for Active; 'I' for Inactive)
REMARK    5  A    between atoms: CA   and  CB  
REMARK    6  A    between atoms: CB   and  CG  
REMARK    7  A    between atoms: CG   and  CD  
ROOT
ATOM     14  CA  GLU D 570     -18.033  -6.348 -13.375  1.00 32.92     0.160 C 
ENDROOT
BRANCH  14  15
ATOM     15  CB  GLU D 570     -19.500  -6.345 -13.794  1.00 32.92     0.043 C 
BRANCH  15  16
ATOM     16  CG  GLU D 570     -19.796  -6.362 -15.250  1.00 32.92     0.100 C 
BRANCH  16  17
ATOM     17  CD  GLU D 570     -20.910  -7.316 -15.613  1.00 32.92     0.185 C 
ATOM     18  OE1 GLU D 570     -20.662  -8.534 -15.694  1.00 32.92    -0.647 OA
ATOM     19  OE2 GLU D 570     -22.040  -6.838 -15.837  1.00 32.92    -0.647 OA
ENDBRANCH  16  17
ENDBRANCH  15  16
ENDBRANCH  14  15
END_RES GLU D 570
ENDMDL
MODEL 9
REMARK VINA RESULT:      -6.4      2.386     11.445
REMARK WARNING: 32 MAX_TORS EXCEEDED!!!
REMARK  60 active torsions:
REMARK  status: ('A' for Active; 'I' for Inactive)
REMARK    1  A    between atoms: C_2  and  C_3 
REMARK    2  A    between atoms: C_3  and  C_4 
REMARK    3  A    between atoms: C_4  and  C_5 
REMARK    4  A    between atoms: C_5  and  C_6 
REMARK    5  A    between atoms: C_6  and  C_7 
REMARK    6  A    between atoms: C_7  and  C_8 
REMARK    7  A    between atoms: C_7  and  O_73 
REMARK    8  A    between atoms: C_8  and  C_9 
REMARK    9  A    between atoms: C_10  and  C_11 
REMARK   10  A    between atoms: C_11  and  C_12 
REMARK   11  A    between atoms: C_12  and  C_13 
REMARK   12  A    between atoms: C_13  and  C_14 
REMARK   13  A    between atoms: C_14  and  C_15 
REMARK   14  A    between atoms: C_15  and  C_16 
REMARK   15  A    between atoms: C_16  and  C_17 
REMARK   16  A    between atoms: C_17  and  C_18 
REMARK   17  A    between atoms: C_18  and  O_20 
REMARK   18  A    between atoms: O_20  and  C_21 
REMARK   19  A    between atoms: C_21  and  C_22 
REMARK   20  A    between atoms: C_22  and  C_23 
REMARK   21  A    between atoms: C_22  and  O_52 
REMARK   22  A    between atoms: C_23  and  O_24 
REMARK   23  A    between atoms: O_24  and  C_25 
REMARK   24  A    between atoms: C_25  and  C_27 
REMARK   25  A    between atoms: C_27  and  C_28 
REMARK   26  A    between atoms: C_28  and  C_29 
REMARK   27  A    between atoms: C_29  and  C_30 
REMARK   28  A    between atoms: C_30  and  C_31 
REMARK   29  A    between atoms: C_31  and  C_32 
REMARK   30  A    between atoms: C_32  and  C_33 
REMARK   31  A    between atoms: C_33  and  C_34 
REMARK   32  A    between atoms: C_35  and  C_36 
REMARK   33  A    between atoms: C_36  and  C_37 
REMARK   34  A    between atoms: C_37  and  C_38 
REMARK   35  A    between atoms: C_37  and  O_44 
REMARK   36  A    between atoms: C_38  and  C_39 
REMARK   37  A    between atoms: C_39  and  C_40 
REMARK   38  A    between atoms: C_40  and  C_41 
REMARK   39  A    between atoms: C_41  and  C_42 
REMARK   40  A    between atoms: O_44  and  C_45 
REMARK   41  A    between atoms: C_45  and  C_47 
REMARK   42  A    between atoms: C_48  and  C_49 
REMARK   43  A    between atoms: C_49  and  O_51 
REMARK   44  A    between atoms: O_52  and  C_53 
REMARK   45  A    between atoms: C_53  and  C_55 
REMARK   46  A    between atoms: C_55  and  C_56 
REMARK   47  A    between atoms: C_56  and  C_57 
REMARK   48  A    between atoms: C_57  and  C_58 
REMARK   49  A    between atoms: C_58  and  C_59 
REMARK   50  A    between atoms: C_59  and  C_60 
REMARK   51  A    between atoms: C_60  and  C_61 
REMARK   52  A    between atoms: C_61  and  C_62 
REMARK   53  A    between atoms: C_63  and  C_64 
REMARK   54  A    between atoms: C_64  and  C_65 
REMARK   55  A    between atoms: C_65  and  C_66 
REMARK   56  A    between atoms: C_65  and  O_72 
REMARK   57  A    between atoms: C_66  and  C_67 
REMARK   58  A    between atoms: C_67  and  C_68 
REMARK   59  A    between atoms: C_68  and  C_69 
REMARK   60  A    between atoms: C_69  and  C_70 
ROOT
HETATM    1  C   UNL     1     -20.515  -8.331  -4.142  1.00  0.00     0.180 C 
ENDROOT
BRANCH   1   2
HETATM    2  C   UNL     1     -19.945  -7.661  -5.403  1.00  0.00     0.213 C 
BRANCH   2   3
HETATM    3  O   UNL     1     -20.983  -7.059  -6.194  1.00  0.00    -0.319 OA
BRANCH   3   4
HETATM    4  C   UNL     1     -20.624  -5.961  -6.919  1.00  0.00     0.258 C 
HETATM    5  O   UNL     1     -19.877  -5.999  -7.890  1.00  0.00    -0.265 OA
BRANCH   4   6
HETATM    6  C   UNL     1     -21.283  -4.737  -6.359  1.00  0.00     0.111 C 
BRANCH   6   7
HETATM    7  C   UNL     1     -21.635  -3.764  -7.480  1.00  0.00     0.010 C 
BRANCH   7   8
HETATM    8  C   UNL     1     -22.912  -4.159  -8.214  1.00  0.00     0.000 C 
BRANCH   8   9
HETATM    9  C   UNL     1     -22.815  -3.765  -9.687  1.00  0.00     0.000 C 
BRANCH   9  10
HETATM   10  C   UNL     1     -21.373  -3.796 -10.179  1.00  0.00     0.000 C 
BRANCH  10  11
HETATM   11  C   UNL     1     -21.309  -4.327 -11.607  1.00  0.00     0.004 C 
BRANCH  11  12
HETATM   12  C   UNL     1     -22.630  -4.104 -12.340  1.00  0.00     0.027 C 
BRANCH  12  13
HETATM   13  C   UNL     1     -23.088  -5.406 -12.931  1.00  0.00    -0.031 C 
HETATM   14  C   UNL     1     -23.586  -5.503 -14.169  1.00  0.00    -0.028 C 
BRANCH  14  15
HETATM   15  C   UNL     1     -24.212  -6.741 -14.741  1.00  0.00     0.058 C 
BRANCH  15  16
HETATM   16  C   UNL     1     -24.276  -6.756 -16.275  1.00  0.00     0.121 C 
BRANCH  16  17
HETATM   17  C   UNL     1     -25.690  -6.728 -16.868  1.00  0.00     0.032 C 
BRANCH  17  18
HETATM   18  C   UNL     1     -26.808  -6.803 -15.836  1.00  0.00     0.002 C 
BRANCH  18  19
HETATM   19  C   UNL     1     -28.139  -6.300 -16.377  1.00  0.00     0.000 C 
BRANCH  19  20
HETATM   20  C   UNL     1     -27.914  -5.552 -17.681  1.00  0.00    -0.000 C 
BRANCH  20  21
HETATM   21  C   UNL     1     -29.254  -5.187 -18.299  1.00  0.00    -0.005 C 
HETATM   22  C   UNL     1     -29.786  -3.899 -17.706  1.00  0.00     0.005 C 
ENDBRANCH  20  21
ENDBRANCH  19  20
ENDBRANCH  18  19
ENDBRANCH  17  18
ENDBRANCH  16  17
BRANCH  16  23
HETATM   23  O   UNL     1     -23.582  -7.891 -16.792  1.00  0.00    -0.395 OA
HETATM   24  H   UNL     1     -22.653  -7.639 -16.930  1.00  0.00     0.210 HD
ENDBRANCH  16  23
ENDBRANCH  15  16
ENDBRANCH  14  15
ENDBRANCH  12  13
ENDBRANCH  11  12
ENDBRANCH  10  11
ENDBRANCH   9  10
ENDBRANCH   8   9
ENDBRANCH   7   8
ENDBRANCH   6   7
ENDBRANCH   4   6
ENDBRANCH   3   4
ENDBRANCH   2   3
ENDBRANCH   1   2
BRANCH   1  25
HETATM   25  C   UNL     1     -21.125  -7.274  -3.218  1.00  0.00     0.213 C 
BRANCH  25  26
HETATM   26  O   UNL     1     -20.919  -7.629  -1.836  1.00  0.00    -0.319 OA
BRANCH  26  27
HETATM   27  C   UNL     1     -21.936  -7.311  -0.975  1.00  0.00     0.258 C 
HETATM   28  O   UNL     1     -22.717  -6.391  -1.114  1.00  0.00    -0.265 OA
BRANCH  27  29
HETATM   29  C   UNL     1     -21.918  -8.220   0.227  1.00  0.00     0.111 C 
BRANCH  29  30
HETATM   30  C   UNL     1     -23.195  -9.044   0.337  1.00  0.00     0.010 C 
BRANCH  30  31
HETATM   31  C   UNL     1     -23.233 -10.161  -0.704  1.00  0.00     0.000 C 
BRANCH  31  32
HETATM   32  C   UNL     1     -23.719 -11.476  -0.101  1.00  0.00     0.000 C 
BRANCH  32  33
HETATM   33  C   UNL     1     -24.124 -12.481  -1.184  1.00  0.00     0.000 C 
BRANCH  33  34
HETATM   34  C   UNL     1     -23.407 -13.834  -1.082  1.00  0.00     0.004 C 
BRANCH  34  35
HETATM   35  C   UNL     1     -23.066 -14.398  -2.461  1.00  0.00     0.027 C 
BRANCH  35  36
HETATM   36  C   UNL     1     -21.804 -15.204  -2.468  1.00  0.00    -0.031 C 
HETATM   37  C   UNL     1     -20.769 -14.921  -3.279  1.00  0.00    -0.028 C 
BRANCH  37  38
HETATM   38  C   UNL     1     -19.430 -15.598  -3.202  1.00  0.00     0.059 C 
BRANCH  38  39
HETATM   39  C   UNL     1     -18.263 -14.656  -3.562  1.00  0.00     0.135 C 
BRANCH  39  40
HETATM   40  C   UNL     1     -17.171 -14.656  -2.472  1.00  0.00     0.033 C 
BRANCH  40  41
HETATM   41  C   UNL     1     -17.008 -13.302  -1.766  1.00  0.00     0.002 C 
BRANCH  41  42
HETATM   42  C   UNL     1     -16.232 -12.273  -2.585  1.00  0.00     0.000 C 
BRANCH  42  43
HETATM   43  C   UNL     1     -16.095 -10.945  -1.846  1.00  0.00    -0.000 C 
BRANCH  43  44
HETATM   44  C   UNL     1     -16.046  -9.795  -2.836  1.00  0.00    -0.005 C 
HETATM   45  C   UNL     1     -16.591 -10.227  -4.183  1.00  0.00     0.005 C 
ENDBRANCH  43  44
ENDBRANCH  42  43
ENDBRANCH  41  42
ENDBRANCH  40  41
ENDBRANCH  39  40
BRANCH  39  46
HETATM   46  O   UNL     1     -17.637 -15.106  -4.781  1.00  0.00    -0.312 OA
BRANCH  46  47
HETATM   47  C   UNL     1     -17.413 -14.170  -5.735  1.00  0.00     0.283 C 
HETATM   48  O   UNL     1     -16.361 -13.583  -5.960  1.00  0.00    -0.260 OA
BRANCH  47  49
HETATM   49  C   UNL     1     -18.655 -13.971  -6.495  1.00  0.00     0.089 C 
HETATM   50  C   UNL     1     -19.111 -12.719  -6.511  1.00  0.00     0.087 C 
BRANCH  50  51
HETATM   51  C   UNL     1     -20.355 -12.397  -7.231  1.00  0.00     0.165 C 
HETATM   52  O   UNL     1     -20.844 -13.105  -8.089  1.00  0.00    -0.647 OA
BRANCH  51  53
HETATM   53  O   UNL     1     -20.862 -11.231  -6.793  1.00  0.00    -0.773 OA
HETATM   54  H   UNL     1     -20.613 -10.474  -7.365  1.00  0.00     0.167 HD
ENDBRANCH  51  53
ENDBRANCH  50  51
ENDBRANCH  47  49
ENDBRANCH  46  47
ENDBRANCH  39  46
ENDBRANCH  38  39
ENDBRANCH  37  38
ENDBRANCH  35  36
ENDBRANCH  34  35
ENDBRANCH  33  34
ENDBRANCH  32  33
ENDBRANCH  31  32
ENDBRANCH  30  31
ENDBRANCH  29  30
ENDBRANCH  27  29
ENDBRANCH  26  27
ENDBRANCH  25  26
ENDBRANCH   1  25
BRANCH   1  55
HETATM   55  O   UNL     1     -21.543  -9.285  -4.525  1.00  0.00    -0.312 OA
BRANCH  55  56
HETATM   56  C   UNL     1     -21.419 -10.545  -4.005  1.00  0.00     0.259 C 
HETATM   57  O   UNL     1     -22.276 -11.416  -4.047  1.00  0.00    -0.265 OA
BRANCH  56  58
HETATM   58  C   UNL     1     -20.112 -10.717  -3.294  1.00  0.00     0.111 C 
BRANCH  58  59
HETATM   59  C   UNL     1     -20.259 -11.678  -2.124  1.00  0.00     0.010 C 
BRANCH  59  60
HETATM   60  C   UNL     1     -19.810 -11.044  -0.809  1.00  0.00     0.000 C 
BRANCH  60  61
HETATM   61  C   UNL     1     -19.952 -12.034   0.338  1.00  0.00     0.000 C 
BRANCH  61  62
HETATM   62  C   UNL     1     -20.027 -13.461  -0.187  1.00  0.00     0.000 C 
BRANCH  62  63
HETATM   63  C   UNL     1     -20.397 -14.420   0.939  1.00  0.00     0.004 C 
BRANCH  63  64
HETATM   64  C   UNL     1     -19.473 -15.628   0.926  1.00  0.00     0.027 C 
BRANCH  64  65
HETATM   65  C   UNL     1     -18.303 -15.432   1.839  1.00  0.00    -0.031 C 
HETATM   66  C   UNL     1     -17.234 -14.702   1.498  1.00  0.00    -0.028 C 
BRANCH  66  67
HETATM   67  C   UNL     1     -16.132 -14.343   2.440  1.00  0.00     0.058 C 
BRANCH  67  68
HETATM   68  C   UNL     1     -15.441 -13.032   2.036  1.00  0.00     0.121 C 
BRANCH  68  69
HETATM   69  C   UNL     1     -14.438 -13.201   0.886  1.00  0.00     0.032 C 
BRANCH  69  70
HETATM   70  C   UNL     1     -13.419 -14.312   1.180  1.00  0.00     0.002 C 
BRANCH  70  71
HETATM   71  C   UNL     1     -12.756 -14.875  -0.080  1.00  0.00     0.000 C 
BRANCH  71  72
HETATM   72  C   UNL     1     -13.550 -14.562  -1.346  1.00  0.00    -0.000 C 
BRANCH  72  73
HETATM   73  C   UNL     1     -13.589 -15.753  -2.295  1.00  0.00    -0.005 C 
HETATM   74  C   UNL     1     -12.694 -15.501  -3.497  1.00  0.00     0.005 C 
ENDBRANCH  72  73
ENDBRANCH  71  72
ENDBRANCH  70  71
ENDBRANCH  69  70
ENDBRANCH  68  69
BRANCH  68  75
HETATM   75  O   UNL     1     -16.454 -12.106   1.646  1.00  0.00    -0.395 OA
HETATM   76  H   UNL     1     -16.945 -12.503   0.906  1.00  0.00     0.210 HD
ENDBRANCH  68  75
ENDBRANCH  67  68
ENDBRANCH  66  67
ENDBRANCH  64  65
ENDBRANCH  63  64
ENDBRANCH  62  63
ENDBRANCH  61  62
ENDBRANCH  60  61
ENDBRANCH  59  60
ENDBRANCH  58  59
ENDBRANCH  56  58
ENDBRANCH  55  56
ENDBRANCH   1  55
TORSDOF 60
BEGIN_RES ARG D 557
REMARK  4 active torsions:
REMARK  status: ('A' for Active; 'I' for Inactive)
REMARK    1  A    between atoms: CA   and  CB  
REMARK    2  A    between atoms: CB   and  CG  
REMARK    3  A    between atoms: CG   and  CD  
REMARK    4  A    between atoms: CD   and  NE  
REMARK       I    between atoms: NE   and  CZ  
REMARK       I    between atoms: CZ   and  NH1 
REMARK       I    between atoms: CZ   and  NH2 
ROOT
ATOM      1  CA  ARG D 557     -26.217   2.705 -17.014  1.00 35.49     0.159 C 
ENDROOT
BRANCH   1   2
ATOM      2  CB  ARG D 557     -26.789   1.319 -17.183  1.00 35.49     0.034 C 
BRANCH   2   3
ATOM      3  CG  ARG D 557     -25.906   0.195 -16.849  1.00 35.49     0.027 C 
BRANCH   3   4
ATOM      4  CD  ARG D 557     -24.943   0.533 -15.777  1.00 35.49     0.116 C 
BRANCH   4   5
ATOM      5  NE  ARG D 557     -23.836  -0.386 -15.732  1.00 35.49    -0.212 N 
ATOM      6  CZ  ARG D 557     -23.750  -1.447 -14.960  1.00 35.49     0.666 C 
ATOM      7  NH1 ARG D 557     -24.699  -1.781 -14.106  1.00 35.49    -0.235 N 
ATOM      8  NH2 ARG D 557     -22.681  -2.181 -15.067  1.00 35.49    -0.235 N 
ATOM      9  HH  ARG D 557     -25.412  -1.314 -14.020  1.00 35.49     0.174 HD
ATOM     10  HH  ARG D 557     -24.589  -2.486 -13.630  1.00 35.49     0.174 HD
ATOM     11  HH  ARG D 557     -22.088  -1.945 -15.633  1.00 35.49     0.174 HD
ATOM     12  HH  ARG D 557     -22.591  -2.876 -14.589  1.00 35.49     0.174 HD
ATOM     13  HE  ARG D 557     -23.148  -0.206 -16.198  1.00 35.49     0.178 HD
ENDBRANCH   4   5
ENDBRANCH   3   4
ENDBRANCH   2   3
ENDBRANCH   1   2
END_RES ARG D 557
BEGIN_RES GLU D 570
REMARK  3 active torsions:
REMARK  status: ('A' for Active; 'I' for Inactive)
REMARK    5  A    between atoms: CA   and  CB  
REMARK    6  A    between atoms: CB   and  CG  
REMARK    7  A    between atoms: CG   and  CD  
ROOT
ATOM     14  CA  GLU D 570     -18.033  -6.348 -13.375  1.00 32.92     0.160 C 
ENDROOT
BRANCH  14  15
ATOM     15  CB  GLU D 570     -19.500  -6.345 -13.794  1.00 32.92     0.043 C 
BRANCH  15  16
ATOM     16  CG  GLU D 570     -19.867  -5.553 -14.996  1.00 32.92     0.100 C 
BRANCH  16  17
ATOM     17  CD  GLU D 570     -20.504  -6.389 -16.081  1.00 32.92     0.185 C 
ATOM     18  OE1 GLU D 570     -20.700  -5.879 -17.201  1.00 32.92    -0.647 OA
ATOM     19  OE2 GLU D 570     -20.827  -7.560 -15.803  1.00 32.92    -0.647 OA
ENDBRANCH  16  17
ENDBRANCH  15  16
ENDBRANCH  14  15
END_RES GLU D 570
ENDMDL
