MODEL 1
REMARK VINA RESULT:      -6.6      0.000      0.000
REMARK  6 active torsions:
REMARK  status: ('A' for Active; 'I' for Inactive)
REMARK    1  A    between atoms: C_1  and  C_2 
REMARK    2  A    between atoms: C_1  and  O_12 
REMARK    3  A    between atoms: C_2  and  C_3 
REMARK    4  A    between atoms: C_2  and  O_11 
REMARK    5  A    between atoms: C_4  and  O_10 
REMARK    6  A    between atoms: C_5  and  O_9 
ROOT
HETATM    1  C   UNL     1     -24.328  -3.602 -13.951  1.00  0.00     0.222 A 
HETATM    2  C   UNL     1     -23.926  -5.029 -13.971  1.00  0.00     0.114 A 
HETATM    3  C   UNL     1     -24.665  -5.729 -14.823  1.00  0.00     0.173 A 
HETATM    4  C   UNL     1     -25.644  -4.790 -15.400  1.00  0.00     0.320 A 
HETATM    5  O   UNL     1     -26.486  -5.044 -16.239  1.00  0.00    -0.257 OA
HETATM    6  O   UNL     1     -25.431  -3.544 -14.863  1.00  0.00    -0.301 OA
ENDROOT
BRANCH   1   7
HETATM    7  C   UNL     1     -23.204  -2.649 -14.381  1.00  0.00     0.177 C 
BRANCH   7   8
HETATM    8  C   UNL     1     -23.690  -1.375 -15.087  1.00  0.00     0.198 C 
BRANCH   8   9
HETATM    9  O   UNL     1     -24.836  -0.881 -14.386  1.00  0.00    -0.398 OA
HETATM   10  H   UNL     1     -24.866   0.085 -14.519  1.00  0.00     0.209 HD
ENDBRANCH   8   9
ENDBRANCH   7   8
BRANCH   7  11
HETATM   11  O   UNL     1     -22.301  -3.364 -15.253  1.00  0.00    -0.390 OA
HETATM   12  H   UNL     1     -21.478  -2.829 -15.275  1.00  0.00     0.210 HD
ENDBRANCH   7  11
ENDBRANCH   1   7
BRANCH   2  13
HETATM   13  O   UNL     1     -22.879  -5.522 -13.236  1.00  0.00    -0.359 OA
HETATM   14  H   UNL     1     -23.262  -6.011 -12.473  1.00  0.00     0.217 HD
ENDBRANCH   2  13
BRANCH   3  15
HETATM   15  O   UNL     1     -24.515  -7.044 -15.146  1.00  0.00    -0.353 OA
HETATM   16  H   UNL     1     -25.151  -7.217 -15.867  1.00  0.00     0.218 HD
ENDBRANCH   3  15
TORSDOF 6
BEGIN_RES ARG D 557
REMARK  4 active torsions:
REMARK  status: ('A' for Active; 'I' for Inactive)
REMARK    1  A    between atoms: CA   and  CB  
REMARK    2  A    between atoms: CB   and  CG  
REMARK    3  A    between atoms: CG   and  CD  
REMARK    4  A    between atoms: CD   and  NE  
REMARK       I    between atoms: NE   and  CZ  
REMARK       I    between atoms: CZ   and  NH1 
REMARK       I    between atoms: CZ   and  NH2 
ROOT
ATOM      1  CA  ARG D 557     -26.217   2.705 -17.014  1.00 35.49     0.159 C 
ENDROOT
BRANCH   1   2
ATOM      2  CB  ARG D 557     -26.789   1.319 -17.183  1.00 35.49     0.034 C 
BRANCH   2   3
ATOM      3  CG  ARG D 557     -28.215   1.229 -17.520  1.00 35.49     0.027 C 
BRANCH   3   4
ATOM      4  CD  ARG D 557     -28.961   0.354 -16.588  1.00 35.49     0.116 C 
BRANCH   4   5
ATOM      5  NE  ARG D 557     -29.194  -0.954 -17.140  1.00 35.49    -0.212 N 
ATOM      6  CZ  ARG D 557     -28.457  -2.021 -16.926  1.00 35.49     0.666 C 
ATOM      7  NH1 ARG D 557     -27.379  -1.996 -16.164  1.00 35.49    -0.235 N 
ATOM      8  NH2 ARG D 557     -28.829  -3.132 -17.492  1.00 35.49    -0.235 N 
ATOM      9  HH  ARG D 557     -27.117  -1.277 -15.779  1.00 35.49     0.174 HD
ATOM     10  HH  ARG D 557     -26.939  -2.724 -16.058  1.00 35.49     0.174 HD
ATOM     11  HH  ARG D 557     -29.533  -3.119 -17.973  1.00 35.49     0.174 HD
ATOM     12  HH  ARG D 557     -28.381  -3.842 -17.374  1.00 35.49     0.174 HD
ATOM     13  HE  ARG D 557     -29.827  -1.044 -17.701  1.00 35.49     0.178 HD
ENDBRANCH   4   5
ENDBRANCH   3   4
ENDBRANCH   2   3
ENDBRANCH   1   2
END_RES ARG D 557
BEGIN_RES GLU D 570
REMARK  3 active torsions:
REMARK  status: ('A' for Active; 'I' for Inactive)
REMARK    5  A    between atoms: CA   and  CB  
REMARK    6  A    between atoms: CB   and  CG  
REMARK    7  A    between atoms: CG   and  CD  
ROOT
ATOM     14  CA  GLU D 570     -18.033  -6.348 -13.375  1.00 32.92     0.160 C 
ENDROOT
BRANCH  14  15
ATOM     15  CB  GLU D 570     -19.500  -6.345 -13.794  1.00 32.92     0.043 C 
BRANCH  15  16
ATOM     16  CG  GLU D 570     -20.089  -7.636 -14.235  1.00 32.92     0.100 C 
BRANCH  16  17
ATOM     17  CD  GLU D 570     -20.862  -7.520 -15.528  1.00 32.92     0.185 C 
ATOM     18  OE1 GLU D 570     -20.884  -8.489 -16.310  1.00 32.92    -0.647 OA
ATOM     19  OE2 GLU D 570     -21.439  -6.441 -15.769  1.00 32.92    -0.647 OA
ENDBRANCH  16  17
ENDBRANCH  15  16
ENDBRANCH  14  15
END_RES GLU D 570
ENDMDL
MODEL 2
REMARK VINA RESULT:      -6.5      2.617      4.580
REMARK  6 active torsions:
REMARK  status: ('A' for Active; 'I' for Inactive)
REMARK    1  A    between atoms: C_1  and  C_2 
REMARK    2  A    between atoms: C_1  and  O_12 
REMARK    3  A    between atoms: C_2  and  C_3 
REMARK    4  A    between atoms: C_2  and  O_11 
REMARK    5  A    between atoms: C_4  and  O_10 
REMARK    6  A    between atoms: C_5  and  O_9 
ROOT
HETATM    1  C   UNL     1     -28.297  -4.940 -16.168  1.00  0.00     0.222 A 
HETATM    2  C   UNL     1     -27.072  -4.211 -15.760  1.00  0.00     0.114 A 
HETATM    3  C   UNL     1     -26.075  -5.047 -15.498  1.00  0.00     0.173 A 
HETATM    4  C   UNL     1     -26.608  -6.409 -15.687  1.00  0.00     0.320 A 
HETATM    5  O   UNL     1     -25.995  -7.451 -15.563  1.00  0.00    -0.257 OA
HETATM    6  O   UNL     1     -27.922  -6.319 -16.073  1.00  0.00    -0.301 OA
ENDROOT
BRANCH   1   7
HETATM    7  C   UNL     1     -28.765  -4.590 -17.587  1.00  0.00     0.177 C 
BRANCH   7   8
HETATM    8  C   UNL     1     -29.987  -3.661 -17.639  1.00  0.00     0.198 C 
BRANCH   8   9
HETATM    9  O   UNL     1     -29.533  -2.311 -17.507  1.00  0.00    -0.398 OA
HETATM   10  H   UNL     1     -28.657  -2.337 -17.082  1.00  0.00     0.209 HD
ENDBRANCH   8   9
ENDBRANCH   7   8
BRANCH   7  11
HETATM   11  O   UNL     1     -29.066  -5.816 -18.290  1.00  0.00    -0.390 OA
HETATM   12  H   UNL     1     -29.054  -5.583 -19.243  1.00  0.00     0.210 HD
ENDBRANCH   7  11
ENDBRANCH   1   7
BRANCH   2  13
HETATM   13  O   UNL     1     -26.991  -2.843 -15.724  1.00  0.00    -0.359 OA
HETATM   14  H   UNL     1     -27.879  -2.491 -15.961  1.00  0.00     0.217 HD
ENDBRANCH   2  13
BRANCH   3  15
HETATM   15  O   UNL     1     -24.794  -4.716 -15.173  1.00  0.00    -0.353 OA
HETATM   16  H   UNL     1     -24.797  -3.751 -15.022  1.00  0.00     0.218 HD
ENDBRANCH   3  15
TORSDOF 6
BEGIN_RES ARG D 557
REMARK  4 active torsions:
REMARK  status: ('A' for Active; 'I' for Inactive)
REMARK    1  A    between atoms: CA   and  CB  
REMARK    2  A    between atoms: CB   and  CG  
REMARK    3  A    between atoms: CG   and  CD  
REMARK    4  A    between atoms: CD   and  NE  
REMARK       I    between atoms: NE   and  CZ  
REMARK       I    between atoms: CZ   and  NH1 
REMARK       I    between atoms: CZ   and  NH2 
ROOT
ATOM      1  CA  ARG D 557     -26.217   2.705 -17.014  1.00 35.49     0.159 C 
ENDROOT
BRANCH   1   2
ATOM      2  CB  ARG D 557     -26.789   1.319 -17.183  1.00 35.49     0.034 C 
BRANCH   2   3
ATOM      3  CG  ARG D 557     -25.833   0.205 -17.180  1.00 35.49     0.027 C 
BRANCH   3   4
ATOM      4  CD  ARG D 557     -24.784   0.364 -16.147  1.00 35.49     0.116 C 
BRANCH   4   5
ATOM      5  NE  ARG D 557     -25.005  -0.495 -15.013  1.00 35.49    -0.212 N 
ATOM      6  CZ  ARG D 557     -24.230  -1.488 -14.640  1.00 35.49     0.666 C 
ATOM      7  NH1 ARG D 557     -23.136  -1.821 -15.300  1.00 35.49    -0.235 N 
ATOM      8  NH2 ARG D 557     -24.573  -2.149 -13.572  1.00 35.49    -0.235 N 
ATOM      9  HH  ARG D 557     -22.890  -1.399 -16.004  1.00 35.49     0.174 HD
ATOM     10  HH  ARG D 557     -22.668  -2.477 -15.008  1.00 35.49     0.174 HD
ATOM     11  HH  ARG D 557     -25.280  -1.907 -13.162  1.00 35.49     0.174 HD
ATOM     12  HH  ARG D 557     -24.096  -2.794 -13.298  1.00 35.49     0.174 HD
ATOM     13  HE  ARG D 557     -25.726  -0.397 -14.573  1.00 35.49     0.178 HD
ENDBRANCH   4   5
ENDBRANCH   3   4
ENDBRANCH   2   3
ENDBRANCH   1   2
END_RES ARG D 557
BEGIN_RES GLU D 570
REMARK  3 active torsions:
REMARK  status: ('A' for Active; 'I' for Inactive)
REMARK    5  A    between atoms: CA   and  CB  
REMARK    6  A    between atoms: CB   and  CG  
REMARK    7  A    between atoms: CG   and  CD  
ROOT
ATOM     14  CA  GLU D 570     -18.033  -6.348 -13.375  1.00 32.92     0.160 C 
ENDROOT
BRANCH  14  15
ATOM     15  CB  GLU D 570     -19.500  -6.345 -13.794  1.00 32.92     0.043 C 
BRANCH  15  16
ATOM     16  CG  GLU D 570     -20.443  -5.535 -12.980  1.00 32.92     0.100 C 
BRANCH  16  17
ATOM     17  CD  GLU D 570     -21.739  -5.240 -13.699  1.00 32.92     0.185 C 
ATOM     18  OE1 GLU D 570     -22.317  -4.158 -13.485  1.00 32.92    -0.647 OA
ATOM     19  OE2 GLU D 570     -22.190  -6.109 -14.471  1.00 32.92    -0.647 OA
ENDBRANCH  16  17
ENDBRANCH  15  16
ENDBRANCH  14  15
END_RES GLU D 570
ENDMDL
MODEL 3
REMARK VINA RESULT:      -6.3      2.026      3.115
REMARK  6 active torsions:
REMARK  status: ('A' for Active; 'I' for Inactive)
REMARK    1  A    between atoms: C_1  and  C_2 
REMARK    2  A    between atoms: C_1  and  O_12 
REMARK    3  A    between atoms: C_2  and  C_3 
REMARK    4  A    between atoms: C_2  and  O_11 
REMARK    5  A    between atoms: C_4  and  O_10 
REMARK    6  A    between atoms: C_5  and  O_9 
ROOT
HETATM    1  C   UNL     1     -24.199  -3.694 -12.566  1.00  0.00     0.222 A 
HETATM    2  C   UNL     1     -23.135  -3.235 -13.491  1.00  0.00     0.114 A 
HETATM    3  C   UNL     1     -23.633  -2.485 -14.467  1.00  0.00     0.173 A 
HETATM    4  C   UNL     1     -25.091  -2.438 -14.258  1.00  0.00     0.320 A 
HETATM    5  O   UNL     1     -25.902  -1.831 -14.932  1.00  0.00    -0.257 OA
HETATM    6  O   UNL     1     -25.401  -3.166 -13.136  1.00  0.00    -0.301 OA
ENDROOT
BRANCH   1   7
HETATM    7  C   UNL     1     -24.005  -3.200 -11.126  1.00  0.00     0.177 C 
BRANCH   7   8
HETATM    8  C   UNL     1     -23.080  -4.080 -10.273  1.00  0.00     0.198 C 
BRANCH   8   9
HETATM    9  O   UNL     1     -21.768  -3.511 -10.296  1.00  0.00    -0.398 OA
HETATM   10  H   UNL     1     -21.232  -3.984  -9.634  1.00  0.00     0.209 HD
ENDBRANCH   8   9
ENDBRANCH   7   8
BRANCH   7  11
HETATM   11  O   UNL     1     -25.299  -3.109 -10.491  1.00  0.00    -0.390 OA
HETATM   12  H   UNL     1     -25.118  -3.088  -9.526  1.00  0.00     0.210 HD
ENDBRANCH   7  11
ENDBRANCH   1   7
BRANCH   2  13
HETATM   13  O   UNL     1     -21.806  -3.513 -13.302  1.00  0.00    -0.359 OA
HETATM   14  H   UNL     1     -21.326  -3.206 -14.104  1.00  0.00     0.217 HD
ENDBRANCH   2  13
BRANCH   3  15
HETATM   15  O   UNL     1     -22.932  -1.838 -15.440  1.00  0.00    -0.353 OA
HETATM   16  H   UNL     1     -22.592  -1.021 -15.027  1.00  0.00     0.218 HD
ENDBRANCH   3  15
TORSDOF 6
BEGIN_RES ARG D 557
REMARK  4 active torsions:
REMARK  status: ('A' for Active; 'I' for Inactive)
REMARK    1  A    between atoms: CA   and  CB  
REMARK    2  A    between atoms: CB   and  CG  
REMARK    3  A    between atoms: CG   and  CD  
REMARK    4  A    between atoms: CD   and  NE  
REMARK       I    between atoms: NE   and  CZ  
REMARK       I    between atoms: CZ   and  NH1 
REMARK       I    between atoms: CZ   and  NH2 
ROOT
ATOM      1  CA  ARG D 557     -26.217   2.705 -17.014  1.00 35.49     0.159 C 
ENDROOT
BRANCH   1   2
ATOM      2  CB  ARG D 557     -26.789   1.319 -17.183  1.00 35.49     0.034 C 
BRANCH   2   3
ATOM      3  CG  ARG D 557     -28.154   1.103 -16.688  1.00 35.49     0.027 C 
BRANCH   3   4
ATOM      4  CD  ARG D 557     -28.786  -0.098 -17.281  1.00 35.49     0.116 C 
BRANCH   4   5
ATOM      5  NE  ARG D 557     -28.164  -1.316 -16.832  1.00 35.49    -0.212 N 
ATOM      6  CZ  ARG D 557     -28.631  -2.530 -17.019  1.00 35.49     0.666 C 
ATOM      7  NH1 ARG D 557     -29.768  -2.764 -17.648  1.00 35.49    -0.235 N 
ATOM      8  NH2 ARG D 557     -27.924  -3.522 -16.561  1.00 35.49    -0.235 N 
ATOM      9  HH  ARG D 557     -30.249  -2.127 -17.959  1.00 35.49     0.174 HD
ATOM     10  HH  ARG D 557     -30.021  -3.577 -17.742  1.00 35.49     0.174 HD
ATOM     11  HH  ARG D 557     -27.190  -3.341 -16.165  1.00 35.49     0.174 HD
ATOM     12  HH  ARG D 557     -28.191  -4.320 -16.665  1.00 35.49     0.174 HD
ATOM     13  HE  ARG D 557     -27.464  -1.254 -16.354  1.00 35.49     0.178 HD
ENDBRANCH   4   5
ENDBRANCH   3   4
ENDBRANCH   2   3
ENDBRANCH   1   2
END_RES ARG D 557
BEGIN_RES GLU D 570
REMARK  3 active torsions:
REMARK  status: ('A' for Active; 'I' for Inactive)
REMARK    5  A    between atoms: CA   and  CB  
REMARK    6  A    between atoms: CB   and  CG  
REMARK    7  A    between atoms: CG   and  CD  
ROOT
ATOM     14  CA  GLU D 570     -18.033  -6.348 -13.375  1.00 32.92     0.160 C 
ENDROOT
BRANCH  14  15
ATOM     15  CB  GLU D 570     -19.500  -6.345 -13.794  1.00 32.92     0.043 C 
BRANCH  15  16
ATOM     16  CG  GLU D 570     -19.801  -6.121 -15.232  1.00 32.92     0.100 C 
BRANCH  16  17
ATOM     17  CD  GLU D 570     -21.257  -5.808 -15.487  1.00 32.92     0.185 C 
ATOM     18  OE1 GLU D 570     -22.121  -6.289 -14.730  1.00 32.92    -0.647 OA
ATOM     19  OE2 GLU D 570     -21.537  -5.088 -16.466  1.00 32.92    -0.647 OA
ENDBRANCH  16  17
ENDBRANCH  15  16
ENDBRANCH  14  15
END_RES GLU D 570
ENDMDL
MODEL 4
REMARK VINA RESULT:      -6.2      2.133      3.320
REMARK  6 active torsions:
REMARK  status: ('A' for Active; 'I' for Inactive)
REMARK    1  A    between atoms: C_1  and  C_2 
REMARK    2  A    between atoms: C_1  and  O_12 
REMARK    3  A    between atoms: C_2  and  C_3 
REMARK    4  A    between atoms: C_2  and  O_11 
REMARK    5  A    between atoms: C_4  and  O_10 
REMARK    6  A    between atoms: C_5  and  O_9 
ROOT
HETATM    1  C   UNL     1     -23.260  -3.033 -13.039  1.00  0.00     0.222 A 
HETATM    2  C   UNL     1     -22.338  -3.230 -11.895  1.00  0.00     0.114 A 
HETATM    3  C   UNL     1     -23.003  -3.349 -10.751  1.00  0.00     0.173 A 
HETATM    4  C   UNL     1     -24.432  -3.195 -11.079  1.00  0.00     0.320 A 
HETATM    5  O   UNL     1     -25.365  -3.261 -10.302  1.00  0.00    -0.257 OA
HETATM    6  O   UNL     1     -24.557  -3.000 -12.432  1.00  0.00    -0.301 OA
ENDROOT
BRANCH   1   7
HETATM    7  C   UNL     1     -23.169  -4.147 -14.091  1.00  0.00     0.177 C 
BRANCH   7   8
HETATM    8  C   UNL     1     -23.289  -5.568 -13.519  1.00  0.00     0.198 C 
BRANCH   8   9
HETATM    9  O   UNL     1     -24.092  -6.346 -14.411  1.00  0.00    -0.398 OA
HETATM   10  H   UNL     1     -24.446  -5.742 -15.089  1.00  0.00     0.209 HD
ENDBRANCH   8   9
ENDBRANCH   7   8
BRANCH   7  11
HETATM   11  O   UNL     1     -21.914  -4.018 -14.793  1.00  0.00    -0.390 OA
HETATM   12  H   UNL     1     -21.600  -4.936 -14.943  1.00  0.00     0.210 HD
ENDBRANCH   7  11
ENDBRANCH   1   7
BRANCH   2  13
HETATM   13  O   UNL     1     -20.978  -3.335 -12.038  1.00  0.00    -0.359 OA
HETATM   14  H   UNL     1     -20.599  -3.468 -11.140  1.00  0.00     0.217 HD
ENDBRANCH   2  13
BRANCH   3  15
HETATM   15  O   UNL     1     -22.476  -3.616  -9.524  1.00  0.00    -0.353 OA
HETATM   16  H   UNL     1     -22.763  -2.884  -8.944  1.00  0.00     0.218 HD
ENDBRANCH   3  15
TORSDOF 6
BEGIN_RES ARG D 557
REMARK  4 active torsions:
REMARK  status: ('A' for Active; 'I' for Inactive)
REMARK    1  A    between atoms: CA   and  CB  
REMARK    2  A    between atoms: CB   and  CG  
REMARK    3  A    between atoms: CG   and  CD  
REMARK    4  A    between atoms: CD   and  NE  
REMARK       I    between atoms: NE   and  CZ  
REMARK       I    between atoms: CZ   and  NH1 
REMARK       I    between atoms: CZ   and  NH2 
ROOT
ATOM      1  CA  ARG D 557     -26.217   2.705 -17.014  1.00 35.49     0.159 C 
ENDROOT
BRANCH   1   2
ATOM      2  CB  ARG D 557     -26.789   1.319 -17.183  1.00 35.49     0.034 C 
BRANCH   2   3
ATOM      3  CG  ARG D 557     -28.221   1.156 -16.902  1.00 35.49     0.027 C 
BRANCH   3   4
ATOM      4  CD  ARG D 557     -28.576  -0.244 -16.577  1.00 35.49     0.116 C 
BRANCH   4   5
ATOM      5  NE  ARG D 557     -27.532  -0.913 -15.846  1.00 35.49    -0.212 N 
ATOM      6  CZ  ARG D 557     -27.247  -2.194 -15.914  1.00 35.49     0.666 C 
ATOM      7  NH1 ARG D 557     -27.924  -3.032 -16.677  1.00 35.49    -0.235 N 
ATOM      8  NH2 ARG D 557     -26.251  -2.627 -15.196  1.00 35.49    -0.235 N 
ATOM      9  HH  ARG D 557     -28.582  -2.769 -17.160  1.00 35.49     0.174 HD
ATOM     10  HH  ARG D 557     -27.691  -3.857 -16.683  1.00 35.49     0.174 HD
ATOM     11  HH  ARG D 557     -25.827  -2.061 -14.718  1.00 35.49     0.174 HD
ATOM     12  HH  ARG D 557     -26.035  -3.446 -15.217  1.00 35.49     0.174 HD
ATOM     13  HE  ARG D 557     -27.092  -0.462 -15.275  1.00 35.49     0.178 HD
ENDBRANCH   4   5
ENDBRANCH   3   4
ENDBRANCH   2   3
ENDBRANCH   1   2
END_RES ARG D 557
BEGIN_RES GLU D 570
REMARK  3 active torsions:
REMARK  status: ('A' for Active; 'I' for Inactive)
REMARK    5  A    between atoms: CA   and  CB  
REMARK    6  A    between atoms: CB   and  CG  
REMARK    7  A    between atoms: CG   and  CD  
ROOT
ATOM     14  CA  GLU D 570     -18.033  -6.348 -13.375  1.00 32.92     0.160 C 
ENDROOT
BRANCH  14  15
ATOM     15  CB  GLU D 570     -19.500  -6.345 -13.794  1.00 32.92     0.043 C 
BRANCH  15  16
ATOM     16  CG  GLU D 570     -20.004  -7.532 -14.532  1.00 32.92     0.100 C 
BRANCH  16  17
ATOM     17  CD  GLU D 570     -20.865  -7.167 -15.718  1.00 32.92     0.185 C 
ATOM     18  OE1 GLU D 570     -21.872  -7.857 -15.970  1.00 32.92    -0.647 OA
ATOM     19  OE2 GLU D 570     -20.519  -6.192 -16.414  1.00 32.92    -0.647 OA
ENDBRANCH  16  17
ENDBRANCH  15  16
ENDBRANCH  14  15
END_RES GLU D 570
ENDMDL
MODEL 5
REMARK VINA RESULT:      -6.2      2.681      4.689
REMARK  6 active torsions:
REMARK  status: ('A' for Active; 'I' for Inactive)
REMARK    1  A    between atoms: C_1  and  C_2 
REMARK    2  A    between atoms: C_1  and  O_12 
REMARK    3  A    between atoms: C_2  and  C_3 
REMARK    4  A    between atoms: C_2  and  O_11 
REMARK    5  A    between atoms: C_4  and  O_10 
REMARK    6  A    between atoms: C_5  and  O_9 
ROOT
HETATM    1  C   UNL     1     -27.556  -6.015 -17.009  1.00  0.00     0.222 A 
HETATM    2  C   UNL     1     -26.298  -6.196 -16.245  1.00  0.00     0.114 A 
HETATM    3  C   UNL     1     -25.941  -5.076 -15.627  1.00  0.00     0.173 A 
HETATM    4  C   UNL     1     -26.946  -4.059 -15.988  1.00  0.00     0.320 A 
HETATM    5  O   UNL     1     -26.981  -2.906 -15.604  1.00  0.00    -0.257 OA
HETATM    6  O   UNL     1     -27.882  -4.635 -16.811  1.00  0.00    -0.301 OA
ENDROOT
BRANCH   1   7
HETATM    7  C   UNL     1     -28.693  -6.927 -16.530  1.00  0.00     0.177 C 
BRANCH   7   8
HETATM    8  C   UNL     1     -30.098  -6.331 -16.705  1.00  0.00     0.198 C 
BRANCH   8   9
HETATM    9  O   UNL     1     -30.371  -5.484 -15.585  1.00  0.00    -0.398 OA
HETATM   10  H   UNL     1     -30.813  -6.028 -14.907  1.00  0.00     0.209 HD
ENDBRANCH   8   9
ENDBRANCH   7   8
BRANCH   7  11
HETATM   11  O   UNL     1     -28.477  -7.243 -15.137  1.00  0.00    -0.390 OA
HETATM   12  H   UNL     1     -27.575  -7.626 -15.091  1.00  0.00     0.210 HD
ENDBRANCH   7  11
ENDBRANCH   1   7
BRANCH   2  13
HETATM   13  O   UNL     1     -25.642  -7.396 -16.155  1.00  0.00    -0.359 OA
HETATM   14  H   UNL     1     -24.753  -7.216 -15.775  1.00  0.00     0.217 HD
ENDBRANCH   2  13
BRANCH   3  15
HETATM   15  O   UNL     1     -24.887  -4.910 -14.780  1.00  0.00    -0.353 OA
HETATM   16  H   UNL     1     -24.123  -5.332 -15.218  1.00  0.00     0.218 HD
ENDBRANCH   3  15
TORSDOF 6
BEGIN_RES ARG D 557
REMARK  4 active torsions:
REMARK  status: ('A' for Active; 'I' for Inactive)
REMARK    1  A    between atoms: CA   and  CB  
REMARK    2  A    between atoms: CB   and  CG  
REMARK    3  A    between atoms: CG   and  CD  
REMARK    4  A    between atoms: CD   and  NE  
REMARK       I    between atoms: NE   and  CZ  
REMARK       I    between atoms: CZ   and  NH1 
REMARK       I    between atoms: CZ   and  NH2 
ROOT
ATOM      1  CA  ARG D 557     -26.217   2.705 -17.014  1.00 35.49     0.159 C 
ENDROOT
BRANCH   1   2
ATOM      2  CB  ARG D 557     -26.789   1.319 -17.183  1.00 35.49     0.034 C 
BRANCH   2   3
ATOM      3  CG  ARG D 557     -25.834   0.204 -17.167  1.00 35.49     0.027 C 
BRANCH   3   4
ATOM      4  CD  ARG D 557     -24.782   0.376 -16.140  1.00 35.49     0.116 C 
BRANCH   4   5
ATOM      5  NE  ARG D 557     -24.973  -0.501 -15.015  1.00 35.49    -0.212 N 
ATOM      6  CZ  ARG D 557     -24.166  -1.473 -14.653  1.00 35.49     0.666 C 
ATOM      7  NH1 ARG D 557     -23.063  -1.764 -15.319  1.00 35.49    -0.235 N 
ATOM      8  NH2 ARG D 557     -24.486  -2.155 -13.592  1.00 35.49    -0.235 N 
ATOM      9  HH  ARG D 557     -22.832  -1.326 -16.018  1.00 35.49     0.174 HD
ATOM     10  HH  ARG D 557     -22.574  -2.407 -15.034  1.00 35.49     0.174 HD
ATOM     11  HH  ARG D 557     -25.200  -1.940 -13.179  1.00 35.49     0.174 HD
ATOM     12  HH  ARG D 557     -23.988  -2.788 -13.326  1.00 35.49     0.174 HD
ATOM     13  HE  ARG D 557     -25.696  -0.431 -14.573  1.00 35.49     0.178 HD
ENDBRANCH   4   5
ENDBRANCH   3   4
ENDBRANCH   2   3
ENDBRANCH   1   2
END_RES ARG D 557
BEGIN_RES GLU D 570
REMARK  3 active torsions:
REMARK  status: ('A' for Active; 'I' for Inactive)
REMARK    5  A    between atoms: CA   and  CB  
REMARK    6  A    between atoms: CB   and  CG  
REMARK    7  A    between atoms: CG   and  CD  
ROOT
ATOM     14  CA  GLU D 570     -18.033  -6.348 -13.375  1.00 32.92     0.160 C 
ENDROOT
BRANCH  14  15
ATOM     15  CB  GLU D 570     -19.500  -6.345 -13.794  1.00 32.92     0.043 C 
BRANCH  15  16
ATOM     16  CG  GLU D 570     -20.448  -5.561 -12.961  1.00 32.92     0.100 C 
BRANCH  16  17
ATOM     17  CD  GLU D 570     -21.741  -5.247 -13.677  1.00 32.92     0.185 C 
ATOM     18  OE1 GLU D 570     -22.280  -4.139 -13.495  1.00 32.92    -0.647 OA
ATOM     19  OE2 GLU D 570     -22.230  -6.126 -14.414  1.00 32.92    -0.647 OA
ENDBRANCH  16  17
ENDBRANCH  15  16
ENDBRANCH  14  15
END_RES GLU D 570
ENDMDL
MODEL 6
REMARK VINA RESULT:      -6.1      4.287      5.683
REMARK  6 active torsions:
REMARK  status: ('A' for Active; 'I' for Inactive)
REMARK    1  A    between atoms: C_1  and  C_2 
REMARK    2  A    between atoms: C_1  and  O_12 
REMARK    3  A    between atoms: C_2  and  C_3 
REMARK    4  A    between atoms: C_2  and  O_11 
REMARK    5  A    between atoms: C_4  and  O_10 
REMARK    6  A    between atoms: C_5  and  O_9 
ROOT
HETATM    1  C   UNL     1     -22.693  -4.816  -8.801  1.00  0.00     0.222 A 
HETATM    2  C   UNL     1     -21.768  -4.075  -9.692  1.00  0.00     0.114 A 
HETATM    3  C   UNL     1     -22.432  -3.371 -10.602  1.00  0.00     0.173 A 
HETATM    4  C   UNL     1     -23.864  -3.644 -10.381  1.00  0.00     0.320 A 
HETATM    5  O   UNL     1     -24.797  -3.168 -10.999  1.00  0.00    -0.257 OA
HETATM    6  O   UNL     1     -23.991  -4.506  -9.320  1.00  0.00    -0.301 OA
ENDROOT
BRANCH   1   7
HETATM    7  C   UNL     1     -22.573  -4.406  -7.327  1.00  0.00     0.177 C 
BRANCH   7   8
HETATM    8  C   UNL     1     -21.659  -5.313  -6.490  1.00  0.00     0.198 C 
BRANCH   8   9
HETATM    9  O   UNL     1     -21.026  -6.249  -7.368  1.00  0.00    -0.398 OA
HETATM   10  H   UNL     1     -20.116  -5.935  -7.524  1.00  0.00     0.209 HD
ENDBRANCH   8   9
ENDBRANCH   7   8
BRANCH   7  11
HETATM   11  O   UNL     1     -23.893  -4.388  -6.744  1.00  0.00    -0.390 OA
HETATM   12  H   UNL     1     -23.866  -3.693  -6.052  1.00  0.00     0.210 HD
ENDBRANCH   7  11
ENDBRANCH   1   7
BRANCH   2  13
HETATM   13  O   UNL     1     -20.406  -4.086  -9.535  1.00  0.00    -0.359 OA
HETATM   14  H   UNL     1     -20.055  -3.277  -9.972  1.00  0.00     0.217 HD
ENDBRANCH   2  13
BRANCH   3  15
HETATM   15  O   UNL     1     -21.902  -2.519 -11.524  1.00  0.00    -0.353 OA
HETATM   16  H   UNL     1     -21.969  -1.626 -11.133  1.00  0.00     0.218 HD
ENDBRANCH   3  15
TORSDOF 6
BEGIN_RES ARG D 557
REMARK  4 active torsions:
REMARK  status: ('A' for Active; 'I' for Inactive)
REMARK    1  A    between atoms: CA   and  CB  
REMARK    2  A    between atoms: CB   and  CG  
REMARK    3  A    between atoms: CG   and  CD  
REMARK    4  A    between atoms: CD   and  NE  
REMARK       I    between atoms: NE   and  CZ  
REMARK       I    between atoms: CZ   and  NH1 
REMARK       I    between atoms: CZ   and  NH2 
ROOT
ATOM      1  CA  ARG D 557     -26.217   2.705 -17.014  1.00 35.49     0.159 C 
ENDROOT
BRANCH   1   2
ATOM      2  CB  ARG D 557     -26.789   1.319 -17.183  1.00 35.49     0.034 C 
BRANCH   2   3
ATOM      3  CG  ARG D 557     -25.853   0.197 -17.046  1.00 35.49     0.027 C 
BRANCH   3   4
ATOM      4  CD  ARG D 557     -26.228  -0.720 -15.945  1.00 35.49     0.116 C 
BRANCH   4   5
ATOM      5  NE  ARG D 557     -25.199  -0.815 -14.944  1.00 35.49    -0.212 N 
ATOM      6  CZ  ARG D 557     -24.799  -1.920 -14.355  1.00 35.49     0.666 C 
ATOM      7  NH1 ARG D 557     -25.331  -3.098 -14.623  1.00 35.49    -0.235 N 
ATOM      8  NH2 ARG D 557     -23.836  -1.822 -13.485  1.00 35.49    -0.235 N 
ATOM      9  HH  ARG D 557     -25.964  -3.186 -15.194  1.00 35.49     0.174 HD
ATOM     10  HH  ARG D 557     -25.027  -3.785 -14.210  1.00 35.49     0.174 HD
ATOM     11  HH  ARG D 557     -23.507  -1.049 -13.337  1.00 35.49     0.174 HD
ATOM     12  HH  ARG D 557     -23.549  -2.513 -13.087  1.00 35.49     0.174 HD
ATOM     13  HE  ARG D 557     -24.852  -0.093 -14.658  1.00 35.49     0.178 HD
ENDBRANCH   4   5
ENDBRANCH   3   4
ENDBRANCH   2   3
ENDBRANCH   1   2
END_RES ARG D 557
BEGIN_RES GLU D 570
REMARK  3 active torsions:
REMARK  status: ('A' for Active; 'I' for Inactive)
REMARK    5  A    between atoms: CA   and  CB  
REMARK    6  A    between atoms: CB   and  CG  
REMARK    7  A    between atoms: CG   and  CD  
ROOT
ATOM     14  CA  GLU D 570     -18.033  -6.348 -13.375  1.00 32.92     0.160 C 
ENDROOT
BRANCH  14  15
ATOM     15  CB  GLU D 570     -19.500  -6.345 -13.794  1.00 32.92     0.043 C 
BRANCH  15  16
ATOM     16  CG  GLU D 570     -20.415  -5.421 -13.076  1.00 32.92     0.100 C 
BRANCH  16  17
ATOM     17  CD  GLU D 570     -21.742  -5.242 -13.777  1.00 32.92     0.185 C 
ATOM     18  OE1 GLU D 570     -22.247  -4.105 -13.835  1.00 32.92    -0.647 OA
ATOM     19  OE2 GLU D 570     -22.289  -6.254 -14.258  1.00 32.92    -0.647 OA
ENDBRANCH  16  17
ENDBRANCH  15  16
ENDBRANCH  14  15
END_RES GLU D 570
ENDMDL
MODEL 7
REMARK VINA RESULT:      -6.1      1.624      3.159
REMARK  6 active torsions:
REMARK  status: ('A' for Active; 'I' for Inactive)
REMARK    1  A    between atoms: C_1  and  C_2 
REMARK    2  A    between atoms: C_1  and  O_12 
REMARK    3  A    between atoms: C_2  and  C_3 
REMARK    4  A    between atoms: C_2  and  O_11 
REMARK    5  A    between atoms: C_4  and  O_10 
REMARK    6  A    between atoms: C_5  and  O_9 
ROOT
HETATM    1  C   UNL     1     -24.780  -2.489 -13.495  1.00  0.00     0.222 A 
HETATM    2  C   UNL     1     -23.348  -2.749 -13.778  1.00  0.00     0.114 A 
HETATM    3  C   UNL     1     -22.748  -3.332 -12.747  1.00  0.00     0.173 A 
HETATM    4  C   UNL     1     -23.764  -3.458 -11.686  1.00  0.00     0.320 A 
HETATM    5  O   UNL     1     -23.611  -3.962 -10.590  1.00  0.00    -0.257 OA
HETATM    6  O   UNL     1     -24.952  -2.946 -12.148  1.00  0.00    -0.301 OA
ENDROOT
BRANCH   1   7
HETATM    7  C   UNL     1     -25.730  -3.221 -14.452  1.00  0.00     0.177 C 
BRANCH   7   8
HETATM    8  C   UNL     1     -25.271  -4.634 -14.842  1.00  0.00     0.198 C 
BRANCH   8   9
HETATM    9  O   UNL     1     -26.078  -5.086 -15.933  1.00  0.00    -0.398 OA
HETATM   10  H   UNL     1     -26.943  -4.642 -15.861  1.00  0.00     0.209 HD
ENDBRANCH   8   9
ENDBRANCH   7   8
BRANCH   7  11
HETATM   11  O   UNL     1     -25.888  -2.423 -15.646  1.00  0.00    -0.390 OA
HETATM   12  H   UNL     1     -26.734  -2.716 -16.048  1.00  0.00     0.210 HD
ENDBRANCH   7  11
ENDBRANCH   1   7
BRANCH   2  13
HETATM   13  O   UNL     1     -22.760  -2.468 -14.984  1.00  0.00    -0.359 OA
HETATM   14  H   UNL     1     -22.128  -3.196 -15.178  1.00  0.00     0.217 HD
ENDBRANCH   2  13
BRANCH   3  15
HETATM   15  O   UNL     1     -21.462  -3.778 -12.694  1.00  0.00    -0.353 OA
HETATM   16  H   UNL     1     -21.361  -4.394 -13.445  1.00  0.00     0.218 HD
ENDBRANCH   3  15
TORSDOF 6
BEGIN_RES ARG D 557
REMARK  4 active torsions:
REMARK  status: ('A' for Active; 'I' for Inactive)
REMARK    1  A    between atoms: CA   and  CB  
REMARK    2  A    between atoms: CB   and  CG  
REMARK    3  A    between atoms: CG   and  CD  
REMARK    4  A    between atoms: CD   and  NE  
REMARK       I    between atoms: NE   and  CZ  
REMARK       I    between atoms: CZ   and  NH1 
REMARK       I    between atoms: CZ   and  NH2 
ROOT
ATOM      1  CA  ARG D 557     -26.217   2.705 -17.014  1.00 35.49     0.159 C 
ENDROOT
BRANCH   1   2
ATOM      2  CB  ARG D 557     -26.789   1.319 -17.183  1.00 35.49     0.034 C 
BRANCH   2   3
ATOM      3  CG  ARG D 557     -28.092   1.061 -16.557  1.00 35.49     0.027 C 
BRANCH   3   4
ATOM      4  CD  ARG D 557     -28.853  -0.000 -17.255  1.00 35.49     0.116 C 
BRANCH   4   5
ATOM      5  NE  ARG D 557     -28.318  -1.311 -16.996  1.00 35.49    -0.212 N 
ATOM      6  CZ  ARG D 557     -28.964  -2.446 -17.140  1.00 35.49     0.666 C 
ATOM      7  NH1 ARG D 557     -30.221  -2.501 -17.539  1.00 35.49    -0.235 N 
ATOM      8  NH2 ARG D 557     -28.315  -3.544 -16.878  1.00 35.49    -0.235 N 
ATOM      9  HH  ARG D 557     -30.667  -1.792 -17.718  1.00 35.49     0.174 HD
ATOM     10  HH  ARG D 557     -30.590  -3.271 -17.617  1.00 35.49     0.174 HD
ATOM     11  HH  ARG D 557     -27.501  -3.478 -16.630  1.00 35.49     0.174 HD
ATOM     12  HH  ARG D 557     -28.697  -4.296 -16.963  1.00 35.49     0.174 HD
ATOM     13  HE  ARG D 557     -27.536  -1.365 -16.665  1.00 35.49     0.178 HD
ENDBRANCH   4   5
ENDBRANCH   3   4
ENDBRANCH   2   3
ENDBRANCH   1   2
END_RES ARG D 557
BEGIN_RES GLU D 570
REMARK  3 active torsions:
REMARK  status: ('A' for Active; 'I' for Inactive)
REMARK    5  A    between atoms: CA   and  CB  
REMARK    6  A    between atoms: CB   and  CG  
REMARK    7  A    between atoms: CG   and  CD  
ROOT
ATOM     14  CA  GLU D 570     -18.033  -6.348 -13.375  1.00 32.92     0.160 C 
ENDROOT
BRANCH  14  15
ATOM     15  CB  GLU D 570     -19.500  -6.345 -13.794  1.00 32.92     0.043 C 
BRANCH  15  16
ATOM     16  CG  GLU D 570     -19.806  -6.021 -15.211  1.00 32.92     0.100 C 
BRANCH  16  17
ATOM     17  CD  GLU D 570     -21.259  -5.670 -15.435  1.00 32.92     0.185 C 
ATOM     18  OE1 GLU D 570     -21.556  -4.880 -16.351  1.00 32.92    -0.647 OA
ATOM     19  OE2 GLU D 570     -22.107  -6.178 -14.675  1.00 32.92    -0.647 OA
ENDBRANCH  16  17
ENDBRANCH  15  16
ENDBRANCH  14  15
END_RES GLU D 570
ENDMDL
MODEL 8
REMARK VINA RESULT:      -6.0      2.759      4.033
REMARK  6 active torsions:
REMARK  status: ('A' for Active; 'I' for Inactive)
REMARK    1  A    between atoms: C_1  and  C_2 
REMARK    2  A    between atoms: C_1  and  O_12 
REMARK    3  A    between atoms: C_2  and  C_3 
REMARK    4  A    between atoms: C_2  and  O_11 
REMARK    5  A    between atoms: C_4  and  O_10 
REMARK    6  A    between atoms: C_5  and  O_9 
ROOT
HETATM    1  C   UNL     1     -23.365  -4.728 -11.584  1.00  0.00     0.222 A 
HETATM    2  C   UNL     1     -23.782  -4.432 -10.193  1.00  0.00     0.114 A 
HETATM    3  C   UNL     1     -22.751  -4.050  -9.448  1.00  0.00     0.173 A 
HETATM    4  C   UNL     1     -21.561  -4.111 -10.316  1.00  0.00     0.320 A 
HETATM    5  O   UNL     1     -20.423  -3.816 -10.009  1.00  0.00    -0.257 OA
HETATM    6  O   UNL     1     -21.948  -4.522 -11.568  1.00  0.00    -0.301 OA
ENDROOT
BRANCH   1   7
HETATM    7  C   UNL     1     -24.043  -3.827 -12.625  1.00  0.00     0.177 C 
BRANCH   7   8
HETATM    8  C   UNL     1     -23.072  -2.969 -13.449  1.00  0.00     0.198 C 
BRANCH   8   9
HETATM    9  O   UNL     1     -23.502  -2.984 -14.813  1.00  0.00    -0.398 OA
HETATM   10  H   UNL     1     -23.572  -2.058 -15.108  1.00  0.00     0.209 HD
ENDBRANCH   8   9
ENDBRANCH   7   8
BRANCH   7  11
HETATM   11  O   UNL     1     -24.986  -2.967 -11.948  1.00  0.00    -0.390 OA
HETATM   12  H   UNL     1     -25.088  -3.345 -11.048  1.00  0.00     0.210 HD
ENDBRANCH   7  11
ENDBRANCH   1   7
BRANCH   2  13
HETATM   13  O   UNL     1     -25.085  -4.494  -9.772  1.00  0.00    -0.359 OA
HETATM   14  H   UNL     1     -25.550  -5.137 -10.354  1.00  0.00     0.217 HD
ENDBRANCH   2  13
BRANCH   3  15
HETATM   15  O   UNL     1     -22.789  -3.631  -8.152  1.00  0.00    -0.353 OA
HETATM   16  H   UNL     1     -23.734  -3.586  -7.913  1.00  0.00     0.218 HD
ENDBRANCH   3  15
TORSDOF 6
BEGIN_RES ARG D 557
REMARK  4 active torsions:
REMARK  status: ('A' for Active; 'I' for Inactive)
REMARK    1  A    between atoms: CA   and  CB  
REMARK    2  A    between atoms: CB   and  CG  
REMARK    3  A    between atoms: CG   and  CD  
REMARK    4  A    between atoms: CD   and  NE  
REMARK       I    between atoms: NE   and  CZ  
REMARK       I    between atoms: CZ   and  NH1 
REMARK       I    between atoms: CZ   and  NH2 
ROOT
ATOM      1  CA  ARG D 557     -26.217   2.705 -17.014  1.00 35.49     0.159 C 
ENDROOT
BRANCH   1   2
ATOM      2  CB  ARG D 557     -26.789   1.319 -17.183  1.00 35.49     0.034 C 
BRANCH   2   3
ATOM      3  CG  ARG D 557     -28.217   1.153 -16.887  1.00 35.49     0.027 C 
BRANCH   3   4
ATOM      4  CD  ARG D 557     -28.597  -0.268 -16.719  1.00 35.49     0.116 C 
BRANCH   4   5
ATOM      5  NE  ARG D 557     -27.594  -1.018 -16.010  1.00 35.49    -0.212 N 
ATOM      6  CZ  ARG D 557     -27.417  -2.318 -16.076  1.00 35.49     0.666 C 
ATOM      7  NH1 ARG D 557     -28.180  -3.101 -16.817  1.00 35.49    -0.235 N 
ATOM      8  NH2 ARG D 557     -26.442  -2.828 -15.381  1.00 35.49    -0.235 N 
ATOM      9  HH  ARG D 557     -28.826  -2.787 -17.284  1.00 35.49     0.174 HD
ATOM     10  HH  ARG D 557     -28.016  -3.942 -16.823  1.00 35.49     0.174 HD
ATOM     11  HH  ARG D 557     -25.961  -2.297 -14.918  1.00 35.49     0.174 HD
ATOM     12  HH  ARG D 557     -26.294  -3.662 -15.401  1.00 35.49     0.174 HD
ATOM     13  HE  ARG D 557     -27.104  -0.602 -15.453  1.00 35.49     0.178 HD
ENDBRANCH   4   5
ENDBRANCH   3   4
ENDBRANCH   2   3
ENDBRANCH   1   2
END_RES ARG D 557
BEGIN_RES GLU D 570
REMARK  3 active torsions:
REMARK  status: ('A' for Active; 'I' for Inactive)
REMARK    5  A    between atoms: CA   and  CB  
REMARK    6  A    between atoms: CB   and  CG  
REMARK    7  A    between atoms: CG   and  CD  
ROOT
ATOM     14  CA  GLU D 570     -18.033  -6.348 -13.375  1.00 32.92     0.160 C 
ENDROOT
BRANCH  14  15
ATOM     15  CB  GLU D 570     -19.500  -6.345 -13.794  1.00 32.92     0.043 C 
BRANCH  15  16
ATOM     16  CG  GLU D 570     -19.813  -5.934 -15.187  1.00 32.92     0.100 C 
BRANCH  16  17
ATOM     17  CD  GLU D 570     -21.278  -5.625 -15.395  1.00 32.92     0.185 C 
ATOM     18  OE1 GLU D 570     -22.126  -6.222 -14.705  1.00 32.92    -0.647 OA
ATOM     19  OE2 GLU D 570     -21.580  -4.788 -16.269  1.00 32.92    -0.647 OA
ENDBRANCH  16  17
ENDBRANCH  15  16
ENDBRANCH  14  15
END_RES GLU D 570
ENDMDL
MODEL 9
REMARK VINA RESULT:      -6.0      3.349      4.488
REMARK  6 active torsions:
REMARK  status: ('A' for Active; 'I' for Inactive)
REMARK    1  A    between atoms: C_1  and  C_2 
REMARK    2  A    between atoms: C_1  and  O_12 
REMARK    3  A    between atoms: C_2  and  C_3 
REMARK    4  A    between atoms: C_2  and  O_11 
REMARK    5  A    between atoms: C_4  and  O_10 
REMARK    6  A    between atoms: C_5  and  O_9 
ROOT
HETATM    1  C   UNL     1     -22.954  -4.927  -9.932  1.00  0.00     0.222 A 
HETATM    2  C   UNL     1     -21.969  -4.119 -10.691  1.00  0.00     0.114 A 
HETATM    3  C   UNL     1     -22.258  -4.095 -11.987  1.00  0.00     0.173 A 
HETATM    4  C   UNL     1     -23.456  -4.935 -12.166  1.00  0.00     0.320 A 
HETATM    5  O   UNL     1     -24.044  -5.146 -13.208  1.00  0.00    -0.257 OA
HETATM    6  O   UNL     1     -23.842  -5.421 -10.941  1.00  0.00    -0.301 OA
ENDROOT
BRANCH   1   7
HETATM    7  C   UNL     1     -23.715  -4.117  -8.874  1.00  0.00     0.177 C 
BRANCH   7   8
HETATM    8  C   UNL     1     -24.569  -2.975  -9.444  1.00  0.00     0.198 C 
BRANCH   8   9
HETATM    9  O   UNL     1     -25.863  -3.494  -9.761  1.00  0.00    -0.398 OA
HETATM   10  H   UNL     1     -26.311  -3.698  -8.920  1.00  0.00     0.209 HD
ENDBRANCH   8   9
ENDBRANCH   7   8
BRANCH   7  11
HETATM   11  O   UNL     1     -22.763  -3.578  -7.931  1.00  0.00    -0.390 OA
HETATM   12  H   UNL     1     -22.302  -4.355  -7.549  1.00  0.00     0.210 HD
ENDBRANCH   7  11
ENDBRANCH   1   7
BRANCH   2  13
HETATM   13  O   UNL     1     -20.935  -3.445 -10.094  1.00  0.00    -0.359 OA
HETATM   14  H   UNL     1     -20.808  -2.606 -10.591  1.00  0.00     0.217 HD
ENDBRANCH   2  13
BRANCH   3  15
HETATM   15  O   UNL     1     -21.610  -3.388 -12.955  1.00  0.00    -0.353 OA
HETATM   16  H   UNL     1     -21.513  -3.998 -13.711  1.00  0.00     0.218 HD
ENDBRANCH   3  15
TORSDOF 6
BEGIN_RES ARG D 557
REMARK  4 active torsions:
REMARK  status: ('A' for Active; 'I' for Inactive)
REMARK    1  A    between atoms: CA   and  CB  
REMARK    2  A    between atoms: CB   and  CG  
REMARK    3  A    between atoms: CG   and  CD  
REMARK    4  A    between atoms: CD   and  NE  
REMARK       I    between atoms: NE   and  CZ  
REMARK       I    between atoms: CZ   and  NH1 
REMARK       I    between atoms: CZ   and  NH2 
ROOT
ATOM      1  CA  ARG D 557     -26.217   2.705 -17.014  1.00 35.49     0.159 C 
ENDROOT
BRANCH   1   2
ATOM      2  CB  ARG D 557     -26.789   1.319 -17.183  1.00 35.49     0.034 C 
BRANCH   2   3
ATOM      3  CG  ARG D 557     -25.832   0.206 -17.197  1.00 35.49     0.027 C 
BRANCH   3   4
ATOM      4  CD  ARG D 557     -24.740   0.389 -16.214  1.00 35.49     0.116 C 
BRANCH   4   5
ATOM      5  NE  ARG D 557     -24.915  -0.436 -15.048  1.00 35.49    -0.212 N 
ATOM      6  CZ  ARG D 557     -24.117  -1.409 -14.668  1.00 35.49     0.666 C 
ATOM      7  NH1 ARG D 557     -23.040  -1.750 -15.351  1.00 35.49    -0.235 N 
ATOM      8  NH2 ARG D 557     -24.420  -2.039 -13.570  1.00 35.49    -0.235 N 
ATOM      9  HH  ARG D 557     -22.821  -1.347 -16.075  1.00 35.49     0.174 HD
ATOM     10  HH  ARG D 557     -22.555  -2.391 -15.053  1.00 35.49     0.174 HD
ATOM     11  HH  ARG D 557     -25.117  -1.792 -13.146  1.00 35.49     0.174 HD
ATOM     12  HH  ARG D 557     -23.927  -2.670 -13.291  1.00 35.49     0.174 HD
ATOM     13  HE  ARG D 557     -25.624  -0.333 -14.589  1.00 35.49     0.178 HD
ENDBRANCH   4   5
ENDBRANCH   3   4
ENDBRANCH   2   3
ENDBRANCH   1   2
END_RES ARG D 557
BEGIN_RES GLU D 570
REMARK  3 active torsions:
REMARK  status: ('A' for Active; 'I' for Inactive)
REMARK    5  A    between atoms: CA   and  CB  
REMARK    6  A    between atoms: CB   and  CG  
REMARK    7  A    between atoms: CG   and  CD  
ROOT
ATOM     14  CA  GLU D 570     -18.033  -6.348 -13.375  1.00 32.92     0.160 C 
ENDROOT
BRANCH  14  15
ATOM     15  CB  GLU D 570     -19.500  -6.345 -13.794  1.00 32.92     0.043 C 
BRANCH  15  16
ATOM     16  CG  GLU D 570     -19.817  -5.896 -15.175  1.00 32.92     0.100 C 
BRANCH  16  17
ATOM     17  CD  GLU D 570     -21.299  -5.725 -15.413  1.00 32.92     0.185 C 
ATOM     18  OE1 GLU D 570     -22.040  -6.725 -15.362  1.00 32.92    -0.647 OA
ATOM     19  OE2 GLU D 570     -21.721  -4.580 -15.671  1.00 32.92    -0.647 OA
ENDBRANCH  16  17
ENDBRANCH  15  16
ENDBRANCH  14  15
END_RES GLU D 570
ENDMDL
