MODEL 1
REMARK VINA RESULT:      -7.0      0.000      0.000
REMARK  13 active torsions:
REMARK  status: ('A' for Active; 'I' for Inactive)
REMARK    1  A    between atoms: C_2  and  C_3 
REMARK    2  A    between atoms: C_3  and  C_4 
REMARK    3  A    between atoms: C_4  and  C_5 
REMARK    4  A    between atoms: C_5  and  C_6 
REMARK    5  A    between atoms: C_6  and  C_7 
REMARK    6  A    between atoms: C_7  and  C_8 
REMARK    7  A    between atoms: C_8  and  C_9 
REMARK    8  A    between atoms: C_9  and  C_10 
REMARK    9  A    between atoms: C_10  and  C_11 
REMARK   10  A    between atoms: C_11  and  C_12 
REMARK       I    between atoms: C_12  and  N_14 
REMARK   11  A    between atoms: N_14  and  C_15 
REMARK   12  A    between atoms: C_15  and  C_16 
REMARK   13  A    between atoms: C_16  and  O_17 
ROOT
HETATM    1  C   UNL     1     -21.567  -3.810 -10.786  1.00  0.00     0.009 C 
ENDROOT
BRANCH   1   2
HETATM    2  C   UNL     1     -20.430  -4.436  -9.985  1.00  0.00     0.000 C 
BRANCH   2   3
HETATM    3  C   UNL     1     -20.916  -4.799  -8.583  1.00  0.00     0.000 C 
BRANCH   3   4
HETATM    4  C   UNL     1     -20.003  -4.208  -7.515  1.00  0.00     0.000 C 
BRANCH   4   5
HETATM    5  C   UNL     1     -20.249  -4.873  -6.164  1.00  0.00     0.000 C 
BRANCH   5   6
HETATM    6  C   UNL     1     -20.079  -6.385  -6.269  1.00  0.00     0.000 C 
BRANCH   6   7
HETATM    7  C   UNL     1     -21.250  -7.114  -5.617  1.00  0.00     0.000 C 
BRANCH   7   8
HETATM    8  C   UNL     1     -21.844  -6.278  -4.486  1.00  0.00    -0.000 C 
BRANCH   8   9
HETATM    9  C   UNL     1     -21.298  -6.717  -3.132  1.00  0.00    -0.005 C 
HETATM   10  C   UNL     1     -22.189  -6.232  -2.001  1.00  0.00     0.005 C 
ENDBRANCH   8   9
ENDBRANCH   7   8
ENDBRANCH   6   7
ENDBRANCH   5   6
ENDBRANCH   4   5
ENDBRANCH   3   4
ENDBRANCH   2   3
ENDBRANCH   1   2
BRANCH   1  11
HETATM   11  C   UNL     1     -22.867  -3.738  -9.992  1.00  0.00     0.103 C 
BRANCH  11  12
HETATM   12  C   UNL     1     -24.015  -3.335 -10.895  1.00  0.00     0.217 C 
HETATM   13  O   UNL     1     -25.163  -3.157 -10.496  1.00  0.00    -0.274 OA
HETATM   14  N   UNL     1     -23.660  -3.182 -12.215  1.00  0.00    -0.359 N 
HETATM   15  H   UNL     1     -22.698  -3.301 -12.500  1.00  0.00     0.162 HD
BRANCH  14  16
HETATM   16  C   UNL     1     -24.658  -2.842 -13.219  1.00  0.00     0.148 C 
BRANCH  16  17
HETATM   17  C   UNL     1     -24.112  -1.869 -14.262  1.00  0.00     0.183 C 
BRANCH  17  18
HETATM   18  O   UNL     1     -25.136  -0.959 -14.663  1.00  0.00    -0.399 OA
HETATM   19  H   UNL     1     -25.067  -0.889 -15.630  1.00  0.00     0.209 HD
ENDBRANCH  17  18
ENDBRANCH  16  17
ENDBRANCH  14  16
ENDBRANCH  11  12
ENDBRANCH   1  11
TORSDOF 13
BEGIN_RES ARG D 557
REMARK  4 active torsions:
REMARK  status: ('A' for Active; 'I' for Inactive)
REMARK    1  A    between atoms: CA   and  CB  
REMARK    2  A    between atoms: CB   and  CG  
REMARK    3  A    between atoms: CG   and  CD  
REMARK    4  A    between atoms: CD   and  NE  
REMARK       I    between atoms: NE   and  CZ  
REMARK       I    between atoms: CZ   and  NH1 
REMARK       I    between atoms: CZ   and  NH2 
ROOT
ATOM      1  CA  ARG D 557     -26.217   2.705 -17.014  1.00 35.49     0.159 C 
ENDROOT
BRANCH   1   2
ATOM      2  CB  ARG D 557     -26.789   1.319 -17.183  1.00 35.49     0.034 C 
BRANCH   2   3
ATOM      3  CG  ARG D 557     -28.199   1.137 -16.819  1.00 35.49     0.027 C 
BRANCH   3   4
ATOM      4  CD  ARG D 557     -28.651  -0.263 -16.990  1.00 35.49     0.116 C 
BRANCH   4   5
ATOM      5  NE  ARG D 557     -27.774  -1.199 -16.338  1.00 35.49    -0.212 N 
ATOM      6  CZ  ARG D 557     -27.824  -2.507 -16.452  1.00 35.49     0.666 C 
ATOM      7  NH1 ARG D 557     -28.728  -3.119 -17.195  1.00 35.49    -0.235 N 
ATOM      8  NH2 ARG D 557     -26.934  -3.201 -15.804  1.00 35.49    -0.235 N 
ATOM      9  HH  ARG D 557     -29.321  -2.682 -17.632  1.00 35.49     0.174 HD
ATOM     10  HH  ARG D 557     -28.710  -3.975 -17.234  1.00 35.49     0.174 HD
ATOM     11  HH  ARG D 557     -26.359  -2.778 -15.338  1.00 35.49     0.174 HD
ATOM     12  HH  ARG D 557     -26.933  -4.047 -15.857  1.00 35.49     0.174 HD
ATOM     13  HE  ARG D 557     -27.206  -0.894 -15.782  1.00 35.49     0.178 HD
ENDBRANCH   4   5
ENDBRANCH   3   4
ENDBRANCH   2   3
ENDBRANCH   1   2
END_RES ARG D 557
BEGIN_RES GLU D 570
REMARK  3 active torsions:
REMARK  status: ('A' for Active; 'I' for Inactive)
REMARK    5  A    between atoms: CA   and  CB  
REMARK    6  A    between atoms: CB   and  CG  
REMARK    7  A    between atoms: CG   and  CD  
ROOT
ATOM     14  CA  GLU D 570     -18.033  -6.348 -13.375  1.00 32.92     0.160 C 
ENDROOT
BRANCH  14  15
ATOM     15  CB  GLU D 570     -19.500  -6.345 -13.794  1.00 32.92     0.043 C 
BRANCH  15  16
ATOM     16  CG  GLU D 570     -19.823  -5.840 -15.154  1.00 32.92     0.100 C 
BRANCH  16  17
ATOM     17  CD  GLU D 570     -21.207  -5.244 -15.248  1.00 32.92     0.185 C 
ATOM     18  OE1 GLU D 570     -21.836  -5.006 -14.199  1.00 32.92    -0.647 OA
ATOM     19  OE2 GLU D 570     -21.675  -5.027 -16.383  1.00 32.92    -0.647 OA
ENDBRANCH  16  17
ENDBRANCH  15  16
ENDBRANCH  14  15
END_RES GLU D 570
ENDMDL
MODEL 2
REMARK VINA RESULT:      -6.6      6.786     10.945
REMARK  13 active torsions:
REMARK  status: ('A' for Active; 'I' for Inactive)
REMARK    1  A    between atoms: C_2  and  C_3 
REMARK    2  A    between atoms: C_3  and  C_4 
REMARK    3  A    between atoms: C_4  and  C_5 
REMARK    4  A    between atoms: C_5  and  C_6 
REMARK    5  A    between atoms: C_6  and  C_7 
REMARK    6  A    between atoms: C_7  and  C_8 
REMARK    7  A    between atoms: C_8  and  C_9 
REMARK    8  A    between atoms: C_9  and  C_10 
REMARK    9  A    between atoms: C_10  and  C_11 
REMARK   10  A    between atoms: C_11  and  C_12 
REMARK       I    between atoms: C_12  and  N_14 
REMARK   11  A    between atoms: N_14  and  C_15 
REMARK   12  A    between atoms: C_15  and  C_16 
REMARK   13  A    between atoms: C_16  and  O_17 
ROOT
HETATM    1  C   UNL     1     -34.609   0.792 -13.960  1.00  0.00     0.009 C 
ENDROOT
BRANCH   1   2
HETATM    2  C   UNL     1     -35.255   0.201 -12.712  1.00  0.00     0.000 C 
BRANCH   2   3
HETATM    3  C   UNL     1     -34.809  -1.249 -12.528  1.00  0.00     0.000 C 
BRANCH   3   4
HETATM    4  C   UNL     1     -34.863  -1.660 -11.062  1.00  0.00     0.000 C 
BRANCH   4   5
HETATM    5  C   UNL     1     -33.534  -2.264 -10.619  1.00  0.00     0.000 C 
BRANCH   5   6
HETATM    6  C   UNL     1     -33.330  -3.638 -11.248  1.00  0.00     0.000 C 
BRANCH   6   7
HETATM    7  C   UNL     1     -34.413  -4.613 -10.796  1.00  0.00     0.000 C 
BRANCH   7   8
HETATM    8  C   UNL     1     -33.888  -6.046 -10.806  1.00  0.00    -0.000 C 
BRANCH   8   9
HETATM    9  C   UNL     1     -34.761  -6.958  -9.951  1.00  0.00    -0.005 C 
HETATM   10  C   UNL     1     -34.224  -8.379  -9.946  1.00  0.00     0.005 C 
ENDBRANCH   8   9
ENDBRANCH   7   8
ENDBRANCH   6   7
ENDBRANCH   5   6
ENDBRANCH   4   5
ENDBRANCH   3   4
ENDBRANCH   2   3
ENDBRANCH   1   2
BRANCH   1  11
HETATM   11  C   UNL     1     -35.637   1.214 -15.003  1.00  0.00     0.103 C 
BRANCH  11  12
HETATM   12  C   UNL     1     -36.015   0.036 -15.879  1.00  0.00     0.217 C 
HETATM   13  O   UNL     1     -37.142  -0.139 -16.333  1.00  0.00    -0.274 OA
HETATM   14  N   UNL     1     -34.976  -0.830 -16.127  1.00  0.00    -0.359 N 
HETATM   15  H   UNL     1     -34.052  -0.634 -15.766  1.00  0.00     0.162 HD
BRANCH  14  16
HETATM   16  C   UNL     1     -35.186  -2.038 -16.913  1.00  0.00     0.148 C 
BRANCH  16  17
HETATM   17  C   UNL     1     -34.289  -3.184 -16.452  1.00  0.00     0.183 C 
BRANCH  17  18
HETATM   18  O   UNL     1     -33.236  -3.388 -17.392  1.00  0.00    -0.399 OA
HETATM   19  H   UNL     1     -33.614  -3.933 -18.103  1.00  0.00     0.209 HD
ENDBRANCH  17  18
ENDBRANCH  16  17
ENDBRANCH  14  16
ENDBRANCH  11  12
ENDBRANCH   1  11
TORSDOF 13
BEGIN_RES ARG D 557
REMARK  4 active torsions:
REMARK  status: ('A' for Active; 'I' for Inactive)
REMARK    1  A    between atoms: CA   and  CB  
REMARK    2  A    between atoms: CB   and  CG  
REMARK    3  A    between atoms: CG   and  CD  
REMARK    4  A    between atoms: CD   and  NE  
REMARK       I    between atoms: NE   and  CZ  
REMARK       I    between atoms: CZ   and  NH1 
REMARK       I    between atoms: CZ   and  NH2 
ROOT
ATOM      1  CA  ARG D 557     -26.217   2.705 -17.014  1.00 35.49     0.159 C 
ENDROOT
BRANCH   1   2
ATOM      2  CB  ARG D 557     -26.789   1.319 -17.183  1.00 35.49     0.034 C 
BRANCH   2   3
ATOM      3  CG  ARG D 557     -28.230   1.227 -17.448  1.00 35.49     0.027 C 
BRANCH   3   4
ATOM      4  CD  ARG D 557     -28.921   0.320 -16.503  1.00 35.49     0.116 C 
BRANCH   4   5
ATOM      5  NE  ARG D 557     -29.336  -0.906 -17.132  1.00 35.49    -0.212 N 
ATOM      6  CZ  ARG D 557     -28.723  -2.064 -17.038  1.00 35.49     0.666 C 
ATOM      7  NH1 ARG D 557     -27.613  -2.224 -16.341  1.00 35.49    -0.235 N 
ATOM      8  NH2 ARG D 557     -29.254  -3.077 -17.659  1.00 35.49    -0.235 N 
ATOM      9  HH  ARG D 557     -27.248  -1.572 -15.922  1.00 35.49     0.174 HD
ATOM     10  HH  ARG D 557     -27.259  -3.004 -16.313  1.00 35.49     0.174 HD
ATOM     11  HH  ARG D 557     -29.975  -2.945 -18.096  1.00 35.49     0.174 HD
ATOM     12  HH  ARG D 557     -28.889  -3.841 -17.618  1.00 35.49     0.174 HD
ATOM     13  HE  ARG D 557     -30.002  -0.877 -17.660  1.00 35.49     0.178 HD
ENDBRANCH   4   5
ENDBRANCH   3   4
ENDBRANCH   2   3
ENDBRANCH   1   2
END_RES ARG D 557
BEGIN_RES GLU D 570
REMARK  3 active torsions:
REMARK  status: ('A' for Active; 'I' for Inactive)
REMARK    5  A    between atoms: CA   and  CB  
REMARK    6  A    between atoms: CB   and  CG  
REMARK    7  A    between atoms: CG   and  CD  
ROOT
ATOM     14  CA  GLU D 570     -18.033  -6.348 -13.375  1.00 32.92     0.160 C 
ENDROOT
BRANCH  14  15
ATOM     15  CB  GLU D 570     -19.500  -6.345 -13.794  1.00 32.92     0.043 C 
BRANCH  15  16
ATOM     16  CG  GLU D 570     -20.449  -5.563 -12.960  1.00 32.92     0.100 C 
BRANCH  16  17
ATOM     17  CD  GLU D 570     -21.698  -5.161 -13.708  1.00 32.92     0.185 C 
ATOM     18  OE1 GLU D 570     -21.652  -5.052 -14.948  1.00 32.92    -0.647 OA
ATOM     19  OE2 GLU D 570     -22.730  -4.936 -13.045  1.00 32.92    -0.647 OA
ENDBRANCH  16  17
ENDBRANCH  15  16
ENDBRANCH  14  15
END_RES GLU D 570
ENDMDL
MODEL 3
REMARK VINA RESULT:      -6.5      2.471      4.290
REMARK  13 active torsions:
REMARK  status: ('A' for Active; 'I' for Inactive)
REMARK    1  A    between atoms: C_2  and  C_3 
REMARK    2  A    between atoms: C_3  and  C_4 
REMARK    3  A    between atoms: C_4  and  C_5 
REMARK    4  A    between atoms: C_5  and  C_6 
REMARK    5  A    between atoms: C_6  and  C_7 
REMARK    6  A    between atoms: C_7  and  C_8 
REMARK    7  A    between atoms: C_8  and  C_9 
REMARK    8  A    between atoms: C_9  and  C_10 
REMARK    9  A    between atoms: C_10  and  C_11 
REMARK   10  A    between atoms: C_11  and  C_12 
REMARK       I    between atoms: C_12  and  N_14 
REMARK   11  A    between atoms: N_14  and  C_15 
REMARK   12  A    between atoms: C_15  and  C_16 
REMARK   13  A    between atoms: C_16  and  O_17 
ROOT
HETATM    1  C   UNL     1     -20.837  -4.331  -6.535  1.00  0.00     0.009 C 
ENDROOT
BRANCH   1   2
HETATM    2  C   UNL     1     -20.495  -5.257  -5.373  1.00  0.00     0.000 C 
BRANCH   2   3
HETATM    3  C   UNL     1     -21.682  -6.169  -5.064  1.00  0.00     0.000 C 
BRANCH   3   4
HETATM    4  C   UNL     1     -21.464  -6.933  -3.765  1.00  0.00     0.000 C 
BRANCH   4   5
HETATM    5  C   UNL     1     -21.521  -5.991  -2.566  1.00  0.00     0.000 C 
BRANCH   5   6
HETATM    6  C   UNL     1     -22.328  -6.612  -1.431  1.00  0.00     0.000 C 
BRANCH   6   7
HETATM    7  C   UNL     1     -21.794  -7.996  -1.073  1.00  0.00     0.000 C 
BRANCH   7   8
HETATM    8  C   UNL     1     -22.696  -8.674  -0.046  1.00  0.00    -0.000 C 
BRANCH   8   9
HETATM    9  C   UNL     1     -22.644 -10.192  -0.185  1.00  0.00    -0.005 C 
HETATM   10  C   UNL     1     -24.036 -10.795  -0.112  1.00  0.00     0.005 C 
ENDBRANCH   8   9
ENDBRANCH   7   8
ENDBRANCH   6   7
ENDBRANCH   5   6
ENDBRANCH   4   5
ENDBRANCH   3   4
ENDBRANCH   2   3
ENDBRANCH   1   2
BRANCH   1  11
HETATM   11  C   UNL     1     -19.961  -4.583  -7.757  1.00  0.00     0.103 C 
BRANCH  11  12
HETATM   12  C   UNL     1     -20.748  -4.342  -9.029  1.00  0.00     0.217 C 
HETATM   13  O   UNL     1     -20.298  -3.746 -10.004  1.00  0.00    -0.274 OA
HETATM   14  N   UNL     1     -22.024  -4.854  -9.002  1.00  0.00    -0.359 N 
HETATM   15  H   UNL     1     -22.348  -5.371  -8.196  1.00  0.00     0.162 HD
BRANCH  14  16
HETATM   16  C   UNL     1     -22.926  -4.666 -10.130  1.00  0.00     0.148 C 
BRANCH  16  17
HETATM   17  C   UNL     1     -24.069  -3.711  -9.795  1.00  0.00     0.183 C 
BRANCH  17  18
HETATM   18  O   UNL     1     -24.318  -3.723  -8.390  1.00  0.00    -0.399 OA
HETATM   19  H   UNL     1     -25.103  -4.283  -8.262  1.00  0.00     0.209 HD
ENDBRANCH  17  18
ENDBRANCH  16  17
ENDBRANCH  14  16
ENDBRANCH  11  12
ENDBRANCH   1  11
TORSDOF 13
BEGIN_RES ARG D 557
REMARK  4 active torsions:
REMARK  status: ('A' for Active; 'I' for Inactive)
REMARK    1  A    between atoms: CA   and  CB  
REMARK    2  A    between atoms: CB   and  CG  
REMARK    3  A    between atoms: CG   and  CD  
REMARK    4  A    between atoms: CD   and  NE  
REMARK       I    between atoms: NE   and  CZ  
REMARK       I    between atoms: CZ   and  NH1 
REMARK       I    between atoms: CZ   and  NH2 
ROOT
ATOM      1  CA  ARG D 557     -26.217   2.705 -17.014  1.00 35.49     0.159 C 
ENDROOT
BRANCH   1   2
ATOM      2  CB  ARG D 557     -26.789   1.319 -17.183  1.00 35.49     0.034 C 
BRANCH   2   3
ATOM      3  CG  ARG D 557     -25.834   0.204 -17.168  1.00 35.49     0.027 C 
BRANCH   3   4
ATOM      4  CD  ARG D 557     -24.736   0.415 -16.198  1.00 35.49     0.116 C 
BRANCH   4   5
ATOM      5  NE  ARG D 557     -24.873  -0.420 -15.033  1.00 35.49    -0.212 N 
ATOM      6  CZ  ARG D 557     -24.055  -1.385 -14.679  1.00 35.49     0.666 C 
ATOM      7  NH1 ARG D 557     -22.990  -1.709 -15.390  1.00 35.49    -0.235 N 
ATOM      8  NH2 ARG D 557     -24.322  -2.026 -13.579  1.00 35.49    -0.235 N 
ATOM      9  HH  ARG D 557     -22.794  -1.299 -16.117  1.00 35.49     0.174 HD
ATOM     10  HH  ARG D 557     -22.491  -2.346 -15.109  1.00 35.49     0.174 HD
ATOM     11  HH  ARG D 557     -25.012  -1.790 -13.136  1.00 35.49     0.174 HD
ATOM     12  HH  ARG D 557     -23.815  -2.653 -13.316  1.00 35.49     0.174 HD
ATOM     13  HE  ARG D 557     -25.571  -0.328 -14.556  1.00 35.49     0.178 HD
ENDBRANCH   4   5
ENDBRANCH   3   4
ENDBRANCH   2   3
ENDBRANCH   1   2
END_RES ARG D 557
BEGIN_RES GLU D 570
REMARK  3 active torsions:
REMARK  status: ('A' for Active; 'I' for Inactive)
REMARK    5  A    between atoms: CA   and  CB  
REMARK    6  A    between atoms: CB   and  CG  
REMARK    7  A    between atoms: CG   and  CD  
ROOT
ATOM     14  CA  GLU D 570     -18.033  -6.348 -13.375  1.00 32.92     0.160 C 
ENDROOT
BRANCH  14  15
ATOM     15  CB  GLU D 570     -19.500  -6.345 -13.794  1.00 32.92     0.043 C 
BRANCH  15  16
ATOM     16  CG  GLU D 570     -20.445  -5.543 -12.974  1.00 32.92     0.100 C 
BRANCH  16  17
ATOM     17  CD  GLU D 570     -21.748  -5.260 -13.684  1.00 32.92     0.185 C 
ATOM     18  OE1 GLU D 570     -22.268  -4.133 -13.568  1.00 32.92    -0.647 OA
ATOM     19  OE2 GLU D 570     -22.262  -6.179 -14.351  1.00 32.92    -0.647 OA
ENDBRANCH  16  17
ENDBRANCH  15  16
ENDBRANCH  14  15
END_RES GLU D 570
ENDMDL
MODEL 4
REMARK VINA RESULT:      -6.5      8.243     11.648
REMARK  13 active torsions:
REMARK  status: ('A' for Active; 'I' for Inactive)
REMARK    1  A    between atoms: C_2  and  C_3 
REMARK    2  A    between atoms: C_3  and  C_4 
REMARK    3  A    between atoms: C_4  and  C_5 
REMARK    4  A    between atoms: C_5  and  C_6 
REMARK    5  A    between atoms: C_6  and  C_7 
REMARK    6  A    between atoms: C_7  and  C_8 
REMARK    7  A    between atoms: C_8  and  C_9 
REMARK    8  A    between atoms: C_9  and  C_10 
REMARK    9  A    between atoms: C_10  and  C_11 
REMARK   10  A    between atoms: C_11  and  C_12 
REMARK       I    between atoms: C_12  and  N_14 
REMARK   11  A    between atoms: N_14  and  C_15 
REMARK   12  A    between atoms: C_15  and  C_16 
REMARK   13  A    between atoms: C_16  and  O_17 
ROOT
HETATM    1  C   UNL     1     -33.443  -3.136 -11.957  1.00  0.00     0.009 C 
ENDROOT
BRANCH   1   2
HETATM    2  C   UNL     1     -33.507  -2.210 -10.748  1.00  0.00     0.000 C 
BRANCH   2   3
HETATM    3  C   UNL     1     -34.957  -1.824 -10.460  1.00  0.00     0.000 C 
BRANCH   3   4
HETATM    4  C   UNL     1     -35.712  -1.523 -11.748  1.00  0.00     0.000 C 
BRANCH   4   5
HETATM    5  C   UNL     1     -36.493  -0.218 -11.626  1.00  0.00     0.000 C 
BRANCH   5   6
HETATM    6  C   UNL     1     -37.670  -0.383 -10.670  1.00  0.00     0.000 C 
BRANCH   6   7
HETATM    7  C   UNL     1     -37.595   0.631  -9.532  1.00  0.00     0.000 C 
BRANCH   7   8
HETATM    8  C   UNL     1     -37.405  -0.075  -8.192  1.00  0.00    -0.000 C 
BRANCH   8   9
HETATM    9  C   UNL     1     -36.599   0.786  -7.225  1.00  0.00    -0.005 C 
HETATM   10  C   UNL     1     -37.160   0.697  -5.817  1.00  0.00     0.005 C 
ENDBRANCH   8   9
ENDBRANCH   7   8
ENDBRANCH   6   7
ENDBRANCH   5   6
ENDBRANCH   4   5
ENDBRANCH   3   4
ENDBRANCH   2   3
ENDBRANCH   1   2
BRANCH   1  11
HETATM   11  C   UNL     1     -32.931  -4.527 -11.599  1.00  0.00     0.103 C 
BRANCH  11  12
HETATM   12  C   UNL     1     -34.090  -5.454 -11.292  1.00  0.00     0.217 C 
HETATM   13  O   UNL     1     -35.266  -5.153 -11.474  1.00  0.00    -0.274 OA
HETATM   14  N   UNL     1     -33.710  -6.674 -10.785  1.00  0.00    -0.359 N 
HETATM   15  H   UNL     1     -32.730  -6.900 -10.683  1.00  0.00     0.162 HD
BRANCH  14  16
HETATM   16  C   UNL     1     -34.707  -7.661 -10.395  1.00  0.00     0.148 C 
BRANCH  16  17
HETATM   17  C   UNL     1     -34.082  -8.845  -9.660  1.00  0.00     0.183 C 
BRANCH  17  18
HETATM   18  O   UNL     1     -33.339  -9.650 -10.574  1.00  0.00    -0.399 OA
HETATM   19  H   UNL     1     -33.972 -10.293 -10.939  1.00  0.00     0.209 HD
ENDBRANCH  17  18
ENDBRANCH  16  17
ENDBRANCH  14  16
ENDBRANCH  11  12
ENDBRANCH   1  11
TORSDOF 13
BEGIN_RES ARG D 557
REMARK  4 active torsions:
REMARK  status: ('A' for Active; 'I' for Inactive)
REMARK    1  A    between atoms: CA   and  CB  
REMARK    2  A    between atoms: CB   and  CG  
REMARK    3  A    between atoms: CG   and  CD  
REMARK    4  A    between atoms: CD   and  NE  
REMARK       I    between atoms: NE   and  CZ  
REMARK       I    between atoms: CZ   and  NH1 
REMARK       I    between atoms: CZ   and  NH2 
ROOT
ATOM      1  CA  ARG D 557     -26.217   2.705 -17.014  1.00 35.49     0.159 C 
ENDROOT
BRANCH   1   2
ATOM      2  CB  ARG D 557     -26.789   1.319 -17.183  1.00 35.49     0.034 C 
BRANCH   2   3
ATOM      3  CG  ARG D 557     -25.932   0.197 -16.780  1.00 35.49     0.027 C 
BRANCH   3   4
ATOM      4  CD  ARG D 557     -26.684  -0.858 -16.064  1.00 35.49     0.116 C 
BRANCH   4   5
ATOM      5  NE  ARG D 557     -25.865  -1.551 -15.104  1.00 35.49    -0.212 N 
ATOM      6  CZ  ARG D 557     -25.933  -2.833 -14.820  1.00 35.49     0.666 C 
ATOM      7  NH1 ARG D 557     -26.801  -3.642 -15.397  1.00 35.49    -0.235 N 
ATOM      8  NH2 ARG D 557     -25.096  -3.297 -13.937  1.00 35.49    -0.235 N 
ATOM      9  HH  ARG D 557     -27.360  -3.359 -15.982  1.00 35.49     0.174 HD
ATOM     10  HH  ARG D 557     -26.797  -4.469 -15.174  1.00 35.49     0.174 HD
ATOM     11  HH  ARG D 557     -24.542  -2.752 -13.586  1.00 35.49     0.174 HD
ATOM     12  HH  ARG D 557     -25.107  -4.119 -13.731  1.00 35.49     0.174 HD
ATOM     13  HE  ARG D 557     -25.327  -1.092 -14.633  1.00 35.49     0.178 HD
ENDBRANCH   4   5
ENDBRANCH   3   4
ENDBRANCH   2   3
ENDBRANCH   1   2
END_RES ARG D 557
BEGIN_RES GLU D 570
REMARK  3 active torsions:
REMARK  status: ('A' for Active; 'I' for Inactive)
REMARK    5  A    between atoms: CA   and  CB  
REMARK    6  A    between atoms: CB   and  CG  
REMARK    7  A    between atoms: CG   and  CD  
ROOT
ATOM     14  CA  GLU D 570     -18.033  -6.348 -13.375  1.00 32.92     0.160 C 
ENDROOT
BRANCH  14  15
ATOM     15  CB  GLU D 570     -19.500  -6.345 -13.794  1.00 32.92     0.043 C 
BRANCH  15  16
ATOM     16  CG  GLU D 570     -20.454  -5.588 -12.942  1.00 32.92     0.100 C 
BRANCH  16  17
ATOM     17  CD  GLU D 570     -21.705  -5.177 -13.682  1.00 32.92     0.185 C 
ATOM     18  OE1 GLU D 570     -21.675  -5.095 -14.925  1.00 32.92    -0.647 OA
ATOM     19  OE2 GLU D 570     -22.723  -4.917 -13.009  1.00 32.92    -0.647 OA
ENDBRANCH  16  17
ENDBRANCH  15  16
ENDBRANCH  14  15
END_RES GLU D 570
ENDMDL
MODEL 5
REMARK VINA RESULT:      -6.5      1.909      3.318
REMARK  13 active torsions:
REMARK  status: ('A' for Active; 'I' for Inactive)
REMARK    1  A    between atoms: C_2  and  C_3 
REMARK    2  A    between atoms: C_3  and  C_4 
REMARK    3  A    between atoms: C_4  and  C_5 
REMARK    4  A    between atoms: C_5  and  C_6 
REMARK    5  A    between atoms: C_6  and  C_7 
REMARK    6  A    between atoms: C_7  and  C_8 
REMARK    7  A    between atoms: C_8  and  C_9 
REMARK    8  A    between atoms: C_9  and  C_10 
REMARK    9  A    between atoms: C_10  and  C_11 
REMARK   10  A    between atoms: C_11  and  C_12 
REMARK       I    between atoms: C_12  and  N_14 
REMARK   11  A    between atoms: N_14  and  C_15 
REMARK   12  A    between atoms: C_15  and  C_16 
REMARK   13  A    between atoms: C_16  and  O_17 
ROOT
HETATM    1  C   UNL     1     -20.707  -4.198  -6.516  1.00  0.00     0.009 C 
ENDROOT
BRANCH   1   2
HETATM    2  C   UNL     1     -19.896  -5.371  -5.975  1.00  0.00     0.000 C 
BRANCH   2   3
HETATM    3  C   UNL     1     -20.772  -6.622  -5.901  1.00  0.00     0.000 C 
BRANCH   3   4
HETATM    4  C   UNL     1     -21.972  -6.399  -4.991  1.00  0.00     0.000 C 
BRANCH   4   5
HETATM    5  C   UNL     1     -21.552  -6.421  -3.524  1.00  0.00     0.000 C 
BRANCH   5   6
HETATM    6  C   UNL     1     -21.387  -7.856  -3.032  1.00  0.00     0.000 C 
BRANCH   6   7
HETATM    7  C   UNL     1     -20.424  -7.921  -1.851  1.00  0.00     0.000 C 
BRANCH   7   8
HETATM    8  C   UNL     1     -21.111  -8.522  -0.627  1.00  0.00    -0.000 C 
BRANCH   8   9
HETATM    9  C   UNL     1     -22.081  -7.528   0.003  1.00  0.00    -0.005 C 
HETATM   10  C   UNL     1     -23.306  -8.237   0.556  1.00  0.00     0.005 C 
ENDBRANCH   8   9
ENDBRANCH   7   8
ENDBRANCH   6   7
ENDBRANCH   5   6
ENDBRANCH   4   5
ENDBRANCH   3   4
ENDBRANCH   2   3
ENDBRANCH   1   2
BRANCH   1  11
HETATM   11  C   UNL     1     -20.859  -4.246  -8.032  1.00  0.00     0.103 C 
BRANCH  11  12
HETATM   12  C   UNL     1     -22.321  -4.358  -8.413  1.00  0.00     0.217 C 
HETATM   13  O   UNL     1     -23.239  -4.322  -7.598  1.00  0.00    -0.274 OA
HETATM   14  N   UNL     1     -22.537  -4.503  -9.763  1.00  0.00    -0.359 N 
HETATM   15  H   UNL     1     -21.758  -4.492 -10.407  1.00  0.00     0.162 HD
BRANCH  14  16
HETATM   16  C   UNL     1     -23.885  -4.671 -10.288  1.00  0.00     0.148 C 
BRANCH  16  17
HETATM   17  C   UNL     1     -24.574  -3.330 -10.533  1.00  0.00     0.183 C 
BRANCH  17  18
HETATM   18  O   UNL     1     -25.163  -2.856  -9.323  1.00  0.00    -0.399 OA
HETATM   19  H   UNL     1     -24.636  -3.239  -8.601  1.00  0.00     0.209 HD
ENDBRANCH  17  18
ENDBRANCH  16  17
ENDBRANCH  14  16
ENDBRANCH  11  12
ENDBRANCH   1  11
TORSDOF 13
BEGIN_RES ARG D 557
REMARK  4 active torsions:
REMARK  status: ('A' for Active; 'I' for Inactive)
REMARK    1  A    between atoms: CA   and  CB  
REMARK    2  A    between atoms: CB   and  CG  
REMARK    3  A    between atoms: CG   and  CD  
REMARK    4  A    between atoms: CD   and  NE  
REMARK       I    between atoms: NE   and  CZ  
REMARK       I    between atoms: CZ   and  NH1 
REMARK       I    between atoms: CZ   and  NH2 
ROOT
ATOM      1  CA  ARG D 557     -26.217   2.705 -17.014  1.00 35.49     0.159 C 
ENDROOT
BRANCH   1   2
ATOM      2  CB  ARG D 557     -26.789   1.319 -17.183  1.00 35.49     0.034 C 
BRANCH   2   3
ATOM      3  CG  ARG D 557     -25.941   0.198 -16.759  1.00 35.49     0.027 C 
BRANCH   3   4
ATOM      4  CD  ARG D 557     -26.714  -0.871 -16.086  1.00 35.49     0.116 C 
BRANCH   4   5
ATOM      5  NE  ARG D 557     -25.908  -1.620 -15.158  1.00 35.49    -0.212 N 
ATOM      6  CZ  ARG D 557     -26.018  -2.906 -14.909  1.00 35.49     0.666 C 
ATOM      7  NH1 ARG D 557     -26.921  -3.667 -15.498  1.00 35.49    -0.235 N 
ATOM      8  NH2 ARG D 557     -25.187  -3.424 -14.051  1.00 35.49    -0.235 N 
ATOM      9  HH  ARG D 557     -27.476  -3.347 -16.067  1.00 35.49     0.174 HD
ATOM     10  HH  ARG D 557     -26.944  -4.500 -15.298  1.00 35.49     0.174 HD
ATOM     11  HH  ARG D 557     -24.609  -2.909 -13.693  1.00 35.49     0.174 HD
ATOM     12  HH  ARG D 557     -25.225  -4.251 -13.868  1.00 35.49     0.174 HD
ATOM     13  HE  ARG D 557     -25.348  -1.193 -14.681  1.00 35.49     0.178 HD
ENDBRANCH   4   5
ENDBRANCH   3   4
ENDBRANCH   2   3
ENDBRANCH   1   2
END_RES ARG D 557
BEGIN_RES GLU D 570
REMARK  3 active torsions:
REMARK  status: ('A' for Active; 'I' for Inactive)
REMARK    5  A    between atoms: CA   and  CB  
REMARK    6  A    between atoms: CB   and  CG  
REMARK    7  A    between atoms: CG   and  CD  
ROOT
ATOM     14  CA  GLU D 570     -18.033  -6.348 -13.375  1.00 32.92     0.160 C 
ENDROOT
BRANCH  14  15
ATOM     15  CB  GLU D 570     -19.500  -6.345 -13.794  1.00 32.92     0.043 C 
BRANCH  15  16
ATOM     16  CG  GLU D 570     -20.451  -5.573 -12.953  1.00 32.92     0.100 C 
BRANCH  16  17
ATOM     17  CD  GLU D 570     -21.749  -5.266 -13.661  1.00 32.92     0.185 C 
ATOM     18  OE1 GLU D 570     -22.306  -4.170 -13.457  1.00 32.92    -0.647 OA
ATOM     19  OE2 GLU D 570     -22.224  -6.137 -14.416  1.00 32.92    -0.647 OA
ENDBRANCH  16  17
ENDBRANCH  15  16
ENDBRANCH  14  15
END_RES GLU D 570
ENDMDL
MODEL 6
REMARK VINA RESULT:      -6.4      2.231      3.327
REMARK  13 active torsions:
REMARK  status: ('A' for Active; 'I' for Inactive)
REMARK    1  A    between atoms: C_2  and  C_3 
REMARK    2  A    between atoms: C_3  and  C_4 
REMARK    3  A    between atoms: C_4  and  C_5 
REMARK    4  A    between atoms: C_5  and  C_6 
REMARK    5  A    between atoms: C_6  and  C_7 
REMARK    6  A    between atoms: C_7  and  C_8 
REMARK    7  A    between atoms: C_8  and  C_9 
REMARK    8  A    between atoms: C_9  and  C_10 
REMARK    9  A    between atoms: C_10  and  C_11 
REMARK   10  A    between atoms: C_11  and  C_12 
REMARK       I    between atoms: C_12  and  N_14 
REMARK   11  A    between atoms: N_14  and  C_15 
REMARK   12  A    between atoms: C_15  and  C_16 
REMARK   13  A    between atoms: C_16  and  O_17 
ROOT
HETATM    1  C   UNL     1     -22.312  -3.750 -12.764  1.00  0.00     0.009 C 
ENDROOT
BRANCH   1   2
HETATM    2  C   UNL     1     -21.199  -3.779 -11.721  1.00  0.00     0.000 C 
BRANCH   2   3
HETATM    3  C   UNL     1     -21.743  -3.335 -10.364  1.00  0.00     0.000 C 
BRANCH   3   4
HETATM    4  C   UNL     1     -21.667  -4.465  -9.345  1.00  0.00     0.000 C 
BRANCH   4   5
HETATM    5  C   UNL     1     -22.857  -4.415  -8.390  1.00  0.00     0.000 C 
BRANCH   5   6
HETATM    6  C   UNL     1     -22.387  -4.483  -6.941  1.00  0.00     0.000 C 
BRANCH   6   7
HETATM    7  C   UNL     1     -20.915  -4.098  -6.825  1.00  0.00     0.000 C 
BRANCH   7   8
HETATM    8  C   UNL     1     -20.197  -5.003  -5.828  1.00  0.00    -0.000 C 
BRANCH   8   9
HETATM    9  C   UNL     1     -20.228  -6.458  -6.284  1.00  0.00    -0.005 C 
HETATM   10  C   UNL     1     -20.271  -7.402  -5.094  1.00  0.00     0.005 C 
ENDBRANCH   8   9
ENDBRANCH   7   8
ENDBRANCH   6   7
ENDBRANCH   5   6
ENDBRANCH   4   5
ENDBRANCH   3   4
ENDBRANCH   2   3
ENDBRANCH   1   2
BRANCH   1  11
HETATM   11  C   UNL     1     -22.914  -5.129 -13.011  1.00  0.00     0.103 C 
BRANCH  11  12
HETATM   12  C   UNL     1     -23.757  -5.119 -14.269  1.00  0.00     0.217 C 
HETATM   13  O   UNL     1     -24.004  -4.103 -14.913  1.00  0.00    -0.274 OA
HETATM   14  N   UNL     1     -24.228  -6.358 -14.636  1.00  0.00    -0.359 N 
HETATM   15  H   UNL     1     -23.974  -7.177 -14.102  1.00  0.00     0.162 HD
BRANCH  14  16
HETATM   16  C   UNL     1     -25.093  -6.512 -15.797  1.00  0.00     0.148 C 
BRANCH  16  17
HETATM   17  C   UNL     1     -24.416  -7.304 -16.913  1.00  0.00     0.183 C 
BRANCH  17  18
HETATM   18  O   UNL     1     -24.090  -8.615 -16.452  1.00  0.00    -0.399 OA
HETATM   19  H   UNL     1     -24.531  -9.230 -17.063  1.00  0.00     0.209 HD
ENDBRANCH  17  18
ENDBRANCH  16  17
ENDBRANCH  14  16
ENDBRANCH  11  12
ENDBRANCH   1  11
TORSDOF 13
BEGIN_RES ARG D 557
REMARK  4 active torsions:
REMARK  status: ('A' for Active; 'I' for Inactive)
REMARK    1  A    between atoms: CA   and  CB  
REMARK    2  A    between atoms: CB   and  CG  
REMARK    3  A    between atoms: CG   and  CD  
REMARK    4  A    between atoms: CD   and  NE  
REMARK       I    between atoms: NE   and  CZ  
REMARK       I    between atoms: CZ   and  NH1 
REMARK       I    between atoms: CZ   and  NH2 
ROOT
ATOM      1  CA  ARG D 557     -26.217   2.705 -17.014  1.00 35.49     0.159 C 
ENDROOT
BRANCH   1   2
ATOM      2  CB  ARG D 557     -26.789   1.319 -17.183  1.00 35.49     0.034 C 
BRANCH   2   3
ATOM      3  CG  ARG D 557     -28.232   1.168 -16.958  1.00 35.49     0.027 C 
BRANCH   3   4
ATOM      4  CD  ARG D 557     -28.622  -0.242 -16.726  1.00 35.49     0.116 C 
BRANCH   4   5
ATOM      5  NE  ARG D 557     -27.603  -0.978 -16.025  1.00 35.49    -0.212 N 
ATOM      6  CZ  ARG D 557     -27.413  -2.277 -16.089  1.00 35.49     0.666 C 
ATOM      7  NH1 ARG D 557     -28.174  -3.070 -16.820  1.00 35.49    -0.235 N 
ATOM      8  NH2 ARG D 557     -26.426  -2.774 -15.401  1.00 35.49    -0.235 N 
ATOM      9  HH  ARG D 557     -28.828  -2.765 -17.282  1.00 35.49     0.174 HD
ATOM     10  HH  ARG D 557     -28.000  -3.909 -16.825  1.00 35.49     0.174 HD
ATOM     11  HH  ARG D 557     -25.946  -2.236 -14.944  1.00 35.49     0.174 HD
ATOM     12  HH  ARG D 557     -26.269  -3.607 -15.420  1.00 35.49     0.174 HD
ATOM     13  HE  ARG D 557     -27.113  -0.555 -15.473  1.00 35.49     0.178 HD
ENDBRANCH   4   5
ENDBRANCH   3   4
ENDBRANCH   2   3
ENDBRANCH   1   2
END_RES ARG D 557
BEGIN_RES GLU D 570
REMARK  3 active torsions:
REMARK  status: ('A' for Active; 'I' for Inactive)
REMARK    5  A    between atoms: CA   and  CB  
REMARK    6  A    between atoms: CB   and  CG  
REMARK    7  A    between atoms: CG   and  CD  
ROOT
ATOM     14  CA  GLU D 570     -18.033  -6.348 -13.375  1.00 32.92     0.160 C 
ENDROOT
BRANCH  14  15
ATOM     15  CB  GLU D 570     -19.500  -6.345 -13.794  1.00 32.92     0.043 C 
BRANCH  15  16
ATOM     16  CG  GLU D 570     -20.102  -7.645 -14.190  1.00 32.92     0.100 C 
BRANCH  16  17
ATOM     17  CD  GLU D 570     -20.847  -7.574 -15.502  1.00 32.92     0.185 C 
ATOM     18  OE1 GLU D 570     -21.160  -6.458 -15.961  1.00 32.92    -0.647 OA
ATOM     19  OE2 GLU D 570     -21.136  -8.646 -16.069  1.00 32.92    -0.647 OA
ENDBRANCH  16  17
ENDBRANCH  15  16
ENDBRANCH  14  15
END_RES GLU D 570
ENDMDL
MODEL 7
REMARK VINA RESULT:      -6.3      3.435      5.765
REMARK  13 active torsions:
REMARK  status: ('A' for Active; 'I' for Inactive)
REMARK    1  A    between atoms: C_2  and  C_3 
REMARK    2  A    between atoms: C_3  and  C_4 
REMARK    3  A    between atoms: C_4  and  C_5 
REMARK    4  A    between atoms: C_5  and  C_6 
REMARK    5  A    between atoms: C_6  and  C_7 
REMARK    6  A    between atoms: C_7  and  C_8 
REMARK    7  A    between atoms: C_8  and  C_9 
REMARK    8  A    between atoms: C_9  and  C_10 
REMARK    9  A    between atoms: C_10  and  C_11 
REMARK   10  A    between atoms: C_11  and  C_12 
REMARK       I    between atoms: C_12  and  N_14 
REMARK   11  A    between atoms: N_14  and  C_15 
REMARK   12  A    between atoms: C_15  and  C_16 
REMARK   13  A    between atoms: C_16  and  O_17 
ROOT
HETATM    1  C   UNL     1     -24.610  -6.042 -15.063  1.00  0.00     0.009 C 
ENDROOT
BRANCH   1   2
HETATM    2  C   UNL     1     -23.427  -5.908 -14.110  1.00  0.00     0.000 C 
BRANCH   2   3
HETATM    3  C   UNL     1     -22.772  -4.537 -14.279  1.00  0.00     0.000 C 
BRANCH   3   4
HETATM    4  C   UNL     1     -22.362  -3.955 -12.932  1.00  0.00     0.000 C 
BRANCH   4   5
HETATM    5  C   UNL     1     -23.294  -2.816 -12.528  1.00  0.00     0.000 C 
BRANCH   5   6
HETATM    6  C   UNL     1     -24.277  -3.279 -11.458  1.00  0.00     0.000 C 
BRANCH   6   7
HETATM    7  C   UNL     1     -23.644  -4.331 -10.552  1.00  0.00     0.000 C 
BRANCH   7   8
HETATM    8  C   UNL     1     -23.688  -3.885  -9.093  1.00  0.00    -0.000 C 
BRANCH   8   9
HETATM    9  C   UNL     1     -22.312  -3.989  -8.444  1.00  0.00    -0.005 C 
HETATM   10  C   UNL     1     -21.248  -4.332  -9.472  1.00  0.00     0.005 C 
ENDBRANCH   8   9
ENDBRANCH   7   8
ENDBRANCH   6   7
ENDBRANCH   5   6
ENDBRANCH   4   5
ENDBRANCH   3   4
ENDBRANCH   2   3
ENDBRANCH   1   2
BRANCH   1  11
HETATM   11  C   UNL     1     -24.347  -7.046 -16.180  1.00  0.00     0.103 C 
BRANCH  11  12
HETATM   12  C   UNL     1     -25.175  -6.705 -17.402  1.00  0.00     0.217 C 
HETATM   13  O   UNL     1     -26.215  -6.055 -17.358  1.00  0.00    -0.274 OA
HETATM   14  N   UNL     1     -24.656  -7.189 -18.580  1.00  0.00    -0.359 N 
HETATM   15  H   UNL     1     -23.777  -7.689 -18.582  1.00  0.00     0.162 HD
BRANCH  14  16
HETATM   16  C   UNL     1     -25.357  -6.986 -19.841  1.00  0.00     0.148 C 
BRANCH  16  17
HETATM   17  C   UNL     1     -24.559  -7.516 -21.030  1.00  0.00     0.183 C 
BRANCH  17  18
HETATM   18  O   UNL     1     -23.758  -8.625 -20.625  1.00  0.00    -0.399 OA
HETATM   19  H   UNL     1     -23.324  -8.950 -21.432  1.00  0.00     0.209 HD
ENDBRANCH  17  18
ENDBRANCH  16  17
ENDBRANCH  14  16
ENDBRANCH  11  12
ENDBRANCH   1  11
TORSDOF 13
BEGIN_RES ARG D 557
REMARK  4 active torsions:
REMARK  status: ('A' for Active; 'I' for Inactive)
REMARK    1  A    between atoms: CA   and  CB  
REMARK    2  A    between atoms: CB   and  CG  
REMARK    3  A    between atoms: CG   and  CD  
REMARK    4  A    between atoms: CD   and  NE  
REMARK       I    between atoms: NE   and  CZ  
REMARK       I    between atoms: CZ   and  NH1 
REMARK       I    between atoms: CZ   and  NH2 
ROOT
ATOM      1  CA  ARG D 557     -26.217   2.705 -17.014  1.00 35.49     0.159 C 
ENDROOT
BRANCH   1   2
ATOM      2  CB  ARG D 557     -26.789   1.319 -17.183  1.00 35.49     0.034 C 
BRANCH   2   3
ATOM      3  CG  ARG D 557     -28.150   1.100 -16.679  1.00 35.49     0.027 C 
BRANCH   3   4
ATOM      4  CD  ARG D 557     -28.781  -0.106 -17.263  1.00 35.49     0.116 C 
BRANCH   4   5
ATOM      5  NE  ARG D 557     -28.143  -1.318 -16.823  1.00 35.49    -0.212 N 
ATOM      6  CZ  ARG D 557     -28.596  -2.537 -17.014  1.00 35.49     0.666 C 
ATOM      7  NH1 ARG D 557     -29.732  -2.782 -17.640  1.00 35.49    -0.235 N 
ATOM      8  NH2 ARG D 557     -27.874  -3.523 -16.565  1.00 35.49    -0.235 N 
ATOM      9  HH  ARG D 557     -30.222  -2.149 -17.946  1.00 35.49     0.174 HD
ATOM     10  HH  ARG D 557     -29.976  -3.598 -17.737  1.00 35.49     0.174 HD
ATOM     11  HH  ARG D 557     -27.141  -3.335 -16.171  1.00 35.49     0.174 HD
ATOM     12  HH  ARG D 557     -28.132  -4.324 -16.672  1.00 35.49     0.174 HD
ATOM     13  HE  ARG D 557     -27.441  -1.251 -16.348  1.00 35.49     0.178 HD
ENDBRANCH   4   5
ENDBRANCH   3   4
ENDBRANCH   2   3
ENDBRANCH   1   2
END_RES ARG D 557
BEGIN_RES GLU D 570
REMARK  3 active torsions:
REMARK  status: ('A' for Active; 'I' for Inactive)
REMARK    5  A    between atoms: CA   and  CB  
REMARK    6  A    between atoms: CB   and  CG  
REMARK    7  A    between atoms: CG   and  CD  
ROOT
ATOM     14  CA  GLU D 570     -18.033  -6.348 -13.375  1.00 32.92     0.160 C 
ENDROOT
BRANCH  14  15
ATOM     15  CB  GLU D 570     -19.500  -6.345 -13.794  1.00 32.92     0.043 C 
BRANCH  15  16
ATOM     16  CG  GLU D 570     -20.090  -7.637 -14.231  1.00 32.92     0.100 C 
BRANCH  16  17
ATOM     17  CD  GLU D 570     -20.620  -7.595 -15.645  1.00 32.92     0.185 C 
ATOM     18  OE1 GLU D 570     -20.579  -6.521 -16.275  1.00 32.92    -0.647 OA
ATOM     19  OE2 GLU D 570     -21.097  -8.643 -16.122  1.00 32.92    -0.647 OA
ENDBRANCH  16  17
ENDBRANCH  15  16
ENDBRANCH  14  15
END_RES GLU D 570
ENDMDL
MODEL 8
REMARK VINA RESULT:      -6.1      3.175      5.072
REMARK  13 active torsions:
REMARK  status: ('A' for Active; 'I' for Inactive)
REMARK    1  A    between atoms: C_2  and  C_3 
REMARK    2  A    between atoms: C_3  and  C_4 
REMARK    3  A    between atoms: C_4  and  C_5 
REMARK    4  A    between atoms: C_5  and  C_6 
REMARK    5  A    between atoms: C_6  and  C_7 
REMARK    6  A    between atoms: C_7  and  C_8 
REMARK    7  A    between atoms: C_8  and  C_9 
REMARK    8  A    between atoms: C_9  and  C_10 
REMARK    9  A    between atoms: C_10  and  C_11 
REMARK   10  A    between atoms: C_11  and  C_12 
REMARK       I    between atoms: C_12  and  N_14 
REMARK   11  A    between atoms: N_14  and  C_15 
REMARK   12  A    between atoms: C_15  and  C_16 
REMARK   13  A    between atoms: C_16  and  O_17 
ROOT
HETATM    1  C   UNL     1     -23.951  -5.452 -14.791  1.00  0.00     0.009 C 
ENDROOT
BRANCH   1   2
HETATM    2  C   UNL     1     -23.265  -5.966 -13.530  1.00  0.00     0.000 C 
BRANCH   2   3
HETATM    3  C   UNL     1     -22.745  -4.791 -12.702  1.00  0.00     0.000 C 
BRANCH   3   4
HETATM    4  C   UNL     1     -23.507  -4.664 -11.389  1.00  0.00     0.000 C 
BRANCH   4   5
HETATM    5  C   UNL     1     -22.543  -4.567 -10.210  1.00  0.00     0.000 C 
BRANCH   5   6
HETATM    6  C   UNL     1     -21.165  -4.110 -10.677  1.00  0.00     0.000 C 
BRANCH   6   7
HETATM    7  C   UNL     1     -20.083  -4.544  -9.692  1.00  0.00     0.000 C 
BRANCH   7   8
HETATM    8  C   UNL     1     -20.509  -4.248  -8.257  1.00  0.00    -0.000 C 
BRANCH   8   9
HETATM    9  C   UNL     1     -19.460  -4.732  -7.261  1.00  0.00    -0.005 C 
HETATM   10  C   UNL     1     -20.021  -4.759  -5.849  1.00  0.00     0.005 C 
ENDBRANCH   8   9
ENDBRANCH   7   8
ENDBRANCH   6   7
ENDBRANCH   5   6
ENDBRANCH   4   5
ENDBRANCH   3   4
ENDBRANCH   2   3
ENDBRANCH   1   2
BRANCH   1  11
HETATM   11  C   UNL     1     -24.719  -6.547 -15.523  1.00  0.00     0.103 C 
BRANCH  11  12
HETATM   12  C   UNL     1     -26.132  -6.090 -15.822  1.00  0.00     0.217 C 
HETATM   13  O   UNL     1     -26.426  -4.933 -16.109  1.00  0.00    -0.274 OA
HETATM   14  N   UNL     1     -27.071  -7.092 -15.745  1.00  0.00    -0.359 N 
HETATM   15  H   UNL     1     -26.787  -8.041 -15.541  1.00  0.00     0.162 HD
BRANCH  14  16
HETATM   16  C   UNL     1     -28.483  -6.808 -15.959  1.00  0.00     0.148 C 
BRANCH  16  17
HETATM   17  C   UNL     1     -28.898  -7.032 -17.411  1.00  0.00     0.183 C 
BRANCH  17  18
HETATM   18  O   UNL     1     -29.405  -8.356 -17.575  1.00  0.00    -0.399 OA
HETATM   19  H   UNL     1     -29.049  -8.872 -16.831  1.00  0.00     0.209 HD
ENDBRANCH  17  18
ENDBRANCH  16  17
ENDBRANCH  14  16
ENDBRANCH  11  12
ENDBRANCH   1  11
TORSDOF 13
BEGIN_RES ARG D 557
REMARK  4 active torsions:
REMARK  status: ('A' for Active; 'I' for Inactive)
REMARK    1  A    between atoms: CA   and  CB  
REMARK    2  A    between atoms: CB   and  CG  
REMARK    3  A    between atoms: CG   and  CD  
REMARK    4  A    between atoms: CD   and  NE  
REMARK       I    between atoms: NE   and  CZ  
REMARK       I    between atoms: CZ   and  NH1 
REMARK       I    between atoms: CZ   and  NH2 
ROOT
ATOM      1  CA  ARG D 557     -26.217   2.705 -17.014  1.00 35.49     0.159 C 
ENDROOT
BRANCH   1   2
ATOM      2  CB  ARG D 557     -26.789   1.319 -17.183  1.00 35.49     0.034 C 
BRANCH   2   3
ATOM      3  CG  ARG D 557     -25.830   0.208 -17.217  1.00 35.49     0.027 C 
BRANCH   3   4
ATOM      4  CD  ARG D 557     -24.700   0.410 -16.282  1.00 35.49     0.116 C 
BRANCH   4   5
ATOM      5  NE  ARG D 557     -24.840  -0.376 -15.084  1.00 35.49    -0.212 N 
ATOM      6  CZ  ARG D 557     -24.038  -1.344 -14.701  1.00 35.49     0.666 C 
ATOM      7  NH1 ARG D 557     -22.989  -1.718 -15.411  1.00 35.49    -0.235 N 
ATOM      8  NH2 ARG D 557     -24.306  -1.935 -13.574  1.00 35.49    -0.235 N 
ATOM      9  HH  ARG D 557     -22.793  -1.341 -16.155  1.00 35.49     0.174 HD
ATOM     10  HH  ARG D 557     -22.500  -2.354 -15.110  1.00 35.49     0.174 HD
ATOM     11  HH  ARG D 557     -24.985  -1.668 -13.133  1.00 35.49     0.174 HD
ATOM     12  HH  ARG D 557     -23.809  -2.562 -13.292  1.00 35.49     0.174 HD
ATOM     13  HE  ARG D 557     -25.531  -0.251 -14.603  1.00 35.49     0.178 HD
ENDBRANCH   4   5
ENDBRANCH   3   4
ENDBRANCH   2   3
ENDBRANCH   1   2
END_RES ARG D 557
BEGIN_RES GLU D 570
REMARK  3 active torsions:
REMARK  status: ('A' for Active; 'I' for Inactive)
REMARK    5  A    between atoms: CA   and  CB  
REMARK    6  A    between atoms: CB   and  CG  
REMARK    7  A    between atoms: CG   and  CD  
ROOT
ATOM     14  CA  GLU D 570     -18.033  -6.348 -13.375  1.00 32.92     0.160 C 
ENDROOT
BRANCH  14  15
ATOM     15  CB  GLU D 570     -19.500  -6.345 -13.794  1.00 32.92     0.043 C 
BRANCH  15  16
ATOM     16  CG  GLU D 570     -19.797  -6.229 -15.245  1.00 32.92     0.100 C 
BRANCH  16  17
ATOM     17  CD  GLU D 570     -20.659  -7.357 -15.763  1.00 32.92     0.185 C 
ATOM     18  OE1 GLU D 570     -20.618  -8.462 -15.189  1.00 32.92    -0.647 OA
ATOM     19  OE2 GLU D 570     -21.370  -7.137 -16.763  1.00 32.92    -0.647 OA
ENDBRANCH  16  17
ENDBRANCH  15  16
ENDBRANCH  14  15
END_RES GLU D 570
ENDMDL
MODEL 9
REMARK VINA RESULT:      -6.0      2.797      4.549
REMARK  13 active torsions:
REMARK  status: ('A' for Active; 'I' for Inactive)
REMARK    1  A    between atoms: C_2  and  C_3 
REMARK    2  A    between atoms: C_3  and  C_4 
REMARK    3  A    between atoms: C_4  and  C_5 
REMARK    4  A    between atoms: C_5  and  C_6 
REMARK    5  A    between atoms: C_6  and  C_7 
REMARK    6  A    between atoms: C_7  and  C_8 
REMARK    7  A    between atoms: C_8  and  C_9 
REMARK    8  A    between atoms: C_9  and  C_10 
REMARK    9  A    between atoms: C_10  and  C_11 
REMARK   10  A    between atoms: C_11  and  C_12 
REMARK       I    between atoms: C_12  and  N_14 
REMARK   11  A    between atoms: N_14  and  C_15 
REMARK   12  A    between atoms: C_15  and  C_16 
REMARK   13  A    between atoms: C_16  and  O_17 
ROOT
HETATM    1  C   UNL     1     -24.265  -5.406 -14.587  1.00  0.00     0.009 C 
ENDROOT
BRANCH   1   2
HETATM    2  C   UNL     1     -23.355  -5.658 -13.389  1.00  0.00     0.000 C 
BRANCH   2   3
HETATM    3  C   UNL     1     -23.348  -4.436 -12.472  1.00  0.00     0.000 C 
BRANCH   3   4
HETATM    4  C   UNL     1     -23.251  -4.848 -11.009  1.00  0.00     0.000 C 
BRANCH   4   5
HETATM    5  C   UNL     1     -23.393  -3.634 -10.094  1.00  0.00     0.000 C 
BRANCH   5   6
HETATM    6  C   UNL     1     -22.466  -3.758  -8.888  1.00  0.00     0.000 C 
BRANCH   6   7
HETATM    7  C   UNL     1     -21.166  -4.461  -9.269  1.00  0.00     0.000 C 
BRANCH   7   8
HETATM    8  C   UNL     1     -20.045  -4.080  -8.306  1.00  0.00    -0.000 C 
BRANCH   8   9
HETATM    9  C   UNL     1     -19.789  -5.190  -7.292  1.00  0.00    -0.005 C 
HETATM   10  C   UNL     1     -20.074  -4.715  -5.878  1.00  0.00     0.005 C 
ENDBRANCH   8   9
ENDBRANCH   7   8
ENDBRANCH   6   7
ENDBRANCH   5   6
ENDBRANCH   4   5
ENDBRANCH   3   4
ENDBRANCH   2   3
ENDBRANCH   1   2
BRANCH   1  11
HETATM   11  C   UNL     1     -24.566  -6.681 -15.367  1.00  0.00     0.103 C 
BRANCH  11  12
HETATM   12  C   UNL     1     -25.863  -6.536 -16.136  1.00  0.00     0.217 C 
HETATM   13  O   UNL     1     -25.933  -6.061 -17.267  1.00  0.00    -0.274 OA
HETATM   14  N   UNL     1     -26.969  -6.986 -15.455  1.00  0.00    -0.359 N 
HETATM   15  H   UNL     1     -26.869  -7.404 -14.540  1.00  0.00     0.162 HD
BRANCH  14  16
HETATM   16  C   UNL     1     -28.299  -6.873 -16.038  1.00  0.00     0.148 C 
BRANCH  16  17
HETATM   17  C   UNL     1     -29.104  -5.737 -15.411  1.00  0.00     0.183 C 
BRANCH  17  18
HETATM   18  O   UNL     1     -30.381  -5.639 -16.040  1.00  0.00    -0.399 OA
HETATM   19  H   UNL     1     -30.867  -6.442 -15.785  1.00  0.00     0.209 HD
ENDBRANCH  17  18
ENDBRANCH  16  17
ENDBRANCH  14  16
ENDBRANCH  11  12
ENDBRANCH   1  11
TORSDOF 13
BEGIN_RES ARG D 557
REMARK  4 active torsions:
REMARK  status: ('A' for Active; 'I' for Inactive)
REMARK    1  A    between atoms: CA   and  CB  
REMARK    2  A    between atoms: CB   and  CG  
REMARK    3  A    between atoms: CG   and  CD  
REMARK    4  A    between atoms: CD   and  NE  
REMARK       I    between atoms: NE   and  CZ  
REMARK       I    between atoms: CZ   and  NH1 
REMARK       I    between atoms: CZ   and  NH2 
ROOT
ATOM      1  CA  ARG D 557     -26.217   2.705 -17.014  1.00 35.49     0.159 C 
ENDROOT
BRANCH   1   2
ATOM      2  CB  ARG D 557     -26.789   1.319 -17.183  1.00 35.49     0.034 C 
BRANCH   2   3
ATOM      3  CG  ARG D 557     -28.234   1.226 -17.427  1.00 35.49     0.027 C 
BRANCH   3   4
ATOM      4  CD  ARG D 557     -28.905   0.294 -16.492  1.00 35.49     0.116 C 
BRANCH   4   5
ATOM      5  NE  ARG D 557     -29.323  -0.920 -17.143  1.00 35.49    -0.212 N 
ATOM      6  CZ  ARG D 557     -28.722  -2.085 -17.055  1.00 35.49     0.666 C 
ATOM      7  NH1 ARG D 557     -27.623  -2.264 -16.345  1.00 35.49    -0.235 N 
ATOM      8  NH2 ARG D 557     -29.253  -3.085 -17.696  1.00 35.49    -0.235 N 
ATOM      9  HH  ARG D 557     -27.257  -1.621 -15.913  1.00 35.49     0.174 HD
ATOM     10  HH  ARG D 557     -27.276  -3.047 -16.322  1.00 35.49     0.174 HD
ATOM     11  HH  ARG D 557     -29.967  -2.941 -18.141  1.00 35.49     0.174 HD
ATOM     12  HH  ARG D 557     -28.896  -3.853 -17.660  1.00 35.49     0.174 HD
ATOM     13  HE  ARG D 557     -29.981  -0.879 -17.680  1.00 35.49     0.178 HD
ENDBRANCH   4   5
ENDBRANCH   3   4
ENDBRANCH   2   3
ENDBRANCH   1   2
END_RES ARG D 557
BEGIN_RES GLU D 570
REMARK  3 active torsions:
REMARK  status: ('A' for Active; 'I' for Inactive)
REMARK    5  A    between atoms: CA   and  CB  
REMARK    6  A    between atoms: CB   and  CG  
REMARK    7  A    between atoms: CG   and  CD  
ROOT
ATOM     14  CA  GLU D 570     -18.033  -6.348 -13.375  1.00 32.92     0.160 C 
ENDROOT
BRANCH  14  15
ATOM     15  CB  GLU D 570     -19.500  -6.345 -13.794  1.00 32.92     0.043 C 
BRANCH  15  16
ATOM     16  CG  GLU D 570     -19.873  -5.525 -14.975  1.00 32.92     0.100 C 
BRANCH  16  17
ATOM     17  CD  GLU D 570     -20.784  -6.253 -15.935  1.00 32.92     0.185 C 
ATOM     18  OE1 GLU D 570     -21.426  -5.596 -16.777  1.00 32.92    -0.647 OA
ATOM     19  OE2 GLU D 570     -20.869  -7.493 -15.833  1.00 32.92    -0.647 OA
ENDBRANCH  16  17
ENDBRANCH  15  16
ENDBRANCH  14  15
END_RES GLU D 570
ENDMDL
