MODEL 1
REMARK VINA RESULT:      -1.0      0.000      0.000
REMARK WARNING: 32 MAX_TORS EXCEEDED!!!
REMARK  72 active torsions:
REMARK  status: ('A' for Active; 'I' for Inactive)
REMARK    1  A    between atoms: C_2  and  C_3 
REMARK    2  A    between atoms: C_3  and  C_4 
REMARK    3  A    between atoms: C_4  and  C_5 
REMARK    4  A    between atoms: C_5  and  C_6 
REMARK    5  A    between atoms: C_7  and  C_8 
REMARK    6  A    between atoms: C_8  and  C_9 
REMARK    7  A    between atoms: C_10  and  C_11 
REMARK    8  A    between atoms: C_11  and  C_12 
REMARK    9  A    between atoms: C_12  and  C_13 
REMARK   10  A    between atoms: C_13  and  C_14 
REMARK   11  A    between atoms: C_14  and  C_15 
REMARK   12  A    between atoms: C_15  and  C_16 
REMARK   13  A    between atoms: C_16  and  C_17 
REMARK   14  A    between atoms: C_17  and  C_18 
REMARK       I    between atoms: C_18  and  N_20 
REMARK   15  A    between atoms: N_20  and  C_21 
REMARK   16  A    between atoms: C_21  and  C_22 
REMARK   17  A    between atoms: C_22  and  C_23 
REMARK   18  A    between atoms: C_23  and  N_24 
REMARK   19  A    between atoms: N_24  and  C_27 
REMARK   20  A    between atoms: C_27  and  C_28 
REMARK   21  A    between atoms: C_28  and  C_29 
REMARK   22  A    between atoms: C_28  and  O_95 
REMARK   23  A    between atoms: C_29  and  O_30 
REMARK   24  A    between atoms: O_30  and  P_31 
REMARK   25  A    between atoms: P_31  and  O_33 
REMARK   26  A    between atoms: P_31  and  O_64 
REMARK   27  A    between atoms: O_33  and  C_34 
REMARK   28  A    between atoms: C_34  and  C_35 
REMARK   29  A    between atoms: C_35  and  C_36 
REMARK   30  A    between atoms: C_35  and  O_63 
REMARK   31  A    between atoms: C_36  and  N_37 
REMARK   32  A    between atoms: N_37  and  C_40 
REMARK   33  A    between atoms: C_40  and  C_41 
REMARK   34  A    between atoms: C_41  and  C_42 
REMARK   35  A    between atoms: C_42  and  N_43 
REMARK       I    between atoms: N_43  and  C_44 
REMARK   36  A    between atoms: C_44  and  C_46 
REMARK   37  A    between atoms: C_46  and  C_47 
REMARK   38  A    between atoms: C_47  and  C_48 
REMARK   39  A    between atoms: C_48  and  C_49 
REMARK   40  A    between atoms: C_49  and  C_50 
REMARK   41  A    between atoms: C_50  and  C_51 
REMARK   42  A    between atoms: C_51  and  C_52 
REMARK   43  A    between atoms: C_52  and  C_53 
REMARK   44  A    between atoms: C_54  and  C_55 
REMARK   45  A    between atoms: C_55  and  C_56 
REMARK   46  A    between atoms: C_57  and  C_58 
REMARK   47  A    between atoms: C_58  and  C_59 
REMARK   48  A    between atoms: C_59  and  C_60 
REMARK   49  A    between atoms: C_60  and  C_61 
REMARK   50  A    between atoms: O_64  and  C_65 
REMARK   51  A    between atoms: C_65  and  C_66 
REMARK   52  A    between atoms: C_66  and  C_67 
REMARK   53  A    between atoms: C_66  and  O_94 
REMARK   54  A    between atoms: C_67  and  N_68 
REMARK   55  A    between atoms: N_68  and  C_71 
REMARK   56  A    between atoms: C_71  and  C_72 
REMARK   57  A    between atoms: C_72  and  C_73 
REMARK   58  A    between atoms: C_73  and  N_74 
REMARK       I    between atoms: N_74  and  C_75 
REMARK   59  A    between atoms: C_75  and  C_77 
REMARK   60  A    between atoms: C_77  and  C_78 
REMARK   61  A    between atoms: C_78  and  C_79 
REMARK   62  A    between atoms: C_79  and  C_80 
REMARK   63  A    between atoms: C_80  and  C_81 
REMARK   64  A    between atoms: C_81  and  C_82 
REMARK   65  A    between atoms: C_82  and  C_83 
REMARK   66  A    between atoms: C_83  and  C_84 
REMARK   67  A    between atoms: C_85  and  C_86 
REMARK   68  A    between atoms: C_86  and  C_87 
REMARK   69  A    between atoms: C_88  and  C_89 
REMARK   70  A    between atoms: C_89  and  C_90 
REMARK   71  A    between atoms: C_90  and  C_91 
REMARK   72  A    between atoms: C_91  and  C_92 
ROOT
HETATM    1 CL   UNL     2     -37.002   0.513  -4.874  1.00  0.00     0.000 Cl
ENDROOT
TORSDOF 72
BEGIN_RES ARG D 557
REMARK  4 active torsions:
REMARK  status: ('A' for Active; 'I' for Inactive)
REMARK    1  A    between atoms: CA   and  CB  
REMARK    2  A    between atoms: CB   and  CG  
REMARK    3  A    between atoms: CG   and  CD  
REMARK    4  A    between atoms: CD   and  NE  
REMARK       I    between atoms: NE   and  CZ  
REMARK       I    between atoms: CZ   and  NH1 
REMARK       I    between atoms: CZ   and  NH2 
ROOT
ATOM      1  CA  ARG D 557     -26.217   2.705 -17.014  1.00 35.49     0.159 C 
ENDROOT
BRANCH   1   2
ATOM      2  CB  ARG D 557     -26.789   1.319 -17.183  1.00 35.49     0.034 C 
BRANCH   2   3
ATOM      3  CG  ARG D 557     -25.835   0.204 -17.166  1.00 35.49     0.027 C 
BRANCH   3   4
ATOM      4  CD  ARG D 557     -24.756   0.399 -16.170  1.00 35.49     0.116 C 
BRANCH   4   5
ATOM      5  NE  ARG D 557     -24.918  -0.453 -15.021  1.00 35.49    -0.212 N 
ATOM      6  CZ  ARG D 557     -24.108  -1.426 -14.667  1.00 35.49     0.666 C 
ATOM      7  NH1 ARG D 557     -23.030  -1.740 -15.362  1.00 35.49    -0.235 N 
ATOM      8  NH2 ARG D 557     -24.398  -2.083 -13.582  1.00 35.49    -0.235 N 
ATOM      9  HH  ARG D 557     -22.819  -1.319 -16.078  1.00 35.49     0.174 HD
ATOM     10  HH  ARG D 557     -22.538  -2.382 -15.081  1.00 35.49     0.174 HD
ATOM     11  HH  ARG D 557     -25.096  -1.853 -13.149  1.00 35.49     0.174 HD
ATOM     12  HH  ARG D 557     -23.897  -2.715 -13.319  1.00 35.49     0.174 HD
ATOM     13  HE  ARG D 557     -25.625  -0.368 -14.557  1.00 35.49     0.178 HD
ENDBRANCH   4   5
ENDBRANCH   3   4
ENDBRANCH   2   3
ENDBRANCH   1   2
END_RES ARG D 557
BEGIN_RES GLU D 570
REMARK  3 active torsions:
REMARK  status: ('A' for Active; 'I' for Inactive)
REMARK    5  A    between atoms: CA   and  CB  
REMARK    6  A    between atoms: CB   and  CG  
REMARK    7  A    between atoms: CG   and  CD  
ROOT
ATOM     14  CA  GLU D 570     -18.033  -6.348 -13.375  1.00 32.92     0.160 C 
ENDROOT
BRANCH  14  15
ATOM     15  CB  GLU D 570     -19.500  -6.345 -13.794  1.00 32.92     0.043 C 
BRANCH  15  16
ATOM     16  CG  GLU D 570     -20.440  -5.524 -12.988  1.00 32.92     0.100 C 
BRANCH  16  17
ATOM     17  CD  GLU D 570     -21.744  -5.251 -13.701  1.00 32.92     0.185 C 
ATOM     18  OE1 GLU D 570     -22.216  -6.124 -14.455  1.00 32.92    -0.647 OA
ATOM     19  OE2 GLU D 570     -22.291  -4.146 -13.517  1.00 32.92    -0.647 OA
ENDBRANCH  16  17
ENDBRANCH  15  16
ENDBRANCH  14  15
END_RES GLU D 570
ENDMDL
MODEL 2
REMARK VINA RESULT:      -1.0      2.384      2.561
REMARK WARNING: 32 MAX_TORS EXCEEDED!!!
REMARK  72 active torsions:
REMARK  status: ('A' for Active; 'I' for Inactive)
REMARK    1  A    between atoms: C_2  and  C_3 
REMARK    2  A    between atoms: C_3  and  C_4 
REMARK    3  A    between atoms: C_4  and  C_5 
REMARK    4  A    between atoms: C_5  and  C_6 
REMARK    5  A    between atoms: C_7  and  C_8 
REMARK    6  A    between atoms: C_8  and  C_9 
REMARK    7  A    between atoms: C_10  and  C_11 
REMARK    8  A    between atoms: C_11  and  C_12 
REMARK    9  A    between atoms: C_12  and  C_13 
REMARK   10  A    between atoms: C_13  and  C_14 
REMARK   11  A    between atoms: C_14  and  C_15 
REMARK   12  A    between atoms: C_15  and  C_16 
REMARK   13  A    between atoms: C_16  and  C_17 
REMARK   14  A    between atoms: C_17  and  C_18 
REMARK       I    between atoms: C_18  and  N_20 
REMARK   15  A    between atoms: N_20  and  C_21 
REMARK   16  A    between atoms: C_21  and  C_22 
REMARK   17  A    between atoms: C_22  and  C_23 
REMARK   18  A    between atoms: C_23  and  N_24 
REMARK   19  A    between atoms: N_24  and  C_27 
REMARK   20  A    between atoms: C_27  and  C_28 
REMARK   21  A    between atoms: C_28  and  C_29 
REMARK   22  A    between atoms: C_28  and  O_95 
REMARK   23  A    between atoms: C_29  and  O_30 
REMARK   24  A    between atoms: O_30  and  P_31 
REMARK   25  A    between atoms: P_31  and  O_33 
REMARK   26  A    between atoms: P_31  and  O_64 
REMARK   27  A    between atoms: O_33  and  C_34 
REMARK   28  A    between atoms: C_34  and  C_35 
REMARK   29  A    between atoms: C_35  and  C_36 
REMARK   30  A    between atoms: C_35  and  O_63 
REMARK   31  A    between atoms: C_36  and  N_37 
REMARK   32  A    between atoms: N_37  and  C_40 
REMARK   33  A    between atoms: C_40  and  C_41 
REMARK   34  A    between atoms: C_41  and  C_42 
REMARK   35  A    between atoms: C_42  and  N_43 
REMARK       I    between atoms: N_43  and  C_44 
REMARK   36  A    between atoms: C_44  and  C_46 
REMARK   37  A    between atoms: C_46  and  C_47 
REMARK   38  A    between atoms: C_47  and  C_48 
REMARK   39  A    between atoms: C_48  and  C_49 
REMARK   40  A    between atoms: C_49  and  C_50 
REMARK   41  A    between atoms: C_50  and  C_51 
REMARK   42  A    between atoms: C_51  and  C_52 
REMARK   43  A    between atoms: C_52  and  C_53 
REMARK   44  A    between atoms: C_54  and  C_55 
REMARK   45  A    between atoms: C_55  and  C_56 
REMARK   46  A    between atoms: C_57  and  C_58 
REMARK   47  A    between atoms: C_58  and  C_59 
REMARK   48  A    between atoms: C_59  and  C_60 
REMARK   49  A    between atoms: C_60  and  C_61 
REMARK   50  A    between atoms: O_64  and  C_65 
REMARK   51  A    between atoms: C_65  and  C_66 
REMARK   52  A    between atoms: C_66  and  C_67 
REMARK   53  A    between atoms: C_66  and  O_94 
REMARK   54  A    between atoms: C_67  and  N_68 
REMARK   55  A    between atoms: N_68  and  C_71 
REMARK   56  A    between atoms: C_71  and  C_72 
REMARK   57  A    between atoms: C_72  and  C_73 
REMARK   58  A    between atoms: C_73  and  N_74 
REMARK       I    between atoms: N_74  and  C_75 
REMARK   59  A    between atoms: C_75  and  C_77 
REMARK   60  A    between atoms: C_77  and  C_78 
REMARK   61  A    between atoms: C_78  and  C_79 
REMARK   62  A    between atoms: C_79  and  C_80 
REMARK   63  A    between atoms: C_80  and  C_81 
REMARK   64  A    between atoms: C_81  and  C_82 
REMARK   65  A    between atoms: C_82  and  C_83 
REMARK   66  A    between atoms: C_83  and  C_84 
REMARK   67  A    between atoms: C_85  and  C_86 
REMARK   68  A    between atoms: C_86  and  C_87 
REMARK   69  A    between atoms: C_88  and  C_89 
REMARK   70  A    between atoms: C_89  and  C_90 
REMARK   71  A    between atoms: C_90  and  C_91 
REMARK   72  A    between atoms: C_91  and  C_92 
ROOT
HETATM    1 CL   UNL     2     -34.293  -5.946  -1.201  1.00  0.00     0.000 Cl
ENDROOT
TORSDOF 72
BEGIN_RES ARG D 557
REMARK  4 active torsions:
REMARK  status: ('A' for Active; 'I' for Inactive)
REMARK    1  A    between atoms: CA   and  CB  
REMARK    2  A    between atoms: CB   and  CG  
REMARK    3  A    between atoms: CG   and  CD  
REMARK    4  A    between atoms: CD   and  NE  
REMARK       I    between atoms: NE   and  CZ  
REMARK       I    between atoms: CZ   and  NH1 
REMARK       I    between atoms: CZ   and  NH2 
ROOT
ATOM      1  CA  ARG D 557     -26.217   2.705 -17.014  1.00 35.49     0.159 C 
ENDROOT
BRANCH   1   2
ATOM      2  CB  ARG D 557     -26.789   1.319 -17.183  1.00 35.49     0.034 C 
BRANCH   2   3
ATOM      3  CG  ARG D 557     -25.835   0.203 -17.158  1.00 35.49     0.027 C 
BRANCH   3   4
ATOM      4  CD  ARG D 557     -24.754   0.407 -16.167  1.00 35.49     0.116 C 
BRANCH   4   5
ATOM      5  NE  ARG D 557     -24.905  -0.443 -15.016  1.00 35.49    -0.212 N 
ATOM      6  CZ  ARG D 557     -24.094  -1.416 -14.668  1.00 35.49     0.666 C 
ATOM      7  NH1 ARG D 557     -23.024  -1.734 -15.373  1.00 35.49    -0.235 N 
ATOM      8  NH2 ARG D 557     -24.375  -2.071 -13.579  1.00 35.49    -0.235 N 
ATOM      9  HH  ARG D 557     -22.819  -1.315 -16.092  1.00 35.49     0.174 HD
ATOM     10  HH  ARG D 557     -22.530  -2.376 -15.095  1.00 35.49     0.174 HD
ATOM     11  HH  ARG D 557     -25.068  -1.839 -13.139  1.00 35.49     0.174 HD
ATOM     12  HH  ARG D 557     -23.872  -2.703 -13.320  1.00 35.49     0.174 HD
ATOM     13  HE  ARG D 557     -25.608  -0.355 -14.544  1.00 35.49     0.178 HD
ENDBRANCH   4   5
ENDBRANCH   3   4
ENDBRANCH   2   3
ENDBRANCH   1   2
END_RES ARG D 557
BEGIN_RES GLU D 570
REMARK  3 active torsions:
REMARK  status: ('A' for Active; 'I' for Inactive)
REMARK    5  A    between atoms: CA   and  CB  
REMARK    6  A    between atoms: CB   and  CG  
REMARK    7  A    between atoms: CG   and  CD  
ROOT
ATOM     14  CA  GLU D 570     -18.033  -6.348 -13.375  1.00 32.92     0.160 C 
ENDROOT
BRANCH  14  15
ATOM     15  CB  GLU D 570     -19.500  -6.345 -13.794  1.00 32.92     0.043 C 
BRANCH  15  16
ATOM     16  CG  GLU D 570     -20.442  -5.531 -12.983  1.00 32.92     0.100 C 
BRANCH  16  17
ATOM     17  CD  GLU D 570     -21.739  -5.241 -13.701  1.00 32.92     0.185 C 
ATOM     18  OE1 GLU D 570     -22.306  -4.148 -13.510  1.00 32.92    -0.647 OA
ATOM     19  OE2 GLU D 570     -22.203  -6.124 -14.450  1.00 32.92    -0.647 OA
ENDBRANCH  16  17
ENDBRANCH  15  16
ENDBRANCH  14  15
END_RES GLU D 570
ENDMDL
MODEL 3
REMARK VINA RESULT:      -0.9      4.047      4.153
REMARK WARNING: 32 MAX_TORS EXCEEDED!!!
REMARK  72 active torsions:
REMARK  status: ('A' for Active; 'I' for Inactive)
REMARK    1  A    between atoms: C_2  and  C_3 
REMARK    2  A    between atoms: C_3  and  C_4 
REMARK    3  A    between atoms: C_4  and  C_5 
REMARK    4  A    between atoms: C_5  and  C_6 
REMARK    5  A    between atoms: C_7  and  C_8 
REMARK    6  A    between atoms: C_8  and  C_9 
REMARK    7  A    between atoms: C_10  and  C_11 
REMARK    8  A    between atoms: C_11  and  C_12 
REMARK    9  A    between atoms: C_12  and  C_13 
REMARK   10  A    between atoms: C_13  and  C_14 
REMARK   11  A    between atoms: C_14  and  C_15 
REMARK   12  A    between atoms: C_15  and  C_16 
REMARK   13  A    between atoms: C_16  and  C_17 
REMARK   14  A    between atoms: C_17  and  C_18 
REMARK       I    between atoms: C_18  and  N_20 
REMARK   15  A    between atoms: N_20  and  C_21 
REMARK   16  A    between atoms: C_21  and  C_22 
REMARK   17  A    between atoms: C_22  and  C_23 
REMARK   18  A    between atoms: C_23  and  N_24 
REMARK   19  A    between atoms: N_24  and  C_27 
REMARK   20  A    between atoms: C_27  and  C_28 
REMARK   21  A    between atoms: C_28  and  C_29 
REMARK   22  A    between atoms: C_28  and  O_95 
REMARK   23  A    between atoms: C_29  and  O_30 
REMARK   24  A    between atoms: O_30  and  P_31 
REMARK   25  A    between atoms: P_31  and  O_33 
REMARK   26  A    between atoms: P_31  and  O_64 
REMARK   27  A    between atoms: O_33  and  C_34 
REMARK   28  A    between atoms: C_34  and  C_35 
REMARK   29  A    between atoms: C_35  and  C_36 
REMARK   30  A    between atoms: C_35  and  O_63 
REMARK   31  A    between atoms: C_36  and  N_37 
REMARK   32  A    between atoms: N_37  and  C_40 
REMARK   33  A    between atoms: C_40  and  C_41 
REMARK   34  A    between atoms: C_41  and  C_42 
REMARK   35  A    between atoms: C_42  and  N_43 
REMARK       I    between atoms: N_43  and  C_44 
REMARK   36  A    between atoms: C_44  and  C_46 
REMARK   37  A    between atoms: C_46  and  C_47 
REMARK   38  A    between atoms: C_47  and  C_48 
REMARK   39  A    between atoms: C_48  and  C_49 
REMARK   40  A    between atoms: C_49  and  C_50 
REMARK   41  A    between atoms: C_50  and  C_51 
REMARK   42  A    between atoms: C_51  and  C_52 
REMARK   43  A    between atoms: C_52  and  C_53 
REMARK   44  A    between atoms: C_54  and  C_55 
REMARK   45  A    between atoms: C_55  and  C_56 
REMARK   46  A    between atoms: C_57  and  C_58 
REMARK   47  A    between atoms: C_58  and  C_59 
REMARK   48  A    between atoms: C_59  and  C_60 
REMARK   49  A    between atoms: C_60  and  C_61 
REMARK   50  A    between atoms: O_64  and  C_65 
REMARK   51  A    between atoms: C_65  and  C_66 
REMARK   52  A    between atoms: C_66  and  C_67 
REMARK   53  A    between atoms: C_66  and  O_94 
REMARK   54  A    between atoms: C_67  and  N_68 
REMARK   55  A    between atoms: N_68  and  C_71 
REMARK   56  A    between atoms: C_71  and  C_72 
REMARK   57  A    between atoms: C_72  and  C_73 
REMARK   58  A    between atoms: C_73  and  N_74 
REMARK       I    between atoms: N_74  and  C_75 
REMARK   59  A    between atoms: C_75  and  C_77 
REMARK   60  A    between atoms: C_77  and  C_78 
REMARK   61  A    between atoms: C_78  and  C_79 
REMARK   62  A    between atoms: C_79  and  C_80 
REMARK   63  A    between atoms: C_80  and  C_81 
REMARK   64  A    between atoms: C_81  and  C_82 
REMARK   65  A    between atoms: C_82  and  C_83 
REMARK   66  A    between atoms: C_83  and  C_84 
REMARK   67  A    between atoms: C_85  and  C_86 
REMARK   68  A    between atoms: C_86  and  C_87 
REMARK   69  A    between atoms: C_88  and  C_89 
REMARK   70  A    between atoms: C_89  and  C_90 
REMARK   71  A    between atoms: C_90  and  C_91 
REMARK   72  A    between atoms: C_91  and  C_92 
ROOT
HETATM    1 CL   UNL     2     -27.274   7.250 -11.209  1.00  0.00     0.000 Cl
ENDROOT
TORSDOF 72
BEGIN_RES ARG D 557
REMARK  4 active torsions:
REMARK  status: ('A' for Active; 'I' for Inactive)
REMARK    1  A    between atoms: CA   and  CB  
REMARK    2  A    between atoms: CB   and  CG  
REMARK    3  A    between atoms: CG   and  CD  
REMARK    4  A    between atoms: CD   and  NE  
REMARK       I    between atoms: NE   and  CZ  
REMARK       I    between atoms: CZ   and  NH1 
REMARK       I    between atoms: CZ   and  NH2 
ROOT
ATOM      1  CA  ARG D 557     -26.217   2.705 -17.014  1.00 35.49     0.159 C 
ENDROOT
BRANCH   1   2
ATOM      2  CB  ARG D 557     -26.789   1.319 -17.183  1.00 35.49     0.034 C 
BRANCH   2   3
ATOM      3  CG  ARG D 557     -25.835   0.203 -17.159  1.00 35.49     0.027 C 
BRANCH   3   4
ATOM      4  CD  ARG D 557     -24.749   0.411 -16.174  1.00 35.49     0.116 C 
BRANCH   4   5
ATOM      5  NE  ARG D 557     -24.895  -0.435 -15.019  1.00 35.49    -0.212 N 
ATOM      6  CZ  ARG D 557     -24.082  -1.408 -14.671  1.00 35.49     0.666 C 
ATOM      7  NH1 ARG D 557     -23.016  -1.729 -15.381  1.00 35.49    -0.235 N 
ATOM      8  NH2 ARG D 557     -24.358  -2.058 -13.579  1.00 35.49    -0.235 N 
ATOM      9  HH  ARG D 557     -22.815  -1.313 -16.102  1.00 35.49     0.174 HD
ATOM     10  HH  ARG D 557     -22.521  -2.371 -15.104  1.00 35.49     0.174 HD
ATOM     11  HH  ARG D 557     -25.049  -1.824 -13.137  1.00 35.49     0.174 HD
ATOM     12  HH  ARG D 557     -23.855  -2.690 -13.320  1.00 35.49     0.174 HD
ATOM     13  HE  ARG D 557     -25.595  -0.345 -14.545  1.00 35.49     0.178 HD
ENDBRANCH   4   5
ENDBRANCH   3   4
ENDBRANCH   2   3
ENDBRANCH   1   2
END_RES ARG D 557
BEGIN_RES GLU D 570
REMARK  3 active torsions:
REMARK  status: ('A' for Active; 'I' for Inactive)
REMARK    5  A    between atoms: CA   and  CB  
REMARK    6  A    between atoms: CB   and  CG  
REMARK    7  A    between atoms: CG   and  CD  
ROOT
ATOM     14  CA  GLU D 570     -18.033  -6.348 -13.375  1.00 32.92     0.160 C 
ENDROOT
BRANCH  14  15
ATOM     15  CB  GLU D 570     -19.500  -6.345 -13.794  1.00 32.92     0.043 C 
BRANCH  15  16
ATOM     16  CG  GLU D 570     -20.445  -5.544 -12.973  1.00 32.92     0.100 C 
BRANCH  16  17
ATOM     17  CD  GLU D 570     -21.739  -5.241 -13.692  1.00 32.92     0.185 C 
ATOM     18  OE1 GLU D 570     -22.273  -4.127 -13.531  1.00 32.92    -0.647 OA
ATOM     19  OE2 GLU D 570     -22.232  -6.133 -14.409  1.00 32.92    -0.647 OA
ENDBRANCH  16  17
ENDBRANCH  15  16
ENDBRANCH  14  15
END_RES GLU D 570
ENDMDL
MODEL 4
REMARK VINA RESULT:      -0.9      8.247      8.300
REMARK WARNING: 32 MAX_TORS EXCEEDED!!!
REMARK  72 active torsions:
REMARK  status: ('A' for Active; 'I' for Inactive)
REMARK    1  A    between atoms: C_2  and  C_3 
REMARK    2  A    between atoms: C_3  and  C_4 
REMARK    3  A    between atoms: C_4  and  C_5 
REMARK    4  A    between atoms: C_5  and  C_6 
REMARK    5  A    between atoms: C_7  and  C_8 
REMARK    6  A    between atoms: C_8  and  C_9 
REMARK    7  A    between atoms: C_10  and  C_11 
REMARK    8  A    between atoms: C_11  and  C_12 
REMARK    9  A    between atoms: C_12  and  C_13 
REMARK   10  A    between atoms: C_13  and  C_14 
REMARK   11  A    between atoms: C_14  and  C_15 
REMARK   12  A    between atoms: C_15  and  C_16 
REMARK   13  A    between atoms: C_16  and  C_17 
REMARK   14  A    between atoms: C_17  and  C_18 
REMARK       I    between atoms: C_18  and  N_20 
REMARK   15  A    between atoms: N_20  and  C_21 
REMARK   16  A    between atoms: C_21  and  C_22 
REMARK   17  A    between atoms: C_22  and  C_23 
REMARK   18  A    between atoms: C_23  and  N_24 
REMARK   19  A    between atoms: N_24  and  C_27 
REMARK   20  A    between atoms: C_27  and  C_28 
REMARK   21  A    between atoms: C_28  and  C_29 
REMARK   22  A    between atoms: C_28  and  O_95 
REMARK   23  A    between atoms: C_29  and  O_30 
REMARK   24  A    between atoms: O_30  and  P_31 
REMARK   25  A    between atoms: P_31  and  O_33 
REMARK   26  A    between atoms: P_31  and  O_64 
REMARK   27  A    between atoms: O_33  and  C_34 
REMARK   28  A    between atoms: C_34  and  C_35 
REMARK   29  A    between atoms: C_35  and  C_36 
REMARK   30  A    between atoms: C_35  and  O_63 
REMARK   31  A    between atoms: C_36  and  N_37 
REMARK   32  A    between atoms: N_37  and  C_40 
REMARK   33  A    between atoms: C_40  and  C_41 
REMARK   34  A    between atoms: C_41  and  C_42 
REMARK   35  A    between atoms: C_42  and  N_43 
REMARK       I    between atoms: N_43  and  C_44 
REMARK   36  A    between atoms: C_44  and  C_46 
REMARK   37  A    between atoms: C_46  and  C_47 
REMARK   38  A    between atoms: C_47  and  C_48 
REMARK   39  A    between atoms: C_48  and  C_49 
REMARK   40  A    between atoms: C_49  and  C_50 
REMARK   41  A    between atoms: C_50  and  C_51 
REMARK   42  A    between atoms: C_51  and  C_52 
REMARK   43  A    between atoms: C_52  and  C_53 
REMARK   44  A    between atoms: C_54  and  C_55 
REMARK   45  A    between atoms: C_55  and  C_56 
REMARK   46  A    between atoms: C_57  and  C_58 
REMARK   47  A    between atoms: C_58  and  C_59 
REMARK   48  A    between atoms: C_59  and  C_60 
REMARK   49  A    between atoms: C_60  and  C_61 
REMARK   50  A    between atoms: O_64  and  C_65 
REMARK   51  A    between atoms: C_65  and  C_66 
REMARK   52  A    between atoms: C_66  and  C_67 
REMARK   53  A    between atoms: C_66  and  O_94 
REMARK   54  A    between atoms: C_67  and  N_68 
REMARK   55  A    between atoms: N_68  and  C_71 
REMARK   56  A    between atoms: C_71  and  C_72 
REMARK   57  A    between atoms: C_72  and  C_73 
REMARK   58  A    between atoms: C_73  and  N_74 
REMARK       I    between atoms: N_74  and  C_75 
REMARK   59  A    between atoms: C_75  and  C_77 
REMARK   60  A    between atoms: C_77  and  C_78 
REMARK   61  A    between atoms: C_78  and  C_79 
REMARK   62  A    between atoms: C_79  and  C_80 
REMARK   63  A    between atoms: C_80  and  C_81 
REMARK   64  A    between atoms: C_81  and  C_82 
REMARK   65  A    between atoms: C_82  and  C_83 
REMARK   66  A    between atoms: C_83  and  C_84 
REMARK   67  A    between atoms: C_85  and  C_86 
REMARK   68  A    between atoms: C_86  and  C_87 
REMARK   69  A    between atoms: C_88  and  C_89 
REMARK   70  A    between atoms: C_89  and  C_90 
REMARK   71  A    between atoms: C_90  and  C_91 
REMARK   72  A    between atoms: C_91  and  C_92 
ROOT
HETATM    1 CL   UNL     2     -10.259   5.356  -1.798  1.00  0.00     0.000 Cl
ENDROOT
TORSDOF 72
BEGIN_RES ARG D 557
REMARK  4 active torsions:
REMARK  status: ('A' for Active; 'I' for Inactive)
REMARK    1  A    between atoms: CA   and  CB  
REMARK    2  A    between atoms: CB   and  CG  
REMARK    3  A    between atoms: CG   and  CD  
REMARK    4  A    between atoms: CD   and  NE  
REMARK       I    between atoms: NE   and  CZ  
REMARK       I    between atoms: CZ   and  NH1 
REMARK       I    between atoms: CZ   and  NH2 
ROOT
ATOM      1  CA  ARG D 557     -26.217   2.705 -17.014  1.00 35.49     0.159 C 
ENDROOT
BRANCH   1   2
ATOM      2  CB  ARG D 557     -26.789   1.319 -17.183  1.00 35.49     0.034 C 
BRANCH   2   3
ATOM      3  CG  ARG D 557     -25.836   0.203 -17.153  1.00 35.49     0.027 C 
BRANCH   3   4
ATOM      4  CD  ARG D 557     -24.751   0.414 -16.168  1.00 35.49     0.116 C 
BRANCH   4   5
ATOM      5  NE  ARG D 557     -24.893  -0.435 -15.014  1.00 35.49    -0.212 N 
ATOM      6  CZ  ARG D 557     -24.079  -1.407 -14.670  1.00 35.49     0.666 C 
ATOM      7  NH1 ARG D 557     -23.014  -1.726 -15.383  1.00 35.49    -0.235 N 
ATOM      8  NH2 ARG D 557     -24.351  -2.060 -13.578  1.00 35.49    -0.235 N 
ATOM      9  HH  ARG D 557     -22.815  -1.308 -16.104  1.00 35.49     0.174 HD
ATOM     10  HH  ARG D 557     -22.518  -2.367 -15.108  1.00 35.49     0.174 HD
ATOM     11  HH  ARG D 557     -25.041  -1.828 -13.134  1.00 35.49     0.174 HD
ATOM     12  HH  ARG D 557     -23.846  -2.692 -13.322  1.00 35.49     0.174 HD
ATOM     13  HE  ARG D 557     -25.592  -0.347 -14.537  1.00 35.49     0.178 HD
ENDBRANCH   4   5
ENDBRANCH   3   4
ENDBRANCH   2   3
ENDBRANCH   1   2
END_RES ARG D 557
BEGIN_RES GLU D 570
REMARK  3 active torsions:
REMARK  status: ('A' for Active; 'I' for Inactive)
REMARK    5  A    between atoms: CA   and  CB  
REMARK    6  A    between atoms: CB   and  CG  
REMARK    7  A    between atoms: CG   and  CD  
ROOT
ATOM     14  CA  GLU D 570     -18.033  -6.348 -13.375  1.00 32.92     0.160 C 
ENDROOT
BRANCH  14  15
ATOM     15  CB  GLU D 570     -19.500  -6.345 -13.794  1.00 32.92     0.043 C 
BRANCH  15  16
ATOM     16  CG  GLU D 570     -20.447  -5.553 -12.967  1.00 32.92     0.100 C 
BRANCH  16  17
ATOM     17  CD  GLU D 570     -21.738  -5.239 -13.686  1.00 32.92     0.185 C 
ATOM     18  OE1 GLU D 570     -22.257  -4.117 -13.534  1.00 32.92    -0.647 OA
ATOM     19  OE2 GLU D 570     -22.243  -6.131 -14.396  1.00 32.92    -0.647 OA
ENDBRANCH  16  17
ENDBRANCH  15  16
ENDBRANCH  14  15
END_RES GLU D 570
ENDMDL
MODEL 5
REMARK VINA RESULT:      -0.9      5.466      5.546
REMARK WARNING: 32 MAX_TORS EXCEEDED!!!
REMARK  72 active torsions:
REMARK  status: ('A' for Active; 'I' for Inactive)
REMARK    1  A    between atoms: C_2  and  C_3 
REMARK    2  A    between atoms: C_3  and  C_4 
REMARK    3  A    between atoms: C_4  and  C_5 
REMARK    4  A    between atoms: C_5  and  C_6 
REMARK    5  A    between atoms: C_7  and  C_8 
REMARK    6  A    between atoms: C_8  and  C_9 
REMARK    7  A    between atoms: C_10  and  C_11 
REMARK    8  A    between atoms: C_11  and  C_12 
REMARK    9  A    between atoms: C_12  and  C_13 
REMARK   10  A    between atoms: C_13  and  C_14 
REMARK   11  A    between atoms: C_14  and  C_15 
REMARK   12  A    between atoms: C_15  and  C_16 
REMARK   13  A    between atoms: C_16  and  C_17 
REMARK   14  A    between atoms: C_17  and  C_18 
REMARK       I    between atoms: C_18  and  N_20 
REMARK   15  A    between atoms: N_20  and  C_21 
REMARK   16  A    between atoms: C_21  and  C_22 
REMARK   17  A    between atoms: C_22  and  C_23 
REMARK   18  A    between atoms: C_23  and  N_24 
REMARK   19  A    between atoms: N_24  and  C_27 
REMARK   20  A    between atoms: C_27  and  C_28 
REMARK   21  A    between atoms: C_28  and  C_29 
REMARK   22  A    between atoms: C_28  and  O_95 
REMARK   23  A    between atoms: C_29  and  O_30 
REMARK   24  A    between atoms: O_30  and  P_31 
REMARK   25  A    between atoms: P_31  and  O_33 
REMARK   26  A    between atoms: P_31  and  O_64 
REMARK   27  A    between atoms: O_33  and  C_34 
REMARK   28  A    between atoms: C_34  and  C_35 
REMARK   29  A    between atoms: C_35  and  C_36 
REMARK   30  A    between atoms: C_35  and  O_63 
REMARK   31  A    between atoms: C_36  and  N_37 
REMARK   32  A    between atoms: N_37  and  C_40 
REMARK   33  A    between atoms: C_40  and  C_41 
REMARK   34  A    between atoms: C_41  and  C_42 
REMARK   35  A    between atoms: C_42  and  N_43 
REMARK       I    between atoms: N_43  and  C_44 
REMARK   36  A    between atoms: C_44  and  C_46 
REMARK   37  A    between atoms: C_46  and  C_47 
REMARK   38  A    between atoms: C_47  and  C_48 
REMARK   39  A    between atoms: C_48  and  C_49 
REMARK   40  A    between atoms: C_49  and  C_50 
REMARK   41  A    between atoms: C_50  and  C_51 
REMARK   42  A    between atoms: C_51  and  C_52 
REMARK   43  A    between atoms: C_52  and  C_53 
REMARK   44  A    between atoms: C_54  and  C_55 
REMARK   45  A    between atoms: C_55  and  C_56 
REMARK   46  A    between atoms: C_57  and  C_58 
REMARK   47  A    between atoms: C_58  and  C_59 
REMARK   48  A    between atoms: C_59  and  C_60 
REMARK   49  A    between atoms: C_60  and  C_61 
REMARK   50  A    between atoms: O_64  and  C_65 
REMARK   51  A    between atoms: C_65  and  C_66 
REMARK   52  A    between atoms: C_66  and  C_67 
REMARK   53  A    between atoms: C_66  and  O_94 
REMARK   54  A    between atoms: C_67  and  N_68 
REMARK   55  A    between atoms: N_68  and  C_71 
REMARK   56  A    between atoms: C_71  and  C_72 
REMARK   57  A    between atoms: C_72  and  C_73 
REMARK   58  A    between atoms: C_73  and  N_74 
REMARK       I    between atoms: N_74  and  C_75 
REMARK   59  A    between atoms: C_75  and  C_77 
REMARK   60  A    between atoms: C_77  and  C_78 
REMARK   61  A    between atoms: C_78  and  C_79 
REMARK   62  A    between atoms: C_79  and  C_80 
REMARK   63  A    between atoms: C_80  and  C_81 
REMARK   64  A    between atoms: C_81  and  C_82 
REMARK   65  A    between atoms: C_82  and  C_83 
REMARK   66  A    between atoms: C_83  and  C_84 
REMARK   67  A    between atoms: C_85  and  C_86 
REMARK   68  A    between atoms: C_86  and  C_87 
REMARK   69  A    between atoms: C_88  and  C_89 
REMARK   70  A    between atoms: C_89  and  C_90 
REMARK   71  A    between atoms: C_90  and  C_91 
REMARK   72  A    between atoms: C_91  and  C_92 
ROOT
HETATM    1 CL   UNL     2     -29.766 -15.258   0.381  1.00  0.00     0.000 Cl
ENDROOT
TORSDOF 72
BEGIN_RES ARG D 557
REMARK  4 active torsions:
REMARK  status: ('A' for Active; 'I' for Inactive)
REMARK    1  A    between atoms: CA   and  CB  
REMARK    2  A    between atoms: CB   and  CG  
REMARK    3  A    between atoms: CG   and  CD  
REMARK    4  A    between atoms: CD   and  NE  
REMARK       I    between atoms: NE   and  CZ  
REMARK       I    between atoms: CZ   and  NH1 
REMARK       I    between atoms: CZ   and  NH2 
ROOT
ATOM      1  CA  ARG D 557     -26.217   2.705 -17.014  1.00 35.49     0.159 C 
ENDROOT
BRANCH   1   2
ATOM      2  CB  ARG D 557     -26.789   1.319 -17.183  1.00 35.49     0.034 C 
BRANCH   2   3
ATOM      3  CG  ARG D 557     -25.837   0.202 -17.148  1.00 35.49     0.027 C 
BRANCH   3   4
ATOM      4  CD  ARG D 557     -24.757   0.413 -16.156  1.00 35.49     0.116 C 
BRANCH   4   5
ATOM      5  NE  ARG D 557     -24.901  -0.444 -15.008  1.00 35.49    -0.212 N 
ATOM      6  CZ  ARG D 557     -24.081  -1.412 -14.665  1.00 35.49     0.666 C 
ATOM      7  NH1 ARG D 557     -23.009  -1.718 -15.373  1.00 35.49    -0.235 N 
ATOM      8  NH2 ARG D 557     -24.355  -2.075 -13.579  1.00 35.49    -0.235 N 
ATOM      9  HH  ARG D 557     -22.808  -1.294 -16.089  1.00 35.49     0.174 HD
ATOM     10  HH  ARG D 557     -22.509  -2.357 -15.098  1.00 35.49     0.174 HD
ATOM     11  HH  ARG D 557     -25.050  -1.850 -13.138  1.00 35.49     0.174 HD
ATOM     12  HH  ARG D 557     -23.847  -2.704 -13.323  1.00 35.49     0.174 HD
ATOM     13  HE  ARG D 557     -25.604  -0.365 -14.536  1.00 35.49     0.178 HD
ENDBRANCH   4   5
ENDBRANCH   3   4
ENDBRANCH   2   3
ENDBRANCH   1   2
END_RES ARG D 557
BEGIN_RES GLU D 570
REMARK  3 active torsions:
REMARK  status: ('A' for Active; 'I' for Inactive)
REMARK    5  A    between atoms: CA   and  CB  
REMARK    6  A    between atoms: CB   and  CG  
REMARK    7  A    between atoms: CG   and  CD  
ROOT
ATOM     14  CA  GLU D 570     -18.033  -6.348 -13.375  1.00 32.92     0.160 C 
ENDROOT
BRANCH  14  15
ATOM     15  CB  GLU D 570     -19.500  -6.345 -13.794  1.00 32.92     0.043 C 
BRANCH  15  16
ATOM     16  CG  GLU D 570     -20.443  -5.537 -12.978  1.00 32.92     0.100 C 
BRANCH  16  17
ATOM     17  CD  GLU D 570     -21.738  -5.239 -13.697  1.00 32.92     0.185 C 
ATOM     18  OE1 GLU D 570     -22.272  -4.124 -13.546  1.00 32.92    -0.647 OA
ATOM     19  OE2 GLU D 570     -22.233  -6.138 -14.407  1.00 32.92    -0.647 OA
ENDBRANCH  16  17
ENDBRANCH  15  16
ENDBRANCH  14  15
END_RES GLU D 570
ENDMDL
MODEL 6
REMARK VINA RESULT:      -0.8      4.647      4.740
REMARK WARNING: 32 MAX_TORS EXCEEDED!!!
REMARK  72 active torsions:
REMARK  status: ('A' for Active; 'I' for Inactive)
REMARK    1  A    between atoms: C_2  and  C_3 
REMARK    2  A    between atoms: C_3  and  C_4 
REMARK    3  A    between atoms: C_4  and  C_5 
REMARK    4  A    between atoms: C_5  and  C_6 
REMARK    5  A    between atoms: C_7  and  C_8 
REMARK    6  A    between atoms: C_8  and  C_9 
REMARK    7  A    between atoms: C_10  and  C_11 
REMARK    8  A    between atoms: C_11  and  C_12 
REMARK    9  A    between atoms: C_12  and  C_13 
REMARK   10  A    between atoms: C_13  and  C_14 
REMARK   11  A    between atoms: C_14  and  C_15 
REMARK   12  A    between atoms: C_15  and  C_16 
REMARK   13  A    between atoms: C_16  and  C_17 
REMARK   14  A    between atoms: C_17  and  C_18 
REMARK       I    between atoms: C_18  and  N_20 
REMARK   15  A    between atoms: N_20  and  C_21 
REMARK   16  A    between atoms: C_21  and  C_22 
REMARK   17  A    between atoms: C_22  and  C_23 
REMARK   18  A    between atoms: C_23  and  N_24 
REMARK   19  A    between atoms: N_24  and  C_27 
REMARK   20  A    between atoms: C_27  and  C_28 
REMARK   21  A    between atoms: C_28  and  C_29 
REMARK   22  A    between atoms: C_28  and  O_95 
REMARK   23  A    between atoms: C_29  and  O_30 
REMARK   24  A    between atoms: O_30  and  P_31 
REMARK   25  A    between atoms: P_31  and  O_33 
REMARK   26  A    between atoms: P_31  and  O_64 
REMARK   27  A    between atoms: O_33  and  C_34 
REMARK   28  A    between atoms: C_34  and  C_35 
REMARK   29  A    between atoms: C_35  and  C_36 
REMARK   30  A    between atoms: C_35  and  O_63 
REMARK   31  A    between atoms: C_36  and  N_37 
REMARK   32  A    between atoms: N_37  and  C_40 
REMARK   33  A    between atoms: C_40  and  C_41 
REMARK   34  A    between atoms: C_41  and  C_42 
REMARK   35  A    between atoms: C_42  and  N_43 
REMARK       I    between atoms: N_43  and  C_44 
REMARK   36  A    between atoms: C_44  and  C_46 
REMARK   37  A    between atoms: C_46  and  C_47 
REMARK   38  A    between atoms: C_47  and  C_48 
REMARK   39  A    between atoms: C_48  and  C_49 
REMARK   40  A    between atoms: C_49  and  C_50 
REMARK   41  A    between atoms: C_50  and  C_51 
REMARK   42  A    between atoms: C_51  and  C_52 
REMARK   43  A    between atoms: C_52  and  C_53 
REMARK   44  A    between atoms: C_54  and  C_55 
REMARK   45  A    between atoms: C_55  and  C_56 
REMARK   46  A    between atoms: C_57  and  C_58 
REMARK   47  A    between atoms: C_58  and  C_59 
REMARK   48  A    between atoms: C_59  and  C_60 
REMARK   49  A    between atoms: C_60  and  C_61 
REMARK   50  A    between atoms: O_64  and  C_65 
REMARK   51  A    between atoms: C_65  and  C_66 
REMARK   52  A    between atoms: C_66  and  C_67 
REMARK   53  A    between atoms: C_66  and  O_94 
REMARK   54  A    between atoms: C_67  and  N_68 
REMARK   55  A    between atoms: N_68  and  C_71 
REMARK   56  A    between atoms: C_71  and  C_72 
REMARK   57  A    between atoms: C_72  and  C_73 
REMARK   58  A    between atoms: C_73  and  N_74 
REMARK       I    between atoms: N_74  and  C_75 
REMARK   59  A    between atoms: C_75  and  C_77 
REMARK   60  A    between atoms: C_77  and  C_78 
REMARK   61  A    between atoms: C_78  and  C_79 
REMARK   62  A    between atoms: C_79  and  C_80 
REMARK   63  A    between atoms: C_80  and  C_81 
REMARK   64  A    between atoms: C_81  and  C_82 
REMARK   65  A    between atoms: C_82  and  C_83 
REMARK   66  A    between atoms: C_83  and  C_84 
REMARK   67  A    between atoms: C_85  and  C_86 
REMARK   68  A    between atoms: C_86  and  C_87 
REMARK   69  A    between atoms: C_88  and  C_89 
REMARK   70  A    between atoms: C_89  and  C_90 
REMARK   71  A    between atoms: C_90  and  C_91 
REMARK   72  A    between atoms: C_91  and  C_92 
ROOT
HETATM    1 CL   UNL     2     -23.821  -5.116 -10.545  1.00  0.00     0.000 Cl
ENDROOT
TORSDOF 72
BEGIN_RES ARG D 557
REMARK  4 active torsions:
REMARK  status: ('A' for Active; 'I' for Inactive)
REMARK    1  A    between atoms: CA   and  CB  
REMARK    2  A    between atoms: CB   and  CG  
REMARK    3  A    between atoms: CG   and  CD  
REMARK    4  A    between atoms: CD   and  NE  
REMARK       I    between atoms: NE   and  CZ  
REMARK       I    between atoms: CZ   and  NH1 
REMARK       I    between atoms: CZ   and  NH2 
ROOT
ATOM      1  CA  ARG D 557     -26.217   2.705 -17.014  1.00 35.49     0.159 C 
ENDROOT
BRANCH   1   2
ATOM      2  CB  ARG D 557     -26.789   1.319 -17.183  1.00 35.49     0.034 C 
BRANCH   2   3
ATOM      3  CG  ARG D 557     -25.836   0.203 -17.151  1.00 35.49     0.027 C 
BRANCH   3   4
ATOM      4  CD  ARG D 557     -24.756   0.411 -16.159  1.00 35.49     0.116 C 
BRANCH   4   5
ATOM      5  NE  ARG D 557     -24.902  -0.446 -15.012  1.00 35.49    -0.212 N 
ATOM      6  CZ  ARG D 557     -24.081  -1.412 -14.665  1.00 35.49     0.666 C 
ATOM      7  NH1 ARG D 557     -23.006  -1.715 -15.369  1.00 35.49    -0.235 N 
ATOM      8  NH2 ARG D 557     -24.357  -2.074 -13.580  1.00 35.49    -0.235 N 
ATOM      9  HH  ARG D 557     -22.803  -1.291 -16.086  1.00 35.49     0.174 HD
ATOM     10  HH  ARG D 557     -22.505  -2.354 -15.093  1.00 35.49     0.174 HD
ATOM     11  HH  ARG D 557     -25.054  -1.851 -13.141  1.00 35.49     0.174 HD
ATOM     12  HH  ARG D 557     -23.848  -2.702 -13.322  1.00 35.49     0.174 HD
ATOM     13  HE  ARG D 557     -25.606  -0.368 -14.542  1.00 35.49     0.178 HD
ENDBRANCH   4   5
ENDBRANCH   3   4
ENDBRANCH   2   3
ENDBRANCH   1   2
END_RES ARG D 557
BEGIN_RES GLU D 570
REMARK  3 active torsions:
REMARK  status: ('A' for Active; 'I' for Inactive)
REMARK    5  A    between atoms: CA   and  CB  
REMARK    6  A    between atoms: CB   and  CG  
REMARK    7  A    between atoms: CG   and  CD  
ROOT
ATOM     14  CA  GLU D 570     -18.033  -6.348 -13.375  1.00 32.92     0.160 C 
ENDROOT
BRANCH  14  15
ATOM     15  CB  GLU D 570     -19.500  -6.345 -13.794  1.00 32.92     0.043 C 
BRANCH  15  16
ATOM     16  CG  GLU D 570     -20.444  -5.539 -12.977  1.00 32.92     0.100 C 
BRANCH  16  17
ATOM     17  CD  GLU D 570     -21.743  -5.249 -13.691  1.00 32.92     0.185 C 
ATOM     18  OE1 GLU D 570     -22.303  -4.152 -13.508  1.00 32.92    -0.647 OA
ATOM     19  OE2 GLU D 570     -22.214  -6.136 -14.430  1.00 32.92    -0.647 OA
ENDBRANCH  16  17
ENDBRANCH  15  16
ENDBRANCH  14  15
END_RES GLU D 570
ENDMDL
MODEL 7
REMARK VINA RESULT:      -0.8      5.375      5.375
REMARK WARNING: 32 MAX_TORS EXCEEDED!!!
REMARK  72 active torsions:
REMARK  status: ('A' for Active; 'I' for Inactive)
REMARK    1  A    between atoms: C_2  and  C_3 
REMARK    2  A    between atoms: C_3  and  C_4 
REMARK    3  A    between atoms: C_4  and  C_5 
REMARK    4  A    between atoms: C_5  and  C_6 
REMARK    5  A    between atoms: C_7  and  C_8 
REMARK    6  A    between atoms: C_8  and  C_9 
REMARK    7  A    between atoms: C_10  and  C_11 
REMARK    8  A    between atoms: C_11  and  C_12 
REMARK    9  A    between atoms: C_12  and  C_13 
REMARK   10  A    between atoms: C_13  and  C_14 
REMARK   11  A    between atoms: C_14  and  C_15 
REMARK   12  A    between atoms: C_15  and  C_16 
REMARK   13  A    between atoms: C_16  and  C_17 
REMARK   14  A    between atoms: C_17  and  C_18 
REMARK       I    between atoms: C_18  and  N_20 
REMARK   15  A    between atoms: N_20  and  C_21 
REMARK   16  A    between atoms: C_21  and  C_22 
REMARK   17  A    between atoms: C_22  and  C_23 
REMARK   18  A    between atoms: C_23  and  N_24 
REMARK   19  A    between atoms: N_24  and  C_27 
REMARK   20  A    between atoms: C_27  and  C_28 
REMARK   21  A    between atoms: C_28  and  C_29 
REMARK   22  A    between atoms: C_28  and  O_95 
REMARK   23  A    between atoms: C_29  and  O_30 
REMARK   24  A    between atoms: O_30  and  P_31 
REMARK   25  A    between atoms: P_31  and  O_33 
REMARK   26  A    between atoms: P_31  and  O_64 
REMARK   27  A    between atoms: O_33  and  C_34 
REMARK   28  A    between atoms: C_34  and  C_35 
REMARK   29  A    between atoms: C_35  and  C_36 
REMARK   30  A    between atoms: C_35  and  O_63 
REMARK   31  A    between atoms: C_36  and  N_37 
REMARK   32  A    between atoms: N_37  and  C_40 
REMARK   33  A    between atoms: C_40  and  C_41 
REMARK   34  A    between atoms: C_41  and  C_42 
REMARK   35  A    between atoms: C_42  and  N_43 
REMARK       I    between atoms: N_43  and  C_44 
REMARK   36  A    between atoms: C_44  and  C_46 
REMARK   37  A    between atoms: C_46  and  C_47 
REMARK   38  A    between atoms: C_47  and  C_48 
REMARK   39  A    between atoms: C_48  and  C_49 
REMARK   40  A    between atoms: C_49  and  C_50 
REMARK   41  A    between atoms: C_50  and  C_51 
REMARK   42  A    between atoms: C_51  and  C_52 
REMARK   43  A    between atoms: C_52  and  C_53 
REMARK   44  A    between atoms: C_54  and  C_55 
REMARK   45  A    between atoms: C_55  and  C_56 
REMARK   46  A    between atoms: C_57  and  C_58 
REMARK   47  A    between atoms: C_58  and  C_59 
REMARK   48  A    between atoms: C_59  and  C_60 
REMARK   49  A    between atoms: C_60  and  C_61 
REMARK   50  A    between atoms: O_64  and  C_65 
REMARK   51  A    between atoms: C_65  and  C_66 
REMARK   52  A    between atoms: C_66  and  C_67 
REMARK   53  A    between atoms: C_66  and  O_94 
REMARK   54  A    between atoms: C_67  and  N_68 
REMARK   55  A    between atoms: N_68  and  C_71 
REMARK   56  A    between atoms: C_71  and  C_72 
REMARK   57  A    between atoms: C_72  and  C_73 
REMARK   58  A    between atoms: C_73  and  N_74 
REMARK       I    between atoms: N_74  and  C_75 
REMARK   59  A    between atoms: C_75  and  C_77 
REMARK   60  A    between atoms: C_77  and  C_78 
REMARK   61  A    between atoms: C_78  and  C_79 
REMARK   62  A    between atoms: C_79  and  C_80 
REMARK   63  A    between atoms: C_80  and  C_81 
REMARK   64  A    between atoms: C_81  and  C_82 
REMARK   65  A    between atoms: C_82  and  C_83 
REMARK   66  A    between atoms: C_83  and  C_84 
REMARK   67  A    between atoms: C_85  and  C_86 
REMARK   68  A    between atoms: C_86  and  C_87 
REMARK   69  A    between atoms: C_88  and  C_89 
REMARK   70  A    between atoms: C_89  and  C_90 
REMARK   71  A    between atoms: C_90  and  C_91 
REMARK   72  A    between atoms: C_91  and  C_92 
ROOT
HETATM    1 CL   UNL     2     -29.893 -15.249  -9.206  1.00  0.00     0.000 Cl
ENDROOT
TORSDOF 72
BEGIN_RES ARG D 557
REMARK  4 active torsions:
REMARK  status: ('A' for Active; 'I' for Inactive)
REMARK    1  A    between atoms: CA   and  CB  
REMARK    2  A    between atoms: CB   and  CG  
REMARK    3  A    between atoms: CG   and  CD  
REMARK    4  A    between atoms: CD   and  NE  
REMARK       I    between atoms: NE   and  CZ  
REMARK       I    between atoms: CZ   and  NH1 
REMARK       I    between atoms: CZ   and  NH2 
ROOT
ATOM      1  CA  ARG D 557     -26.217   2.705 -17.014  1.00 35.49     0.159 C 
ENDROOT
BRANCH   1   2
ATOM      2  CB  ARG D 557     -26.789   1.319 -17.183  1.00 35.49     0.034 C 
BRANCH   2   3
ATOM      3  CG  ARG D 557     -25.836   0.203 -17.153  1.00 35.49     0.027 C 
BRANCH   3   4
ATOM      4  CD  ARG D 557     -24.752   0.413 -16.167  1.00 35.49     0.116 C 
BRANCH   4   5
ATOM      5  NE  ARG D 557     -24.895  -0.436 -15.014  1.00 35.49    -0.212 N 
ATOM      6  CZ  ARG D 557     -24.080  -1.407 -14.669  1.00 35.49     0.666 C 
ATOM      7  NH1 ARG D 557     -23.014  -1.724 -15.380  1.00 35.49    -0.235 N 
ATOM      8  NH2 ARG D 557     -24.354  -2.062 -13.577  1.00 35.49    -0.235 N 
ATOM      9  HH  ARG D 557     -22.813  -1.306 -16.100  1.00 35.49     0.174 HD
ATOM     10  HH  ARG D 557     -22.517  -2.366 -15.104  1.00 35.49     0.174 HD
ATOM     11  HH  ARG D 557     -25.045  -1.830 -13.135  1.00 35.49     0.174 HD
ATOM     12  HH  ARG D 557     -23.849  -2.693 -13.321  1.00 35.49     0.174 HD
ATOM     13  HE  ARG D 557     -25.595  -0.349 -14.538  1.00 35.49     0.178 HD
ENDBRANCH   4   5
ENDBRANCH   3   4
ENDBRANCH   2   3
ENDBRANCH   1   2
END_RES ARG D 557
BEGIN_RES GLU D 570
REMARK  3 active torsions:
REMARK  status: ('A' for Active; 'I' for Inactive)
REMARK    5  A    between atoms: CA   and  CB  
REMARK    6  A    between atoms: CB   and  CG  
REMARK    7  A    between atoms: CG   and  CD  
ROOT
ATOM     14  CA  GLU D 570     -18.033  -6.348 -13.375  1.00 32.92     0.160 C 
ENDROOT
BRANCH  14  15
ATOM     15  CB  GLU D 570     -19.500  -6.345 -13.794  1.00 32.92     0.043 C 
BRANCH  15  16
ATOM     16  CG  GLU D 570     -20.444  -5.541 -12.975  1.00 32.92     0.100 C 
BRANCH  16  17
ATOM     17  CD  GLU D 570     -21.742  -5.247 -13.691  1.00 32.92     0.185 C 
ATOM     18  OE1 GLU D 570     -22.236  -6.120 -14.431  1.00 32.92    -0.647 OA
ATOM     19  OE2 GLU D 570     -22.261  -4.126 -13.523  1.00 32.92    -0.647 OA
ENDBRANCH  16  17
ENDBRANCH  15  16
ENDBRANCH  14  15
END_RES GLU D 570
ENDMDL
MODEL 8
REMARK VINA RESULT:      -0.8      5.086      5.171
REMARK WARNING: 32 MAX_TORS EXCEEDED!!!
REMARK  72 active torsions:
REMARK  status: ('A' for Active; 'I' for Inactive)
REMARK    1  A    between atoms: C_2  and  C_3 
REMARK    2  A    between atoms: C_3  and  C_4 
REMARK    3  A    between atoms: C_4  and  C_5 
REMARK    4  A    between atoms: C_5  and  C_6 
REMARK    5  A    between atoms: C_7  and  C_8 
REMARK    6  A    between atoms: C_8  and  C_9 
REMARK    7  A    between atoms: C_10  and  C_11 
REMARK    8  A    between atoms: C_11  and  C_12 
REMARK    9  A    between atoms: C_12  and  C_13 
REMARK   10  A    between atoms: C_13  and  C_14 
REMARK   11  A    between atoms: C_14  and  C_15 
REMARK   12  A    between atoms: C_15  and  C_16 
REMARK   13  A    between atoms: C_16  and  C_17 
REMARK   14  A    between atoms: C_17  and  C_18 
REMARK       I    between atoms: C_18  and  N_20 
REMARK   15  A    between atoms: N_20  and  C_21 
REMARK   16  A    between atoms: C_21  and  C_22 
REMARK   17  A    between atoms: C_22  and  C_23 
REMARK   18  A    between atoms: C_23  and  N_24 
REMARK   19  A    between atoms: N_24  and  C_27 
REMARK   20  A    between atoms: C_27  and  C_28 
REMARK   21  A    between atoms: C_28  and  C_29 
REMARK   22  A    between atoms: C_28  and  O_95 
REMARK   23  A    between atoms: C_29  and  O_30 
REMARK   24  A    between atoms: O_30  and  P_31 
REMARK   25  A    between atoms: P_31  and  O_33 
REMARK   26  A    between atoms: P_31  and  O_64 
REMARK   27  A    between atoms: O_33  and  C_34 
REMARK   28  A    between atoms: C_34  and  C_35 
REMARK   29  A    between atoms: C_35  and  C_36 
REMARK   30  A    between atoms: C_35  and  O_63 
REMARK   31  A    between atoms: C_36  and  N_37 
REMARK   32  A    between atoms: N_37  and  C_40 
REMARK   33  A    between atoms: C_40  and  C_41 
REMARK   34  A    between atoms: C_41  and  C_42 
REMARK   35  A    between atoms: C_42  and  N_43 
REMARK       I    between atoms: N_43  and  C_44 
REMARK   36  A    between atoms: C_44  and  C_46 
REMARK   37  A    between atoms: C_46  and  C_47 
REMARK   38  A    between atoms: C_47  and  C_48 
REMARK   39  A    between atoms: C_48  and  C_49 
REMARK   40  A    between atoms: C_49  and  C_50 
REMARK   41  A    between atoms: C_50  and  C_51 
REMARK   42  A    between atoms: C_51  and  C_52 
REMARK   43  A    between atoms: C_52  and  C_53 
REMARK   44  A    between atoms: C_54  and  C_55 
REMARK   45  A    between atoms: C_55  and  C_56 
REMARK   46  A    between atoms: C_57  and  C_58 
REMARK   47  A    between atoms: C_58  and  C_59 
REMARK   48  A    between atoms: C_59  and  C_60 
REMARK   49  A    between atoms: C_60  and  C_61 
REMARK   50  A    between atoms: O_64  and  C_65 
REMARK   51  A    between atoms: C_65  and  C_66 
REMARK   52  A    between atoms: C_66  and  C_67 
REMARK   53  A    between atoms: C_66  and  O_94 
REMARK   54  A    between atoms: C_67  and  N_68 
REMARK   55  A    between atoms: N_68  and  C_71 
REMARK   56  A    between atoms: C_71  and  C_72 
REMARK   57  A    between atoms: C_72  and  C_73 
REMARK   58  A    between atoms: C_73  and  N_74 
REMARK       I    between atoms: N_74  and  C_75 
REMARK   59  A    between atoms: C_75  and  C_77 
REMARK   60  A    between atoms: C_77  and  C_78 
REMARK   61  A    between atoms: C_78  and  C_79 
REMARK   62  A    between atoms: C_79  and  C_80 
REMARK   63  A    between atoms: C_80  and  C_81 
REMARK   64  A    between atoms: C_81  and  C_82 
REMARK   65  A    between atoms: C_82  and  C_83 
REMARK   66  A    between atoms: C_83  and  C_84 
REMARK   67  A    between atoms: C_85  and  C_86 
REMARK   68  A    between atoms: C_86  and  C_87 
REMARK   69  A    between atoms: C_88  and  C_89 
REMARK   70  A    between atoms: C_89  and  C_90 
REMARK   71  A    between atoms: C_90  and  C_91 
REMARK   72  A    between atoms: C_91  and  C_92 
ROOT
HETATM    1 CL   UNL     2     -28.897  -5.024 -18.594  1.00  0.00     0.000 Cl
ENDROOT
TORSDOF 72
BEGIN_RES ARG D 557
REMARK  4 active torsions:
REMARK  status: ('A' for Active; 'I' for Inactive)
REMARK    1  A    between atoms: CA   and  CB  
REMARK    2  A    between atoms: CB   and  CG  
REMARK    3  A    between atoms: CG   and  CD  
REMARK    4  A    between atoms: CD   and  NE  
REMARK       I    between atoms: NE   and  CZ  
REMARK       I    between atoms: CZ   and  NH1 
REMARK       I    between atoms: CZ   and  NH2 
ROOT
ATOM      1  CA  ARG D 557     -26.217   2.705 -17.014  1.00 35.49     0.159 C 
ENDROOT
BRANCH   1   2
ATOM      2  CB  ARG D 557     -26.789   1.319 -17.183  1.00 35.49     0.034 C 
BRANCH   2   3
ATOM      3  CG  ARG D 557     -25.834   0.204 -17.171  1.00 35.49     0.027 C 
BRANCH   3   4
ATOM      4  CD  ARG D 557     -24.759   0.393 -16.170  1.00 35.49     0.116 C 
BRANCH   4   5
ATOM      5  NE  ARG D 557     -24.930  -0.460 -15.024  1.00 35.49    -0.212 N 
ATOM      6  CZ  ARG D 557     -24.125  -1.435 -14.665  1.00 35.49     0.666 C 
ATOM      7  NH1 ARG D 557     -23.045  -1.753 -15.354  1.00 35.49    -0.235 N 
ATOM      8  NH2 ARG D 557     -24.424  -2.092 -13.582  1.00 35.49    -0.235 N 
ATOM      9  HH  ARG D 557     -22.828  -1.333 -16.069  1.00 35.49     0.174 HD
ATOM     10  HH  ARG D 557     -22.557  -2.398 -15.071  1.00 35.49     0.174 HD
ATOM     11  HH  ARG D 557     -25.124  -1.860 -13.153  1.00 35.49     0.174 HD
ATOM     12  HH  ARG D 557     -23.927  -2.726 -13.317  1.00 35.49     0.174 HD
ATOM     13  HE  ARG D 557     -25.639  -0.372 -14.563  1.00 35.49     0.178 HD
ENDBRANCH   4   5
ENDBRANCH   3   4
ENDBRANCH   2   3
ENDBRANCH   1   2
END_RES ARG D 557
BEGIN_RES GLU D 570
REMARK  3 active torsions:
REMARK  status: ('A' for Active; 'I' for Inactive)
REMARK    5  A    between atoms: CA   and  CB  
REMARK    6  A    between atoms: CB   and  CG  
REMARK    7  A    between atoms: CG   and  CD  
ROOT
ATOM     14  CA  GLU D 570     -18.033  -6.348 -13.375  1.00 32.92     0.160 C 
ENDROOT
BRANCH  14  15
ATOM     15  CB  GLU D 570     -19.500  -6.345 -13.794  1.00 32.92     0.043 C 
BRANCH  15  16
ATOM     16  CG  GLU D 570     -20.441  -5.527 -12.986  1.00 32.92     0.100 C 
BRANCH  16  17
ATOM     17  CD  GLU D 570     -21.745  -5.252 -13.698  1.00 32.92     0.185 C 
ATOM     18  OE1 GLU D 570     -22.304  -4.151 -13.534  1.00 32.92    -0.647 OA
ATOM     19  OE2 GLU D 570     -22.220  -6.154 -14.416  1.00 32.92    -0.647 OA
ENDBRANCH  16  17
ENDBRANCH  15  16
ENDBRANCH  14  15
END_RES GLU D 570
ENDMDL
MODEL 9
REMARK VINA RESULT:      -0.7      5.080      5.137
REMARK WARNING: 32 MAX_TORS EXCEEDED!!!
REMARK  72 active torsions:
REMARK  status: ('A' for Active; 'I' for Inactive)
REMARK    1  A    between atoms: C_2  and  C_3 
REMARK    2  A    between atoms: C_3  and  C_4 
REMARK    3  A    between atoms: C_4  and  C_5 
REMARK    4  A    between atoms: C_5  and  C_6 
REMARK    5  A    between atoms: C_7  and  C_8 
REMARK    6  A    between atoms: C_8  and  C_9 
REMARK    7  A    between atoms: C_10  and  C_11 
REMARK    8  A    between atoms: C_11  and  C_12 
REMARK    9  A    between atoms: C_12  and  C_13 
REMARK   10  A    between atoms: C_13  and  C_14 
REMARK   11  A    between atoms: C_14  and  C_15 
REMARK   12  A    between atoms: C_15  and  C_16 
REMARK   13  A    between atoms: C_16  and  C_17 
REMARK   14  A    between atoms: C_17  and  C_18 
REMARK       I    between atoms: C_18  and  N_20 
REMARK   15  A    between atoms: N_20  and  C_21 
REMARK   16  A    between atoms: C_21  and  C_22 
REMARK   17  A    between atoms: C_22  and  C_23 
REMARK   18  A    between atoms: C_23  and  N_24 
REMARK   19  A    between atoms: N_24  and  C_27 
REMARK   20  A    between atoms: C_27  and  C_28 
REMARK   21  A    between atoms: C_28  and  C_29 
REMARK   22  A    between atoms: C_28  and  O_95 
REMARK   23  A    between atoms: C_29  and  O_30 
REMARK   24  A    between atoms: O_30  and  P_31 
REMARK   25  A    between atoms: P_31  and  O_33 
REMARK   26  A    between atoms: P_31  and  O_64 
REMARK   27  A    between atoms: O_33  and  C_34 
REMARK   28  A    between atoms: C_34  and  C_35 
REMARK   29  A    between atoms: C_35  and  C_36 
REMARK   30  A    between atoms: C_35  and  O_63 
REMARK   31  A    between atoms: C_36  and  N_37 
REMARK   32  A    between atoms: N_37  and  C_40 
REMARK   33  A    between atoms: C_40  and  C_41 
REMARK   34  A    between atoms: C_41  and  C_42 
REMARK   35  A    between atoms: C_42  and  N_43 
REMARK       I    between atoms: N_43  and  C_44 
REMARK   36  A    between atoms: C_44  and  C_46 
REMARK   37  A    between atoms: C_46  and  C_47 
REMARK   38  A    between atoms: C_47  and  C_48 
REMARK   39  A    between atoms: C_48  and  C_49 
REMARK   40  A    between atoms: C_49  and  C_50 
REMARK   41  A    between atoms: C_50  and  C_51 
REMARK   42  A    between atoms: C_51  and  C_52 
REMARK   43  A    between atoms: C_52  and  C_53 
REMARK   44  A    between atoms: C_54  and  C_55 
REMARK   45  A    between atoms: C_55  and  C_56 
REMARK   46  A    between atoms: C_57  and  C_58 
REMARK   47  A    between atoms: C_58  and  C_59 
REMARK   48  A    between atoms: C_59  and  C_60 
REMARK   49  A    between atoms: C_60  and  C_61 
REMARK   50  A    between atoms: O_64  and  C_65 
REMARK   51  A    between atoms: C_65  and  C_66 
REMARK   52  A    between atoms: C_66  and  C_67 
REMARK   53  A    between atoms: C_66  and  O_94 
REMARK   54  A    between atoms: C_67  and  N_68 
REMARK   55  A    between atoms: N_68  and  C_71 
REMARK   56  A    between atoms: C_71  and  C_72 
REMARK   57  A    between atoms: C_72  and  C_73 
REMARK   58  A    between atoms: C_73  and  N_74 
REMARK       I    between atoms: N_74  and  C_75 
REMARK   59  A    between atoms: C_75  and  C_77 
REMARK   60  A    between atoms: C_77  and  C_78 
REMARK   61  A    between atoms: C_78  and  C_79 
REMARK   62  A    between atoms: C_79  and  C_80 
REMARK   63  A    between atoms: C_80  and  C_81 
REMARK   64  A    between atoms: C_81  and  C_82 
REMARK   65  A    between atoms: C_82  and  C_83 
REMARK   66  A    between atoms: C_83  and  C_84 
REMARK   67  A    between atoms: C_85  and  C_86 
REMARK   68  A    between atoms: C_86  and  C_87 
REMARK   69  A    between atoms: C_88  and  C_89 
REMARK   70  A    between atoms: C_89  and  C_90 
REMARK   71  A    between atoms: C_90  and  C_91 
REMARK   72  A    between atoms: C_91  and  C_92 
ROOT
HETATM    1 CL   UNL     2     -22.301  -6.317  -1.590  1.00  0.00     0.000 Cl
ENDROOT
TORSDOF 72
BEGIN_RES ARG D 557
REMARK  4 active torsions:
REMARK  status: ('A' for Active; 'I' for Inactive)
REMARK    1  A    between atoms: CA   and  CB  
REMARK    2  A    between atoms: CB   and  CG  
REMARK    3  A    between atoms: CG   and  CD  
REMARK    4  A    between atoms: CD   and  NE  
REMARK       I    between atoms: NE   and  CZ  
REMARK       I    between atoms: CZ   and  NH1 
REMARK       I    between atoms: CZ   and  NH2 
ROOT
ATOM      1  CA  ARG D 557     -26.217   2.705 -17.014  1.00 35.49     0.159 C 
ENDROOT
BRANCH   1   2
ATOM      2  CB  ARG D 557     -26.789   1.319 -17.183  1.00 35.49     0.034 C 
BRANCH   2   3
ATOM      3  CG  ARG D 557     -25.864   0.195 -16.995  1.00 35.49     0.027 C 
BRANCH   3   4
ATOM      4  CD  ARG D 557     -26.268  -0.688 -15.877  1.00 35.49     0.116 C 
BRANCH   4   5
ATOM      5  NE  ARG D 557     -25.201  -0.891 -14.933  1.00 35.49    -0.212 N 
ATOM      6  CZ  ARG D 557     -24.889  -2.032 -14.360  1.00 35.49     0.666 C 
ATOM      7  NH1 ARG D 557     -25.556  -3.147 -14.591  1.00 35.49    -0.235 N 
ATOM      8  NH2 ARG D 557     -23.875  -2.036 -13.545  1.00 35.49    -0.235 N 
ATOM      9  HH  ARG D 557     -26.225  -3.168 -15.126  1.00 35.49     0.174 HD
ATOM     10  HH  ARG D 557     -25.305  -3.862 -14.191  1.00 35.49     0.174 HD
ATOM     11  HH  ARG D 557     -23.458  -1.303 -13.420  1.00 35.49     0.174 HD
ATOM     12  HH  ARG D 557     -23.641  -2.755 -13.159  1.00 35.49     0.174 HD
ATOM     13  HE  ARG D 557     -24.764  -0.210 -14.671  1.00 35.49     0.178 HD
ENDBRANCH   4   5
ENDBRANCH   3   4
ENDBRANCH   2   3
ENDBRANCH   1   2
END_RES ARG D 557
BEGIN_RES GLU D 570
REMARK  3 active torsions:
REMARK  status: ('A' for Active; 'I' for Inactive)
REMARK    5  A    between atoms: CA   and  CB  
REMARK    6  A    between atoms: CB   and  CG  
REMARK    7  A    between atoms: CG   and  CD  
ROOT
ATOM     14  CA  GLU D 570     -18.033  -6.348 -13.375  1.00 32.92     0.160 C 
ENDROOT
BRANCH  14  15
ATOM     15  CB  GLU D 570     -19.500  -6.345 -13.794  1.00 32.92     0.043 C 
BRANCH  15  16
ATOM     16  CG  GLU D 570     -20.447  -5.553 -12.967  1.00 32.92     0.100 C 
BRANCH  16  17
ATOM     17  CD  GLU D 570     -21.685  -5.136 -13.725  1.00 32.92     0.185 C 
ATOM     18  OE1 GLU D 570     -21.644  -5.082 -14.969  1.00 32.92    -0.647 OA
ATOM     19  OE2 GLU D 570     -22.704  -4.846 -13.066  1.00 32.92    -0.647 OA
ENDBRANCH  16  17
ENDBRANCH  15  16
ENDBRANCH  14  15
END_RES GLU D 570
ENDMDL
