MODEL 1
REMARK VINA RESULT:      -9.1      0.000      0.000
REMARK  9 active torsions:
REMARK  status: ('A' for Active; 'I' for Inactive)
REMARK    1  A    between atoms: C_7  and  C_10 
REMARK    2  A    between atoms: C_10  and  C_11 
REMARK       I    between atoms: C_11  and  N_14 
REMARK    3  A    between atoms: N_14  and  CA_15 
REMARK    4  A    between atoms: CA_15  and  CB_16 
REMARK    5  A    between atoms: CA_15  and  C_21 
REMARK    6  A    between atoms: CB_16  and  CG_17 
REMARK    7  A    between atoms: CG_17  and  CD_18 
REMARK    8  A    between atoms: CD_18  and  OE2_20 
REMARK    9  A    between atoms: C_21  and  OXT_23 
ROOT
HETATM    1  C   UNK A   0     -23.817  -5.360 -14.214  1.00  0.00     0.222 C 
HETATM    2  O   UNK A   0     -23.494  -6.415 -13.676  1.00  0.00    -0.273 OA
ATOM      3  N   GLU A   1     -24.776  -5.302 -15.197  1.00  0.00    -0.346 N 
ATOM      4  H   GLU A   1     -24.963  -4.425 -15.676  1.00  0.00     0.163 HD
ENDROOT
BRANCH   1   5
HETATM    5  C   UNK A   0     -23.243  -4.020 -13.785  1.00  0.00     0.143 C 
BRANCH   5   6
HETATM    6  C   UNK A   0     -23.319  -3.751 -12.315  1.00  0.00    -0.022 A 
HETATM    7  C   UNK A   0     -22.303  -3.964 -11.319  1.00  0.00    -0.001 A 
HETATM    8  C   UNK A   0     -22.861  -3.643 -10.080  1.00  0.00     0.042 A 
HETATM    9  C   UNK A   0     -20.970  -4.420 -11.348  1.00  0.00     0.014 A 
HETATM   10  C   UNK A   0     -22.153  -3.739  -8.875  1.00  0.00     0.030 A 
HETATM   11  N   UNK A   0     -24.161  -3.257 -10.305  1.00  0.00    -0.365 N 
HETATM   12  C   UNK A   0     -20.830  -4.181  -8.934  1.00  0.00     0.002 A 
HETATM   13  C   UNK A   0     -20.245  -4.520 -10.152  1.00  0.00     0.001 A 
HETATM   14  C   UNK A   0     -24.448  -3.316 -11.642  1.00  0.00     0.097 A 
HETATM   15  H   UNK A   0     -24.810  -2.990  -9.578  1.00  0.00     0.165 HD
ENDBRANCH   5   6
ENDBRANCH   1   5
BRANCH   3  16
ATOM     16  CA  GLU A   1     -25.475  -6.501 -15.659  1.00  0.00     0.182 C 
BRANCH  16  17
ATOM     17  CB  GLU A   1     -26.863  -6.133 -16.218  1.00  0.00     0.046 C 
BRANCH  17  18
ATOM     18  CG  GLU A   1     -27.994  -7.056 -15.767  1.00  0.00     0.112 C 
BRANCH  18  19
ATOM     19  CD  GLU A   1     -29.086  -7.109 -16.800  1.00  0.00     0.139 C 
ATOM     20  OE1 GLU A   1     -29.633  -6.102 -17.228  1.00  0.00    -0.650 OA
BRANCH  19  21
ATOM     21  OE2 GLU A   1     -29.341  -8.348 -17.269  1.00  0.00    -0.776 OA
ATOM     22  HE2 GLU A   1     -28.882  -8.575 -18.100  1.00  0.00     0.167 HD
ENDBRANCH  19  21
ENDBRANCH  18  19
ENDBRANCH  17  18
ENDBRANCH  16  17
BRANCH  16  23
ATOM     23  C   GLU A   1     -24.615  -7.165 -16.735  1.00  0.00     0.163 C 
ATOM     24  O   GLU A   1     -24.590  -6.789 -17.901  1.00  0.00    -0.648 OA
BRANCH  23  25
ATOM     25  OXT GLU A   1     -23.876  -8.205 -16.292  1.00  0.00    -0.775 OA
ATOM     26  HXT GLU A   1     -24.301  -9.086 -16.393  1.00  0.00     0.167 HD
ENDBRANCH  23  25
ENDBRANCH  16  23
ENDBRANCH   3  16
TORSDOF 9
BEGIN_RES ARG D 557
REMARK  4 active torsions:
REMARK  status: ('A' for Active; 'I' for Inactive)
REMARK    1  A    between atoms: CA   and  CB  
REMARK    2  A    between atoms: CB   and  CG  
REMARK    3  A    between atoms: CG   and  CD  
REMARK    4  A    between atoms: CD   and  NE  
REMARK       I    between atoms: NE   and  CZ  
REMARK       I    between atoms: CZ   and  NH1 
REMARK       I    between atoms: CZ   and  NH2 
ROOT
ATOM      1  CA  ARG D 557     -26.217   2.705 -17.014  1.00 35.49     0.159 C 
ENDROOT
BRANCH   1   2
ATOM      2  CB  ARG D 557     -26.789   1.319 -17.183  1.00 35.49     0.034 C 
BRANCH   2   3
ATOM      3  CG  ARG D 557     -28.236   1.225 -17.413  1.00 35.49     0.027 C 
BRANCH   3   4
ATOM      4  CD  ARG D 557     -28.895   0.281 -16.483  1.00 35.49     0.116 C 
BRANCH   4   5
ATOM      5  NE  ARG D 557     -29.271  -0.947 -17.132  1.00 35.49    -0.212 N 
ATOM      6  CZ  ARG D 557     -28.643  -2.096 -17.026  1.00 35.49     0.666 C 
ATOM      7  NH1 ARG D 557     -27.553  -2.243 -16.296  1.00 35.49    -0.235 N 
ATOM      8  NH2 ARG D 557     -29.138  -3.113 -17.669  1.00 35.49    -0.235 N 
ATOM      9  HH  ARG D 557     -27.210  -1.588 -15.862  1.00 35.49     0.174 HD
ATOM     10  HH  ARG D 557     -27.187  -3.018 -16.262  1.00 35.49     0.174 HD
ATOM     11  HH  ARG D 557     -29.847  -2.991 -18.127  1.00 35.49     0.174 HD
ATOM     12  HH  ARG D 557     -28.762  -3.872 -17.622  1.00 35.49     0.174 HD
ATOM     13  HE  ARG D 557     -29.921  -0.926 -17.680  1.00 35.49     0.178 HD
ENDBRANCH   4   5
ENDBRANCH   3   4
ENDBRANCH   2   3
ENDBRANCH   1   2
END_RES ARG D 557
BEGIN_RES GLU D 570
REMARK  3 active torsions:
REMARK  status: ('A' for Active; 'I' for Inactive)
REMARK    5  A    between atoms: CA   and  CB  
REMARK    6  A    between atoms: CB   and  CG  
REMARK    7  A    between atoms: CG   and  CD  
ROOT
ATOM     14  CA  GLU D 570     -18.033  -6.348 -13.375  1.00 32.92     0.160 C 
ENDROOT
BRANCH  14  15
ATOM     15  CB  GLU D 570     -19.500  -6.345 -13.794  1.00 32.92     0.043 C 
BRANCH  15  16
ATOM     16  CG  GLU D 570     -19.810  -5.969 -15.197  1.00 32.92     0.100 C 
BRANCH  16  17
ATOM     17  CD  GLU D 570     -20.726  -6.955 -15.883  1.00 32.92     0.185 C 
ATOM     18  OE1 GLU D 570     -20.922  -8.067 -15.356  1.00 32.92    -0.647 OA
ATOM     19  OE2 GLU D 570     -21.241  -6.619 -16.968  1.00 32.92    -0.647 OA
ENDBRANCH  16  17
ENDBRANCH  15  16
ENDBRANCH  14  15
END_RES GLU D 570
ENDMDL
MODEL 2
REMARK VINA RESULT:      -8.8      2.245      4.016
REMARK  9 active torsions:
REMARK  status: ('A' for Active; 'I' for Inactive)
REMARK    1  A    between atoms: C_7  and  C_10 
REMARK    2  A    between atoms: C_10  and  C_11 
REMARK       I    between atoms: C_11  and  N_14 
REMARK    3  A    between atoms: N_14  and  CA_15 
REMARK    4  A    between atoms: CA_15  and  CB_16 
REMARK    5  A    between atoms: CA_15  and  C_21 
REMARK    6  A    between atoms: CB_16  and  CG_17 
REMARK    7  A    between atoms: CG_17  and  CD_18 
REMARK    8  A    between atoms: CD_18  and  OE2_20 
REMARK    9  A    between atoms: C_21  and  OXT_23 
ROOT
HETATM    1  C   UNK A   0     -21.374  -3.483 -11.278  1.00  0.00     0.222 C 
HETATM    2  O   UNK A   0     -21.086  -2.312 -11.506  1.00  0.00    -0.273 OA
ATOM      3  N   GLU A   1     -22.310  -4.166 -12.019  1.00  0.00    -0.346 N 
ATOM      4  H   GLU A   1     -22.581  -5.109 -11.753  1.00  0.00     0.163 HD
ENDROOT
BRANCH   1   5
HETATM    5  C   UNK A   0     -20.667  -4.301 -10.210  1.00  0.00     0.143 C 
BRANCH   5   6
HETATM    6  C   UNK A   0     -21.419  -4.428  -8.923  1.00  0.00    -0.022 A 
HETATM    7  C   UNK A   0     -21.051  -5.172  -7.747  1.00  0.00    -0.001 A 
HETATM    8  C   UNK A   0     -22.102  -5.055  -6.834  1.00  0.00     0.042 A 
HETATM    9  C   UNK A   0     -19.937  -5.951  -7.379  1.00  0.00     0.014 A 
HETATM   10  C   UNK A   0     -22.088  -5.662  -5.572  1.00  0.00     0.030 A 
HETATM   11  N   UNK A   0     -23.072  -4.281  -7.425  1.00  0.00    -0.365 N 
HETATM   12  C   UNK A   0     -20.965  -6.417  -5.228  1.00  0.00     0.002 A 
HETATM   13  C   UNK A   0     -19.904  -6.563  -6.118  1.00  0.00     0.001 A 
HETATM   14  C   UNK A   0     -22.675  -3.898  -8.677  1.00  0.00     0.097 A 
HETATM   15  H   UNK A   0     -23.958  -4.052  -6.996  1.00  0.00     0.165 HD
ENDBRANCH   5   6
ENDBRANCH   1   5
BRANCH   3  16
ATOM     16  CA  GLU A   1     -23.016  -3.533 -13.133  1.00  0.00     0.182 C 
BRANCH  16  17
ATOM     17  CB  GLU A   1     -23.055  -4.477 -14.350  1.00  0.00     0.046 C 
BRANCH  17  18
ATOM     18  CG  GLU A   1     -23.612  -5.869 -14.057  1.00  0.00     0.112 C 
BRANCH  18  19
ATOM     19  CD  GLU A   1     -24.627  -6.269 -15.094  1.00  0.00     0.139 C 
ATOM     20  OE1 GLU A   1     -24.839  -7.438 -15.386  1.00  0.00    -0.650 OA
BRANCH  19  21
ATOM     21  OE2 GLU A   1     -25.333  -5.238 -15.600  1.00  0.00    -0.776 OA
ATOM     22  HE2 GLU A   1     -24.797  -4.545 -16.032  1.00  0.00     0.167 HD
ENDBRANCH  19  21
ENDBRANCH  18  19
ENDBRANCH  17  18
ENDBRANCH  16  17
BRANCH  16  23
ATOM     23  C   GLU A   1     -24.431  -3.194 -12.663  1.00  0.00     0.163 C 
ATOM     24  O   GLU A   1     -24.765  -3.191 -11.484  1.00  0.00    -0.648 OA
BRANCH  23  25
ATOM     25  OXT GLU A   1     -25.290  -2.892 -13.661  1.00  0.00    -0.775 OA
ATOM     26  HXT GLU A   1     -26.152  -2.522 -13.366  1.00  0.00     0.167 HD
ENDBRANCH  23  25
ENDBRANCH  16  23
ENDBRANCH   3  16
TORSDOF 9
BEGIN_RES ARG D 557
REMARK  4 active torsions:
REMARK  status: ('A' for Active; 'I' for Inactive)
REMARK    1  A    between atoms: CA   and  CB  
REMARK    2  A    between atoms: CB   and  CG  
REMARK    3  A    between atoms: CG   and  CD  
REMARK    4  A    between atoms: CD   and  NE  
REMARK       I    between atoms: NE   and  CZ  
REMARK       I    between atoms: CZ   and  NH1 
REMARK       I    between atoms: CZ   and  NH2 
ROOT
ATOM      1  CA  ARG D 557     -26.217   2.705 -17.014  1.00 35.49     0.159 C 
ENDROOT
BRANCH   1   2
ATOM      2  CB  ARG D 557     -26.789   1.319 -17.183  1.00 35.49     0.034 C 
BRANCH   2   3
ATOM      3  CG  ARG D 557     -28.230   1.165 -16.946  1.00 35.49     0.027 C 
BRANCH   3   4
ATOM      4  CD  ARG D 557     -28.711  -0.200 -17.259  1.00 35.49     0.116 C 
BRANCH   4   5
ATOM      5  NE  ARG D 557     -27.940  -1.213 -16.589  1.00 35.49    -0.212 N 
ATOM      6  CZ  ARG D 557     -28.113  -2.511 -16.703  1.00 35.49     0.666 C 
ATOM      7  NH1 ARG D 557     -29.058  -3.036 -17.462  1.00 35.49    -0.235 N 
ATOM      8  NH2 ARG D 557     -27.307  -3.286 -16.037  1.00 35.49    -0.235 N 
ATOM      9  HH  ARG D 557     -29.598  -2.546 -17.910  1.00 35.49     0.174 HD
ATOM     10  HH  ARG D 557     -29.122  -3.890 -17.499  1.00 35.49     0.174 HD
ATOM     11  HH  ARG D 557     -26.702  -2.919 -15.561  1.00 35.49     0.174 HD
ATOM     12  HH  ARG D 557     -27.386  -4.128 -16.088  1.00 35.49     0.174 HD
ATOM     13  HE  ARG D 557     -27.357  -0.963 -16.023  1.00 35.49     0.178 HD
ENDBRANCH   4   5
ENDBRANCH   3   4
ENDBRANCH   2   3
ENDBRANCH   1   2
END_RES ARG D 557
BEGIN_RES GLU D 570
REMARK  3 active torsions:
REMARK  status: ('A' for Active; 'I' for Inactive)
REMARK    5  A    between atoms: CA   and  CB  
REMARK    6  A    between atoms: CB   and  CG  
REMARK    7  A    between atoms: CG   and  CD  
ROOT
ATOM     14  CA  GLU D 570     -18.033  -6.348 -13.375  1.00 32.92     0.160 C 
ENDROOT
BRANCH  14  15
ATOM     15  CB  GLU D 570     -19.500  -6.345 -13.794  1.00 32.92     0.043 C 
BRANCH  15  16
ATOM     16  CG  GLU D 570     -19.798  -6.198 -15.242  1.00 32.92     0.100 C 
BRANCH  16  17
ATOM     17  CD  GLU D 570     -20.694  -7.292 -15.773  1.00 32.92     0.185 C 
ATOM     18  OE1 GLU D 570     -21.490  -7.029 -16.696  1.00 32.92    -0.647 OA
ATOM     19  OE2 GLU D 570     -20.612  -8.421 -15.250  1.00 32.92    -0.647 OA
ENDBRANCH  16  17
ENDBRANCH  15  16
ENDBRANCH  14  15
END_RES GLU D 570
ENDMDL
MODEL 3
REMARK VINA RESULT:      -8.6      2.667      6.627
REMARK  9 active torsions:
REMARK  status: ('A' for Active; 'I' for Inactive)
REMARK    1  A    between atoms: C_7  and  C_10 
REMARK    2  A    between atoms: C_10  and  C_11 
REMARK       I    between atoms: C_11  and  N_14 
REMARK    3  A    between atoms: N_14  and  CA_15 
REMARK    4  A    between atoms: CA_15  and  CB_16 
REMARK    5  A    between atoms: CA_15  and  C_21 
REMARK    6  A    between atoms: CB_16  and  CG_17 
REMARK    7  A    between atoms: CG_17  and  CD_18 
REMARK    8  A    between atoms: CD_18  and  OE2_20 
REMARK    9  A    between atoms: C_21  and  OXT_23 
ROOT
HETATM    1  C   UNK A   0     -25.285  -4.991 -14.945  1.00  0.00     0.222 C 
HETATM    2  O   UNK A   0     -26.272  -4.410 -15.387  1.00  0.00    -0.273 OA
ATOM      3  N   GLU A   1     -24.423  -4.398 -14.054  1.00  0.00    -0.346 N 
ATOM      4  H   GLU A   1     -23.574  -4.878 -13.769  1.00  0.00     0.163 HD
ENDROOT
BRANCH   1   5
HETATM    5  C   UNK A   0     -24.976  -6.440 -15.284  1.00  0.00     0.143 C 
BRANCH   5   6
HETATM    6  C   UNK A   0     -24.696  -6.694 -16.732  1.00  0.00    -0.022 A 
HETATM    7  C   UNK A   0     -25.604  -6.593 -17.844  1.00  0.00    -0.001 A 
HETATM    8  C   UNK A   0     -24.911  -7.003 -18.985  1.00  0.00     0.042 A 
HETATM    9  C   UNK A   0     -26.953  -6.213 -17.987  1.00  0.00     0.014 A 
HETATM   10  C   UNK A   0     -25.491  -7.038 -20.259  1.00  0.00     0.030 A 
HETATM   11  N   UNK A   0     -23.640  -7.346 -18.590  1.00  0.00    -0.365 N 
HETATM   12  C   UNK A   0     -26.826  -6.644 -20.375  1.00  0.00     0.002 A 
HETATM   13  C   UNK A   0     -27.549  -6.239 -19.256  1.00  0.00     0.001 A 
HETATM   14  C   UNK A   0     -23.498  -7.165 -17.241  1.00  0.00     0.097 A 
HETATM   15  H   UNK A   0     -22.927  -7.702 -19.212  1.00  0.00     0.165 HD
ENDBRANCH   5   6
ENDBRANCH   1   5
BRANCH   3  16
ATOM     16  CA  GLU A   1     -24.637  -3.033 -13.573  1.00  0.00     0.182 C 
BRANCH  16  17
ATOM     17  CB  GLU A   1     -23.859  -2.795 -12.264  1.00  0.00     0.046 C 
BRANCH  17  18
ATOM     18  CG  GLU A   1     -23.984  -3.921 -11.238  1.00  0.00     0.112 C 
BRANCH  18  19
ATOM     19  CD  GLU A   1     -24.596  -3.415  -9.960  1.00  0.00     0.139 C 
ATOM     20  OE1 GLU A   1     -25.784  -3.141  -9.867  1.00  0.00    -0.650 OA
BRANCH  19  21
ATOM     21  OE2 GLU A   1     -23.742  -3.377  -8.917  1.00  0.00    -0.776 OA
ATOM     22  HE2 GLU A   1     -23.014  -4.028  -8.957  1.00  0.00     0.167 HD
ENDBRANCH  19  21
ENDBRANCH  18  19
ENDBRANCH  17  18
ENDBRANCH  16  17
BRANCH  16  23
ATOM     23  C   GLU A   1     -24.169  -2.069 -14.664  1.00  0.00     0.163 C 
ATOM     24  O   GLU A   1     -24.773  -1.045 -14.960  1.00  0.00    -0.648 OA
BRANCH  23  25
ATOM     25  OXT GLU A   1     -23.023  -2.438 -15.278  1.00  0.00    -0.775 OA
ATOM     26  HXT GLU A   1     -23.144  -2.866 -16.155  1.00  0.00     0.167 HD
ENDBRANCH  23  25
ENDBRANCH  16  23
ENDBRANCH   3  16
TORSDOF 9
BEGIN_RES ARG D 557
REMARK  4 active torsions:
REMARK  status: ('A' for Active; 'I' for Inactive)
REMARK    1  A    between atoms: CA   and  CB  
REMARK    2  A    between atoms: CB   and  CG  
REMARK    3  A    between atoms: CG   and  CD  
REMARK    4  A    between atoms: CD   and  NE  
REMARK       I    between atoms: NE   and  CZ  
REMARK       I    between atoms: CZ   and  NH1 
REMARK       I    between atoms: CZ   and  NH2 
ROOT
ATOM      1  CA  ARG D 557     -26.217   2.705 -17.014  1.00 35.49     0.159 C 
ENDROOT
BRANCH   1   2
ATOM      2  CB  ARG D 557     -26.789   1.319 -17.183  1.00 35.49     0.034 C 
BRANCH   2   3
ATOM      3  CG  ARG D 557     -28.201   1.230 -17.575  1.00 35.49     0.027 C 
BRANCH   3   4
ATOM      4  CD  ARG D 557     -28.994   0.395 -16.645  1.00 35.49     0.116 C 
BRANCH   4   5
ATOM      5  NE  ARG D 557     -29.247  -0.919 -17.177  1.00 35.49    -0.212 N 
ATOM      6  CZ  ARG D 557     -28.518  -1.990 -16.956  1.00 35.49     0.666 C 
ATOM      7  NH1 ARG D 557     -27.431  -1.967 -16.208  1.00 35.49    -0.235 N 
ATOM      8  NH2 ARG D 557     -28.909  -3.104 -17.503  1.00 35.49    -0.235 N 
ATOM      9  HH  ARG D 557     -27.156  -1.245 -15.837  1.00 35.49     0.174 HD
ATOM     10  HH  ARG D 557     -26.997  -2.697 -16.098  1.00 35.49     0.174 HD
ATOM     11  HH  ARG D 557     -29.619  -3.091 -17.975  1.00 35.49     0.174 HD
ATOM     12  HH  ARG D 557     -28.467  -3.817 -17.381  1.00 35.49     0.174 HD
ATOM     13  HE  ARG D 557     -29.887  -1.009 -17.729  1.00 35.49     0.178 HD
ENDBRANCH   4   5
ENDBRANCH   3   4
ENDBRANCH   2   3
ENDBRANCH   1   2
END_RES ARG D 557
BEGIN_RES GLU D 570
REMARK  3 active torsions:
REMARK  status: ('A' for Active; 'I' for Inactive)
REMARK    5  A    between atoms: CA   and  CB  
REMARK    6  A    between atoms: CB   and  CG  
REMARK    7  A    between atoms: CG   and  CD  
ROOT
ATOM     14  CA  GLU D 570     -18.033  -6.348 -13.375  1.00 32.92     0.160 C 
ENDROOT
BRANCH  14  15
ATOM     15  CB  GLU D 570     -19.500  -6.345 -13.794  1.00 32.92     0.043 C 
BRANCH  15  16
ATOM     16  CG  GLU D 570     -19.808  -5.999 -15.206  1.00 32.92     0.100 C 
BRANCH  16  17
ATOM     17  CD  GLU D 570     -21.068  -5.178 -15.350  1.00 32.92     0.185 C 
ATOM     18  OE1 GLU D 570     -21.708  -4.867 -14.327  1.00 32.92    -0.647 OA
ATOM     19  OE2 GLU D 570     -21.428  -4.856 -16.499  1.00 32.92    -0.647 OA
ENDBRANCH  16  17
ENDBRANCH  15  16
ENDBRANCH  14  15
END_RES GLU D 570
ENDMDL
MODEL 4
REMARK VINA RESULT:      -8.2      5.172      8.493
REMARK  9 active torsions:
REMARK  status: ('A' for Active; 'I' for Inactive)
REMARK    1  A    between atoms: C_7  and  C_10 
REMARK    2  A    between atoms: C_10  and  C_11 
REMARK       I    between atoms: C_11  and  N_14 
REMARK    3  A    between atoms: N_14  and  CA_15 
REMARK    4  A    between atoms: CA_15  and  CB_16 
REMARK    5  A    between atoms: CA_15  and  C_21 
REMARK    6  A    between atoms: CB_16  and  CG_17 
REMARK    7  A    between atoms: CG_17  and  CD_18 
REMARK    8  A    between atoms: CD_18  and  OE2_20 
REMARK    9  A    between atoms: C_21  and  OXT_23 
ROOT
HETATM    1  C   UNK A   0     -20.089  -5.459  -6.654  1.00  0.00     0.222 C 
HETATM    2  O   UNK A   0     -19.805  -4.642  -5.783  1.00  0.00    -0.273 OA
ATOM      3  N   GLU A   1     -20.316  -6.785  -6.370  1.00  0.00    -0.346 N 
ATOM      4  H   GLU A   1     -20.472  -7.448  -7.125  1.00  0.00     0.163 HD
ENDROOT
BRANCH   1   5
HETATM    5  C   UNK A   0     -20.290  -5.061  -8.107  1.00  0.00     0.143 C 
BRANCH   5   6
HETATM    6  C   UNK A   0     -21.677  -4.612  -8.443  1.00  0.00    -0.022 A 
HETATM    7  C   UNK A   0     -22.185  -4.172  -9.717  1.00  0.00    -0.001 A 
HETATM    8  C   UNK A   0     -23.512  -3.781  -9.522  1.00  0.00     0.042 A 
HETATM    9  C   UNK A   0     -21.639  -4.049 -11.009  1.00  0.00     0.014 A 
HETATM   10  C   UNK A   0     -24.321  -3.288 -10.554  1.00  0.00     0.030 A 
HETATM   11  N   UNK A   0     -23.801  -3.965  -8.191  1.00  0.00    -0.365 N 
HETATM   12  C   UNK A   0     -23.758  -3.190 -11.828  1.00  0.00     0.002 A 
HETATM   13  C   UNK A   0     -22.436  -3.562 -12.055  1.00  0.00     0.001 A 
HETATM   14  C   UNK A   0     -22.710  -4.464  -7.534  1.00  0.00     0.097 A 
HETATM   15  H   UNK A   0     -24.690  -3.740  -7.766  1.00  0.00     0.165 HD
ENDBRANCH   5   6
ENDBRANCH   1   5
BRANCH   3  16
ATOM     16  CA  GLU A   1     -20.239  -7.301  -5.004  1.00  0.00     0.182 C 
BRANCH  16  17
ATOM     17  CB  GLU A   1     -21.598  -7.153  -4.294  1.00  0.00     0.046 C 
BRANCH  17  18
ATOM     18  CG  GLU A   1     -21.574  -6.260  -3.055  1.00  0.00     0.112 C 
BRANCH  18  19
ATOM     19  CD  GLU A   1     -21.914  -7.049  -1.819  1.00  0.00     0.139 C 
ATOM     20  OE1 GLU A   1     -22.667  -6.622  -0.955  1.00  0.00    -0.650 OA
BRANCH  19  21
ATOM     21  OE2 GLU A   1     -21.386  -8.290  -1.796  1.00  0.00    -0.776 OA
ATOM     22  HE2 GLU A   1     -21.707  -8.860  -1.070  1.00  0.00     0.167 HD
ENDBRANCH  19  21
ENDBRANCH  18  19
ENDBRANCH  17  18
ENDBRANCH  16  17
BRANCH  16  23
ATOM     23  C   GLU A   1     -19.822  -8.770  -5.077  1.00  0.00     0.163 C 
ATOM     24  O   GLU A   1     -18.933  -9.181  -5.814  1.00  0.00    -0.648 OA
BRANCH  23  25
ATOM     25  OXT GLU A   1     -20.517  -9.587  -4.255  1.00  0.00    -0.775 OA
ATOM     26  HXT GLU A   1     -19.966 -10.205  -3.725  1.00  0.00     0.167 HD
ENDBRANCH  23  25
ENDBRANCH  16  23
ENDBRANCH   3  16
TORSDOF 9
BEGIN_RES ARG D 557
REMARK  4 active torsions:
REMARK  status: ('A' for Active; 'I' for Inactive)
REMARK    1  A    between atoms: CA   and  CB  
REMARK    2  A    between atoms: CB   and  CG  
REMARK    3  A    between atoms: CG   and  CD  
REMARK    4  A    between atoms: CD   and  NE  
REMARK       I    between atoms: NE   and  CZ  
REMARK       I    between atoms: CZ   and  NH1 
REMARK       I    between atoms: CZ   and  NH2 
ROOT
ATOM      1  CA  ARG D 557     -26.217   2.705 -17.014  1.00 35.49     0.159 C 
ENDROOT
BRANCH   1   2
ATOM      2  CB  ARG D 557     -26.789   1.319 -17.183  1.00 35.49     0.034 C 
BRANCH   2   3
ATOM      3  CG  ARG D 557     -28.235   1.225 -17.418  1.00 35.49     0.027 C 
BRANCH   3   4
ATOM      4  CD  ARG D 557     -28.899   0.289 -16.482  1.00 35.49     0.116 C 
BRANCH   4   5
ATOM      5  NE  ARG D 557     -29.278  -0.942 -17.125  1.00 35.49    -0.212 N 
ATOM      6  CZ  ARG D 557     -28.643  -2.088 -17.025  1.00 35.49     0.666 C 
ATOM      7  NH1 ARG D 557     -27.543  -2.229 -16.309  1.00 35.49    -0.235 N 
ATOM      8  NH2 ARG D 557     -29.143  -3.108 -17.660  1.00 35.49    -0.235 N 
ATOM      9  HH  ARG D 557     -27.198  -1.572 -15.881  1.00 35.49     0.174 HD
ATOM     10  HH  ARG D 557     -27.174  -3.002 -16.278  1.00 35.49     0.174 HD
ATOM     11  HH  ARG D 557     -29.858  -2.989 -18.108  1.00 35.49     0.174 HD
ATOM     12  HH  ARG D 557     -28.763  -3.865 -17.616  1.00 35.49     0.174 HD
ATOM     13  HE  ARG D 557     -29.936  -0.925 -17.664  1.00 35.49     0.178 HD
ENDBRANCH   4   5
ENDBRANCH   3   4
ENDBRANCH   2   3
ENDBRANCH   1   2
END_RES ARG D 557
BEGIN_RES GLU D 570
REMARK  3 active torsions:
REMARK  status: ('A' for Active; 'I' for Inactive)
REMARK    5  A    between atoms: CA   and  CB  
REMARK    6  A    between atoms: CB   and  CG  
REMARK    7  A    between atoms: CG   and  CD  
ROOT
ATOM     14  CA  GLU D 570     -18.033  -6.348 -13.375  1.00 32.92     0.160 C 
ENDROOT
BRANCH  14  15
ATOM     15  CB  GLU D 570     -19.500  -6.345 -13.794  1.00 32.92     0.043 C 
BRANCH  15  16
ATOM     16  CG  GLU D 570     -19.811  -5.963 -15.196  1.00 32.92     0.100 C 
BRANCH  16  17
ATOM     17  CD  GLU D 570     -21.261  -5.590 -15.397  1.00 32.92     0.185 C 
ATOM     18  OE1 GLU D 570     -21.563  -4.817 -16.327  1.00 32.92    -0.647 OA
ATOM     19  OE2 GLU D 570     -22.101  -6.061 -14.606  1.00 32.92    -0.647 OA
ENDBRANCH  16  17
ENDBRANCH  15  16
ENDBRANCH  14  15
END_RES GLU D 570
ENDMDL
MODEL 5
REMARK VINA RESULT:      -8.1      5.651      8.342
REMARK  9 active torsions:
REMARK  status: ('A' for Active; 'I' for Inactive)
REMARK    1  A    between atoms: C_7  and  C_10 
REMARK    2  A    between atoms: C_10  and  C_11 
REMARK       I    between atoms: C_11  and  N_14 
REMARK    3  A    between atoms: N_14  and  CA_15 
REMARK    4  A    between atoms: CA_15  and  CB_16 
REMARK    5  A    between atoms: CA_15  and  C_21 
REMARK    6  A    between atoms: CB_16  and  CG_17 
REMARK    7  A    between atoms: CG_17  and  CD_18 
REMARK    8  A    between atoms: CD_18  and  OE2_20 
REMARK    9  A    between atoms: C_21  and  OXT_23 
ROOT
HETATM    1  C   UNK A   0     -21.255  -6.045  -5.747  1.00  0.00     0.222 C 
HETATM    2  O   UNK A   0     -21.317  -7.140  -6.298  1.00  0.00    -0.273 OA
ATOM      3  N   GLU A   1     -21.341  -4.866  -6.448  1.00  0.00    -0.346 N 
ATOM      4  H   GLU A   1     -21.206  -3.978  -5.970  1.00  0.00     0.163 HD
ENDROOT
BRANCH   1   5
HETATM    5  C   UNK A   0     -21.156  -5.899  -4.237  1.00  0.00     0.143 C 
BRANCH   5   6
HETATM    6  C   UNK A   0     -21.045  -7.193  -3.493  1.00  0.00    -0.022 A 
HETATM    7  C   UNK A   0     -21.563  -7.516  -2.190  1.00  0.00    -0.001 A 
HETATM    8  C   UNK A   0     -21.141  -8.812  -1.884  1.00  0.00     0.042 A 
HETATM    9  C   UNK A   0     -22.331  -6.826  -1.233  1.00  0.00     0.014 A 
HETATM   10  C   UNK A   0     -21.459  -9.455  -0.681  1.00  0.00     0.030 A 
HETATM   11  N   UNK A   0     -20.393  -9.259  -2.947  1.00  0.00    -0.365 N 
HETATM   12  C   UNK A   0     -22.234  -8.752   0.244  1.00  0.00     0.002 A 
HETATM   13  C   UNK A   0     -22.663  -7.455  -0.024  1.00  0.00     0.001 A 
HETATM   14  C   UNK A   0     -20.328  -8.299  -3.919  1.00  0.00     0.097 A 
HETATM   15  H   UNK A   0     -19.941 -10.163  -2.985  1.00  0.00     0.165 HD
ENDBRANCH   5   6
ENDBRANCH   1   5
BRANCH   3  16
ATOM     16  CA  GLU A   1     -21.519  -4.847  -7.899  1.00  0.00     0.182 C 
BRANCH  16  17
ATOM     17  CB  GLU A   1     -22.637  -3.861  -8.292  1.00  0.00     0.046 C 
BRANCH  17  18
ATOM     18  CG  GLU A   1     -23.701  -4.445  -9.220  1.00  0.00     0.112 C 
BRANCH  18  19
ATOM     19  CD  GLU A   1     -23.952  -3.532 -10.389  1.00  0.00     0.139 C 
ATOM     20  OE1 GLU A   1     -25.072  -3.139 -10.685  1.00  0.00    -0.650 OA
BRANCH  19  21
ATOM     21  OE2 GLU A   1     -22.832  -3.123 -11.018  1.00  0.00    -0.776 OA
ATOM     22  HE2 GLU A   1     -22.033  -3.092 -10.457  1.00  0.00     0.167 HD
ENDBRANCH  19  21
ENDBRANCH  18  19
ENDBRANCH  17  18
ENDBRANCH  16  17
BRANCH  16  23
ATOM     23  C   GLU A   1     -20.189  -4.439  -8.533  1.00  0.00     0.163 C 
ATOM     24  O   GLU A   1     -19.163  -4.263  -7.887  1.00  0.00    -0.648 OA
BRANCH  23  25
ATOM     25  OXT GLU A   1     -20.235  -4.290  -9.875  1.00  0.00    -0.775 OA
ATOM     26  HXT GLU A   1     -20.542  -5.084 -10.368  1.00  0.00     0.167 HD
ENDBRANCH  23  25
ENDBRANCH  16  23
ENDBRANCH   3  16
TORSDOF 9
BEGIN_RES ARG D 557
REMARK  4 active torsions:
REMARK  status: ('A' for Active; 'I' for Inactive)
REMARK    1  A    between atoms: CA   and  CB  
REMARK    2  A    between atoms: CB   and  CG  
REMARK    3  A    between atoms: CG   and  CD  
REMARK    4  A    between atoms: CD   and  NE  
REMARK       I    between atoms: NE   and  CZ  
REMARK       I    between atoms: CZ   and  NH1 
REMARK       I    between atoms: CZ   and  NH2 
ROOT
ATOM      1  CA  ARG D 557     -26.217   2.705 -17.014  1.00 35.49     0.159 C 
ENDROOT
BRANCH   1   2
ATOM      2  CB  ARG D 557     -26.789   1.319 -17.183  1.00 35.49     0.034 C 
BRANCH   2   3
ATOM      3  CG  ARG D 557     -25.831   0.207 -17.206  1.00 35.49     0.027 C 
BRANCH   3   4
ATOM      4  CD  ARG D 557     -24.721   0.399 -16.245  1.00 35.49     0.116 C 
BRANCH   4   5
ATOM      5  NE  ARG D 557     -24.881  -0.405 -15.062  1.00 35.49    -0.212 N 
ATOM      6  CZ  ARG D 557     -24.084  -1.379 -14.682  1.00 35.49     0.666 C 
ATOM      7  NH1 ARG D 557     -23.023  -1.740 -15.379  1.00 35.49    -0.235 N 
ATOM      8  NH2 ARG D 557     -24.371  -1.988 -13.568  1.00 35.49    -0.235 N 
ATOM      9  HH  ARG D 557     -22.815  -1.352 -16.114  1.00 35.49     0.174 HD
ATOM     10  HH  ARG D 557     -22.539  -2.381 -15.080  1.00 35.49     0.174 HD
ATOM     11  HH  ARG D 557     -25.058  -1.728 -13.135  1.00 35.49     0.174 HD
ATOM     12  HH  ARG D 557     -23.878  -2.619 -13.288  1.00 35.49     0.174 HD
ATOM     13  HE  ARG D 557     -25.580  -0.288 -14.592  1.00 35.49     0.178 HD
ENDBRANCH   4   5
ENDBRANCH   3   4
ENDBRANCH   2   3
ENDBRANCH   1   2
END_RES ARG D 557
BEGIN_RES GLU D 570
REMARK  3 active torsions:
REMARK  status: ('A' for Active; 'I' for Inactive)
REMARK    5  A    between atoms: CA   and  CB  
REMARK    6  A    between atoms: CB   and  CG  
REMARK    7  A    between atoms: CG   and  CD  
ROOT
ATOM     14  CA  GLU D 570     -18.033  -6.348 -13.375  1.00 32.92     0.160 C 
ENDROOT
BRANCH  14  15
ATOM     15  CB  GLU D 570     -19.500  -6.345 -13.794  1.00 32.92     0.043 C 
BRANCH  15  16
ATOM     16  CG  GLU D 570     -20.417  -5.426 -13.071  1.00 32.92     0.100 C 
BRANCH  16  17
ATOM     17  CD  GLU D 570     -21.737  -5.233 -13.779  1.00 32.92     0.185 C 
ATOM     18  OE1 GLU D 570     -22.413  -4.215 -13.534  1.00 32.92    -0.647 OA
ATOM     19  OE2 GLU D 570     -22.108  -6.118 -14.575  1.00 32.92    -0.647 OA
ENDBRANCH  16  17
ENDBRANCH  15  16
ENDBRANCH  14  15
END_RES GLU D 570
ENDMDL
MODEL 6
REMARK VINA RESULT:      -8.0      2.593      6.129
REMARK  9 active torsions:
REMARK  status: ('A' for Active; 'I' for Inactive)
REMARK    1  A    between atoms: C_7  and  C_10 
REMARK    2  A    between atoms: C_10  and  C_11 
REMARK       I    between atoms: C_11  and  N_14 
REMARK    3  A    between atoms: N_14  and  CA_15 
REMARK    4  A    between atoms: CA_15  and  CB_16 
REMARK    5  A    between atoms: CA_15  and  C_21 
REMARK    6  A    between atoms: CB_16  and  CG_17 
REMARK    7  A    between atoms: CG_17  and  CD_18 
REMARK    8  A    between atoms: CD_18  and  OE2_20 
REMARK    9  A    between atoms: C_21  and  OXT_23 
ROOT
HETATM    1  C   UNK A   0     -23.204  -5.464 -14.689  1.00  0.00     0.222 C 
HETATM    2  O   UNK A   0     -22.622  -4.802 -15.545  1.00  0.00    -0.273 OA
ATOM      3  N   GLU A   1     -23.261  -5.072 -13.373  1.00  0.00    -0.346 N 
ATOM      4  H   GLU A   1     -23.682  -5.683 -12.678  1.00  0.00     0.163 HD
ENDROOT
BRANCH   1   5
HETATM    5  C   UNK A   0     -23.974  -6.730 -15.026  1.00  0.00     0.143 C 
BRANCH   5   6
HETATM    6  C   UNK A   0     -25.101  -6.535 -15.990  1.00  0.00    -0.022 A 
HETATM    7  C   UNK A   0     -25.098  -6.737 -17.416  1.00  0.00    -0.001 A 
HETATM    8  C   UNK A   0     -26.352  -6.350 -17.893  1.00  0.00     0.042 A 
HETATM    9  C   UNK A   0     -24.143  -7.189 -18.347  1.00  0.00     0.014 A 
HETATM   10  C   UNK A   0     -26.703  -6.408 -19.248  1.00  0.00     0.030 A 
HETATM   11  N   UNK A   0     -27.087  -5.925 -16.813  1.00  0.00    -0.365 N 
HETATM   12  C   UNK A   0     -25.742  -6.873 -20.148  1.00  0.00     0.002 A 
HETATM   13  C   UNK A   0     -24.479  -7.257 -19.707  1.00  0.00     0.001 A 
HETATM   14  C   UNK A   0     -26.350  -6.032 -15.666  1.00  0.00     0.097 A 
HETATM   15  H   UNK A   0     -28.030  -5.567 -16.872  1.00  0.00     0.165 HD
ENDBRANCH   5   6
ENDBRANCH   1   5
BRANCH   3  16
ATOM     16  CA  GLU A   1     -22.635  -3.833 -12.913  1.00  0.00     0.182 C 
BRANCH  16  17
ATOM     17  CB  GLU A   1     -23.704  -2.758 -12.641  1.00  0.00     0.046 C 
BRANCH  17  18
ATOM     18  CG  GLU A   1     -24.736  -2.592 -13.756  1.00  0.00     0.112 C 
BRANCH  18  19
ATOM     19  CD  GLU A   1     -24.259  -1.605 -14.786  1.00  0.00     0.139 C 
ATOM     20  OE1 GLU A   1     -24.821  -0.535 -14.977  1.00  0.00    -0.650 OA
BRANCH  19  21
ATOM     21  OE2 GLU A   1     -23.119  -1.966 -15.408  1.00  0.00    -0.776 OA
ATOM     22  HE2 GLU A   1     -22.316  -1.505 -15.095  1.00  0.00     0.167 HD
ENDBRANCH  19  21
ENDBRANCH  18  19
ENDBRANCH  17  18
ENDBRANCH  16  17
BRANCH  16  23
ATOM     23  C   GLU A   1     -21.846  -4.147 -11.641  1.00  0.00     0.163 C 
ATOM     24  O   GLU A   1     -22.356  -4.628 -10.636  1.00  0.00    -0.648 OA
BRANCH  23  25
ATOM     25  OXT GLU A   1     -20.529  -3.852 -11.717  1.00  0.00    -0.775 OA
ATOM     26  HXT GLU A   1     -20.036  -3.945 -10.871  1.00  0.00     0.167 HD
ENDBRANCH  23  25
ENDBRANCH  16  23
ENDBRANCH   3  16
TORSDOF 9
BEGIN_RES ARG D 557
REMARK  4 active torsions:
REMARK  status: ('A' for Active; 'I' for Inactive)
REMARK    1  A    between atoms: CA   and  CB  
REMARK    2  A    between atoms: CB   and  CG  
REMARK    3  A    between atoms: CG   and  CD  
REMARK    4  A    between atoms: CD   and  NE  
REMARK       I    between atoms: NE   and  CZ  
REMARK       I    between atoms: CZ   and  NH1 
REMARK       I    between atoms: CZ   and  NH2 
ROOT
ATOM      1  CA  ARG D 557     -26.217   2.705 -17.014  1.00 35.49     0.159 C 
ENDROOT
BRANCH   1   2
ATOM      2  CB  ARG D 557     -26.789   1.319 -17.183  1.00 35.49     0.034 C 
BRANCH   2   3
ATOM      3  CG  ARG D 557     -28.230   1.227 -17.450  1.00 35.49     0.027 C 
BRANCH   3   4
ATOM      4  CD  ARG D 557     -28.920   0.311 -16.513  1.00 35.49     0.116 C 
BRANCH   4   5
ATOM      5  NE  ARG D 557     -29.260  -0.943 -17.132  1.00 35.49    -0.212 N 
ATOM      6  CZ  ARG D 557     -28.596  -2.069 -17.001  1.00 35.49     0.666 C 
ATOM      7  NH1 ARG D 557     -27.499  -2.165 -16.273  1.00 35.49    -0.235 N 
ATOM      8  NH2 ARG D 557     -29.062  -3.116 -17.619  1.00 35.49    -0.235 N 
ATOM      9  HH  ARG D 557     -27.176  -1.490 -15.856  1.00 35.49     0.174 HD
ATOM     10  HH  ARG D 557     -27.109  -2.927 -16.222  1.00 35.49     0.174 HD
ATOM     11  HH  ARG D 557     -29.776  -3.026 -18.076  1.00 35.49     0.174 HD
ATOM     12  HH  ARG D 557     -28.662  -3.861 -17.555  1.00 35.49     0.174 HD
ATOM     13  HE  ARG D 557     -29.912  -0.955 -17.677  1.00 35.49     0.178 HD
ENDBRANCH   4   5
ENDBRANCH   3   4
ENDBRANCH   2   3
ENDBRANCH   1   2
END_RES ARG D 557
BEGIN_RES GLU D 570
REMARK  3 active torsions:
REMARK  status: ('A' for Active; 'I' for Inactive)
REMARK    5  A    between atoms: CA   and  CB  
REMARK    6  A    between atoms: CB   and  CG  
REMARK    7  A    between atoms: CG   and  CD  
ROOT
ATOM     14  CA  GLU D 570     -18.033  -6.348 -13.375  1.00 32.92     0.160 C 
ENDROOT
BRANCH  14  15
ATOM     15  CB  GLU D 570     -19.500  -6.345 -13.794  1.00 32.92     0.043 C 
BRANCH  15  16
ATOM     16  CG  GLU D 570     -20.085  -7.633 -14.248  1.00 32.92     0.100 C 
BRANCH  16  17
ATOM     17  CD  GLU D 570     -20.413  -7.644 -15.723  1.00 32.92     0.185 C 
ATOM     18  OE1 GLU D 570     -20.249  -6.602 -16.387  1.00 32.92    -0.647 OA
ATOM     19  OE2 GLU D 570     -20.855  -8.700 -16.216  1.00 32.92    -0.647 OA
ENDBRANCH  16  17
ENDBRANCH  15  16
ENDBRANCH  14  15
END_RES GLU D 570
ENDMDL
MODEL 7
REMARK VINA RESULT:      -8.0      1.672      3.101
REMARK  9 active torsions:
REMARK  status: ('A' for Active; 'I' for Inactive)
REMARK    1  A    between atoms: C_7  and  C_10 
REMARK    2  A    between atoms: C_10  and  C_11 
REMARK       I    between atoms: C_11  and  N_14 
REMARK    3  A    between atoms: N_14  and  CA_15 
REMARK    4  A    between atoms: CA_15  and  CB_16 
REMARK    5  A    between atoms: CA_15  and  C_21 
REMARK    6  A    between atoms: CB_16  and  CG_17 
REMARK    7  A    between atoms: CG_17  and  CD_18 
REMARK    8  A    between atoms: CD_18  and  OE2_20 
REMARK    9  A    between atoms: C_21  and  OXT_23 
ROOT
HETATM    1  C   UNK A   0     -25.371  -5.569 -15.450  1.00  0.00     0.222 C 
HETATM    2  O   UNK A   0     -25.785  -4.427 -15.270  1.00  0.00    -0.273 OA
ATOM      3  N   GLU A   1     -25.908  -6.402 -16.403  1.00  0.00    -0.346 N 
ATOM      4  H   GLU A   1     -25.595  -7.367 -16.472  1.00  0.00     0.163 HD
ENDROOT
BRANCH   1   5
HETATM    5  C   UNK A   0     -24.182  -6.132 -14.690  1.00  0.00     0.143 C 
BRANCH   5   6
HETATM    6  C   UNK A   0     -23.324  -5.102 -14.025  1.00  0.00    -0.022 A 
HETATM    7  C   UNK A   0     -23.196  -4.825 -12.619  1.00  0.00    -0.001 A 
HETATM    8  C   UNK A   0     -22.342  -3.727 -12.487  1.00  0.00     0.042 A 
HETATM    9  C   UNK A   0     -23.740  -5.386 -11.447  1.00  0.00     0.014 A 
HETATM   10  C   UNK A   0     -21.995  -3.174 -11.248  1.00  0.00     0.030 A 
HETATM   11  N   UNK A   0     -21.970  -3.345 -13.754  1.00  0.00    -0.365 N 
HETATM   12  C   UNK A   0     -22.538  -3.759 -10.102  1.00  0.00     0.002 A 
HETATM   13  C   UNK A   0     -23.401  -4.848 -10.198  1.00  0.00     0.001 A 
HETATM   14  C   UNK A   0     -22.550  -4.162 -14.685  1.00  0.00     0.097 A 
HETATM   15  H   UNK A   0     -21.369  -2.559 -13.958  1.00  0.00     0.165 HD
ENDBRANCH   5   6
ENDBRANCH   1   5
BRANCH   3  16
ATOM     16  CA  GLU A   1     -27.006  -5.970 -17.268  1.00  0.00     0.182 C 
BRANCH  16  17
ATOM     17  CB  GLU A   1     -26.944  -6.702 -18.623  1.00  0.00     0.046 C 
BRANCH  17  18
ATOM     18  CG  GLU A   1     -25.788  -6.272 -19.524  1.00  0.00     0.112 C 
BRANCH  18  19
ATOM     19  CD  GLU A   1     -24.745  -7.353 -19.608  1.00  0.00     0.139 C 
ATOM     20  OE1 GLU A   1     -24.424  -7.873 -20.668  1.00  0.00    -0.650 OA
BRANCH  19  21
ATOM     21  OE2 GLU A   1     -24.142  -7.630 -18.434  1.00  0.00    -0.776 OA
ATOM     22  HE2 GLU A   1     -24.262  -8.545 -18.116  1.00  0.00     0.167 HD
ENDBRANCH  19  21
ENDBRANCH  18  19
ENDBRANCH  17  18
ENDBRANCH  16  17
BRANCH  16  23
ATOM     23  C   GLU A   1     -28.321  -6.272 -16.548  1.00  0.00     0.163 C 
ATOM     24  O   GLU A   1     -28.954  -7.308 -16.713  1.00  0.00    -0.648 OA
BRANCH  23  25
ATOM     25  OXT GLU A   1     -28.730  -5.298 -15.705  1.00  0.00    -0.775 OA
ATOM     26  HXT GLU A   1     -29.151  -4.524 -16.142  1.00  0.00     0.167 HD
ENDBRANCH  23  25
ENDBRANCH  16  23
ENDBRANCH   3  16
TORSDOF 9
BEGIN_RES ARG D 557
REMARK  4 active torsions:
REMARK  status: ('A' for Active; 'I' for Inactive)
REMARK    1  A    between atoms: CA   and  CB  
REMARK    2  A    between atoms: CB   and  CG  
REMARK    3  A    between atoms: CG   and  CD  
REMARK    4  A    between atoms: CD   and  NE  
REMARK       I    between atoms: NE   and  CZ  
REMARK       I    between atoms: CZ   and  NH1 
REMARK       I    between atoms: CZ   and  NH2 
ROOT
ATOM      1  CA  ARG D 557     -26.217   2.705 -17.014  1.00 35.49     0.159 C 
ENDROOT
BRANCH   1   2
ATOM      2  CB  ARG D 557     -26.789   1.319 -17.183  1.00 35.49     0.034 C 
BRANCH   2   3
ATOM      3  CG  ARG D 557     -28.242   1.222 -17.371  1.00 35.49     0.027 C 
BRANCH   3   4
ATOM      4  CD  ARG D 557     -28.865   0.242 -16.452  1.00 35.49     0.116 C 
BRANCH   4   5
ATOM      5  NE  ARG D 557     -29.316  -0.938 -17.143  1.00 35.49    -0.212 N 
ATOM      6  CZ  ARG D 557     -28.755  -2.125 -17.083  1.00 35.49     0.666 C 
ATOM      7  NH1 ARG D 557     -27.671  -2.361 -16.367  1.00 35.49    -0.235 N 
ATOM      8  NH2 ARG D 557     -29.312  -3.087 -17.759  1.00 35.49    -0.235 N 
ATOM      9  HH  ARG D 557     -27.289  -1.743 -15.913  1.00 35.49     0.174 HD
ATOM     10  HH  ARG D 557     -27.351  -3.156 -16.364  1.00 35.49     0.174 HD
ATOM     11  HH  ARG D 557     -30.015  -2.906 -18.207  1.00 35.49     0.174 HD
ATOM     12  HH  ARG D 557     -28.981  -3.867 -17.742  1.00 35.49     0.174 HD
ATOM     13  HE  ARG D 557     -29.966  -0.859 -17.685  1.00 35.49     0.178 HD
ENDBRANCH   4   5
ENDBRANCH   3   4
ENDBRANCH   2   3
ENDBRANCH   1   2
END_RES ARG D 557
BEGIN_RES GLU D 570
REMARK  3 active torsions:
REMARK  status: ('A' for Active; 'I' for Inactive)
REMARK    5  A    between atoms: CA   and  CB  
REMARK    6  A    between atoms: CB   and  CG  
REMARK    7  A    between atoms: CG   and  CD  
ROOT
ATOM     14  CA  GLU D 570     -18.033  -6.348 -13.375  1.00 32.92     0.160 C 
ENDROOT
BRANCH  14  15
ATOM     15  CB  GLU D 570     -19.500  -6.345 -13.794  1.00 32.92     0.043 C 
BRANCH  15  16
ATOM     16  CG  GLU D 570     -20.076  -7.626 -14.279  1.00 32.92     0.100 C 
BRANCH  16  17
ATOM     17  CD  GLU D 570     -20.733  -7.500 -15.634  1.00 32.92     0.185 C 
ATOM     18  OE1 GLU D 570     -20.538  -6.471 -16.309  1.00 32.92    -0.647 OA
ATOM     19  OE2 GLU D 570     -21.465  -8.434 -16.018  1.00 32.92    -0.647 OA
ENDBRANCH  16  17
ENDBRANCH  15  16
ENDBRANCH  14  15
END_RES GLU D 570
ENDMDL
MODEL 8
REMARK VINA RESULT:      -8.0      2.301      6.594
REMARK  9 active torsions:
REMARK  status: ('A' for Active; 'I' for Inactive)
REMARK    1  A    between atoms: C_7  and  C_10 
REMARK    2  A    between atoms: C_10  and  C_11 
REMARK       I    between atoms: C_11  and  N_14 
REMARK    3  A    between atoms: N_14  and  CA_15 
REMARK    4  A    between atoms: CA_15  and  CB_16 
REMARK    5  A    between atoms: CA_15  and  C_21 
REMARK    6  A    between atoms: CB_16  and  CG_17 
REMARK    7  A    between atoms: CG_17  and  CD_18 
REMARK    8  A    between atoms: CD_18  and  OE2_20 
REMARK    9  A    between atoms: C_21  and  OXT_23 
ROOT
HETATM    1  C   UNK A   0     -24.627  -5.436 -14.729  1.00  0.00     0.222 C 
HETATM    2  O   UNK A   0     -25.021  -4.334 -15.099  1.00  0.00    -0.273 OA
ATOM      3  N   GLU A   1     -23.881  -5.603 -13.586  1.00  0.00    -0.346 N 
ATOM      4  H   GLU A   1     -23.505  -6.518 -13.352  1.00  0.00     0.163 HD
ENDROOT
BRANCH   1   5
HETATM    5  C   UNK A   0     -24.994  -6.718 -15.459  1.00  0.00     0.143 C 
BRANCH   5   6
HETATM    6  C   UNK A   0     -25.930  -6.531 -16.611  1.00  0.00    -0.022 A 
HETATM    7  C   UNK A   0     -27.348  -6.285 -16.574  1.00  0.00    -0.001 A 
HETATM    8  C   UNK A   0     -27.800  -6.262 -17.895  1.00  0.00     0.042 A 
HETATM    9  C   UNK A   0     -28.292  -6.101 -15.546  1.00  0.00     0.014 A 
HETATM   10  C   UNK A   0     -29.142  -6.051 -18.239  1.00  0.00     0.030 A 
HETATM   11  N   UNK A   0     -26.713  -6.491 -18.704  1.00  0.00    -0.365 N 
HETATM   12  C   UNK A   0     -30.054  -5.858 -17.200  1.00  0.00     0.002 A 
HETATM   13  C   UNK A   0     -29.639  -5.885 -15.871  1.00  0.00     0.001 A 
HETATM   14  C   UNK A   0     -25.585  -6.653 -17.947  1.00  0.00     0.097 A 
HETATM   15  H   UNK A   0     -26.755  -6.550 -19.712  1.00  0.00     0.165 HD
ENDBRANCH   5   6
ENDBRANCH   1   5
BRANCH   3  16
ATOM     16  CA  GLU A   1     -23.518  -4.470 -12.735  1.00  0.00     0.182 C 
BRANCH  16  17
ATOM     17  CB  GLU A   1     -23.558  -4.877 -11.250  1.00  0.00     0.046 C 
BRANCH  17  18
ATOM     18  CG  GLU A   1     -23.304  -3.732 -10.270  1.00  0.00     0.112 C 
BRANCH  18  19
ATOM     19  CD  GLU A   1     -24.513  -3.488  -9.408  1.00  0.00     0.139 C 
ATOM     20  OE1 GLU A   1     -25.588  -3.132  -9.872  1.00  0.00    -0.650 OA
BRANCH  19  21
ATOM     21  OE2 GLU A   1     -24.327  -3.778  -8.104  1.00  0.00    -0.776 OA
ATOM     22  HE2 GLU A   1     -24.025  -4.690  -7.925  1.00  0.00     0.167 HD
ENDBRANCH  19  21
ENDBRANCH  18  19
ENDBRANCH  17  18
ENDBRANCH  16  17
BRANCH  16  23
ATOM     23  C   GLU A   1     -22.115  -4.011 -13.134  1.00  0.00     0.163 C 
ATOM     24  O   GLU A   1     -21.178  -3.952 -12.346  1.00  0.00    -0.648 OA
BRANCH  23  25
ATOM     25  OXT GLU A   1     -21.988  -3.677 -14.437  1.00  0.00    -0.775 OA
ATOM     26  HXT GLU A   1     -21.121  -3.281 -14.679  1.00  0.00     0.167 HD
ENDBRANCH  23  25
ENDBRANCH  16  23
ENDBRANCH   3  16
TORSDOF 9
BEGIN_RES ARG D 557
REMARK  4 active torsions:
REMARK  status: ('A' for Active; 'I' for Inactive)
REMARK    1  A    between atoms: CA   and  CB  
REMARK    2  A    between atoms: CB   and  CG  
REMARK    3  A    between atoms: CG   and  CD  
REMARK    4  A    between atoms: CD   and  NE  
REMARK       I    between atoms: NE   and  CZ  
REMARK       I    between atoms: CZ   and  NH1 
REMARK       I    between atoms: CZ   and  NH2 
ROOT
ATOM      1  CA  ARG D 557     -26.217   2.705 -17.014  1.00 35.49     0.159 C 
ENDROOT
BRANCH   1   2
ATOM      2  CB  ARG D 557     -26.789   1.319 -17.183  1.00 35.49     0.034 C 
BRANCH   2   3
ATOM      3  CG  ARG D 557     -28.228   1.227 -17.459  1.00 35.49     0.027 C 
BRANCH   3   4
ATOM      4  CD  ARG D 557     -28.911   0.254 -16.577  1.00 35.49     0.116 C 
BRANCH   4   5
ATOM      5  NE  ARG D 557     -28.034  -0.807 -16.158  1.00 35.49    -0.212 N 
ATOM      6  CZ  ARG D 557     -28.096  -2.057 -16.559  1.00 35.49     0.666 C 
ATOM      7  NH1 ARG D 557     -29.012  -2.486 -17.407  1.00 35.49    -0.235 N 
ATOM      8  NH2 ARG D 557     -27.204  -2.882 -16.091  1.00 35.49    -0.235 N 
ATOM      9  HH  ARG D 557     -29.607  -1.960 -17.729  1.00 35.49     0.174 HD
ATOM     10  HH  ARG D 557     -29.002  -3.312 -17.634  1.00 35.49     0.174 HD
ATOM     11  HH  ARG D 557     -26.620  -2.576 -15.551  1.00 35.49     0.174 HD
ATOM     12  HH  ARG D 557     -27.210  -3.696 -16.330  1.00 35.49     0.174 HD
ATOM     13  HE  ARG D 557     -27.458  -0.636 -15.556  1.00 35.49     0.178 HD
ENDBRANCH   4   5
ENDBRANCH   3   4
ENDBRANCH   2   3
ENDBRANCH   1   2
END_RES ARG D 557
BEGIN_RES GLU D 570
REMARK  3 active torsions:
REMARK  status: ('A' for Active; 'I' for Inactive)
REMARK    5  A    between atoms: CA   and  CB  
REMARK    6  A    between atoms: CB   and  CG  
REMARK    7  A    between atoms: CG   and  CD  
ROOT
ATOM     14  CA  GLU D 570     -18.033  -6.348 -13.375  1.00 32.92     0.160 C 
ENDROOT
BRANCH  14  15
ATOM     15  CB  GLU D 570     -19.500  -6.345 -13.794  1.00 32.92     0.043 C 
BRANCH  15  16
ATOM     16  CG  GLU D 570     -20.084  -7.632 -14.251  1.00 32.92     0.100 C 
BRANCH  16  17
ATOM     17  CD  GLU D 570     -21.018  -7.471 -15.428  1.00 32.92     0.185 C 
ATOM     18  OE1 GLU D 570     -21.498  -6.347 -15.670  1.00 32.92    -0.647 OA
ATOM     19  OE2 GLU D 570     -21.286  -8.484 -16.105  1.00 32.92    -0.647 OA
ENDBRANCH  16  17
ENDBRANCH  15  16
ENDBRANCH  14  15
END_RES GLU D 570
ENDMDL
MODEL 9
REMARK VINA RESULT:      -7.8      5.601      9.203
REMARK  9 active torsions:
REMARK  status: ('A' for Active; 'I' for Inactive)
REMARK    1  A    between atoms: C_7  and  C_10 
REMARK    2  A    between atoms: C_10  and  C_11 
REMARK       I    between atoms: C_11  and  N_14 
REMARK    3  A    between atoms: N_14  and  CA_15 
REMARK    4  A    between atoms: CA_15  and  CB_16 
REMARK    5  A    between atoms: CA_15  and  C_21 
REMARK    6  A    between atoms: CB_16  and  CG_17 
REMARK    7  A    between atoms: CG_17  and  CD_18 
REMARK    8  A    between atoms: CD_18  and  OE2_20 
REMARK    9  A    between atoms: C_21  and  OXT_23 
ROOT
HETATM    1  C   UNK A   0     -21.044  -6.487  -5.515  1.00  0.00     0.222 C 
HETATM    2  O   UNK A   0     -21.295  -7.556  -6.065  1.00  0.00    -0.273 OA
ATOM      3  N   GLU A   1     -21.029  -6.352  -4.148  1.00  0.00    -0.346 N 
ATOM      4  H   GLU A   1     -20.896  -5.435  -3.727  1.00  0.00     0.163 HD
ENDROOT
BRANCH   1   5
HETATM    5  C   UNK A   0     -20.655  -5.243  -6.297  1.00  0.00     0.143 C 
BRANCH   5   6
HETATM    6  C   UNK A   0     -21.673  -4.793  -7.297  1.00  0.00    -0.022 A 
HETATM    7  C   UNK A   0     -21.469  -4.453  -8.681  1.00  0.00    -0.001 A 
HETATM    8  C   UNK A   0     -22.695  -4.015  -9.186  1.00  0.00     0.042 A 
HETATM    9  C   UNK A   0     -20.357  -4.454  -9.546  1.00  0.00     0.014 A 
HETATM   10  C   UNK A   0     -22.868  -3.594 -10.511  1.00  0.00     0.030 A 
HETATM   11  N   UNK A   0     -23.606  -4.077  -8.159  1.00  0.00    -0.365 N 
HETATM   12  C   UNK A   0     -21.752  -3.618 -11.350  1.00  0.00     0.002 A 
HETATM   13  C   UNK A   0     -20.513  -4.039 -10.876  1.00  0.00     0.001 A 
HETATM   14  C   UNK A   0     -23.006  -4.543  -7.022  1.00  0.00     0.097 A 
HETATM   15  H   UNK A   0     -24.573  -3.795  -8.238  1.00  0.00     0.165 HD
ENDBRANCH   5   6
ENDBRANCH   1   5
BRANCH   3  16
ATOM     16  CA  GLU A   1     -21.305  -7.483  -3.262  1.00  0.00     0.182 C 
BRANCH  16  17
ATOM     17  CB  GLU A   1     -19.999  -8.217  -2.903  1.00  0.00     0.046 C 
BRANCH  17  18
ATOM     18  CG  GLU A   1     -19.767  -9.514  -3.677  1.00  0.00     0.112 C 
BRANCH  18  19
ATOM     19  CD  GLU A   1     -18.548  -9.404  -4.553  1.00  0.00     0.139 C 
ATOM     20  OE1 GLU A   1     -17.417  -9.600  -4.129  1.00  0.00    -0.650 OA
BRANCH  19  21
ATOM     21  OE2 GLU A   1     -18.822  -9.160  -5.850  1.00  0.00    -0.776 OA
ATOM     22  HE2 GLU A   1     -18.559  -8.274  -6.167  1.00  0.00     0.167 HD
ENDBRANCH  19  21
ENDBRANCH  18  19
ENDBRANCH  17  18
ENDBRANCH  16  17
BRANCH  16  23
ATOM     23  C   GLU A   1     -21.986  -6.942  -2.004  1.00  0.00     0.163 C 
ATOM     24  O   GLU A   1     -21.947  -7.513  -0.920  1.00  0.00    -0.648 OA
BRANCH  23  25
ATOM     25  OXT GLU A   1     -22.636  -5.771  -2.183  1.00  0.00    -0.775 OA
ATOM     26  HXT GLU A   1     -23.492  -5.696  -1.705  1.00  0.00     0.167 HD
ENDBRANCH  23  25
ENDBRANCH  16  23
ENDBRANCH   3  16
TORSDOF 9
BEGIN_RES ARG D 557
REMARK  4 active torsions:
REMARK  status: ('A' for Active; 'I' for Inactive)
REMARK    1  A    between atoms: CA   and  CB  
REMARK    2  A    between atoms: CB   and  CG  
REMARK    3  A    between atoms: CG   and  CD  
REMARK    4  A    between atoms: CD   and  NE  
REMARK       I    between atoms: NE   and  CZ  
REMARK       I    between atoms: CZ   and  NH1 
REMARK       I    between atoms: CZ   and  NH2 
ROOT
ATOM      1  CA  ARG D 557     -26.217   2.705 -17.014  1.00 35.49     0.159 C 
ENDROOT
BRANCH   1   2
ATOM      2  CB  ARG D 557     -26.789   1.319 -17.183  1.00 35.49     0.034 C 
BRANCH   2   3
ATOM      3  CG  ARG D 557     -25.933   0.197 -16.779  1.00 35.49     0.027 C 
BRANCH   3   4
ATOM      4  CD  ARG D 557     -26.688  -0.866 -16.078  1.00 35.49     0.116 C 
BRANCH   4   5
ATOM      5  NE  ARG D 557     -25.957  -1.404 -14.961  1.00 35.49    -0.212 N 
ATOM      6  CZ  ARG D 557     -25.914  -2.670 -14.610  1.00 35.49     0.666 C 
ATOM      7  NH1 ARG D 557     -26.574  -3.610 -15.262  1.00 35.49    -0.235 N 
ATOM      8  NH2 ARG D 557     -25.181  -2.983 -13.581  1.00 35.49    -0.235 N 
ATOM      9  HH  ARG D 557     -27.060  -3.427 -15.943  1.00 35.49     0.174 HD
ATOM     10  HH  ARG D 557     -26.506  -4.419 -14.988  1.00 35.49     0.174 HD
ATOM     11  HH  ARG D 557     -24.760  -2.356 -13.184  1.00 35.49     0.174 HD
ATOM     12  HH  ARG D 557     -25.125  -3.789 -13.327  1.00 35.49     0.174 HD
ATOM     13  HE  ARG D 557     -25.561  -0.859 -14.443  1.00 35.49     0.178 HD
ENDBRANCH   4   5
ENDBRANCH   3   4
ENDBRANCH   2   3
ENDBRANCH   1   2
END_RES ARG D 557
BEGIN_RES GLU D 570
REMARK  3 active torsions:
REMARK  status: ('A' for Active; 'I' for Inactive)
REMARK    5  A    between atoms: CA   and  CB  
REMARK    6  A    between atoms: CB   and  CG  
REMARK    7  A    between atoms: CG   and  CD  
ROOT
ATOM     14  CA  GLU D 570     -18.033  -6.348 -13.375  1.00 32.92     0.160 C 
ENDROOT
BRANCH  14  15
ATOM     15  CB  GLU D 570     -19.500  -6.345 -13.794  1.00 32.92     0.043 C 
BRANCH  15  16
ATOM     16  CG  GLU D 570     -19.809  -5.992 -15.204  1.00 32.92     0.100 C 
BRANCH  16  17
ATOM     17  CD  GLU D 570     -21.281  -5.751 -15.442  1.00 32.92     0.185 C 
ATOM     18  OE1 GLU D 570     -22.108  -6.572 -15.001  1.00 32.92    -0.647 OA
ATOM     19  OE2 GLU D 570     -21.610  -4.740 -16.093  1.00 32.92    -0.647 OA
ENDBRANCH  16  17
ENDBRANCH  15  16
ENDBRANCH  14  15
END_RES GLU D 570
ENDMDL
