MODEL 1
REMARK VINA RESULT:      -7.2      0.000      0.000
REMARK  6 active torsions:
REMARK  status: ('A' for Active; 'I' for Inactive)
REMARK    1  A    between atoms: C_4  and  C_6 
REMARK    2  A    between atoms: C_6  and  C_7 
REMARK    3  A    between atoms: C_7  and  C_8 
REMARK    4  A    between atoms: C_8  and  C_9 
REMARK    5  A    between atoms: C_9  and  C_10 
REMARK    6  A    between atoms: C_10  and  O_12 
ROOT
HETATM    1  C   UNL     1     -23.701  -3.941  -9.016  1.00  0.00     0.101 C 
HETATM    2  C   UNL     1     -22.296  -3.651  -8.479  1.00  0.00     0.119 C 
HETATM    3  C   UNL     1     -21.235  -3.959  -9.557  1.00  0.00     0.123 C 
HETATM    4  C   UNL     1     -21.885  -4.094 -10.938  1.00  0.00     0.072 C 
HETATM    5  S   UNL     1     -23.497  -4.857 -10.566  1.00  0.00    -0.160 SA
HETATM    6  N   UNL     1     -20.630  -5.192  -9.087  1.00  0.00    -0.335 N 
HETATM    7  C   UNL     1     -21.008  -5.486  -7.798  1.00  0.00     0.316 C 
HETATM    8  O   UNL     1     -20.598  -6.412  -7.126  1.00  0.00    -0.247 OA
HETATM    9  N   UNL     1     -21.924  -4.538  -7.396  1.00  0.00    -0.336 N 
HETATM   10  H   UNL     1     -19.904  -5.728  -9.543  1.00  0.00     0.164 HD
HETATM   11  H   UNL     1     -22.386  -4.629  -6.501  1.00  0.00     0.164 HD
ENDROOT
BRANCH   4  12
HETATM   12  C   UNL     1     -22.120  -2.758 -11.660  1.00  0.00     0.017 C 
BRANCH  12  13
HETATM   13  C   UNL     1     -23.440  -2.724 -12.434  1.00  0.00     0.002 C 
BRANCH  13  14
HETATM   14  C   UNL     1     -23.240  -3.118 -13.898  1.00  0.00     0.010 C 
BRANCH  14  15
HETATM   15  C   UNL     1     -23.398  -1.904 -14.814  1.00  0.00     0.110 C 
BRANCH  15  16
HETATM   16  C   UNL     1     -24.822  -1.400 -14.848  1.00  0.00     0.139 C 
HETATM   17  O   UNL     1     -25.816  -2.101 -14.927  1.00  0.00    -0.650 OA
BRANCH  16  18
HETATM   18  O   UNL     1     -24.887  -0.052 -14.771  1.00  0.00    -0.776 OA
HETATM   19  H   UNL     1     -24.798   0.298 -13.864  1.00  0.00     0.167 HD
ENDBRANCH  16  18
ENDBRANCH  15  16
ENDBRANCH  14  15
ENDBRANCH  13  14
ENDBRANCH  12  13
ENDBRANCH   4  12
TORSDOF 6
BEGIN_RES ARG D 557
REMARK  4 active torsions:
REMARK  status: ('A' for Active; 'I' for Inactive)
REMARK    1  A    between atoms: CA   and  CB  
REMARK    2  A    between atoms: CB   and  CG  
REMARK    3  A    between atoms: CG   and  CD  
REMARK    4  A    between atoms: CD   and  NE  
REMARK       I    between atoms: NE   and  CZ  
REMARK       I    between atoms: CZ   and  NH1 
REMARK       I    between atoms: CZ   and  NH2 
ROOT
ATOM      1  CA  ARG D 557     -26.217   2.705 -17.014  1.00 35.49     0.159 C 
ENDROOT
BRANCH   1   2
ATOM      2  CB  ARG D 557     -26.789   1.319 -17.183  1.00 35.49     0.034 C 
BRANCH   2   3
ATOM      3  CG  ARG D 557     -28.143   1.095 -16.661  1.00 35.49     0.027 C 
BRANCH   3   4
ATOM      4  CD  ARG D 557     -28.783  -0.103 -17.250  1.00 35.49     0.116 C 
BRANCH   4   5
ATOM      5  NE  ARG D 557     -28.150  -1.323 -16.822  1.00 35.49    -0.212 N 
ATOM      6  CZ  ARG D 557     -28.613  -2.537 -17.016  1.00 35.49     0.666 C 
ATOM      7  NH1 ARG D 557     -29.756  -2.771 -17.634  1.00 35.49    -0.235 N 
ATOM      8  NH2 ARG D 557     -27.895  -3.530 -16.577  1.00 35.49    -0.235 N 
ATOM      9  HH  ARG D 557     -30.243  -2.132 -17.933  1.00 35.49     0.174 HD
ATOM     10  HH  ARG D 557     -30.006  -3.584 -17.734  1.00 35.49     0.174 HD
ATOM     11  HH  ARG D 557     -27.158  -3.350 -16.188  1.00 35.49     0.174 HD
ATOM     12  HH  ARG D 557     -28.159  -4.329 -16.687  1.00 35.49     0.174 HD
ATOM     13  HE  ARG D 557     -27.445  -1.263 -16.351  1.00 35.49     0.178 HD
ENDBRANCH   4   5
ENDBRANCH   3   4
ENDBRANCH   2   3
ENDBRANCH   1   2
END_RES ARG D 557
BEGIN_RES GLU D 570
REMARK  3 active torsions:
REMARK  status: ('A' for Active; 'I' for Inactive)
REMARK    5  A    between atoms: CA   and  CB  
REMARK    6  A    between atoms: CB   and  CG  
REMARK    7  A    between atoms: CG   and  CD  
ROOT
ATOM     14  CA  GLU D 570     -18.033  -6.348 -13.375  1.00 32.92     0.160 C 
ENDROOT
BRANCH  14  15
ATOM     15  CB  GLU D 570     -19.500  -6.345 -13.794  1.00 32.92     0.043 C 
BRANCH  15  16
ATOM     16  CG  GLU D 570     -20.080  -7.629 -14.266  1.00 32.92     0.100 C 
BRANCH  16  17
ATOM     17  CD  GLU D 570     -21.048  -7.452 -15.412  1.00 32.92     0.185 C 
ATOM     18  OE1 GLU D 570     -21.929  -6.575 -15.330  1.00 32.92    -0.647 OA
ATOM     19  OE2 GLU D 570     -20.934  -8.210 -16.396  1.00 32.92    -0.647 OA
ENDBRANCH  16  17
ENDBRANCH  15  16
ENDBRANCH  14  15
END_RES GLU D 570
ENDMDL
MODEL 2
REMARK VINA RESULT:      -7.1      7.364     11.520
REMARK  6 active torsions:
REMARK  status: ('A' for Active; 'I' for Inactive)
REMARK    1  A    between atoms: C_4  and  C_6 
REMARK    2  A    between atoms: C_6  and  C_7 
REMARK    3  A    between atoms: C_7  and  C_8 
REMARK    4  A    between atoms: C_8  and  C_9 
REMARK    5  A    between atoms: C_9  and  C_10 
REMARK    6  A    between atoms: C_10  and  O_12 
ROOT
HETATM    1  C   UNL     1     -37.440  -0.193 -12.809  1.00  0.00     0.101 C 
HETATM    2  C   UNL     1     -36.870  -0.558 -14.183  1.00  0.00     0.119 C 
HETATM    3  C   UNL     1     -35.330  -0.650 -14.117  1.00  0.00     0.123 C 
HETATM    4  C   UNL     1     -34.851  -0.728 -12.664  1.00  0.00     0.072 C 
HETATM    5  S   UNL     1     -36.045   0.323 -11.776  1.00  0.00    -0.160 SA
HETATM    6  N   UNL     1     -34.895   0.555 -14.799  1.00  0.00    -0.335 N 
HETATM    7  C   UNL     1     -35.935   1.175 -15.451  1.00  0.00     0.316 C 
HETATM    8  O   UNL     1     -35.849   2.156 -16.164  1.00  0.00    -0.247 OA
HETATM    9  N   UNL     1     -37.091   0.481 -15.167  1.00  0.00    -0.336 N 
HETATM   10  H   UNL     1     -33.943   0.868 -14.938  1.00  0.00     0.164 HD
HETATM   11  H   UNL     1     -37.983   0.831 -15.490  1.00  0.00     0.164 HD
ENDROOT
BRANCH   4  12
HETATM   12  C   UNL     1     -34.884  -2.142 -12.062  1.00  0.00     0.017 C 
BRANCH  12  13
HETATM   13  C   UNL     1     -33.690  -2.426 -11.148  1.00  0.00     0.002 C 
BRANCH  13  14
HETATM   14  C   UNL     1     -33.122  -3.825 -11.388  1.00  0.00     0.010 C 
BRANCH  14  15
HETATM   15  C   UNL     1     -33.919  -4.876 -10.615  1.00  0.00     0.110 C 
BRANCH  15  16
HETATM   16  C   UNL     1     -34.579  -5.877 -11.534  1.00  0.00     0.139 C 
HETATM   17  O   UNL     1     -35.103  -5.615 -12.603  1.00  0.00    -0.650 OA
BRANCH  16  18
HETATM   18  O   UNL     1     -34.521  -7.135 -11.042  1.00  0.00    -0.776 OA
HETATM   19  H   UNL     1     -33.665  -7.580 -11.190  1.00  0.00     0.167 HD
ENDBRANCH  16  18
ENDBRANCH  15  16
ENDBRANCH  14  15
ENDBRANCH  13  14
ENDBRANCH  12  13
ENDBRANCH   4  12
TORSDOF 6
BEGIN_RES ARG D 557
REMARK  4 active torsions:
REMARK  status: ('A' for Active; 'I' for Inactive)
REMARK    1  A    between atoms: CA   and  CB  
REMARK    2  A    between atoms: CB   and  CG  
REMARK    3  A    between atoms: CG   and  CD  
REMARK    4  A    between atoms: CD   and  NE  
REMARK       I    between atoms: NE   and  CZ  
REMARK       I    between atoms: CZ   and  NH1 
REMARK       I    between atoms: CZ   and  NH2 
ROOT
ATOM      1  CA  ARG D 557     -26.217   2.705 -17.014  1.00 35.49     0.159 C 
ENDROOT
BRANCH   1   2
ATOM      2  CB  ARG D 557     -26.789   1.319 -17.183  1.00 35.49     0.034 C 
BRANCH   2   3
ATOM      3  CG  ARG D 557     -25.837   0.202 -17.149  1.00 35.49     0.027 C 
BRANCH   3   4
ATOM      4  CD  ARG D 557     -24.762   0.408 -16.151  1.00 35.49     0.116 C 
BRANCH   4   5
ATOM      5  NE  ARG D 557     -24.915  -0.448 -15.005  1.00 35.49    -0.212 N 
ATOM      6  CZ  ARG D 557     -24.106  -1.425 -14.662  1.00 35.49     0.666 C 
ATOM      7  NH1 ARG D 557     -23.037  -1.742 -15.370  1.00 35.49    -0.235 N 
ATOM      8  NH2 ARG D 557     -24.388  -2.085 -13.576  1.00 35.49    -0.235 N 
ATOM      9  HH  ARG D 557     -22.831  -1.320 -16.086  1.00 35.49     0.174 HD
ATOM     10  HH  ARG D 557     -22.545  -2.388 -15.096  1.00 35.49     0.174 HD
ATOM     11  HH  ARG D 557     -25.080  -1.854 -13.136  1.00 35.49     0.174 HD
ATOM     12  HH  ARG D 557     -23.887  -2.720 -13.321  1.00 35.49     0.174 HD
ATOM     13  HE  ARG D 557     -25.617  -0.361 -14.532  1.00 35.49     0.178 HD
ENDBRANCH   4   5
ENDBRANCH   3   4
ENDBRANCH   2   3
ENDBRANCH   1   2
END_RES ARG D 557
BEGIN_RES GLU D 570
REMARK  3 active torsions:
REMARK  status: ('A' for Active; 'I' for Inactive)
REMARK    5  A    between atoms: CA   and  CB  
REMARK    6  A    between atoms: CB   and  CG  
REMARK    7  A    between atoms: CG   and  CD  
ROOT
ATOM     14  CA  GLU D 570     -18.033  -6.348 -13.375  1.00 32.92     0.160 C 
ENDROOT
BRANCH  14  15
ATOM     15  CB  GLU D 570     -19.500  -6.345 -13.794  1.00 32.92     0.043 C 
BRANCH  15  16
ATOM     16  CG  GLU D 570     -20.444  -5.538 -12.977  1.00 32.92     0.100 C 
BRANCH  16  17
ATOM     17  CD  GLU D 570     -21.735  -5.233 -13.699  1.00 32.92     0.185 C 
ATOM     18  OE1 GLU D 570     -22.209  -6.083 -14.478  1.00 32.92    -0.647 OA
ATOM     19  OE2 GLU D 570     -22.271  -4.126 -13.496  1.00 32.92    -0.647 OA
ENDBRANCH  16  17
ENDBRANCH  15  16
ENDBRANCH  14  15
END_RES GLU D 570
ENDMDL
MODEL 3
REMARK VINA RESULT:      -7.0      2.142      5.092
REMARK  6 active torsions:
REMARK  status: ('A' for Active; 'I' for Inactive)
REMARK    1  A    between atoms: C_4  and  C_6 
REMARK    2  A    between atoms: C_6  and  C_7 
REMARK    3  A    between atoms: C_7  and  C_8 
REMARK    4  A    between atoms: C_8  and  C_9 
REMARK    5  A    between atoms: C_9  and  C_10 
REMARK    6  A    between atoms: C_10  and  O_12 
ROOT
HETATM    1  C   UNL     1     -23.114  -5.232 -12.883  1.00  0.00     0.101 C 
HETATM    2  C   UNL     1     -22.996  -4.026 -13.821  1.00  0.00     0.119 C 
HETATM    3  C   UNL     1     -22.766  -2.734 -13.006  1.00  0.00     0.123 C 
HETATM    4  C   UNL     1     -22.349  -3.064 -11.569  1.00  0.00     0.072 C 
HETATM    5  S   UNL     1     -23.288  -4.582 -11.202  1.00  0.00    -0.160 SA
HETATM    6  N   UNL     1     -24.047  -2.056 -13.089  1.00  0.00    -0.335 N 
HETATM    7  C   UNL     1     -24.871  -2.637 -14.023  1.00  0.00     0.316 C 
HETATM    8  O   UNL     1     -25.969  -2.234 -14.357  1.00  0.00    -0.247 OA
HETATM    9  N   UNL     1     -24.231  -3.749 -14.524  1.00  0.00    -0.336 N 
HETATM   10  H   UNL     1     -24.302  -1.179 -12.654  1.00  0.00     0.164 HD
HETATM   11  H   UNL     1     -24.713  -4.363 -15.168  1.00  0.00     0.164 HD
ENDROOT
BRANCH   4  12
HETATM   12  C   UNL     1     -20.849  -3.349 -11.395  1.00  0.00     0.017 C 
BRANCH  12  13
HETATM   13  C   UNL     1     -20.574  -4.540 -10.474  1.00  0.00     0.002 C 
BRANCH  13  14
HETATM   14  C   UNL     1     -20.294  -4.086  -9.041  1.00  0.00     0.010 C 
BRANCH  14  15
HETATM   15  C   UNL     1     -20.863  -5.084  -8.033  1.00  0.00     0.110 C 
BRANCH  15  16
HETATM   16  C   UNL     1     -22.055  -4.525  -7.292  1.00  0.00     0.139 C 
HETATM   17  O   UNL     1     -22.568  -5.023  -6.305  1.00  0.00    -0.650 OA
BRANCH  16  18
HETATM   18  O   UNL     1     -22.506  -3.377  -7.845  1.00  0.00    -0.776 OA
HETATM   19  H   UNL     1     -22.313  -2.579  -7.317  1.00  0.00     0.167 HD
ENDBRANCH  16  18
ENDBRANCH  15  16
ENDBRANCH  14  15
ENDBRANCH  13  14
ENDBRANCH  12  13
ENDBRANCH   4  12
TORSDOF 6
BEGIN_RES ARG D 557
REMARK  4 active torsions:
REMARK  status: ('A' for Active; 'I' for Inactive)
REMARK    1  A    between atoms: CA   and  CB  
REMARK    2  A    between atoms: CB   and  CG  
REMARK    3  A    between atoms: CG   and  CD  
REMARK    4  A    between atoms: CD   and  NE  
REMARK       I    between atoms: NE   and  CZ  
REMARK       I    between atoms: CZ   and  NH1 
REMARK       I    between atoms: CZ   and  NH2 
ROOT
ATOM      1  CA  ARG D 557     -26.217   2.705 -17.014  1.00 35.49     0.159 C 
ENDROOT
BRANCH   1   2
ATOM      2  CB  ARG D 557     -26.789   1.319 -17.183  1.00 35.49     0.034 C 
BRANCH   2   3
ATOM      3  CG  ARG D 557     -28.236   1.225 -17.415  1.00 35.49     0.027 C 
BRANCH   3   4
ATOM      4  CD  ARG D 557     -28.901   0.310 -16.460  1.00 35.49     0.116 C 
BRANCH   4   5
ATOM      5  NE  ARG D 557     -28.160  -0.909 -16.270  1.00 35.49    -0.212 N 
ATOM      6  CZ  ARG D 557     -28.475  -2.085 -16.765  1.00 35.49     0.666 C 
ATOM      7  NH1 ARG D 557     -29.552  -2.278 -17.504  1.00 35.49    -0.235 N 
ATOM      8  NH2 ARG D 557     -27.675  -3.079 -16.508  1.00 35.49    -0.235 N 
ATOM      9  HH  ARG D 557     -30.092  -1.638 -17.687  1.00 35.49     0.174 HD
ATOM     10  HH  ARG D 557     -29.705  -3.066 -17.802  1.00 35.49     0.174 HD
ATOM     11  HH  ARG D 557     -26.982  -2.923 -16.035  1.00 35.49     0.174 HD
ATOM     12  HH  ARG D 557     -27.843  -3.851 -16.814  1.00 35.49     0.174 HD
ATOM     13  HE  ARG D 557     -27.490  -0.892 -15.746  1.00 35.49     0.178 HD
ENDBRANCH   4   5
ENDBRANCH   3   4
ENDBRANCH   2   3
ENDBRANCH   1   2
END_RES ARG D 557
BEGIN_RES GLU D 570
REMARK  3 active torsions:
REMARK  status: ('A' for Active; 'I' for Inactive)
REMARK    5  A    between atoms: CA   and  CB  
REMARK    6  A    between atoms: CB   and  CG  
REMARK    7  A    between atoms: CG   and  CD  
ROOT
ATOM     14  CA  GLU D 570     -18.033  -6.348 -13.375  1.00 32.92     0.160 C 
ENDROOT
BRANCH  14  15
ATOM     15  CB  GLU D 570     -19.500  -6.345 -13.794  1.00 32.92     0.043 C 
BRANCH  15  16
ATOM     16  CG  GLU D 570     -19.948  -7.413 -14.724  1.00 32.92     0.100 C 
BRANCH  16  17
ATOM     17  CD  GLU D 570     -20.860  -6.901 -15.815  1.00 32.92     0.185 C 
ATOM     18  OE1 GLU D 570     -21.994  -7.401 -15.941  1.00 32.92    -0.647 OA
ATOM     19  OE2 GLU D 570     -20.429  -6.000 -16.562  1.00 32.92    -0.647 OA
ENDBRANCH  16  17
ENDBRANCH  15  16
ENDBRANCH  14  15
END_RES GLU D 570
ENDMDL
MODEL 4
REMARK VINA RESULT:      -6.8      7.244     10.155
REMARK  6 active torsions:
REMARK  status: ('A' for Active; 'I' for Inactive)
REMARK    1  A    between atoms: C_4  and  C_6 
REMARK    2  A    between atoms: C_6  and  C_7 
REMARK    3  A    between atoms: C_7  and  C_8 
REMARK    4  A    between atoms: C_8  and  C_9 
REMARK    5  A    between atoms: C_9  and  C_10 
REMARK    6  A    between atoms: C_10  and  O_12 
ROOT
HETATM    1  C   UNL     1     -32.622  -3.634 -11.652  1.00  0.00     0.101 C 
HETATM    2  C   UNL     1     -33.624  -4.688 -12.134  1.00  0.00     0.119 C 
HETATM    3  C   UNL     1     -35.069  -4.222 -11.855  1.00  0.00     0.123 C 
HETATM    4  C   UNL     1     -35.105  -2.723 -11.539  1.00  0.00     0.072 C 
HETATM    5  S   UNL     1     -33.545  -2.449 -10.640  1.00  0.00    -0.160 SA
HETATM    6  N   UNL     1     -35.477  -5.052 -10.737  1.00  0.00    -0.335 N 
HETATM    7  C   UNL     1     -34.586  -6.075 -10.510  1.00  0.00     0.316 C 
HETATM    8  O   UNL     1     -34.713  -6.965  -9.692  1.00  0.00    -0.247 OA
HETATM    9  N   UNL     1     -33.531  -5.923 -11.383  1.00  0.00    -0.336 N 
HETATM   10  H   UNL     1     -36.361  -5.024 -10.247  1.00  0.00     0.164 HD
HETATM   11  H   UNL     1     -32.728  -6.534 -11.317  1.00  0.00     0.164 HD
ENDROOT
BRANCH   4  12
HETATM   12  C   UNL     1     -35.133  -1.815 -12.779  1.00  0.00     0.017 C 
BRANCH  12  13
HETATM   13  C   UNL     1     -34.828  -0.352 -12.451  1.00  0.00     0.002 C 
BRANCH  13  14
HETATM   14  C   UNL     1     -35.002   0.545 -13.678  1.00  0.00     0.010 C 
BRANCH  14  15
HETATM   15  C   UNL     1     -36.359   0.304 -14.338  1.00  0.00     0.110 C 
BRANCH  15  16
HETATM   16  C   UNL     1     -36.327   0.591 -15.821  1.00  0.00     0.139 C 
HETATM   17  O   UNL     1     -36.295  -0.252 -16.702  1.00  0.00    -0.650 OA
BRANCH  16  18
HETATM   18  O   UNL     1     -36.347   1.917 -16.084  1.00  0.00    -0.776 OA
HETATM   19  H   UNL     1     -36.842   2.444 -15.429  1.00  0.00     0.167 HD
ENDBRANCH  16  18
ENDBRANCH  15  16
ENDBRANCH  14  15
ENDBRANCH  13  14
ENDBRANCH  12  13
ENDBRANCH   4  12
TORSDOF 6
BEGIN_RES ARG D 557
REMARK  4 active torsions:
REMARK  status: ('A' for Active; 'I' for Inactive)
REMARK    1  A    between atoms: CA   and  CB  
REMARK    2  A    between atoms: CB   and  CG  
REMARK    3  A    between atoms: CG   and  CD  
REMARK    4  A    between atoms: CD   and  NE  
REMARK       I    between atoms: NE   and  CZ  
REMARK       I    between atoms: CZ   and  NH1 
REMARK       I    between atoms: CZ   and  NH2 
ROOT
ATOM      1  CA  ARG D 557     -26.217   2.705 -17.014  1.00 35.49     0.159 C 
ENDROOT
BRANCH   1   2
ATOM      2  CB  ARG D 557     -26.789   1.319 -17.183  1.00 35.49     0.034 C 
BRANCH   2   3
ATOM      3  CG  ARG D 557     -25.834   0.204 -17.170  1.00 35.49     0.027 C 
BRANCH   3   4
ATOM      4  CD  ARG D 557     -24.740   0.410 -16.194  1.00 35.49     0.116 C 
BRANCH   4   5
ATOM      5  NE  ARG D 557     -24.888  -0.425 -15.030  1.00 35.49    -0.212 N 
ATOM      6  CZ  ARG D 557     -24.075  -1.393 -14.672  1.00 35.49     0.666 C 
ATOM      7  NH1 ARG D 557     -23.008  -1.722 -15.376  1.00 35.49    -0.235 N 
ATOM      8  NH2 ARG D 557     -24.352  -2.033 -13.573  1.00 35.49    -0.235 N 
ATOM      9  HH  ARG D 557     -22.806  -1.313 -16.102  1.00 35.49     0.174 HD
ATOM     10  HH  ARG D 557     -22.513  -2.361 -15.092  1.00 35.49     0.174 HD
ATOM     11  HH  ARG D 557     -25.044  -1.795 -13.134  1.00 35.49     0.174 HD
ATOM     12  HH  ARG D 557     -23.849  -2.662 -13.307  1.00 35.49     0.174 HD
ATOM     13  HE  ARG D 557     -25.588  -0.330 -14.557  1.00 35.49     0.178 HD
ENDBRANCH   4   5
ENDBRANCH   3   4
ENDBRANCH   2   3
ENDBRANCH   1   2
END_RES ARG D 557
BEGIN_RES GLU D 570
REMARK  3 active torsions:
REMARK  status: ('A' for Active; 'I' for Inactive)
REMARK    5  A    between atoms: CA   and  CB  
REMARK    6  A    between atoms: CB   and  CG  
REMARK    7  A    between atoms: CG   and  CD  
ROOT
ATOM     14  CA  GLU D 570     -18.033  -6.348 -13.375  1.00 32.92     0.160 C 
ENDROOT
BRANCH  14  15
ATOM     15  CB  GLU D 570     -19.500  -6.345 -13.794  1.00 32.92     0.043 C 
BRANCH  15  16
ATOM     16  CG  GLU D 570     -20.440  -5.522 -12.989  1.00 32.92     0.100 C 
BRANCH  16  17
ATOM     17  CD  GLU D 570     -21.749  -5.260 -13.698  1.00 32.92     0.185 C 
ATOM     18  OE1 GLU D 570     -22.305  -4.155 -13.551  1.00 32.92    -0.647 OA
ATOM     19  OE2 GLU D 570     -22.230  -6.176 -14.394  1.00 32.92    -0.647 OA
ENDBRANCH  16  17
ENDBRANCH  15  16
ENDBRANCH  14  15
END_RES GLU D 570
ENDMDL
MODEL 5
REMARK VINA RESULT:      -6.7      1.531      2.058
REMARK  6 active torsions:
REMARK  status: ('A' for Active; 'I' for Inactive)
REMARK    1  A    between atoms: C_4  and  C_6 
REMARK    2  A    between atoms: C_6  and  C_7 
REMARK    3  A    between atoms: C_7  and  C_8 
REMARK    4  A    between atoms: C_8  and  C_9 
REMARK    5  A    between atoms: C_9  and  C_10 
REMARK    6  A    between atoms: C_10  and  O_12 
ROOT
HETATM    1  C   UNL     1     -21.573  -3.317  -7.358  1.00  0.00     0.101 C 
HETATM    2  C   UNL     1     -20.219  -4.005  -7.156  1.00  0.00     0.119 C 
HETATM    3  C   UNL     1     -19.983  -5.059  -8.259  1.00  0.00     0.123 C 
HETATM    4  C   UNL     1     -20.959  -4.856  -9.423  1.00  0.00     0.072 C 
HETATM    5  S   UNL     1     -22.477  -4.280  -8.597  1.00  0.00    -0.160 SA
HETATM    6  N   UNL     1     -20.176  -6.318  -7.563  1.00  0.00    -0.335 N 
HETATM    7  C   UNL     1     -20.233  -6.143  -6.201  1.00  0.00     0.316 C 
HETATM    8  O   UNL     1     -20.311  -7.027  -5.369  1.00  0.00    -0.247 OA
HETATM    9  N   UNL     1     -20.173  -4.792  -5.941  1.00  0.00    -0.336 N 
HETATM   10  H   UNL     1     -20.132  -7.247  -7.960  1.00  0.00     0.164 HD
HETATM   11  H   UNL     1     -20.285  -4.452  -4.995  1.00  0.00     0.164 HD
ENDROOT
BRANCH   4  12
HETATM   12  C   UNL     1     -20.514  -3.799 -10.446  1.00  0.00     0.017 C 
BRANCH  12  13
HETATM   13  C   UNL     1     -21.676  -3.253 -11.280  1.00  0.00     0.002 C 
BRANCH  13  14
HETATM   14  C   UNL     1     -22.034  -4.199 -12.426  1.00  0.00     0.010 C 
BRANCH  14  15
HETATM   15  C   UNL     1     -23.279  -3.710 -13.166  1.00  0.00     0.110 C 
BRANCH  15  16
HETATM   16  C   UNL     1     -22.942  -3.109 -14.510  1.00  0.00     0.139 C 
HETATM   17  O   UNL     1     -23.458  -2.112 -14.986  1.00  0.00    -0.650 OA
BRANCH  16  18
HETATM   18  O   UNL     1     -21.974  -3.802 -15.150  1.00  0.00    -0.776 OA
HETATM   19  H   UNL     1     -21.481  -3.279 -15.809  1.00  0.00     0.167 HD
ENDBRANCH  16  18
ENDBRANCH  15  16
ENDBRANCH  14  15
ENDBRANCH  13  14
ENDBRANCH  12  13
ENDBRANCH   4  12
TORSDOF 6
BEGIN_RES ARG D 557
REMARK  4 active torsions:
REMARK  status: ('A' for Active; 'I' for Inactive)
REMARK    1  A    between atoms: CA   and  CB  
REMARK    2  A    between atoms: CB   and  CG  
REMARK    3  A    between atoms: CG   and  CD  
REMARK    4  A    between atoms: CD   and  NE  
REMARK       I    between atoms: NE   and  CZ  
REMARK       I    between atoms: CZ   and  NH1 
REMARK       I    between atoms: CZ   and  NH2 
ROOT
ATOM      1  CA  ARG D 557     -26.217   2.705 -17.014  1.00 35.49     0.159 C 
ENDROOT
BRANCH   1   2
ATOM      2  CB  ARG D 557     -26.789   1.319 -17.183  1.00 35.49     0.034 C 
BRANCH   2   3
ATOM      3  CG  ARG D 557     -28.224   1.159 -16.916  1.00 35.49     0.027 C 
BRANCH   3   4
ATOM      4  CD  ARG D 557     -28.609  -0.259 -16.732  1.00 35.49     0.116 C 
BRANCH   4   5
ATOM      5  NE  ARG D 557     -27.606  -1.005 -16.019  1.00 35.49    -0.212 N 
ATOM      6  CZ  ARG D 557     -27.421  -2.304 -16.088  1.00 35.49     0.666 C 
ATOM      7  NH1 ARG D 557     -28.175  -3.089 -16.835  1.00 35.49    -0.235 N 
ATOM      8  NH2 ARG D 557     -26.448  -2.810 -15.387  1.00 35.49    -0.235 N 
ATOM      9  HH  ARG D 557     -28.820  -2.777 -17.306  1.00 35.49     0.174 HD
ATOM     10  HH  ARG D 557     -28.007  -3.929 -16.843  1.00 35.49     0.174 HD
ATOM     11  HH  ARG D 557     -25.973  -2.279 -14.919  1.00 35.49     0.174 HD
ATOM     12  HH  ARG D 557     -26.296  -3.644 -15.409  1.00 35.49     0.174 HD
ATOM     13  HE  ARG D 557     -27.122  -0.588 -15.457  1.00 35.49     0.178 HD
ENDBRANCH   4   5
ENDBRANCH   3   4
ENDBRANCH   2   3
ENDBRANCH   1   2
END_RES ARG D 557
BEGIN_RES GLU D 570
REMARK  3 active torsions:
REMARK  status: ('A' for Active; 'I' for Inactive)
REMARK    5  A    between atoms: CA   and  CB  
REMARK    6  A    between atoms: CB   and  CG  
REMARK    7  A    between atoms: CG   and  CD  
ROOT
ATOM     14  CA  GLU D 570     -18.033  -6.348 -13.375  1.00 32.92     0.160 C 
ENDROOT
BRANCH  14  15
ATOM     15  CB  GLU D 570     -19.500  -6.345 -13.794  1.00 32.92     0.043 C 
BRANCH  15  16
ATOM     16  CG  GLU D 570     -20.091  -7.638 -14.225  1.00 32.92     0.100 C 
BRANCH  16  17
ATOM     17  CD  GLU D 570     -21.178  -7.472 -15.262  1.00 32.92     0.185 C 
ATOM     18  OE1 GLU D 570     -22.054  -6.604 -15.087  1.00 32.92    -0.647 OA
ATOM     19  OE2 GLU D 570     -21.162  -8.230 -16.252  1.00 32.92    -0.647 OA
ENDBRANCH  16  17
ENDBRANCH  15  16
ENDBRANCH  14  15
END_RES GLU D 570
ENDMDL
MODEL 6
REMARK VINA RESULT:      -6.7      3.105      4.310
REMARK  6 active torsions:
REMARK  status: ('A' for Active; 'I' for Inactive)
REMARK    1  A    between atoms: C_4  and  C_6 
REMARK    2  A    between atoms: C_6  and  C_7 
REMARK    3  A    between atoms: C_7  and  C_8 
REMARK    4  A    between atoms: C_8  and  C_9 
REMARK    5  A    between atoms: C_9  and  C_10 
REMARK    6  A    between atoms: C_10  and  O_12 
ROOT
HETATM    1  C   UNL     1     -19.775  -6.649  -6.237  1.00  0.00     0.101 C 
HETATM    2  C   UNL     1     -21.010  -7.317  -5.622  1.00  0.00     0.119 C 
HETATM    3  C   UNL     1     -22.132  -6.277  -5.410  1.00  0.00     0.123 C 
HETATM    4  C   UNL     1     -21.844  -4.998  -6.202  1.00  0.00     0.072 C 
HETATM    5  S   UNL     1     -20.029  -4.860  -6.125  1.00  0.00    -0.160 SA
HETATM    6  N   UNL     1     -22.130  -6.074  -3.974  1.00  0.00    -0.335 N 
HETATM    7  C   UNL     1     -21.362  -7.014  -3.327  1.00  0.00     0.316 C 
HETATM    8  O   UNL     1     -21.242  -7.133  -2.123  1.00  0.00    -0.247 OA
HETATM    9  N   UNL     1     -20.764  -7.807  -4.282  1.00  0.00    -0.336 N 
HETATM   10  H   UNL     1     -22.714  -5.438  -3.447  1.00  0.00     0.164 HD
HETATM   11  H   UNL     1     -20.091  -8.509  -4.007  1.00  0.00     0.164 HD
ENDROOT
BRANCH   4  12
HETATM   12  C   UNL     1     -22.280  -5.053  -7.675  1.00  0.00     0.017 C 
BRANCH  12  13
HETATM   13  C   UNL     1     -21.843  -3.821  -8.471  1.00  0.00     0.002 C 
BRANCH  13  14
HETATM   14  C   UNL     1     -22.083  -4.008  -9.969  1.00  0.00     0.010 C 
BRANCH  14  15
HETATM   15  C   UNL     1     -23.498  -4.523 -10.232  1.00  0.00     0.110 C 
BRANCH  15  16
HETATM   16  C   UNL     1     -24.464  -3.401 -10.535  1.00  0.00     0.139 C 
HETATM   17  O   UNL     1     -25.506  -3.188  -9.939  1.00  0.00    -0.650 OA
BRANCH  16  18
HETATM   18  O   UNL     1     -24.040  -2.627 -11.559  1.00  0.00    -0.776 OA
HETATM   19  H   UNL     1     -24.501  -1.770 -11.625  1.00  0.00     0.167 HD
ENDBRANCH  16  18
ENDBRANCH  15  16
ENDBRANCH  14  15
ENDBRANCH  13  14
ENDBRANCH  12  13
ENDBRANCH   4  12
TORSDOF 6
BEGIN_RES ARG D 557
REMARK  4 active torsions:
REMARK  status: ('A' for Active; 'I' for Inactive)
REMARK    1  A    between atoms: CA   and  CB  
REMARK    2  A    between atoms: CB   and  CG  
REMARK    3  A    between atoms: CG   and  CD  
REMARK    4  A    between atoms: CD   and  NE  
REMARK       I    between atoms: NE   and  CZ  
REMARK       I    between atoms: CZ   and  NH1 
REMARK       I    between atoms: CZ   and  NH2 
ROOT
ATOM      1  CA  ARG D 557     -26.217   2.705 -17.014  1.00 35.49     0.159 C 
ENDROOT
BRANCH   1   2
ATOM      2  CB  ARG D 557     -26.789   1.319 -17.183  1.00 35.49     0.034 C 
BRANCH   2   3
ATOM      3  CG  ARG D 557     -25.947   0.199 -16.745  1.00 35.49     0.027 C 
BRANCH   3   4
ATOM      4  CD  ARG D 557     -26.728  -0.863 -16.070  1.00 35.49     0.116 C 
BRANCH   4   5
ATOM      5  NE  ARG D 557     -25.919  -1.642 -15.170  1.00 35.49    -0.212 N 
ATOM      6  CZ  ARG D 557     -26.045  -2.931 -14.944  1.00 35.49     0.666 C 
ATOM      7  NH1 ARG D 557     -26.970  -3.667 -15.531  1.00 35.49    -0.235 N 
ATOM      8  NH2 ARG D 557     -25.209  -3.478 -14.110  1.00 35.49    -0.235 N 
ATOM      9  HH  ARG D 557     -27.529  -3.328 -16.085  1.00 35.49     0.174 HD
ATOM     10  HH  ARG D 557     -27.002  -4.503 -15.347  1.00 35.49     0.174 HD
ATOM     11  HH  ARG D 557     -24.617  -2.979 -13.751  1.00 35.49     0.174 HD
ATOM     12  HH  ARG D 557     -25.256  -4.308 -13.942  1.00 35.49     0.174 HD
ATOM     13  HE  ARG D 557     -25.345  -1.234 -14.694  1.00 35.49     0.178 HD
ENDBRANCH   4   5
ENDBRANCH   3   4
ENDBRANCH   2   3
ENDBRANCH   1   2
END_RES ARG D 557
BEGIN_RES GLU D 570
REMARK  3 active torsions:
REMARK  status: ('A' for Active; 'I' for Inactive)
REMARK    5  A    between atoms: CA   and  CB  
REMARK    6  A    between atoms: CB   and  CG  
REMARK    7  A    between atoms: CG   and  CD  
ROOT
ATOM     14  CA  GLU D 570     -18.033  -6.348 -13.375  1.00 32.92     0.160 C 
ENDROOT
BRANCH  14  15
ATOM     15  CB  GLU D 570     -19.500  -6.345 -13.794  1.00 32.92     0.043 C 
BRANCH  15  16
ATOM     16  CG  GLU D 570     -20.438  -5.513 -12.997  1.00 32.92     0.100 C 
BRANCH  16  17
ATOM     17  CD  GLU D 570     -21.743  -5.248 -13.710  1.00 32.92     0.185 C 
ATOM     18  OE1 GLU D 570     -22.204  -6.119 -14.473  1.00 32.92    -0.647 OA
ATOM     19  OE2 GLU D 570     -22.302  -4.151 -13.517  1.00 32.92    -0.647 OA
ENDBRANCH  16  17
ENDBRANCH  15  16
ENDBRANCH  14  15
END_RES GLU D 570
ENDMDL
MODEL 7
REMARK VINA RESULT:      -6.6      7.039      9.929
REMARK  6 active torsions:
REMARK  status: ('A' for Active; 'I' for Inactive)
REMARK    1  A    between atoms: C_4  and  C_6 
REMARK    2  A    between atoms: C_6  and  C_7 
REMARK    3  A    between atoms: C_7  and  C_8 
REMARK    4  A    between atoms: C_8  and  C_9 
REMARK    5  A    between atoms: C_9  and  C_10 
REMARK    6  A    between atoms: C_10  and  O_12 
ROOT
HETATM    1  C   UNL     1     -32.633  -3.538 -11.634  1.00  0.00     0.101 C 
HETATM    2  C   UNL     1     -33.605  -4.608 -12.143  1.00  0.00     0.119 C 
HETATM    3  C   UNL     1     -35.064  -4.174 -11.884  1.00  0.00     0.123 C 
HETATM    4  C   UNL     1     -35.137  -2.679 -11.555  1.00  0.00     0.072 C 
HETATM    5  S   UNL     1     -33.597  -2.382 -10.627  1.00  0.00    -0.160 SA
HETATM    6  N   UNL     1     -35.473  -5.023 -10.781  1.00  0.00    -0.335 N 
HETATM    7  C   UNL     1     -34.566  -6.029 -10.549  1.00  0.00     0.316 C 
HETATM    8  O   UNL     1     -34.687  -6.930  -9.740  1.00  0.00    -0.247 OA
HETATM    9  N   UNL     1     -33.500  -5.848 -11.402  1.00  0.00    -0.336 N 
HETATM   10  H   UNL     1     -36.366  -5.018 -10.305  1.00  0.00     0.164 HD
HETATM   11  H   UNL     1     -32.685  -6.442 -11.328  1.00  0.00     0.164 HD
ENDROOT
BRANCH   4  12
HETATM   12  C   UNL     1     -35.163  -1.761 -12.787  1.00  0.00     0.017 C 
BRANCH  12  13
HETATM   13  C   UNL     1     -34.770  -0.317 -12.461  1.00  0.00     0.002 C 
BRANCH  13  14
HETATM   14  C   UNL     1     -35.120   0.631 -13.608  1.00  0.00     0.010 C 
BRANCH  14  15
HETATM   15  C   UNL     1     -36.378   0.160 -14.338  1.00  0.00     0.110 C 
BRANCH  15  16
HETATM   16  C   UNL     1     -36.337   0.493 -15.811  1.00  0.00     0.139 C 
HETATM   17  O   UNL     1     -36.338  -0.321 -16.718  1.00  0.00    -0.650 OA
BRANCH  16  18
HETATM   18  O   UNL     1     -36.308   1.827 -16.031  1.00  0.00    -0.776 OA
HETATM   19  H   UNL     1     -35.588   2.116 -16.623  1.00  0.00     0.167 HD
ENDBRANCH  16  18
ENDBRANCH  15  16
ENDBRANCH  14  15
ENDBRANCH  13  14
ENDBRANCH  12  13
ENDBRANCH   4  12
TORSDOF 6
BEGIN_RES ARG D 557
REMARK  4 active torsions:
REMARK  status: ('A' for Active; 'I' for Inactive)
REMARK    1  A    between atoms: CA   and  CB  
REMARK    2  A    between atoms: CB   and  CG  
REMARK    3  A    between atoms: CG   and  CD  
REMARK    4  A    between atoms: CD   and  NE  
REMARK       I    between atoms: NE   and  CZ  
REMARK       I    between atoms: CZ   and  NH1 
REMARK       I    between atoms: CZ   and  NH2 
ROOT
ATOM      1  CA  ARG D 557     -26.217   2.705 -17.014  1.00 35.49     0.159 C 
ENDROOT
BRANCH   1   2
ATOM      2  CB  ARG D 557     -26.789   1.319 -17.183  1.00 35.49     0.034 C 
BRANCH   2   3
ATOM      3  CG  ARG D 557     -28.231   1.226 -17.439  1.00 35.49     0.027 C 
BRANCH   3   4
ATOM      4  CD  ARG D 557     -28.914   0.307 -16.500  1.00 35.49     0.116 C 
BRANCH   4   5
ATOM      5  NE  ARG D 557     -29.293  -0.929 -17.130  1.00 35.49    -0.212 N 
ATOM      6  CZ  ARG D 557     -28.653  -2.072 -17.027  1.00 35.49     0.666 C 
ATOM      7  NH1 ARG D 557     -27.547  -2.204 -16.319  1.00 35.49    -0.235 N 
ATOM      8  NH2 ARG D 557     -29.153  -3.099 -17.651  1.00 35.49    -0.235 N 
ATOM      9  HH  ARG D 557     -27.201  -1.542 -15.898  1.00 35.49     0.174 HD
ATOM     10  HH  ARG D 557     -27.174  -2.975 -16.285  1.00 35.49     0.174 HD
ATOM     11  HH  ARG D 557     -29.873  -2.986 -18.095  1.00 35.49     0.174 HD
ATOM     12  HH  ARG D 557     -28.770  -3.854 -17.604  1.00 35.49     0.174 HD
ATOM     13  HE  ARG D 557     -29.955  -0.919 -17.665  1.00 35.49     0.178 HD
ENDBRANCH   4   5
ENDBRANCH   3   4
ENDBRANCH   2   3
ENDBRANCH   1   2
END_RES ARG D 557
BEGIN_RES GLU D 570
REMARK  3 active torsions:
REMARK  status: ('A' for Active; 'I' for Inactive)
REMARK    5  A    between atoms: CA   and  CB  
REMARK    6  A    between atoms: CB   and  CG  
REMARK    7  A    between atoms: CG   and  CD  
ROOT
ATOM     14  CA  GLU D 570     -18.033  -6.348 -13.375  1.00 32.92     0.160 C 
ENDROOT
BRANCH  14  15
ATOM     15  CB  GLU D 570     -19.500  -6.345 -13.794  1.00 32.92     0.043 C 
BRANCH  15  16
ATOM     16  CG  GLU D 570     -20.445  -5.545 -12.973  1.00 32.92     0.100 C 
BRANCH  16  17
ATOM     17  CD  GLU D 570     -21.706  -5.176 -13.718  1.00 32.92     0.185 C 
ATOM     18  OE1 GLU D 570     -21.647  -4.973 -14.946  1.00 32.92    -0.647 OA
ATOM     19  OE2 GLU D 570     -22.762  -5.071 -13.063  1.00 32.92    -0.647 OA
ENDBRANCH  16  17
ENDBRANCH  15  16
ENDBRANCH  14  15
END_RES GLU D 570
ENDMDL
MODEL 8
REMARK VINA RESULT:      -6.0      3.663      5.128
REMARK  6 active torsions:
REMARK  status: ('A' for Active; 'I' for Inactive)
REMARK    1  A    between atoms: C_4  and  C_6 
REMARK    2  A    between atoms: C_6  and  C_7 
REMARK    3  A    between atoms: C_7  and  C_8 
REMARK    4  A    between atoms: C_8  and  C_9 
REMARK    5  A    between atoms: C_9  and  C_10 
REMARK    6  A    between atoms: C_10  and  O_12 
ROOT
HETATM    1  C   UNL     1     -21.766  -6.483  -3.746  1.00  0.00     0.101 C 
HETATM    2  C   UNL     1     -20.584  -7.425  -3.999  1.00  0.00     0.119 C 
HETATM    3  C   UNL     1     -20.360  -7.609  -5.516  1.00  0.00     0.123 C 
HETATM    4  C   UNL     1     -21.109  -6.535  -6.311  1.00  0.00     0.072 C 
HETATM    5  S   UNL     1     -22.620  -6.269  -5.329  1.00  0.00    -0.160 SA
HETATM    6  N   UNL     1     -20.852  -8.952  -5.763  1.00  0.00    -0.335 N 
HETATM    7  C   UNL     1     -21.080  -9.635  -4.593  1.00  0.00     0.316 C 
HETATM    8  O   UNL     1     -21.420 -10.799  -4.498  1.00  0.00    -0.247 OA
HETATM    9  N   UNL     1     -20.844  -8.775  -3.543  1.00  0.00    -0.336 N 
HETATM   10  H   UNL     1     -20.899  -9.430  -6.654  1.00  0.00     0.164 HD
HETATM   11  H   UNL     1     -21.038  -9.067  -2.595  1.00  0.00     0.164 HD
ENDROOT
BRANCH   4  12
HETATM   12  C   UNL     1     -20.355  -5.202  -6.440  1.00  0.00     0.017 C 
BRANCH  12  13
HETATM   13  C   UNL     1     -21.235  -4.072  -6.981  1.00  0.00     0.002 C 
BRANCH  13  14
HETATM   14  C   UNL     1     -21.530  -4.257  -8.469  1.00  0.00     0.010 C 
BRANCH  14  15
HETATM   15  C   UNL     1     -23.020  -4.072  -8.755  1.00  0.00     0.110 C 
BRANCH  15  16
HETATM   16  C   UNL     1     -23.265  -3.403 -10.087  1.00  0.00     0.139 C 
HETATM   17  O   UNL     1     -24.356  -3.077 -10.522  1.00  0.00    -0.650 OA
BRANCH  16  18
HETATM   18  O   UNL     1     -22.117  -3.188 -10.767  1.00  0.00    -0.776 OA
HETATM   19  H   UNL     1     -21.314  -3.467 -10.288  1.00  0.00     0.167 HD
ENDBRANCH  16  18
ENDBRANCH  15  16
ENDBRANCH  14  15
ENDBRANCH  13  14
ENDBRANCH  12  13
ENDBRANCH   4  12
TORSDOF 6
BEGIN_RES ARG D 557
REMARK  4 active torsions:
REMARK  status: ('A' for Active; 'I' for Inactive)
REMARK    1  A    between atoms: CA   and  CB  
REMARK    2  A    between atoms: CB   and  CG  
REMARK    3  A    between atoms: CG   and  CD  
REMARK    4  A    between atoms: CD   and  NE  
REMARK       I    between atoms: NE   and  CZ  
REMARK       I    between atoms: CZ   and  NH1 
REMARK       I    between atoms: CZ   and  NH2 
ROOT
ATOM      1  CA  ARG D 557     -26.217   2.705 -17.014  1.00 35.49     0.159 C 
ENDROOT
BRANCH   1   2
ATOM      2  CB  ARG D 557     -26.789   1.319 -17.183  1.00 35.49     0.034 C 
BRANCH   2   3
ATOM      3  CG  ARG D 557     -25.838   0.202 -17.141  1.00 35.49     0.027 C 
BRANCH   3   4
ATOM      4  CD  ARG D 557     -24.780   0.400 -16.124  1.00 35.49     0.116 C 
BRANCH   4   5
ATOM      5  NE  ARG D 557     -24.953  -0.465 -14.986  1.00 35.49    -0.212 N 
ATOM      6  CZ  ARG D 557     -24.144  -1.438 -14.631  1.00 35.49     0.666 C 
ATOM      7  NH1 ARG D 557     -23.057  -1.742 -15.315  1.00 35.49    -0.235 N 
ATOM      8  NH2 ARG D 557     -24.446  -2.108 -13.557  1.00 35.49    -0.235 N 
ATOM      9  HH  ARG D 557     -22.838  -1.313 -16.024  1.00 35.49     0.174 HD
ATOM     10  HH  ARG D 557     -22.565  -2.385 -15.034  1.00 35.49     0.174 HD
ATOM     11  HH  ARG D 557     -25.150  -1.884 -13.131  1.00 35.49     0.174 HD
ATOM     12  HH  ARG D 557     -23.946  -2.740 -13.294  1.00 35.49     0.174 HD
ATOM     13  HE  ARG D 557     -25.666  -0.387 -14.530  1.00 35.49     0.178 HD
ENDBRANCH   4   5
ENDBRANCH   3   4
ENDBRANCH   2   3
ENDBRANCH   1   2
END_RES ARG D 557
BEGIN_RES GLU D 570
REMARK  3 active torsions:
REMARK  status: ('A' for Active; 'I' for Inactive)
REMARK    5  A    between atoms: CA   and  CB  
REMARK    6  A    between atoms: CB   and  CG  
REMARK    7  A    between atoms: CG   and  CD  
ROOT
ATOM     14  CA  GLU D 570     -18.033  -6.348 -13.375  1.00 32.92     0.160 C 
ENDROOT
BRANCH  14  15
ATOM     15  CB  GLU D 570     -19.500  -6.345 -13.794  1.00 32.92     0.043 C 
BRANCH  15  16
ATOM     16  CG  GLU D 570     -20.429  -5.475 -13.028  1.00 32.92     0.100 C 
BRANCH  16  17
ATOM     17  CD  GLU D 570     -21.674  -5.114 -13.804  1.00 32.92     0.185 C 
ATOM     18  OE1 GLU D 570     -22.391  -4.179 -13.398  1.00 32.92    -0.647 OA
ATOM     19  OE2 GLU D 570     -21.944  -5.785 -14.820  1.00 32.92    -0.647 OA
ENDBRANCH  16  17
ENDBRANCH  15  16
ENDBRANCH  14  15
END_RES GLU D 570
ENDMDL
MODEL 9
REMARK VINA RESULT:      -5.9      4.830      8.777
REMARK  6 active torsions:
REMARK  status: ('A' for Active; 'I' for Inactive)
REMARK    1  A    between atoms: C_4  and  C_6 
REMARK    2  A    between atoms: C_6  and  C_7 
REMARK    3  A    between atoms: C_7  and  C_8 
REMARK    4  A    between atoms: C_8  and  C_9 
REMARK    5  A    between atoms: C_9  and  C_10 
REMARK    6  A    between atoms: C_10  and  O_12 
ROOT
HETATM    1  C   UNL     1     -20.044  -7.754  -5.453  1.00  0.00     0.101 C 
HETATM    2  C   UNL     1     -19.950  -6.267  -5.810  1.00  0.00     0.119 C 
HETATM    3  C   UNL     1     -21.165  -5.502  -5.242  1.00  0.00     0.123 C 
HETATM    4  C   UNL     1     -21.895  -6.343  -4.191  1.00  0.00     0.072 C 
HETATM    5  S   UNL     1     -21.716  -8.043  -4.821  1.00  0.00    -0.160 SA
HETATM    6  N   UNL     1     -21.969  -5.233  -6.420  1.00  0.00    -0.335 N 
HETATM    7  C   UNL     1     -21.281  -5.504  -7.579  1.00  0.00     0.316 C 
HETATM    8  O   UNL     1     -21.678  -5.300  -8.710  1.00  0.00    -0.247 OA
HETATM    9  N   UNL     1     -20.057  -6.033  -7.235  1.00  0.00    -0.336 N 
HETATM   10  H   UNL     1     -22.866  -4.768  -6.452  1.00  0.00     0.164 HD
HETATM   11  H   UNL     1     -19.434  -6.376  -7.954  1.00  0.00     0.164 HD
ENDROOT
BRANCH   4  12
HETATM   12  C   UNL     1     -21.285  -6.265  -2.782  1.00  0.00     0.017 C 
BRANCH  12  13
HETATM   13  C   UNL     1     -21.626  -7.482  -1.919  1.00  0.00     0.002 C 
BRANCH  13  14
HETATM   14  C   UNL     1     -22.381  -7.076  -0.652  1.00  0.00     0.010 C 
BRANCH  14  15
HETATM   15  C   UNL     1     -22.853  -8.309   0.118  1.00  0.00     0.110 C 
BRANCH  15  16
HETATM   16  C   UNL     1     -21.697  -9.148   0.611  1.00  0.00     0.139 C 
HETATM   17  O   UNL     1     -21.438 -10.279   0.237  1.00  0.00    -0.650 OA
BRANCH  16  18
HETATM   18  O   UNL     1     -20.951  -8.496   1.530  1.00  0.00    -0.776 OA
HETATM   19  H   UNL     1     -20.638  -9.063   2.260  1.00  0.00     0.167 HD
ENDBRANCH  16  18
ENDBRANCH  15  16
ENDBRANCH  14  15
ENDBRANCH  13  14
ENDBRANCH  12  13
ENDBRANCH   4  12
TORSDOF 6
BEGIN_RES ARG D 557
REMARK  4 active torsions:
REMARK  status: ('A' for Active; 'I' for Inactive)
REMARK    1  A    between atoms: CA   and  CB  
REMARK    2  A    between atoms: CB   and  CG  
REMARK    3  A    between atoms: CG   and  CD  
REMARK    4  A    between atoms: CD   and  NE  
REMARK       I    between atoms: NE   and  CZ  
REMARK       I    between atoms: CZ   and  NH1 
REMARK       I    between atoms: CZ   and  NH2 
ROOT
ATOM      1  CA  ARG D 557     -26.217   2.705 -17.014  1.00 35.49     0.159 C 
ENDROOT
BRANCH   1   2
ATOM      2  CB  ARG D 557     -26.789   1.319 -17.183  1.00 35.49     0.034 C 
BRANCH   2   3
ATOM      3  CG  ARG D 557     -25.864   0.195 -16.992  1.00 35.49     0.027 C 
BRANCH   3   4
ATOM      4  CD  ARG D 557     -26.287  -0.703 -15.893  1.00 35.49     0.116 C 
BRANCH   4   5
ATOM      5  NE  ARG D 557     -25.234  -0.923 -14.937  1.00 35.49    -0.212 N 
ATOM      6  CZ  ARG D 557     -24.947  -2.068 -14.360  1.00 35.49     0.666 C 
ATOM      7  NH1 ARG D 557     -25.630  -3.172 -14.597  1.00 35.49    -0.235 N 
ATOM      8  NH2 ARG D 557     -23.942  -2.089 -13.533  1.00 35.49    -0.235 N 
ATOM      9  HH  ARG D 557     -26.294  -3.182 -15.139  1.00 35.49     0.174 HD
ATOM     10  HH  ARG D 557     -25.396  -3.891 -14.193  1.00 35.49     0.174 HD
ATOM     11  HH  ARG D 557     -23.514  -1.362 -13.405  1.00 35.49     0.174 HD
ATOM     12  HH  ARG D 557     -23.724  -2.810 -13.144  1.00 35.49     0.174 HD
ATOM     13  HE  ARG D 557     -24.788  -0.249 -14.672  1.00 35.49     0.178 HD
ENDBRANCH   4   5
ENDBRANCH   3   4
ENDBRANCH   2   3
ENDBRANCH   1   2
END_RES ARG D 557
BEGIN_RES GLU D 570
REMARK  3 active torsions:
REMARK  status: ('A' for Active; 'I' for Inactive)
REMARK    5  A    between atoms: CA   and  CB  
REMARK    6  A    between atoms: CB   and  CG  
REMARK    7  A    between atoms: CG   and  CD  
ROOT
ATOM     14  CA  GLU D 570     -18.033  -6.348 -13.375  1.00 32.92     0.160 C 
ENDROOT
BRANCH  14  15
ATOM     15  CB  GLU D 570     -19.500  -6.345 -13.794  1.00 32.92     0.043 C 
BRANCH  15  16
ATOM     16  CG  GLU D 570     -20.448  -5.560 -12.962  1.00 32.92     0.100 C 
BRANCH  16  17
ATOM     17  CD  GLU D 570     -21.683  -5.132 -13.720  1.00 32.92     0.185 C 
ATOM     18  OE1 GLU D 570     -21.618  -5.000 -14.957  1.00 32.92    -0.647 OA
ATOM     19  OE2 GLU D 570     -22.722  -4.910 -13.068  1.00 32.92    -0.647 OA
ENDBRANCH  16  17
ENDBRANCH  15  16
ENDBRANCH  14  15
END_RES GLU D 570
ENDMDL
