MODEL 1
REMARK VINA RESULT:      -1.0      0.000      0.000
REMARK  15 active torsions:
REMARK  status: ('A' for Active; 'I' for Inactive)
REMARK    1  A    between atoms: C_2  and  C_3 
REMARK    2  A    between atoms: C_3  and  C_4 
REMARK    3  A    between atoms: C_4  and  C_5 
REMARK    4  A    between atoms: C_5  and  C_6 
REMARK    5  A    between atoms: C_6  and  C_7 
REMARK    6  A    between atoms: C_7  and  C_8 
REMARK    7  A    between atoms: C_8  and  C_9 
REMARK    8  A    between atoms: C_9  and  C_10 
REMARK    9  A    between atoms: C_10  and  C_11 
REMARK   10  A    between atoms: C_11  and  C_12 
REMARK   11  A    between atoms: C_12  and  C_13 
REMARK   12  A    between atoms: C_13  and  C_14 
REMARK   13  A    between atoms: C_14  and  C_15 
REMARK   14  A    between atoms: C_15  and  C_16 
REMARK   15  A    between atoms: C_16  and  N_17 
ROOT
HETATM    1 CL   UNL     2     -36.986   0.490  -4.882  1.00  0.00     0.000 Cl
ENDROOT
TORSDOF 15
BEGIN_RES ARG D 557
REMARK  4 active torsions:
REMARK  status: ('A' for Active; 'I' for Inactive)
REMARK    1  A    between atoms: CA   and  CB  
REMARK    2  A    between atoms: CB   and  CG  
REMARK    3  A    between atoms: CG   and  CD  
REMARK    4  A    between atoms: CD   and  NE  
REMARK       I    between atoms: NE   and  CZ  
REMARK       I    between atoms: CZ   and  NH1 
REMARK       I    between atoms: CZ   and  NH2 
ROOT
ATOM      1  CA  ARG D 557     -26.217   2.705 -17.014  1.00 35.49     0.159 C 
ENDROOT
BRANCH   1   2
ATOM      2  CB  ARG D 557     -26.789   1.319 -17.183  1.00 35.49     0.034 C 
BRANCH   2   3
ATOM      3  CG  ARG D 557     -25.835   0.203 -17.159  1.00 35.49     0.027 C 
BRANCH   3   4
ATOM      4  CD  ARG D 557     -24.755   0.405 -16.166  1.00 35.49     0.116 C 
BRANCH   4   5
ATOM      5  NE  ARG D 557     -24.909  -0.448 -15.017  1.00 35.49    -0.212 N 
ATOM      6  CZ  ARG D 557     -24.097  -1.420 -14.668  1.00 35.49     0.666 C 
ATOM      7  NH1 ARG D 557     -23.025  -1.735 -15.371  1.00 35.49    -0.235 N 
ATOM      8  NH2 ARG D 557     -24.380  -2.078 -13.582  1.00 35.49    -0.235 N 
ATOM      9  HH  ARG D 557     -22.818  -1.315 -16.089  1.00 35.49     0.174 HD
ATOM     10  HH  ARG D 557     -22.530  -2.378 -15.094  1.00 35.49     0.174 HD
ATOM     11  HH  ARG D 557     -25.075  -1.848 -13.144  1.00 35.49     0.174 HD
ATOM     12  HH  ARG D 557     -23.877  -2.710 -13.322  1.00 35.49     0.174 HD
ATOM     13  HE  ARG D 557     -25.613  -0.362 -14.548  1.00 35.49     0.178 HD
ENDBRANCH   4   5
ENDBRANCH   3   4
ENDBRANCH   2   3
ENDBRANCH   1   2
END_RES ARG D 557
BEGIN_RES GLU D 570
REMARK  3 active torsions:
REMARK  status: ('A' for Active; 'I' for Inactive)
REMARK    5  A    between atoms: CA   and  CB  
REMARK    6  A    between atoms: CB   and  CG  
REMARK    7  A    between atoms: CG   and  CD  
ROOT
ATOM     14  CA  GLU D 570     -18.033  -6.348 -13.375  1.00 32.92     0.160 C 
ENDROOT
BRANCH  14  15
ATOM     15  CB  GLU D 570     -19.500  -6.345 -13.794  1.00 32.92     0.043 C 
BRANCH  15  16
ATOM     16  CG  GLU D 570     -20.442  -5.530 -12.984  1.00 32.92     0.100 C 
BRANCH  16  17
ATOM     17  CD  GLU D 570     -21.740  -5.243 -13.701  1.00 32.92     0.185 C 
ATOM     18  OE1 GLU D 570     -22.306  -4.149 -13.514  1.00 32.92    -0.647 OA
ATOM     19  OE2 GLU D 570     -22.205  -6.129 -14.445  1.00 32.92    -0.647 OA
ENDBRANCH  16  17
ENDBRANCH  15  16
ENDBRANCH  14  15
END_RES GLU D 570
ENDMDL
MODEL 2
REMARK VINA RESULT:      -1.0      2.526      2.693
REMARK  15 active torsions:
REMARK  status: ('A' for Active; 'I' for Inactive)
REMARK    1  A    between atoms: C_2  and  C_3 
REMARK    2  A    between atoms: C_3  and  C_4 
REMARK    3  A    between atoms: C_4  and  C_5 
REMARK    4  A    between atoms: C_5  and  C_6 
REMARK    5  A    between atoms: C_6  and  C_7 
REMARK    6  A    between atoms: C_7  and  C_8 
REMARK    7  A    between atoms: C_8  and  C_9 
REMARK    8  A    between atoms: C_9  and  C_10 
REMARK    9  A    between atoms: C_10  and  C_11 
REMARK   10  A    between atoms: C_11  and  C_12 
REMARK   11  A    between atoms: C_12  and  C_13 
REMARK   12  A    between atoms: C_13  and  C_14 
REMARK   13  A    between atoms: C_14  and  C_15 
REMARK   14  A    between atoms: C_15  and  C_16 
REMARK   15  A    between atoms: C_16  and  N_17 
ROOT
HETATM    1 CL   UNL     2     -33.040  -3.266 -11.245  1.00  0.00     0.000 Cl
ENDROOT
TORSDOF 15
BEGIN_RES ARG D 557
REMARK  4 active torsions:
REMARK  status: ('A' for Active; 'I' for Inactive)
REMARK    1  A    between atoms: CA   and  CB  
REMARK    2  A    between atoms: CB   and  CG  
REMARK    3  A    between atoms: CG   and  CD  
REMARK    4  A    between atoms: CD   and  NE  
REMARK       I    between atoms: NE   and  CZ  
REMARK       I    between atoms: CZ   and  NH1 
REMARK       I    between atoms: CZ   and  NH2 
ROOT
ATOM      1  CA  ARG D 557     -26.217   2.705 -17.014  1.00 35.49     0.159 C 
ENDROOT
BRANCH   1   2
ATOM      2  CB  ARG D 557     -26.789   1.319 -17.183  1.00 35.49     0.034 C 
BRANCH   2   3
ATOM      3  CG  ARG D 557     -25.835   0.203 -17.162  1.00 35.49     0.027 C 
BRANCH   3   4
ATOM      4  CD  ARG D 557     -24.763   0.397 -16.159  1.00 35.49     0.116 C 
BRANCH   4   5
ATOM      5  NE  ARG D 557     -24.930  -0.458 -15.014  1.00 35.49    -0.212 N 
ATOM      6  CZ  ARG D 557     -24.120  -1.429 -14.655  1.00 35.49     0.666 C 
ATOM      7  NH1 ARG D 557     -23.037  -1.740 -15.343  1.00 35.49    -0.235 N 
ATOM      8  NH2 ARG D 557     -24.417  -2.089 -13.574  1.00 35.49    -0.235 N 
ATOM      9  HH  ARG D 557     -22.822  -1.317 -16.057  1.00 35.49     0.174 HD
ATOM     10  HH  ARG D 557     -22.545  -2.381 -15.059  1.00 35.49     0.174 HD
ATOM     11  HH  ARG D 557     -25.119  -1.862 -13.146  1.00 35.49     0.174 HD
ATOM     12  HH  ARG D 557     -23.916  -2.720 -13.308  1.00 35.49     0.174 HD
ATOM     13  HE  ARG D 557     -25.641  -0.375 -14.554  1.00 35.49     0.178 HD
ENDBRANCH   4   5
ENDBRANCH   3   4
ENDBRANCH   2   3
ENDBRANCH   1   2
END_RES ARG D 557
BEGIN_RES GLU D 570
REMARK  3 active torsions:
REMARK  status: ('A' for Active; 'I' for Inactive)
REMARK    5  A    between atoms: CA   and  CB  
REMARK    6  A    between atoms: CB   and  CG  
REMARK    7  A    between atoms: CG   and  CD  
ROOT
ATOM     14  CA  GLU D 570     -18.033  -6.348 -13.375  1.00 32.92     0.160 C 
ENDROOT
BRANCH  14  15
ATOM     15  CB  GLU D 570     -19.500  -6.345 -13.794  1.00 32.92     0.043 C 
BRANCH  15  16
ATOM     16  CG  GLU D 570     -20.439  -5.518 -12.993  1.00 32.92     0.100 C 
BRANCH  16  17
ATOM     17  CD  GLU D 570     -21.738  -5.238 -13.712  1.00 32.92     0.185 C 
ATOM     18  OE1 GLU D 570     -22.185  -6.087 -14.508  1.00 32.92    -0.647 OA
ATOM     19  OE2 GLU D 570     -22.307  -4.151 -13.489  1.00 32.92    -0.647 OA
ENDBRANCH  16  17
ENDBRANCH  15  16
ENDBRANCH  14  15
END_RES GLU D 570
ENDMDL
MODEL 3
REMARK VINA RESULT:      -1.0      3.838      3.838
REMARK  15 active torsions:
REMARK  status: ('A' for Active; 'I' for Inactive)
REMARK    1  A    between atoms: C_2  and  C_3 
REMARK    2  A    between atoms: C_3  and  C_4 
REMARK    3  A    between atoms: C_4  and  C_5 
REMARK    4  A    between atoms: C_5  and  C_6 
REMARK    5  A    between atoms: C_6  and  C_7 
REMARK    6  A    between atoms: C_7  and  C_8 
REMARK    7  A    between atoms: C_8  and  C_9 
REMARK    8  A    between atoms: C_9  and  C_10 
REMARK    9  A    between atoms: C_10  and  C_11 
REMARK   10  A    between atoms: C_11  and  C_12 
REMARK   11  A    between atoms: C_12  and  C_13 
REMARK   12  A    between atoms: C_13  and  C_14 
REMARK   13  A    between atoms: C_14  and  C_15 
REMARK   14  A    between atoms: C_15  and  C_16 
REMARK   15  A    between atoms: C_16  and  N_17 
ROOT
HETATM    1 CL   UNL     2     -29.802   7.435 -12.767  1.00  0.00     0.000 Cl
ENDROOT
TORSDOF 15
BEGIN_RES ARG D 557
REMARK  4 active torsions:
REMARK  status: ('A' for Active; 'I' for Inactive)
REMARK    1  A    between atoms: CA   and  CB  
REMARK    2  A    between atoms: CB   and  CG  
REMARK    3  A    between atoms: CG   and  CD  
REMARK    4  A    between atoms: CD   and  NE  
REMARK       I    between atoms: NE   and  CZ  
REMARK       I    between atoms: CZ   and  NH1 
REMARK       I    between atoms: CZ   and  NH2 
ROOT
ATOM      1  CA  ARG D 557     -26.217   2.705 -17.014  1.00 35.49     0.159 C 
ENDROOT
BRANCH   1   2
ATOM      2  CB  ARG D 557     -26.789   1.319 -17.183  1.00 35.49     0.034 C 
BRANCH   2   3
ATOM      3  CG  ARG D 557     -25.833   0.205 -17.178  1.00 35.49     0.027 C 
BRANCH   3   4
ATOM      4  CD  ARG D 557     -24.740   0.404 -16.199  1.00 35.49     0.116 C 
BRANCH   4   5
ATOM      5  NE  ARG D 557     -24.894  -0.431 -15.037  1.00 35.49    -0.212 N 
ATOM      6  CZ  ARG D 557     -24.085  -1.402 -14.676  1.00 35.49     0.666 C 
ATOM      7  NH1 ARG D 557     -23.016  -1.732 -15.378  1.00 35.49    -0.235 N 
ATOM      8  NH2 ARG D 557     -24.367  -2.042 -13.579  1.00 35.49    -0.235 N 
ATOM      9  HH  ARG D 557     -22.810  -1.323 -16.102  1.00 35.49     0.174 HD
ATOM     10  HH  ARG D 557     -22.524  -2.373 -15.092  1.00 35.49     0.174 HD
ATOM     11  HH  ARG D 557     -25.060  -1.802 -13.143  1.00 35.49     0.174 HD
ATOM     12  HH  ARG D 557     -23.867  -2.672 -13.312  1.00 35.49     0.174 HD
ATOM     13  HE  ARG D 557     -25.596  -0.335 -14.567  1.00 35.49     0.178 HD
ENDBRANCH   4   5
ENDBRANCH   3   4
ENDBRANCH   2   3
ENDBRANCH   1   2
END_RES ARG D 557
BEGIN_RES GLU D 570
REMARK  3 active torsions:
REMARK  status: ('A' for Active; 'I' for Inactive)
REMARK    5  A    between atoms: CA   and  CB  
REMARK    6  A    between atoms: CB   and  CG  
REMARK    7  A    between atoms: CG   and  CD  
ROOT
ATOM     14  CA  GLU D 570     -18.033  -6.348 -13.375  1.00 32.92     0.160 C 
ENDROOT
BRANCH  14  15
ATOM     15  CB  GLU D 570     -19.500  -6.345 -13.794  1.00 32.92     0.043 C 
BRANCH  15  16
ATOM     16  CG  GLU D 570     -20.443  -5.535 -12.980  1.00 32.92     0.100 C 
BRANCH  16  17
ATOM     17  CD  GLU D 570     -21.741  -5.244 -13.697  1.00 32.92     0.185 C 
ATOM     18  OE1 GLU D 570     -22.312  -4.155 -13.497  1.00 32.92    -0.647 OA
ATOM     19  OE2 GLU D 570     -22.199  -6.122 -14.454  1.00 32.92    -0.647 OA
ENDBRANCH  16  17
ENDBRANCH  15  16
ENDBRANCH  14  15
END_RES GLU D 570
ENDMDL
MODEL 4
REMARK VINA RESULT:      -0.9      6.464      6.464
REMARK  15 active torsions:
REMARK  status: ('A' for Active; 'I' for Inactive)
REMARK    1  A    between atoms: C_2  and  C_3 
REMARK    2  A    between atoms: C_3  and  C_4 
REMARK    3  A    between atoms: C_4  and  C_5 
REMARK    4  A    between atoms: C_5  and  C_6 
REMARK    5  A    between atoms: C_6  and  C_7 
REMARK    6  A    between atoms: C_7  and  C_8 
REMARK    7  A    between atoms: C_8  and  C_9 
REMARK    8  A    between atoms: C_9  and  C_10 
REMARK    9  A    between atoms: C_10  and  C_11 
REMARK   10  A    between atoms: C_11  and  C_12 
REMARK   11  A    between atoms: C_12  and  C_13 
REMARK   12  A    between atoms: C_13  and  C_14 
REMARK   13  A    between atoms: C_14  and  C_15 
REMARK   14  A    between atoms: C_15  and  C_16 
REMARK   15  A    between atoms: C_16  and  N_17 
ROOT
HETATM    1 CL   UNL     2     -20.887  -5.779 -17.574  1.00  0.00     0.000 Cl
ENDROOT
TORSDOF 15
BEGIN_RES ARG D 557
REMARK  4 active torsions:
REMARK  status: ('A' for Active; 'I' for Inactive)
REMARK    1  A    between atoms: CA   and  CB  
REMARK    2  A    between atoms: CB   and  CG  
REMARK    3  A    between atoms: CG   and  CD  
REMARK    4  A    between atoms: CD   and  NE  
REMARK       I    between atoms: NE   and  CZ  
REMARK       I    between atoms: CZ   and  NH1 
REMARK       I    between atoms: CZ   and  NH2 
ROOT
ATOM      1  CA  ARG D 557     -26.217   2.705 -17.014  1.00 35.49     0.159 C 
ENDROOT
BRANCH   1   2
ATOM      2  CB  ARG D 557     -26.789   1.319 -17.183  1.00 35.49     0.034 C 
BRANCH   2   3
ATOM      3  CG  ARG D 557     -25.834   0.204 -17.168  1.00 35.49     0.027 C 
BRANCH   3   4
ATOM      4  CD  ARG D 557     -24.739   0.413 -16.194  1.00 35.49     0.116 C 
BRANCH   4   5
ATOM      5  NE  ARG D 557     -24.881  -0.422 -15.030  1.00 35.49    -0.212 N 
ATOM      6  CZ  ARG D 557     -24.069  -1.394 -14.678  1.00 35.49     0.666 C 
ATOM      7  NH1 ARG D 557     -23.008  -1.725 -15.391  1.00 35.49    -0.235 N 
ATOM      8  NH2 ARG D 557     -24.340  -2.034 -13.578  1.00 35.49    -0.235 N 
ATOM      9  HH  ARG D 557     -22.809  -1.315 -16.117  1.00 35.49     0.174 HD
ATOM     10  HH  ARG D 557     -22.513  -2.365 -15.110  1.00 35.49     0.174 HD
ATOM     11  HH  ARG D 557     -25.028  -1.794 -13.134  1.00 35.49     0.174 HD
ATOM     12  HH  ARG D 557     -23.837  -2.665 -13.316  1.00 35.49     0.174 HD
ATOM     13  HE  ARG D 557     -25.578  -0.327 -14.552  1.00 35.49     0.178 HD
ENDBRANCH   4   5
ENDBRANCH   3   4
ENDBRANCH   2   3
ENDBRANCH   1   2
END_RES ARG D 557
BEGIN_RES GLU D 570
REMARK  3 active torsions:
REMARK  status: ('A' for Active; 'I' for Inactive)
REMARK    5  A    between atoms: CA   and  CB  
REMARK    6  A    between atoms: CB   and  CG  
REMARK    7  A    between atoms: CG   and  CD  
ROOT
ATOM     14  CA  GLU D 570     -18.033  -6.348 -13.375  1.00 32.92     0.160 C 
ENDROOT
BRANCH  14  15
ATOM     15  CB  GLU D 570     -19.500  -6.345 -13.794  1.00 32.92     0.043 C 
BRANCH  15  16
ATOM     16  CG  GLU D 570     -20.441  -5.527 -12.986  1.00 32.92     0.100 C 
BRANCH  16  17
ATOM     17  CD  GLU D 570     -21.744  -5.251 -13.699  1.00 32.92     0.185 C 
ATOM     18  OE1 GLU D 570     -22.280  -4.133 -13.571  1.00 32.92    -0.647 OA
ATOM     19  OE2 GLU D 570     -22.243  -6.168 -14.380  1.00 32.92    -0.647 OA
ENDBRANCH  16  17
ENDBRANCH  15  16
ENDBRANCH  14  15
END_RES GLU D 570
ENDMDL
MODEL 5
REMARK VINA RESULT:      -0.9      5.019      5.105
REMARK  15 active torsions:
REMARK  status: ('A' for Active; 'I' for Inactive)
REMARK    1  A    between atoms: C_2  and  C_3 
REMARK    2  A    between atoms: C_3  and  C_4 
REMARK    3  A    between atoms: C_4  and  C_5 
REMARK    4  A    between atoms: C_5  and  C_6 
REMARK    5  A    between atoms: C_6  and  C_7 
REMARK    6  A    between atoms: C_7  and  C_8 
REMARK    7  A    between atoms: C_8  and  C_9 
REMARK    8  A    between atoms: C_9  and  C_10 
REMARK    9  A    between atoms: C_10  and  C_11 
REMARK   10  A    between atoms: C_11  and  C_12 
REMARK   11  A    between atoms: C_12  and  C_13 
REMARK   12  A    between atoms: C_13  and  C_14 
REMARK   13  A    between atoms: C_14  and  C_15 
REMARK   14  A    between atoms: C_15  and  C_16 
REMARK   15  A    between atoms: C_16  and  N_17 
ROOT
HETATM    1 CL   UNL     2     -22.328  -6.543  -1.313  1.00  0.00     0.000 Cl
ENDROOT
TORSDOF 15
BEGIN_RES ARG D 557
REMARK  4 active torsions:
REMARK  status: ('A' for Active; 'I' for Inactive)
REMARK    1  A    between atoms: CA   and  CB  
REMARK    2  A    between atoms: CB   and  CG  
REMARK    3  A    between atoms: CG   and  CD  
REMARK    4  A    between atoms: CD   and  NE  
REMARK       I    between atoms: NE   and  CZ  
REMARK       I    between atoms: CZ   and  NH1 
REMARK       I    between atoms: CZ   and  NH2 
ROOT
ATOM      1  CA  ARG D 557     -26.217   2.705 -17.014  1.00 35.49     0.159 C 
ENDROOT
BRANCH   1   2
ATOM      2  CB  ARG D 557     -26.789   1.319 -17.183  1.00 35.49     0.034 C 
BRANCH   2   3
ATOM      3  CG  ARG D 557     -25.836   0.203 -17.156  1.00 35.49     0.027 C 
BRANCH   3   4
ATOM      4  CD  ARG D 557     -24.752   0.411 -16.169  1.00 35.49     0.116 C 
BRANCH   4   5
ATOM      5  NE  ARG D 557     -24.894  -0.443 -15.019  1.00 35.49    -0.212 N 
ATOM      6  CZ  ARG D 557     -24.073  -1.409 -14.673  1.00 35.49     0.666 C 
ATOM      7  NH1 ARG D 557     -23.000  -1.715 -15.379  1.00 35.49    -0.235 N 
ATOM      8  NH2 ARG D 557     -24.346  -2.069 -13.585  1.00 35.49    -0.235 N 
ATOM      9  HH  ARG D 557     -22.799  -1.292 -16.097  1.00 35.49     0.174 HD
ATOM     10  HH  ARG D 557     -22.499  -2.353 -15.103  1.00 35.49     0.174 HD
ATOM     11  HH  ARG D 557     -25.042  -1.845 -13.145  1.00 35.49     0.174 HD
ATOM     12  HH  ARG D 557     -23.838  -2.696 -13.328  1.00 35.49     0.174 HD
ATOM     13  HE  ARG D 557     -25.597  -0.364 -14.547  1.00 35.49     0.178 HD
ENDBRANCH   4   5
ENDBRANCH   3   4
ENDBRANCH   2   3
ENDBRANCH   1   2
END_RES ARG D 557
BEGIN_RES GLU D 570
REMARK  3 active torsions:
REMARK  status: ('A' for Active; 'I' for Inactive)
REMARK    5  A    between atoms: CA   and  CB  
REMARK    6  A    between atoms: CB   and  CG  
REMARK    7  A    between atoms: CG   and  CD  
ROOT
ATOM     14  CA  GLU D 570     -18.033  -6.348 -13.375  1.00 32.92     0.160 C 
ENDROOT
BRANCH  14  15
ATOM     15  CB  GLU D 570     -19.500  -6.345 -13.794  1.00 32.92     0.043 C 
BRANCH  15  16
ATOM     16  CG  GLU D 570     -20.443  -5.536 -12.979  1.00 32.92     0.100 C 
BRANCH  16  17
ATOM     17  CD  GLU D 570     -21.738  -5.238 -13.699  1.00 32.92     0.185 C 
ATOM     18  OE1 GLU D 570     -22.215  -6.096 -14.466  1.00 32.92    -0.647 OA
ATOM     19  OE2 GLU D 570     -22.272  -4.128 -13.506  1.00 32.92    -0.647 OA
ENDBRANCH  16  17
ENDBRANCH  15  16
ENDBRANCH  14  15
END_RES GLU D 570
ENDMDL
MODEL 6
REMARK VINA RESULT:      -0.9      8.367      8.367
REMARK  15 active torsions:
REMARK  status: ('A' for Active; 'I' for Inactive)
REMARK    1  A    between atoms: C_2  and  C_3 
REMARK    2  A    between atoms: C_3  and  C_4 
REMARK    3  A    between atoms: C_4  and  C_5 
REMARK    4  A    between atoms: C_5  and  C_6 
REMARK    5  A    between atoms: C_6  and  C_7 
REMARK    6  A    between atoms: C_7  and  C_8 
REMARK    7  A    between atoms: C_8  and  C_9 
REMARK    8  A    between atoms: C_9  and  C_10 
REMARK    9  A    between atoms: C_10  and  C_11 
REMARK   10  A    between atoms: C_11  and  C_12 
REMARK   11  A    between atoms: C_12  and  C_13 
REMARK   12  A    between atoms: C_13  and  C_14 
REMARK   13  A    between atoms: C_14  and  C_15 
REMARK   14  A    between atoms: C_15  and  C_16 
REMARK   15  A    between atoms: C_16  and  N_17 
ROOT
HETATM    1 CL   UNL     2     -12.898   9.093   5.884  1.00  0.00     0.000 Cl
ENDROOT
TORSDOF 15
BEGIN_RES ARG D 557
REMARK  4 active torsions:
REMARK  status: ('A' for Active; 'I' for Inactive)
REMARK    1  A    between atoms: CA   and  CB  
REMARK    2  A    between atoms: CB   and  CG  
REMARK    3  A    between atoms: CG   and  CD  
REMARK    4  A    between atoms: CD   and  NE  
REMARK       I    between atoms: NE   and  CZ  
REMARK       I    between atoms: CZ   and  NH1 
REMARK       I    between atoms: CZ   and  NH2 
ROOT
ATOM      1  CA  ARG D 557     -26.217   2.705 -17.014  1.00 35.49     0.159 C 
ENDROOT
BRANCH   1   2
ATOM      2  CB  ARG D 557     -26.789   1.319 -17.183  1.00 35.49     0.034 C 
BRANCH   2   3
ATOM      3  CG  ARG D 557     -25.834   0.204 -17.168  1.00 35.49     0.027 C 
BRANCH   3   4
ATOM      4  CD  ARG D 557     -24.746   0.406 -16.185  1.00 35.49     0.116 C 
BRANCH   4   5
ATOM      5  NE  ARG D 557     -24.897  -0.436 -15.028  1.00 35.49    -0.212 N 
ATOM      6  CZ  ARG D 557     -24.085  -1.406 -14.672  1.00 35.49     0.666 C 
ATOM      7  NH1 ARG D 557     -23.014  -1.728 -15.374  1.00 35.49    -0.235 N 
ATOM      8  NH2 ARG D 557     -24.366  -2.053 -13.578  1.00 35.49    -0.235 N 
ATOM      9  HH  ARG D 557     -22.809  -1.314 -16.095  1.00 35.49     0.174 HD
ATOM     10  HH  ARG D 557     -22.520  -2.368 -15.091  1.00 35.49     0.174 HD
ATOM     11  HH  ARG D 557     -25.060  -1.819 -13.141  1.00 35.49     0.174 HD
ATOM     12  HH  ARG D 557     -23.863  -2.683 -13.314  1.00 35.49     0.174 HD
ATOM     13  HE  ARG D 557     -25.600  -0.346 -14.557  1.00 35.49     0.178 HD
ENDBRANCH   4   5
ENDBRANCH   3   4
ENDBRANCH   2   3
ENDBRANCH   1   2
END_RES ARG D 557
BEGIN_RES GLU D 570
REMARK  3 active torsions:
REMARK  status: ('A' for Active; 'I' for Inactive)
REMARK    5  A    between atoms: CA   and  CB  
REMARK    6  A    between atoms: CB   and  CG  
REMARK    7  A    between atoms: CG   and  CD  
ROOT
ATOM     14  CA  GLU D 570     -18.033  -6.348 -13.375  1.00 32.92     0.160 C 
ENDROOT
BRANCH  14  15
ATOM     15  CB  GLU D 570     -19.500  -6.345 -13.794  1.00 32.92     0.043 C 
BRANCH  15  16
ATOM     16  CG  GLU D 570     -20.440  -5.523 -12.989  1.00 32.92     0.100 C 
BRANCH  16  17
ATOM     17  CD  GLU D 570     -21.745  -5.253 -13.701  1.00 32.92     0.185 C 
ATOM     18  OE1 GLU D 570     -22.322  -4.165 -13.514  1.00 32.92    -0.647 OA
ATOM     19  OE2 GLU D 570     -22.203  -6.146 -14.440  1.00 32.92    -0.647 OA
ENDBRANCH  16  17
ENDBRANCH  15  16
ENDBRANCH  14  15
END_RES GLU D 570
ENDMDL
MODEL 7
REMARK VINA RESULT:      -0.9      4.006      4.113
REMARK  15 active torsions:
REMARK  status: ('A' for Active; 'I' for Inactive)
REMARK    1  A    between atoms: C_2  and  C_3 
REMARK    2  A    between atoms: C_3  and  C_4 
REMARK    3  A    between atoms: C_4  and  C_5 
REMARK    4  A    between atoms: C_5  and  C_6 
REMARK    5  A    between atoms: C_6  and  C_7 
REMARK    6  A    between atoms: C_7  and  C_8 
REMARK    7  A    between atoms: C_8  and  C_9 
REMARK    8  A    between atoms: C_9  and  C_10 
REMARK    9  A    between atoms: C_10  and  C_11 
REMARK   10  A    between atoms: C_11  and  C_12 
REMARK   11  A    between atoms: C_12  and  C_13 
REMARK   12  A    between atoms: C_13  and  C_14 
REMARK   13  A    between atoms: C_14  and  C_15 
REMARK   14  A    between atoms: C_15  and  C_16 
REMARK   15  A    between atoms: C_16  and  N_17 
ROOT
HETATM    1 CL   UNL     2     -29.174   6.517   4.015  1.00  0.00     0.000 Cl
ENDROOT
TORSDOF 15
BEGIN_RES ARG D 557
REMARK  4 active torsions:
REMARK  status: ('A' for Active; 'I' for Inactive)
REMARK    1  A    between atoms: CA   and  CB  
REMARK    2  A    between atoms: CB   and  CG  
REMARK    3  A    between atoms: CG   and  CD  
REMARK    4  A    between atoms: CD   and  NE  
REMARK       I    between atoms: NE   and  CZ  
REMARK       I    between atoms: CZ   and  NH1 
REMARK       I    between atoms: CZ   and  NH2 
ROOT
ATOM      1  CA  ARG D 557     -26.217   2.705 -17.014  1.00 35.49     0.159 C 
ENDROOT
BRANCH   1   2
ATOM      2  CB  ARG D 557     -26.789   1.319 -17.183  1.00 35.49     0.034 C 
BRANCH   2   3
ATOM      3  CG  ARG D 557     -25.835   0.203 -17.158  1.00 35.49     0.027 C 
BRANCH   3   4
ATOM      4  CD  ARG D 557     -24.752   0.409 -16.170  1.00 35.49     0.116 C 
BRANCH   4   5
ATOM      5  NE  ARG D 557     -24.900  -0.442 -15.018  1.00 35.49    -0.212 N 
ATOM      6  CZ  ARG D 557     -24.085  -1.411 -14.669  1.00 35.49     0.666 C 
ATOM      7  NH1 ARG D 557     -23.013  -1.725 -15.374  1.00 35.49    -0.235 N 
ATOM      8  NH2 ARG D 557     -24.363  -2.067 -13.580  1.00 35.49    -0.235 N 
ATOM      9  HH  ARG D 557     -22.809  -1.305 -16.092  1.00 35.49     0.174 HD
ATOM     10  HH  ARG D 557     -22.516  -2.365 -15.096  1.00 35.49     0.174 HD
ATOM     11  HH  ARG D 557     -25.057  -1.838 -13.141  1.00 35.49     0.174 HD
ATOM     12  HH  ARG D 557     -23.858  -2.697 -13.320  1.00 35.49     0.174 HD
ATOM     13  HE  ARG D 557     -25.603  -0.357 -14.547  1.00 35.49     0.178 HD
ENDBRANCH   4   5
ENDBRANCH   3   4
ENDBRANCH   2   3
ENDBRANCH   1   2
END_RES ARG D 557
BEGIN_RES GLU D 570
REMARK  3 active torsions:
REMARK  status: ('A' for Active; 'I' for Inactive)
REMARK    5  A    between atoms: CA   and  CB  
REMARK    6  A    between atoms: CB   and  CG  
REMARK    7  A    between atoms: CG   and  CD  
ROOT
ATOM     14  CA  GLU D 570     -18.033  -6.348 -13.375  1.00 32.92     0.160 C 
ENDROOT
BRANCH  14  15
ATOM     15  CB  GLU D 570     -19.500  -6.345 -13.794  1.00 32.92     0.043 C 
BRANCH  15  16
ATOM     16  CG  GLU D 570     -20.442  -5.530 -12.984  1.00 32.92     0.100 C 
BRANCH  16  17
ATOM     17  CD  GLU D 570     -21.747  -5.257 -13.694  1.00 32.92     0.185 C 
ATOM     18  OE1 GLU D 570     -22.229  -6.137 -14.434  1.00 32.92    -0.647 OA
ATOM     19  OE2 GLU D 570     -22.285  -4.146 -13.522  1.00 32.92    -0.647 OA
ENDBRANCH  16  17
ENDBRANCH  15  16
ENDBRANCH  14  15
END_RES GLU D 570
ENDMDL
MODEL 8
REMARK VINA RESULT:      -0.8      9.829      9.873
REMARK  15 active torsions:
REMARK  status: ('A' for Active; 'I' for Inactive)
REMARK    1  A    between atoms: C_2  and  C_3 
REMARK    2  A    between atoms: C_3  and  C_4 
REMARK    3  A    between atoms: C_4  and  C_5 
REMARK    4  A    between atoms: C_5  and  C_6 
REMARK    5  A    between atoms: C_6  and  C_7 
REMARK    6  A    between atoms: C_7  and  C_8 
REMARK    7  A    between atoms: C_8  and  C_9 
REMARK    8  A    between atoms: C_9  and  C_10 
REMARK    9  A    between atoms: C_10  and  C_11 
REMARK   10  A    between atoms: C_11  and  C_12 
REMARK   11  A    between atoms: C_12  and  C_13 
REMARK   12  A    between atoms: C_13  and  C_14 
REMARK   13  A    between atoms: C_14  and  C_15 
REMARK   14  A    between atoms: C_15  and  C_16 
REMARK   15  A    between atoms: C_16  and  N_17 
ROOT
HETATM    1 CL   UNL     2      -9.025 -13.672   4.079  1.00  0.00     0.000 Cl
ENDROOT
TORSDOF 15
BEGIN_RES ARG D 557
REMARK  4 active torsions:
REMARK  status: ('A' for Active; 'I' for Inactive)
REMARK    1  A    between atoms: CA   and  CB  
REMARK    2  A    between atoms: CB   and  CG  
REMARK    3  A    between atoms: CG   and  CD  
REMARK    4  A    between atoms: CD   and  NE  
REMARK       I    between atoms: NE   and  CZ  
REMARK       I    between atoms: CZ   and  NH1 
REMARK       I    between atoms: CZ   and  NH2 
ROOT
ATOM      1  CA  ARG D 557     -26.217   2.705 -17.014  1.00 35.49     0.159 C 
ENDROOT
BRANCH   1   2
ATOM      2  CB  ARG D 557     -26.789   1.319 -17.183  1.00 35.49     0.034 C 
BRANCH   2   3
ATOM      3  CG  ARG D 557     -25.837   0.202 -17.149  1.00 35.49     0.027 C 
BRANCH   3   4
ATOM      4  CD  ARG D 557     -24.751   0.417 -16.165  1.00 35.49     0.116 C 
BRANCH   4   5
ATOM      5  NE  ARG D 557     -24.889  -0.431 -15.011  1.00 35.49    -0.212 N 
ATOM      6  CZ  ARG D 557     -24.073  -1.403 -14.670  1.00 35.49     0.666 C 
ATOM      7  NH1 ARG D 557     -23.011  -1.722 -15.386  1.00 35.49    -0.235 N 
ATOM      8  NH2 ARG D 557     -24.341  -2.057 -13.577  1.00 35.49    -0.235 N 
ATOM      9  HH  ARG D 557     -22.814  -1.304 -16.108  1.00 35.49     0.174 HD
ATOM     10  HH  ARG D 557     -22.513  -2.364 -15.113  1.00 35.49     0.174 HD
ATOM     11  HH  ARG D 557     -25.030  -1.825 -13.131  1.00 35.49     0.174 HD
ATOM     12  HH  ARG D 557     -23.836  -2.688 -13.322  1.00 35.49     0.174 HD
ATOM     13  HE  ARG D 557     -25.586  -0.344 -14.532  1.00 35.49     0.178 HD
ENDBRANCH   4   5
ENDBRANCH   3   4
ENDBRANCH   2   3
ENDBRANCH   1   2
END_RES ARG D 557
BEGIN_RES GLU D 570
REMARK  3 active torsions:
REMARK  status: ('A' for Active; 'I' for Inactive)
REMARK    5  A    between atoms: CA   and  CB  
REMARK    6  A    between atoms: CB   and  CG  
REMARK    7  A    between atoms: CG   and  CD  
ROOT
ATOM     14  CA  GLU D 570     -18.033  -6.348 -13.375  1.00 32.92     0.160 C 
ENDROOT
BRANCH  14  15
ATOM     15  CB  GLU D 570     -19.500  -6.345 -13.794  1.00 32.92     0.043 C 
BRANCH  15  16
ATOM     16  CG  GLU D 570     -20.446  -5.548 -12.970  1.00 32.92     0.100 C 
BRANCH  16  17
ATOM     17  CD  GLU D 570     -21.744  -5.251 -13.684  1.00 32.92     0.185 C 
ATOM     18  OE1 GLU D 570     -22.263  -6.138 -14.390  1.00 32.92    -0.647 OA
ATOM     19  OE2 GLU D 570     -22.238  -4.115 -13.550  1.00 32.92    -0.647 OA
ENDBRANCH  16  17
ENDBRANCH  15  16
ENDBRANCH  14  15
END_RES GLU D 570
ENDMDL
MODEL 9
REMARK VINA RESULT:      -0.7      5.405      5.405
REMARK  15 active torsions:
REMARK  status: ('A' for Active; 'I' for Inactive)
REMARK    1  A    between atoms: C_2  and  C_3 
REMARK    2  A    between atoms: C_3  and  C_4 
REMARK    3  A    between atoms: C_4  and  C_5 
REMARK    4  A    between atoms: C_5  and  C_6 
REMARK    5  A    between atoms: C_6  and  C_7 
REMARK    6  A    between atoms: C_7  and  C_8 
REMARK    7  A    between atoms: C_8  and  C_9 
REMARK    8  A    between atoms: C_9  and  C_10 
REMARK    9  A    between atoms: C_10  and  C_11 
REMARK   10  A    between atoms: C_11  and  C_12 
REMARK   11  A    between atoms: C_12  and  C_13 
REMARK   12  A    between atoms: C_13  and  C_14 
REMARK   13  A    between atoms: C_14  and  C_15 
REMARK   14  A    between atoms: C_15  and  C_16 
REMARK   15  A    between atoms: C_16  and  N_17 
ROOT
HETATM    1 CL   UNL     2     -29.877 -15.375  -9.251  1.00  0.00     0.000 Cl
ENDROOT
TORSDOF 15
BEGIN_RES ARG D 557
REMARK  4 active torsions:
REMARK  status: ('A' for Active; 'I' for Inactive)
REMARK    1  A    between atoms: CA   and  CB  
REMARK    2  A    between atoms: CB   and  CG  
REMARK    3  A    between atoms: CG   and  CD  
REMARK    4  A    between atoms: CD   and  NE  
REMARK       I    between atoms: NE   and  CZ  
REMARK       I    between atoms: CZ   and  NH1 
REMARK       I    between atoms: CZ   and  NH2 
ROOT
ATOM      1  CA  ARG D 557     -26.217   2.705 -17.014  1.00 35.49     0.159 C 
ENDROOT
BRANCH   1   2
ATOM      2  CB  ARG D 557     -26.789   1.319 -17.183  1.00 35.49     0.034 C 
BRANCH   2   3
ATOM      3  CG  ARG D 557     -25.835   0.204 -17.165  1.00 35.49     0.027 C 
BRANCH   3   4
ATOM      4  CD  ARG D 557     -24.746   0.409 -16.182  1.00 35.49     0.116 C 
BRANCH   4   5
ATOM      5  NE  ARG D 557     -24.892  -0.435 -15.026  1.00 35.49    -0.212 N 
ATOM      6  CZ  ARG D 557     -24.078  -1.405 -14.674  1.00 35.49     0.666 C 
ATOM      7  NH1 ARG D 557     -23.009  -1.724 -15.381  1.00 35.49    -0.235 N 
ATOM      8  NH2 ARG D 557     -24.354  -2.054 -13.581  1.00 35.49    -0.235 N 
ATOM      9  HH  ARG D 557     -22.807  -1.309 -16.102  1.00 35.49     0.174 HD
ATOM     10  HH  ARG D 557     -22.513  -2.364 -15.101  1.00 35.49     0.174 HD
ATOM     11  HH  ARG D 557     -25.047  -1.821 -13.141  1.00 35.49     0.174 HD
ATOM     12  HH  ARG D 557     -23.850  -2.684 -13.320  1.00 35.49     0.174 HD
ATOM     13  HE  ARG D 557     -25.594  -0.347 -14.553  1.00 35.49     0.178 HD
ENDBRANCH   4   5
ENDBRANCH   3   4
ENDBRANCH   2   3
ENDBRANCH   1   2
END_RES ARG D 557
BEGIN_RES GLU D 570
REMARK  3 active torsions:
REMARK  status: ('A' for Active; 'I' for Inactive)
REMARK    5  A    between atoms: CA   and  CB  
REMARK    6  A    between atoms: CB   and  CG  
REMARK    7  A    between atoms: CG   and  CD  
ROOT
ATOM     14  CA  GLU D 570     -18.033  -6.348 -13.375  1.00 32.92     0.160 C 
ENDROOT
BRANCH  14  15
ATOM     15  CB  GLU D 570     -19.500  -6.345 -13.794  1.00 32.92     0.043 C 
BRANCH  15  16
ATOM     16  CG  GLU D 570     -20.441  -5.526 -12.987  1.00 32.92     0.100 C 
BRANCH  16  17
ATOM     17  CD  GLU D 570     -21.744  -5.251 -13.700  1.00 32.92     0.185 C 
ATOM     18  OE1 GLU D 570     -22.308  -4.153 -13.530  1.00 32.92    -0.647 OA
ATOM     19  OE2 GLU D 570     -22.215  -6.151 -14.423  1.00 32.92    -0.647 OA
ENDBRANCH  16  17
ENDBRANCH  15  16
ENDBRANCH  14  15
END_RES GLU D 570
ENDMDL
