MODEL 1
REMARK VINA RESULT:      -4.0      0.000      0.000
REMARK  4 active torsions:
REMARK  status: ('A' for Active; 'I' for Inactive)
REMARK    1  A    between atoms: C_2  and  N_3 
REMARK    2  A    between atoms: C_2  and  P_4 
REMARK    3  A    between atoms: P_4  and  O_5 
REMARK    4  A    between atoms: P_4  and  O_7 
ROOT
HETATM    1  C   UNL     1     -21.662  -4.039  -9.338  1.00  0.00     0.052 C 
HETATM    2  C   UNL     1     -23.044  -4.574  -9.005  1.00  0.00     0.295 C 
ENDROOT
BRANCH   2   3
HETATM    3  N   UNL     1     -23.528  -4.130  -7.685  1.00  0.00     0.091 N 
HETATM    4  H   UNL     1     -22.982  -4.611  -6.965  1.00  0.00     0.313 HD
HETATM    5  H   UNL     1     -24.481  -4.486  -7.562  1.00  0.00     0.313 HD
ENDBRANCH   2   3
BRANCH   2   6
HETATM    6  P   UNL     1     -24.384  -3.902 -10.113  1.00  0.00     0.197 P 
BRANCH   6   7
HETATM    7  O   UNL     1     -24.917  -2.873  -9.228  1.00  0.00    -0.348 OA
ATOM      8  HO  UNL     1     -24.603  -3.213  -8.398  1.00  0.00     0.217 HD
ENDBRANCH   6   7
BRANCH   6   9
HETATM    9  O   UNL     1     -23.468  -2.930 -11.034  1.00  0.00    -0.348 OA
HETATM   10  H   UNL     1     -22.790  -3.509 -11.448  1.00  0.00     0.217 HD
ENDBRANCH   6   9
ENDBRANCH   2   6
TORSDOF 4
BEGIN_RES ARG D 557
REMARK  4 active torsions:
REMARK  status: ('A' for Active; 'I' for Inactive)
REMARK    1  A    between atoms: CA   and  CB  
REMARK    2  A    between atoms: CB   and  CG  
REMARK    3  A    between atoms: CG   and  CD  
REMARK    4  A    between atoms: CD   and  NE  
REMARK       I    between atoms: NE   and  CZ  
REMARK       I    between atoms: CZ   and  NH1 
REMARK       I    between atoms: CZ   and  NH2 
ROOT
ATOM      1  CA  ARG D 557     -26.217   2.705 -17.014  1.00 35.49     0.159 C 
ENDROOT
BRANCH   1   2
ATOM      2  CB  ARG D 557     -26.789   1.319 -17.183  1.00 35.49     0.034 C 
BRANCH   2   3
ATOM      3  CG  ARG D 557     -25.834   0.204 -17.174  1.00 35.49     0.027 C 
BRANCH   3   4
ATOM      4  CD  ARG D 557     -24.749   0.399 -16.185  1.00 35.49     0.116 C 
BRANCH   4   5
ATOM      5  NE  ARG D 557     -24.906  -0.450 -15.033  1.00 35.49    -0.212 N 
ATOM      6  CZ  ARG D 557     -24.093  -1.419 -14.676  1.00 35.49     0.666 C 
ATOM      7  NH1 ARG D 557     -23.016  -1.733 -15.372  1.00 35.49    -0.235 N 
ATOM      8  NH2 ARG D 557     -24.380  -2.073 -13.589  1.00 35.49    -0.235 N 
ATOM      9  HH  ARG D 557     -22.807  -1.314 -16.090  1.00 35.49     0.174 HD
ATOM     10  HH  ARG D 557     -22.521  -2.373 -15.089  1.00 35.49     0.174 HD
ATOM     11  HH  ARG D 557     -25.078  -1.844 -13.156  1.00 35.49     0.174 HD
ATOM     12  HH  ARG D 557     -23.877  -2.703 -13.324  1.00 35.49     0.174 HD
ATOM     13  HE  ARG D 557     -25.613  -0.365 -14.568  1.00 35.49     0.178 HD
ENDBRANCH   4   5
ENDBRANCH   3   4
ENDBRANCH   2   3
ENDBRANCH   1   2
END_RES ARG D 557
BEGIN_RES GLU D 570
REMARK  3 active torsions:
REMARK  status: ('A' for Active; 'I' for Inactive)
REMARK    5  A    between atoms: CA   and  CB  
REMARK    6  A    between atoms: CB   and  CG  
REMARK    7  A    between atoms: CG   and  CD  
ROOT
ATOM     14  CA  GLU D 570     -18.033  -6.348 -13.375  1.00 32.92     0.160 C 
ENDROOT
BRANCH  14  15
ATOM     15  CB  GLU D 570     -19.500  -6.345 -13.794  1.00 32.92     0.043 C 
BRANCH  15  16
ATOM     16  CG  GLU D 570     -20.446  -5.552 -12.968  1.00 32.92     0.100 C 
BRANCH  16  17
ATOM     17  CD  GLU D 570     -21.731  -5.225 -13.693  1.00 32.92     0.185 C 
ATOM     18  OE1 GLU D 570     -22.181  -6.038 -14.523  1.00 32.92    -0.647 OA
ATOM     19  OE2 GLU D 570     -22.285  -4.138 -13.439  1.00 32.92    -0.647 OA
ENDBRANCH  16  17
ENDBRANCH  15  16
ENDBRANCH  14  15
END_RES GLU D 570
ENDMDL
MODEL 2
REMARK VINA RESULT:      -3.9      3.400      3.878
REMARK  4 active torsions:
REMARK  status: ('A' for Active; 'I' for Inactive)
REMARK    1  A    between atoms: C_2  and  N_3 
REMARK    2  A    between atoms: C_2  and  P_4 
REMARK    3  A    between atoms: P_4  and  O_5 
REMARK    4  A    between atoms: P_4  and  O_7 
ROOT
HETATM    1  C   UNL     1     -24.235  -3.291 -11.841  1.00  0.00     0.052 C 
HETATM    2  C   UNL     1     -23.102  -2.567 -12.547  1.00  0.00     0.295 C 
ENDROOT
BRANCH   2   3
HETATM    3  N   UNL     1     -21.858  -3.356 -12.594  1.00  0.00     0.091 N 
HETATM    4  H   UNL     1     -21.502  -3.336 -13.555  1.00  0.00     0.313 HD
HETATM    5  H   UNL     1     -22.101  -4.338 -12.435  1.00  0.00     0.313 HD
ENDBRANCH   2   3
BRANCH   2   6
HETATM    6  P   UNL     1     -23.416  -2.301 -14.365  1.00  0.00     0.197 P 
BRANCH   6   7
HETATM    7  O   UNL     1     -24.086  -3.561 -14.668  1.00  0.00    -0.348 OA
ATOM      8  HO  UNL     1     -23.605  -4.130 -14.078  1.00  0.00     0.217 HD
ENDBRANCH   6   7
BRANCH   6   9
HETATM    9  O   UNL     1     -24.747  -1.381 -14.248  1.00  0.00    -0.348 OA
HETATM   10  H   UNL     1     -24.831  -1.147 -13.297  1.00  0.00     0.217 HD
ENDBRANCH   6   9
ENDBRANCH   2   6
TORSDOF 4
BEGIN_RES ARG D 557
REMARK  4 active torsions:
REMARK  status: ('A' for Active; 'I' for Inactive)
REMARK    1  A    between atoms: CA   and  CB  
REMARK    2  A    between atoms: CB   and  CG  
REMARK    3  A    between atoms: CG   and  CD  
REMARK    4  A    between atoms: CD   and  NE  
REMARK       I    between atoms: NE   and  CZ  
REMARK       I    between atoms: CZ   and  NH1 
REMARK       I    between atoms: CZ   and  NH2 
ROOT
ATOM      1  CA  ARG D 557     -26.217   2.705 -17.014  1.00 35.49     0.159 C 
ENDROOT
BRANCH   1   2
ATOM      2  CB  ARG D 557     -26.789   1.319 -17.183  1.00 35.49     0.034 C 
BRANCH   2   3
ATOM      3  CG  ARG D 557     -28.209   1.146 -16.855  1.00 35.49     0.027 C 
BRANCH   3   4
ATOM      4  CD  ARG D 557     -28.640  -0.268 -16.940  1.00 35.49     0.116 C 
BRANCH   4   5
ATOM      5  NE  ARG D 557     -27.741  -1.151 -16.245  1.00 35.49    -0.212 N 
ATOM      6  CZ  ARG D 557     -27.720  -2.462 -16.346  1.00 35.49     0.666 C 
ATOM      7  NH1 ARG D 557     -28.563  -3.127 -17.114  1.00 35.49    -0.235 N 
ATOM      8  NH2 ARG D 557     -26.821  -3.103 -15.657  1.00 35.49    -0.235 N 
ATOM      9  HH  ARG D 557     -29.161  -2.726 -17.578  1.00 35.49     0.174 HD
ATOM     10  HH  ARG D 557     -28.500  -3.981 -17.142  1.00 35.49     0.174 HD
ATOM     11  HH  ARG D 557     -26.286  -2.646 -15.175  1.00 35.49     0.174 HD
ATOM     12  HH  ARG D 557     -26.774  -3.948 -15.699  1.00 35.49     0.174 HD
ATOM     13  HE  ARG D 557     -27.212  -0.812 -15.672  1.00 35.49     0.178 HD
ENDBRANCH   4   5
ENDBRANCH   3   4
ENDBRANCH   2   3
ENDBRANCH   1   2
END_RES ARG D 557
BEGIN_RES GLU D 570
REMARK  3 active torsions:
REMARK  status: ('A' for Active; 'I' for Inactive)
REMARK    5  A    between atoms: CA   and  CB  
REMARK    6  A    between atoms: CB   and  CG  
REMARK    7  A    between atoms: CG   and  CD  
ROOT
ATOM     14  CA  GLU D 570     -18.033  -6.348 -13.375  1.00 32.92     0.160 C 
ENDROOT
BRANCH  14  15
ATOM     15  CB  GLU D 570     -19.500  -6.345 -13.794  1.00 32.92     0.043 C 
BRANCH  15  16
ATOM     16  CG  GLU D 570     -19.808  -6.003 -15.207  1.00 32.92     0.100 C 
BRANCH  16  17
ATOM     17  CD  GLU D 570     -21.235  -5.548 -15.406  1.00 32.92     0.185 C 
ATOM     18  OE1 GLU D 570     -22.066  -5.750 -14.500  1.00 32.92    -0.647 OA
ATOM     19  OE2 GLU D 570     -21.528  -5.000 -16.486  1.00 32.92    -0.647 OA
ENDBRANCH  16  17
ENDBRANCH  15  16
ENDBRANCH  14  15
END_RES GLU D 570
ENDMDL
MODEL 3
REMARK VINA RESULT:      -3.7      1.837      2.097
REMARK  4 active torsions:
REMARK  status: ('A' for Active; 'I' for Inactive)
REMARK    1  A    between atoms: C_2  and  N_3 
REMARK    2  A    between atoms: C_2  and  P_4 
REMARK    3  A    between atoms: P_4  and  O_5 
REMARK    4  A    between atoms: P_4  and  O_7 
ROOT
HETATM    1  C   UNL     1     -21.173  -4.295  -9.529  1.00  0.00     0.052 C 
HETATM    2  C   UNL     1     -21.964  -3.601 -10.624  1.00  0.00     0.295 C 
ENDROOT
BRANCH   2   3
HETATM    3  N   UNL     1     -21.379  -3.794 -11.964  1.00  0.00     0.091 N 
HETATM    4  H   UNL     1     -22.133  -4.051 -12.608  1.00  0.00     0.313 HD
HETATM    5  H   UNL     1     -20.780  -4.624 -11.931  1.00  0.00     0.313 HD
ENDBRANCH   2   3
BRANCH   2   6
HETATM    6  P   UNL     1     -23.663  -4.323 -10.878  1.00  0.00     0.197 P 
BRANCH   6   7
HETATM    7  O   UNL     1     -24.418  -3.083 -11.023  1.00  0.00    -0.348 OA
ATOM      8  HO  UNL     1     -25.167  -3.420 -11.502  1.00  0.00     0.217 HD
ENDBRANCH   6   7
BRANCH   6   9
HETATM    9  O   UNL     1     -23.541  -4.678 -12.456  1.00  0.00    -0.348 OA
HETATM   10  H   UNL     1     -22.861  -4.068 -12.819  1.00  0.00     0.217 HD
ENDBRANCH   6   9
ENDBRANCH   2   6
TORSDOF 4
BEGIN_RES ARG D 557
REMARK  4 active torsions:
REMARK  status: ('A' for Active; 'I' for Inactive)
REMARK    1  A    between atoms: CA   and  CB  
REMARK    2  A    between atoms: CB   and  CG  
REMARK    3  A    between atoms: CG   and  CD  
REMARK    4  A    between atoms: CD   and  NE  
REMARK       I    between atoms: NE   and  CZ  
REMARK       I    between atoms: CZ   and  NH1 
REMARK       I    between atoms: CZ   and  NH2 
ROOT
ATOM      1  CA  ARG D 557     -26.217   2.705 -17.014  1.00 35.49     0.159 C 
ENDROOT
BRANCH   1   2
ATOM      2  CB  ARG D 557     -26.789   1.319 -17.183  1.00 35.49     0.034 C 
BRANCH   2   3
ATOM      3  CG  ARG D 557     -25.856   0.196 -17.031  1.00 35.49     0.027 C 
BRANCH   3   4
ATOM      4  CD  ARG D 557     -26.140  -0.615 -15.825  1.00 35.49     0.116 C 
BRANCH   4   5
ATOM      5  NE  ARG D 557     -24.979  -0.769 -14.989  1.00 35.49    -0.212 N 
ATOM      6  CZ  ARG D 557     -24.706  -1.813 -14.239  1.00 35.49     0.666 C 
ATOM      7  NH1 ARG D 557     -25.507  -2.860 -14.161  1.00 35.49    -0.235 N 
ATOM      8  NH2 ARG D 557     -23.595  -1.792 -13.561  1.00 35.49    -0.235 N 
ATOM      9  HH  ARG D 557     -26.242  -2.896 -14.600  1.00 35.49     0.174 HD
ATOM     10  HH  ARG D 557     -25.276  -3.513 -13.657  1.00 35.49     0.174 HD
ATOM     11  HH  ARG D 557     -23.094  -1.106 -13.636  1.00 35.49     0.174 HD
ATOM     12  HH  ARG D 557     -23.383  -2.449 -13.069  1.00 35.49     0.174 HD
ATOM     13  HE  ARG D 557     -24.445  -0.111 -14.922  1.00 35.49     0.178 HD
ENDBRANCH   4   5
ENDBRANCH   3   4
ENDBRANCH   2   3
ENDBRANCH   1   2
END_RES ARG D 557
BEGIN_RES GLU D 570
REMARK  3 active torsions:
REMARK  status: ('A' for Active; 'I' for Inactive)
REMARK    5  A    between atoms: CA   and  CB  
REMARK    6  A    between atoms: CB   and  CG  
REMARK    7  A    between atoms: CG   and  CD  
ROOT
ATOM     14  CA  GLU D 570     -18.033  -6.348 -13.375  1.00 32.92     0.160 C 
ENDROOT
BRANCH  14  15
ATOM     15  CB  GLU D 570     -19.500  -6.345 -13.794  1.00 32.92     0.043 C 
BRANCH  15  16
ATOM     16  CG  GLU D 570     -19.797  -6.262 -15.248  1.00 32.92     0.100 C 
BRANCH  16  17
ATOM     17  CD  GLU D 570     -21.030  -5.444 -15.552  1.00 32.92     0.185 C 
ATOM     18  OE1 GLU D 570     -21.341  -5.237 -16.740  1.00 32.92    -0.647 OA
ATOM     19  OE2 GLU D 570     -21.683  -4.991 -14.591  1.00 32.92    -0.647 OA
ENDBRANCH  16  17
ENDBRANCH  15  16
ENDBRANCH  14  15
END_RES GLU D 570
ENDMDL
MODEL 4
REMARK VINA RESULT:      -3.5      1.563      1.739
REMARK  4 active torsions:
REMARK  status: ('A' for Active; 'I' for Inactive)
REMARK    1  A    between atoms: C_2  and  N_3 
REMARK    2  A    between atoms: C_2  and  P_4 
REMARK    3  A    between atoms: P_4  and  O_5 
REMARK    4  A    between atoms: P_4  and  O_7 
ROOT
HETATM    1  C   UNL     1     -20.516  -4.040 -10.049  1.00  0.00     0.052 C 
HETATM    2  C   UNL     1     -21.948  -3.863  -9.578  1.00  0.00     0.295 C 
ENDROOT
BRANCH   2   3
HETATM    3  N   UNL     1     -22.894  -4.760 -10.267  1.00  0.00     0.091 N 
HETATM    4  H   UNL     1     -22.370  -5.564 -10.624  1.00  0.00     0.313 HD
HETATM    5  H   UNL     1     -23.227  -4.281 -11.109  1.00  0.00     0.313 HD
ENDBRANCH   2   3
BRANCH   2   6
HETATM    6  P   UNL     1     -22.211  -4.374  -7.805  1.00  0.00     0.197 P 
BRANCH   6   7
HETATM    7  O   UNL     1     -21.786  -3.144  -7.147  1.00  0.00    -0.348 OA
ATOM      8  HO  UNL     1     -22.519  -3.032  -6.554  1.00  0.00     0.217 HD
ENDBRANCH   6   7
BRANCH   6   9
HETATM    9  O   UNL     1     -23.810  -4.116  -7.715  1.00  0.00    -0.348 OA
HETATM   10  H   UNL     1     -23.938  -3.454  -6.999  1.00  0.00     0.217 HD
ENDBRANCH   6   9
ENDBRANCH   2   6
TORSDOF 4
BEGIN_RES ARG D 557
REMARK  4 active torsions:
REMARK  status: ('A' for Active; 'I' for Inactive)
REMARK    1  A    between atoms: CA   and  CB  
REMARK    2  A    between atoms: CB   and  CG  
REMARK    3  A    between atoms: CG   and  CD  
REMARK    4  A    between atoms: CD   and  NE  
REMARK       I    between atoms: NE   and  CZ  
REMARK       I    between atoms: CZ   and  NH1 
REMARK       I    between atoms: CZ   and  NH2 
ROOT
ATOM      1  CA  ARG D 557     -26.217   2.705 -17.014  1.00 35.49     0.159 C 
ENDROOT
BRANCH   1   2
ATOM      2  CB  ARG D 557     -26.789   1.319 -17.183  1.00 35.49     0.034 C 
BRANCH   2   3
ATOM      3  CG  ARG D 557     -25.835   0.203 -17.158  1.00 35.49     0.027 C 
BRANCH   3   4
ATOM      4  CD  ARG D 557     -24.764   0.399 -16.155  1.00 35.49     0.116 C 
BRANCH   4   5
ATOM      5  NE  ARG D 557     -24.931  -0.455 -15.009  1.00 35.49    -0.212 N 
ATOM      6  CZ  ARG D 557     -24.126  -1.431 -14.654  1.00 35.49     0.666 C 
ATOM      7  NH1 ARG D 557     -23.049  -1.749 -15.347  1.00 35.49    -0.235 N 
ATOM      8  NH2 ARG D 557     -24.422  -2.089 -13.571  1.00 35.49    -0.235 N 
ATOM      9  HH  ARG D 557     -22.834  -1.328 -16.062  1.00 35.49     0.174 HD
ATOM     10  HH  ARG D 557     -22.559  -2.393 -15.066  1.00 35.49     0.174 HD
ATOM     11  HH  ARG D 557     -25.120  -1.857 -13.139  1.00 35.49     0.174 HD
ATOM     12  HH  ARG D 557     -23.924  -2.723 -13.308  1.00 35.49     0.174 HD
ATOM     13  HE  ARG D 557     -25.639  -0.367 -14.545  1.00 35.49     0.178 HD
ENDBRANCH   4   5
ENDBRANCH   3   4
ENDBRANCH   2   3
ENDBRANCH   1   2
END_RES ARG D 557
BEGIN_RES GLU D 570
REMARK  3 active torsions:
REMARK  status: ('A' for Active; 'I' for Inactive)
REMARK    5  A    between atoms: CA   and  CB  
REMARK    6  A    between atoms: CB   and  CG  
REMARK    7  A    between atoms: CG   and  CD  
ROOT
ATOM     14  CA  GLU D 570     -18.033  -6.348 -13.375  1.00 32.92     0.160 C 
ENDROOT
BRANCH  14  15
ATOM     15  CB  GLU D 570     -19.500  -6.345 -13.794  1.00 32.92     0.043 C 
BRANCH  15  16
ATOM     16  CG  GLU D 570     -20.443  -5.534 -12.981  1.00 32.92     0.100 C 
BRANCH  16  17
ATOM     17  CD  GLU D 570     -21.725  -5.211 -13.712  1.00 32.92     0.185 C 
ATOM     18  OE1 GLU D 570     -22.079  -5.936 -14.661  1.00 32.92    -0.647 OA
ATOM     19  OE2 GLU D 570     -22.373  -4.212 -13.343  1.00 32.92    -0.647 OA
ENDBRANCH  16  17
ENDBRANCH  15  16
ENDBRANCH  14  15
END_RES GLU D 570
ENDMDL
MODEL 5
REMARK VINA RESULT:      -3.3      4.998      6.538
REMARK  4 active torsions:
REMARK  status: ('A' for Active; 'I' for Inactive)
REMARK    1  A    between atoms: C_2  and  N_3 
REMARK    2  A    between atoms: C_2  and  P_4 
REMARK    3  A    between atoms: P_4  and  O_5 
REMARK    4  A    between atoms: P_4  and  O_7 
ROOT
HETATM    1  C   UNL     1     -28.318  -6.309 -18.700  1.00  0.00     0.052 C 
HETATM    2  C   UNL     1     -29.065  -6.766 -17.460  1.00  0.00     0.295 C 
ENDROOT
BRANCH   2   3
HETATM    3  N   UNL     1     -29.401  -8.202 -17.488  1.00  0.00     0.091 N 
HETATM    4  H   UNL     1     -28.589  -8.714 -17.844  1.00  0.00     0.313 HD
HETATM    5  H   UNL     1     -30.122  -8.343 -18.203  1.00  0.00     0.313 HD
ENDBRANCH   2   3
BRANCH   2   6
HETATM    6  P   UNL     1     -28.041  -6.679 -15.905  1.00  0.00     0.197 P 
BRANCH   6   7
HETATM    7  O   UNL     1     -26.934  -5.871 -16.406  1.00  0.00    -0.348 OA
ATOM      8  HO  UNL     1     -26.335  -6.569 -16.642  1.00  0.00     0.217 HD
ENDBRANCH   6   7
BRANCH   6   9
HETATM    9  O   UNL     1     -28.845  -5.487 -15.154  1.00  0.00    -0.348 OA
HETATM   10  H   UNL     1     -28.854  -4.729 -15.780  1.00  0.00     0.217 HD
ENDBRANCH   6   9
ENDBRANCH   2   6
TORSDOF 4
BEGIN_RES ARG D 557
REMARK  4 active torsions:
REMARK  status: ('A' for Active; 'I' for Inactive)
REMARK    1  A    between atoms: CA   and  CB  
REMARK    2  A    between atoms: CB   and  CG  
REMARK    3  A    between atoms: CG   and  CD  
REMARK    4  A    between atoms: CD   and  NE  
REMARK       I    between atoms: NE   and  CZ  
REMARK       I    between atoms: CZ   and  NH1 
REMARK       I    between atoms: CZ   and  NH2 
ROOT
ATOM      1  CA  ARG D 557     -26.217   2.705 -17.014  1.00 35.49     0.159 C 
ENDROOT
BRANCH   1   2
ATOM      2  CB  ARG D 557     -26.789   1.319 -17.183  1.00 35.49     0.034 C 
BRANCH   2   3
ATOM      3  CG  ARG D 557     -28.222   1.157 -16.906  1.00 35.49     0.027 C 
BRANCH   3   4
ATOM      4  CD  ARG D 557     -28.636  -0.264 -16.888  1.00 35.49     0.116 C 
BRANCH   4   5
ATOM      5  NE  ARG D 557     -27.700  -1.093 -16.175  1.00 35.49    -0.212 N 
ATOM      6  CZ  ARG D 557     -27.618  -2.402 -16.254  1.00 35.49     0.666 C 
ATOM      7  NH1 ARG D 557     -28.426  -3.119 -17.013  1.00 35.49    -0.235 N 
ATOM      8  NH2 ARG D 557     -26.693  -2.989 -15.551  1.00 35.49    -0.235 N 
ATOM      9  HH  ARG D 557     -29.041  -2.754 -17.485  1.00 35.49     0.174 HD
ATOM     10  HH  ARG D 557     -28.324  -3.970 -17.026  1.00 35.49     0.174 HD
ATOM     11  HH  ARG D 557     -26.181  -2.500 -15.076  1.00 35.49     0.174 HD
ATOM     12  HH  ARG D 557     -26.607  -3.832 -15.579  1.00 35.49     0.174 HD
ATOM     13  HE  ARG D 557     -27.188  -0.720 -15.607  1.00 35.49     0.178 HD
ENDBRANCH   4   5
ENDBRANCH   3   4
ENDBRANCH   2   3
ENDBRANCH   1   2
END_RES ARG D 557
BEGIN_RES GLU D 570
REMARK  3 active torsions:
REMARK  status: ('A' for Active; 'I' for Inactive)
REMARK    5  A    between atoms: CA   and  CB  
REMARK    6  A    between atoms: CB   and  CG  
REMARK    7  A    between atoms: CG   and  CD  
ROOT
ATOM     14  CA  GLU D 570     -18.033  -6.348 -13.375  1.00 32.92     0.160 C 
ENDROOT
BRANCH  14  15
ATOM     15  CB  GLU D 570     -19.500  -6.345 -13.794  1.00 32.92     0.043 C 
BRANCH  15  16
ATOM     16  CG  GLU D 570     -19.798  -6.196 -15.242  1.00 32.92     0.100 C 
BRANCH  16  17
ATOM     17  CD  GLU D 570     -21.050  -5.393 -15.507  1.00 32.92     0.185 C 
ATOM     18  OE1 GLU D 570     -21.745  -5.020 -14.542  1.00 32.92    -0.647 OA
ATOM     19  OE2 GLU D 570     -21.348  -5.148 -16.692  1.00 32.92    -0.647 OA
ENDBRANCH  16  17
ENDBRANCH  15  16
ENDBRANCH  14  15
END_RES GLU D 570
ENDMDL
MODEL 6
REMARK VINA RESULT:      -3.3      4.826      6.785
REMARK  4 active torsions:
REMARK  status: ('A' for Active; 'I' for Inactive)
REMARK    1  A    between atoms: C_2  and  N_3 
REMARK    2  A    between atoms: C_2  and  P_4 
REMARK    3  A    between atoms: P_4  and  O_5 
REMARK    4  A    between atoms: P_4  and  O_7 
ROOT
HETATM    1  C   UNL     1     -29.233  -4.617 -18.061  1.00  0.00     0.052 C 
HETATM    2  C   UNL     1     -28.804  -6.004 -18.505  1.00  0.00     0.295 C 
ENDROOT
BRANCH   2   3
HETATM    3  N   UNL     1     -27.461  -6.372 -18.021  1.00  0.00     0.091 N 
HETATM    4  H   UNL     1     -26.943  -6.788 -18.800  1.00  0.00     0.313 HD
HETATM    5  H   UNL     1     -27.567  -7.138 -17.349  1.00  0.00     0.313 HD
ENDBRANCH   2   3
BRANCH   2   6
HETATM    6  P   UNL     1     -29.831  -7.369 -17.759  1.00  0.00     0.197 P 
BRANCH   6   7
HETATM    7  O   UNL     1     -29.589  -8.407 -18.755  1.00  0.00    -0.348 OA
ATOM      8  HO  UNL     1     -30.394  -8.327 -19.252  1.00  0.00     0.217 HD
ENDBRANCH   6   7
BRANCH   6   9
HETATM    9  O   UNL     1     -28.767  -7.891 -16.651  1.00  0.00    -0.348 OA
HETATM   10  H   UNL     1     -28.260  -8.615 -17.082  1.00  0.00     0.217 HD
ENDBRANCH   6   9
ENDBRANCH   2   6
TORSDOF 4
BEGIN_RES ARG D 557
REMARK  4 active torsions:
REMARK  status: ('A' for Active; 'I' for Inactive)
REMARK    1  A    between atoms: CA   and  CB  
REMARK    2  A    between atoms: CB   and  CG  
REMARK    3  A    between atoms: CG   and  CD  
REMARK    4  A    between atoms: CD   and  NE  
REMARK       I    between atoms: NE   and  CZ  
REMARK       I    between atoms: CZ   and  NH1 
REMARK       I    between atoms: CZ   and  NH2 
ROOT
ATOM      1  CA  ARG D 557     -26.217   2.705 -17.014  1.00 35.49     0.159 C 
ENDROOT
BRANCH   1   2
ATOM      2  CB  ARG D 557     -26.789   1.319 -17.183  1.00 35.49     0.034 C 
BRANCH   2   3
ATOM      3  CG  ARG D 557     -25.864   0.195 -16.994  1.00 35.49     0.027 C 
BRANCH   3   4
ATOM      4  CD  ARG D 557     -26.286  -0.705 -15.897  1.00 35.49     0.116 C 
BRANCH   4   5
ATOM      5  NE  ARG D 557     -25.236  -0.920 -14.937  1.00 35.49    -0.212 N 
ATOM      6  CZ  ARG D 557     -24.948  -2.064 -14.356  1.00 35.49     0.666 C 
ATOM      7  NH1 ARG D 557     -25.630  -3.170 -14.592  1.00 35.49    -0.235 N 
ATOM      8  NH2 ARG D 557     -23.946  -2.080 -13.526  1.00 35.49    -0.235 N 
ATOM      9  HH  ARG D 557     -26.291  -3.182 -15.136  1.00 35.49     0.174 HD
ATOM     10  HH  ARG D 557     -25.395  -3.887 -14.186  1.00 35.49     0.174 HD
ATOM     11  HH  ARG D 557     -23.520  -1.353 -13.399  1.00 35.49     0.174 HD
ATOM     12  HH  ARG D 557     -23.728  -2.800 -13.135  1.00 35.49     0.174 HD
ATOM     13  HE  ARG D 557     -24.792  -0.245 -14.672  1.00 35.49     0.178 HD
ENDBRANCH   4   5
ENDBRANCH   3   4
ENDBRANCH   2   3
ENDBRANCH   1   2
END_RES ARG D 557
BEGIN_RES GLU D 570
REMARK  3 active torsions:
REMARK  status: ('A' for Active; 'I' for Inactive)
REMARK    5  A    between atoms: CA   and  CB  
REMARK    6  A    between atoms: CB   and  CG  
REMARK    7  A    between atoms: CG   and  CD  
ROOT
ATOM     14  CA  GLU D 570     -18.033  -6.348 -13.375  1.00 32.92     0.160 C 
ENDROOT
BRANCH  14  15
ATOM     15  CB  GLU D 570     -19.500  -6.345 -13.794  1.00 32.92     0.043 C 
BRANCH  15  16
ATOM     16  CG  GLU D 570     -20.447  -5.555 -12.966  1.00 32.92     0.100 C 
BRANCH  16  17
ATOM     17  CD  GLU D 570     -21.687  -5.140 -13.722  1.00 32.92     0.185 C 
ATOM     18  OE1 GLU D 570     -22.721  -4.863 -13.084  1.00 32.92    -0.647 OA
ATOM     19  OE2 GLU D 570     -21.629  -5.108 -14.967  1.00 32.92    -0.647 OA
ENDBRANCH  16  17
ENDBRANCH  15  16
ENDBRANCH  14  15
END_RES GLU D 570
ENDMDL
MODEL 7
REMARK VINA RESULT:      -3.3     10.261     11.960
REMARK  4 active torsions:
REMARK  status: ('A' for Active; 'I' for Inactive)
REMARK    1  A    between atoms: C_2  and  N_3 
REMARK    2  A    between atoms: C_2  and  P_4 
REMARK    3  A    between atoms: P_4  and  O_5 
REMARK    4  A    between atoms: P_4  and  O_7 
ROOT
HETATM    1  C   UNL     1      -9.621   7.885 -20.923  1.00  0.00     0.052 C 
HETATM    2  C   UNL     1     -10.511   7.362 -19.809  1.00  0.00     0.295 C 
ENDROOT
BRANCH   2   3
HETATM    3  N   UNL     1     -11.935   7.314 -20.186  1.00  0.00     0.091 N 
HETATM    4  H   UNL     1     -12.460   7.899 -19.531  1.00  0.00     0.313 HD
HETATM    5  H   UNL     1     -12.277   6.365 -20.008  1.00  0.00     0.313 HD
ENDBRANCH   2   3
BRANCH   2   6
HETATM    6  P   UNL     1     -10.199   5.573 -19.392  1.00  0.00     0.197 P 
BRANCH   6   7
HETATM    7  O   UNL     1      -9.630   5.744 -18.060  1.00  0.00    -0.348 OA
ATOM      8  HO  UNL     1      -9.211   6.588 -18.185  1.00  0.00     0.217 HD
ENDBRANCH   6   7
BRANCH   6   9
HETATM    9  O   UNL     1     -11.699   5.169 -18.927  1.00  0.00    -0.348 OA
HETATM   10  H   UNL     1     -11.964   5.836 -18.255  1.00  0.00     0.217 HD
ENDBRANCH   6   9
ENDBRANCH   2   6
TORSDOF 4
BEGIN_RES ARG D 557
REMARK  4 active torsions:
REMARK  status: ('A' for Active; 'I' for Inactive)
REMARK    1  A    between atoms: CA   and  CB  
REMARK    2  A    between atoms: CB   and  CG  
REMARK    3  A    between atoms: CG   and  CD  
REMARK    4  A    between atoms: CD   and  NE  
REMARK       I    between atoms: NE   and  CZ  
REMARK       I    between atoms: CZ   and  NH1 
REMARK       I    between atoms: CZ   and  NH2 
ROOT
ATOM      1  CA  ARG D 557     -26.217   2.705 -17.014  1.00 35.49     0.159 C 
ENDROOT
BRANCH   1   2
ATOM      2  CB  ARG D 557     -26.789   1.319 -17.183  1.00 35.49     0.034 C 
BRANCH   2   3
ATOM      3  CG  ARG D 557     -25.836   0.203 -17.157  1.00 35.49     0.027 C 
BRANCH   3   4
ATOM      4  CD  ARG D 557     -24.750   0.411 -16.172  1.00 35.49     0.116 C 
BRANCH   4   5
ATOM      5  NE  ARG D 557     -24.895  -0.438 -15.019  1.00 35.49    -0.212 N 
ATOM      6  CZ  ARG D 557     -24.077  -1.405 -14.669  1.00 35.49     0.666 C 
ATOM      7  NH1 ARG D 557     -23.005  -1.717 -15.374  1.00 35.49    -0.235 N 
ATOM      8  NH2 ARG D 557     -24.352  -2.060 -13.579  1.00 35.49    -0.235 N 
ATOM      9  HH  ARG D 557     -22.803  -1.298 -16.094  1.00 35.49     0.174 HD
ATOM     10  HH  ARG D 557     -22.506  -2.356 -15.096  1.00 35.49     0.174 HD
ATOM     11  HH  ARG D 557     -25.047  -1.832 -13.139  1.00 35.49     0.174 HD
ATOM     12  HH  ARG D 557     -23.845  -2.688 -13.319  1.00 35.49     0.174 HD
ATOM     13  HE  ARG D 557     -25.598  -0.355 -14.547  1.00 35.49     0.178 HD
ENDBRANCH   4   5
ENDBRANCH   3   4
ENDBRANCH   2   3
ENDBRANCH   1   2
END_RES ARG D 557
BEGIN_RES GLU D 570
REMARK  3 active torsions:
REMARK  status: ('A' for Active; 'I' for Inactive)
REMARK    5  A    between atoms: CA   and  CB  
REMARK    6  A    between atoms: CB   and  CG  
REMARK    7  A    between atoms: CG   and  CD  
ROOT
ATOM     14  CA  GLU D 570     -18.033  -6.348 -13.375  1.00 32.92     0.160 C 
ENDROOT
BRANCH  14  15
ATOM     15  CB  GLU D 570     -19.500  -6.345 -13.794  1.00 32.92     0.043 C 
BRANCH  15  16
ATOM     16  CG  GLU D 570     -20.439  -5.517 -12.994  1.00 32.92     0.100 C 
BRANCH  16  17
ATOM     17  CD  GLU D 570     -21.739  -5.240 -13.711  1.00 32.92     0.185 C 
ATOM     18  OE1 GLU D 570     -22.209  -6.111 -14.469  1.00 32.92    -0.647 OA
ATOM     19  OE2 GLU D 570     -22.285  -4.135 -13.527  1.00 32.92    -0.647 OA
ENDBRANCH  16  17
ENDBRANCH  15  16
ENDBRANCH  14  15
END_RES GLU D 570
ENDMDL
MODEL 8
REMARK VINA RESULT:      -3.1      1.806      1.877
REMARK  4 active torsions:
REMARK  status: ('A' for Active; 'I' for Inactive)
REMARK    1  A    between atoms: C_2  and  N_3 
REMARK    2  A    between atoms: C_2  and  P_4 
REMARK    3  A    between atoms: P_4  and  O_5 
REMARK    4  A    between atoms: P_4  and  O_7 
ROOT
HETATM    1  C   UNL     1     -20.617  -4.645  -5.941  1.00  0.00     0.052 C 
HETATM    2  C   UNL     1     -21.071  -3.825  -7.136  1.00  0.00     0.295 C 
ENDROOT
BRANCH   2   3
HETATM    3  N   UNL     1     -20.103  -3.847  -8.248  1.00  0.00     0.091 N 
HETATM    4  H   UNL     1     -20.208  -2.979  -8.781  1.00  0.00     0.313 HD
HETATM    5  H   UNL     1     -20.389  -4.582  -8.902  1.00  0.00     0.313 HD
ENDBRANCH   2   3
BRANCH   2   6
HETATM    6  P   UNL     1     -22.583  -4.519  -7.976  1.00  0.00     0.197 P 
BRANCH   6   7
HETATM    7  O   UNL     1     -23.532  -4.397  -6.875  1.00  0.00    -0.348 OA
ATOM      8  HO  UNL     1     -23.383  -3.486  -6.651  1.00  0.00     0.217 HD
ENDBRANCH   6   7
BRANCH   6   9
HETATM    9  O   UNL     1     -23.036  -3.191  -8.790  1.00  0.00    -0.348 OA
HETATM   10  H   UNL     1     -23.837  -3.445  -9.299  1.00  0.00     0.217 HD
ENDBRANCH   6   9
ENDBRANCH   2   6
TORSDOF 4
BEGIN_RES ARG D 557
REMARK  4 active torsions:
REMARK  status: ('A' for Active; 'I' for Inactive)
REMARK    1  A    between atoms: CA   and  CB  
REMARK    2  A    between atoms: CB   and  CG  
REMARK    3  A    between atoms: CG   and  CD  
REMARK    4  A    between atoms: CD   and  NE  
REMARK       I    between atoms: NE   and  CZ  
REMARK       I    between atoms: CZ   and  NH1 
REMARK       I    between atoms: CZ   and  NH2 
ROOT
ATOM      1  CA  ARG D 557     -26.217   2.705 -17.014  1.00 35.49     0.159 C 
ENDROOT
BRANCH   1   2
ATOM      2  CB  ARG D 557     -26.789   1.319 -17.183  1.00 35.49     0.034 C 
BRANCH   2   3
ATOM      3  CG  ARG D 557     -25.835   0.204 -17.167  1.00 35.49     0.027 C 
BRANCH   3   4
ATOM      4  CD  ARG D 557     -24.748   0.406 -16.181  1.00 35.49     0.116 C 
BRANCH   4   5
ATOM      5  NE  ARG D 557     -24.900  -0.439 -15.025  1.00 35.49    -0.212 N 
ATOM      6  CZ  ARG D 557     -24.084  -1.404 -14.666  1.00 35.49     0.666 C 
ATOM      7  NH1 ARG D 557     -23.007  -1.718 -15.363  1.00 35.49    -0.235 N 
ATOM      8  NH2 ARG D 557     -24.366  -2.054 -13.575  1.00 35.49    -0.235 N 
ATOM      9  HH  ARG D 557     -22.801  -1.302 -16.083  1.00 35.49     0.174 HD
ATOM     10  HH  ARG D 557     -22.510  -2.356 -15.079  1.00 35.49     0.174 HD
ATOM     11  HH  ARG D 557     -25.064  -1.825 -13.142  1.00 35.49     0.174 HD
ATOM     12  HH  ARG D 557     -23.861  -2.681 -13.309  1.00 35.49     0.174 HD
ATOM     13  HE  ARG D 557     -25.606  -0.354 -14.559  1.00 35.49     0.178 HD
ENDBRANCH   4   5
ENDBRANCH   3   4
ENDBRANCH   2   3
ENDBRANCH   1   2
END_RES ARG D 557
BEGIN_RES GLU D 570
REMARK  3 active torsions:
REMARK  status: ('A' for Active; 'I' for Inactive)
REMARK    5  A    between atoms: CA   and  CB  
REMARK    6  A    between atoms: CB   and  CG  
REMARK    7  A    between atoms: CG   and  CD  
ROOT
ATOM     14  CA  GLU D 570     -18.033  -6.348 -13.375  1.00 32.92     0.160 C 
ENDROOT
BRANCH  14  15
ATOM     15  CB  GLU D 570     -19.500  -6.345 -13.794  1.00 32.92     0.043 C 
BRANCH  15  16
ATOM     16  CG  GLU D 570     -20.438  -5.514 -12.996  1.00 32.92     0.100 C 
BRANCH  16  17
ATOM     17  CD  GLU D 570     -21.741  -5.243 -13.712  1.00 32.92     0.185 C 
ATOM     18  OE1 GLU D 570     -22.203  -6.111 -14.477  1.00 32.92    -0.647 OA
ATOM     19  OE2 GLU D 570     -22.297  -4.144 -13.518  1.00 32.92    -0.647 OA
ENDBRANCH  16  17
ENDBRANCH  15  16
ENDBRANCH  14  15
END_RES GLU D 570
ENDMDL
MODEL 9
REMARK VINA RESULT:      -3.0     10.655     12.114
REMARK  4 active torsions:
REMARK  status: ('A' for Active; 'I' for Inactive)
REMARK    1  A    between atoms: C_2  and  N_3 
REMARK    2  A    between atoms: C_2  and  P_4 
REMARK    3  A    between atoms: P_4  and  O_5 
REMARK    4  A    between atoms: P_4  and  O_7 
ROOT
HETATM    1  C   UNL     1     -10.853   4.424 -20.355  1.00  0.00     0.052 C 
HETATM    2  C   UNL     1     -10.586   5.453 -19.270  1.00  0.00     0.295 C 
ENDROOT
BRANCH   2   3
HETATM    3  N   UNL     1      -9.226   5.355 -18.708  1.00  0.00     0.091 N 
HETATM    4  H   UNL     1      -9.255   5.686 -17.740  1.00  0.00     0.313 HD
HETATM    5  H   UNL     1      -8.635   6.037 -19.193  1.00  0.00     0.313 HD
ENDBRANCH   2   3
BRANCH   2   6
HETATM    6  P   UNL     1     -10.578   7.206 -19.900  1.00  0.00     0.197 P 
BRANCH   6   7
HETATM    7  O   UNL     1     -10.245   7.894 -18.657  1.00  0.00    -0.348 OA
ATOM      8  HO  UNL     1     -10.636   8.739 -18.846  1.00  0.00     0.217 HD
ENDBRANCH   6   7
BRANCH   6   9
HETATM    9  O   UNL     1      -9.092   7.221 -20.550  1.00  0.00    -0.348 OA
HETATM   10  H   UNL     1      -8.468   7.087 -19.803  1.00  0.00     0.217 HD
ENDBRANCH   6   9
ENDBRANCH   2   6
TORSDOF 4
BEGIN_RES ARG D 557
REMARK  4 active torsions:
REMARK  status: ('A' for Active; 'I' for Inactive)
REMARK    1  A    between atoms: CA   and  CB  
REMARK    2  A    between atoms: CB   and  CG  
REMARK    3  A    between atoms: CG   and  CD  
REMARK    4  A    between atoms: CD   and  NE  
REMARK       I    between atoms: NE   and  CZ  
REMARK       I    between atoms: CZ   and  NH1 
REMARK       I    between atoms: CZ   and  NH2 
ROOT
ATOM      1  CA  ARG D 557     -26.217   2.705 -17.014  1.00 35.49     0.159 C 
ENDROOT
BRANCH   1   2
ATOM      2  CB  ARG D 557     -26.789   1.319 -17.183  1.00 35.49     0.034 C 
BRANCH   2   3
ATOM      3  CG  ARG D 557     -25.936   0.198 -16.770  1.00 35.49     0.027 C 
BRANCH   3   4
ATOM      4  CD  ARG D 557     -26.697  -0.860 -16.066  1.00 35.49     0.116 C 
BRANCH   4   5
ATOM      5  NE  ARG D 557     -25.949  -1.433 -14.978  1.00 35.49    -0.212 N 
ATOM      6  CZ  ARG D 557     -25.924  -2.705 -14.649  1.00 35.49     0.666 C 
ATOM      7  NH1 ARG D 557     -26.619  -3.620 -15.300  1.00 35.49    -0.235 N 
ATOM      8  NH2 ARG D 557     -25.172  -3.051 -13.645  1.00 35.49    -0.235 N 
ATOM      9  HH  ARG D 557     -27.119  -3.415 -15.965  1.00 35.49     0.174 HD
ATOM     10  HH  ARG D 557     -26.561  -4.435 -15.042  1.00 35.49     0.174 HD
ATOM     11  HH  ARG D 557     -24.728  -2.440 -13.248  1.00 35.49     0.174 HD
ATOM     12  HH  ARG D 557     -25.126  -3.863 -13.406  1.00 35.49     0.174 HD
ATOM     13  HE  ARG D 557     -25.529  -0.905 -14.460  1.00 35.49     0.178 HD
ENDBRANCH   4   5
ENDBRANCH   3   4
ENDBRANCH   2   3
ENDBRANCH   1   2
END_RES ARG D 557
BEGIN_RES GLU D 570
REMARK  3 active torsions:
REMARK  status: ('A' for Active; 'I' for Inactive)
REMARK    5  A    between atoms: CA   and  CB  
REMARK    6  A    between atoms: CB   and  CG  
REMARK    7  A    between atoms: CG   and  CD  
ROOT
ATOM     14  CA  GLU D 570     -18.033  -6.348 -13.375  1.00 32.92     0.160 C 
ENDROOT
BRANCH  14  15
ATOM     15  CB  GLU D 570     -19.500  -6.345 -13.794  1.00 32.92     0.043 C 
BRANCH  15  16
ATOM     16  CG  GLU D 570     -20.437  -5.509 -13.000  1.00 32.92     0.100 C 
BRANCH  16  17
ATOM     17  CD  GLU D 570     -21.749  -5.261 -13.707  1.00 32.92     0.185 C 
ATOM     18  OE1 GLU D 570     -22.199  -6.136 -14.472  1.00 32.92    -0.647 OA
ATOM     19  OE2 GLU D 570     -22.325  -4.174 -13.506  1.00 32.92    -0.647 OA
ENDBRANCH  16  17
ENDBRANCH  15  16
ENDBRANCH  14  15
END_RES GLU D 570
ENDMDL
