MODEL 1
REMARK VINA RESULT:      -6.5      0.000      0.000
REMARK  13 active torsions:
REMARK  status: ('A' for Active; 'I' for Inactive)
REMARK    1  A    between atoms: C_2  and  C_3 
REMARK    2  A    between atoms: C_3  and  C_4 
REMARK    3  A    between atoms: C_4  and  C_5 
REMARK    4  A    between atoms: C_5  and  C_6 
REMARK    5  A    between atoms: C_6  and  C_7 
REMARK    6  A    between atoms: C_7  and  C_8 
REMARK    7  A    between atoms: C_8  and  C_9 
REMARK    8  A    between atoms: C_9  and  C_10 
REMARK    9  A    between atoms: C_10  and  C_11 
REMARK   10  A    between atoms: C_11  and  C_12 
REMARK   11  A    between atoms: C_12  and  C_13 
REMARK   12  A    between atoms: C_13  and  C_14 
REMARK   13  A    between atoms: C_14  and  N_15 
ROOT
HETATM    1  C   UNL     1     -20.543  -4.142  -7.068  1.00  0.00     0.000 C 
ENDROOT
BRANCH   1   2
HETATM    2  C   UNL     1     -20.254  -5.350  -6.193  1.00  0.00     0.000 C 
BRANCH   2   3
HETATM    3  C   UNL     1     -21.515  -5.801  -5.470  1.00  0.00     0.000 C 
BRANCH   3   4
HETATM    4  C   UNL     1     -21.415  -7.278  -5.119  1.00  0.00     0.000 C 
BRANCH   4   5
HETATM    5  C   UNL     1     -21.320  -7.466  -3.611  1.00  0.00     0.000 C 
BRANCH   5   6
HETATM    6  C   UNL     1     -21.472  -6.129  -2.894  1.00  0.00     0.000 C 
BRANCH   6   7
HETATM    7  C   UNL     1     -22.213  -6.310  -1.574  1.00  0.00    -0.000 C 
BRANCH   7   8
HETATM    8  C   UNL     1     -21.911  -7.670  -0.956  1.00  0.00    -0.005 C 
HETATM    9  C   UNL     1     -22.839  -7.955   0.213  1.00  0.00     0.005 C 
ENDBRANCH   7   8
ENDBRANCH   6   7
ENDBRANCH   5   6
ENDBRANCH   4   5
ENDBRANCH   3   4
ENDBRANCH   2   3
ENDBRANCH   1   2
BRANCH   1  10
HETATM   10  C   UNL     1     -22.002  -4.144  -7.502  1.00  0.00     0.000 C 
BRANCH  10  11
HETATM   11  C   UNL     1     -22.093  -4.205  -9.016  1.00  0.00     0.000 C 
BRANCH  11  12
HETATM   12  C   UNL     1     -20.707  -4.224  -9.652  1.00  0.00     0.002 C 
BRANCH  12  13
HETATM   13  C   UNL     1     -20.848  -4.048 -11.156  1.00  0.00     0.036 C 
BRANCH  13  14
HETATM   14  C   UNL     1     -21.872  -2.977 -11.504  1.00  0.00     0.311 C 
BRANCH  14  15
HETATM   15  N   UNL     1     -22.946  -3.419 -12.484  1.00  0.00     0.005 N 
HETATM   16  C   UNL     1     -22.792  -4.870 -12.839  1.00  0.00     0.355 C 
HETATM   17  C   UNL     1     -24.321  -3.173 -11.928  1.00  0.00     0.355 C 
HETATM   18  O   UNL     1     -22.807  -2.674 -13.637  1.00  0.00    -0.065 OA
ENDBRANCH  14  15
ENDBRANCH  13  14
ENDBRANCH  12  13
ENDBRANCH  11  12
ENDBRANCH  10  11
ENDBRANCH   1  10
TORSDOF 13
BEGIN_RES ARG D 557
REMARK  4 active torsions:
REMARK  status: ('A' for Active; 'I' for Inactive)
REMARK    1  A    between atoms: CA   and  CB  
REMARK    2  A    between atoms: CB   and  CG  
REMARK    3  A    between atoms: CG   and  CD  
REMARK    4  A    between atoms: CD   and  NE  
REMARK       I    between atoms: NE   and  CZ  
REMARK       I    between atoms: CZ   and  NH1 
REMARK       I    between atoms: CZ   and  NH2 
ROOT
ATOM      1  CA  ARG D 557     -26.217   2.705 -17.014  1.00 35.49     0.159 C 
ENDROOT
BRANCH   1   2
ATOM      2  CB  ARG D 557     -26.789   1.319 -17.183  1.00 35.49     0.034 C 
BRANCH   2   3
ATOM      3  CG  ARG D 557     -28.232   1.226 -17.438  1.00 35.49     0.027 C 
BRANCH   3   4
ATOM      4  CD  ARG D 557     -28.912   0.303 -16.501  1.00 35.49     0.116 C 
BRANCH   4   5
ATOM      5  NE  ARG D 557     -29.314  -0.921 -17.141  1.00 35.49    -0.212 N 
ATOM      6  CZ  ARG D 557     -28.702  -2.080 -17.036  1.00 35.49     0.666 C 
ATOM      7  NH1 ARG D 557     -27.607  -2.241 -16.316  1.00 35.49    -0.235 N 
ATOM      8  NH2 ARG D 557     -29.219  -3.092 -17.670  1.00 35.49    -0.235 N 
ATOM      9  HH  ARG D 557     -27.250  -1.589 -15.889  1.00 35.49     0.174 HD
ATOM     10  HH  ARG D 557     -27.253  -3.020 -16.282  1.00 35.49     0.174 HD
ATOM     11  HH  ARG D 557     -29.930  -2.960 -18.122  1.00 35.49     0.174 HD
ATOM     12  HH  ARG D 557     -28.854  -3.856 -17.623  1.00 35.49     0.174 HD
ATOM     13  HE  ARG D 557     -29.968  -0.893 -17.683  1.00 35.49     0.178 HD
ENDBRANCH   4   5
ENDBRANCH   3   4
ENDBRANCH   2   3
ENDBRANCH   1   2
END_RES ARG D 557
BEGIN_RES GLU D 570
REMARK  3 active torsions:
REMARK  status: ('A' for Active; 'I' for Inactive)
REMARK    5  A    between atoms: CA   and  CB  
REMARK    6  A    between atoms: CB   and  CG  
REMARK    7  A    between atoms: CG   and  CD  
ROOT
ATOM     14  CA  GLU D 570     -18.033  -6.348 -13.375  1.00 32.92     0.160 C 
ENDROOT
BRANCH  14  15
ATOM     15  CB  GLU D 570     -19.500  -6.345 -13.794  1.00 32.92     0.043 C 
BRANCH  15  16
ATOM     16  CG  GLU D 570     -20.101  -7.644 -14.191  1.00 32.92     0.100 C 
BRANCH  16  17
ATOM     17  CD  GLU D 570     -20.825  -7.579 -15.515  1.00 32.92     0.185 C 
ATOM     18  OE1 GLU D 570     -21.028  -8.634 -16.147  1.00 32.92    -0.647 OA
ATOM     19  OE2 GLU D 570     -21.179  -6.459 -15.933  1.00 32.92    -0.647 OA
ENDBRANCH  16  17
ENDBRANCH  15  16
ENDBRANCH  14  15
END_RES GLU D 570
ENDMDL
MODEL 2
REMARK VINA RESULT:      -6.4      2.039      3.222
REMARK  13 active torsions:
REMARK  status: ('A' for Active; 'I' for Inactive)
REMARK    1  A    between atoms: C_2  and  C_3 
REMARK    2  A    between atoms: C_3  and  C_4 
REMARK    3  A    between atoms: C_4  and  C_5 
REMARK    4  A    between atoms: C_5  and  C_6 
REMARK    5  A    between atoms: C_6  and  C_7 
REMARK    6  A    between atoms: C_7  and  C_8 
REMARK    7  A    between atoms: C_8  and  C_9 
REMARK    8  A    between atoms: C_9  and  C_10 
REMARK    9  A    between atoms: C_10  and  C_11 
REMARK   10  A    between atoms: C_11  and  C_12 
REMARK   11  A    between atoms: C_12  and  C_13 
REMARK   12  A    between atoms: C_13  and  C_14 
REMARK   13  A    between atoms: C_14  and  N_15 
ROOT
HETATM    1  C   UNL     1     -20.496  -6.383  -5.307  1.00  0.00     0.000 C 
ENDROOT
BRANCH   1   2
HETATM    2  C   UNL     1     -21.701  -6.776  -4.469  1.00  0.00     0.000 C 
BRANCH   2   3
HETATM    3  C   UNL     1     -21.490  -6.387  -3.013  1.00  0.00     0.000 C 
BRANCH   3   4
HETATM    4  C   UNL     1     -21.929  -7.523  -2.101  1.00  0.00     0.000 C 
BRANCH   4   5
HETATM    5  C   UNL     1     -22.175  -7.011  -0.689  1.00  0.00     0.000 C 
BRANCH   5   6
HETATM    6  C   UNL     1     -22.894  -8.067   0.146  1.00  0.00     0.000 C 
BRANCH   6   7
HETATM    7  C   UNL     1     -22.690  -9.454  -0.453  1.00  0.00    -0.000 C 
BRANCH   7   8
HETATM    8  C   UNL     1     -23.830 -10.390  -0.072  1.00  0.00    -0.005 C 
HETATM    9  C   UNL     1     -23.937 -11.546  -1.055  1.00  0.00     0.005 C 
ENDBRANCH   7   8
ENDBRANCH   6   7
ENDBRANCH   5   6
ENDBRANCH   4   5
ENDBRANCH   3   4
ENDBRANCH   2   3
ENDBRANCH   1   2
BRANCH   1  10
HETATM   10  C   UNL     1     -20.400  -4.868  -5.412  1.00  0.00     0.000 C 
BRANCH  10  11
HETATM   11  C   UNL     1     -20.239  -4.457  -6.865  1.00  0.00     0.000 C 
BRANCH  11  12
HETATM   12  C   UNL     1     -21.447  -3.662  -7.351  1.00  0.00     0.002 C 
BRANCH  12  13
HETATM   13  C   UNL     1     -22.254  -4.520  -8.312  1.00  0.00     0.036 C 
BRANCH  13  14
HETATM   14  C   UNL     1     -23.548  -3.836  -8.727  1.00  0.00     0.311 C 
BRANCH  14  15
HETATM   15  N   UNL     1     -23.791  -3.791 -10.226  1.00  0.00     0.005 N 
HETATM   16  C   UNL     1     -22.756  -2.949 -10.917  1.00  0.00     0.355 C 
HETATM   17  C   UNL     1     -23.800  -5.174 -10.816  1.00  0.00     0.355 C 
HETATM   18  O   UNL     1     -25.028  -3.220 -10.442  1.00  0.00    -0.065 OA
ENDBRANCH  14  15
ENDBRANCH  13  14
ENDBRANCH  12  13
ENDBRANCH  11  12
ENDBRANCH  10  11
ENDBRANCH   1  10
TORSDOF 13
BEGIN_RES ARG D 557
REMARK  4 active torsions:
REMARK  status: ('A' for Active; 'I' for Inactive)
REMARK    1  A    between atoms: CA   and  CB  
REMARK    2  A    between atoms: CB   and  CG  
REMARK    3  A    between atoms: CG   and  CD  
REMARK    4  A    between atoms: CD   and  NE  
REMARK       I    between atoms: NE   and  CZ  
REMARK       I    between atoms: CZ   and  NH1 
REMARK       I    between atoms: CZ   and  NH2 
ROOT
ATOM      1  CA  ARG D 557     -26.217   2.705 -17.014  1.00 35.49     0.159 C 
ENDROOT
BRANCH   1   2
ATOM      2  CB  ARG D 557     -26.789   1.319 -17.183  1.00 35.49     0.034 C 
BRANCH   2   3
ATOM      3  CG  ARG D 557     -25.930   0.197 -16.785  1.00 35.49     0.027 C 
BRANCH   3   4
ATOM      4  CD  ARG D 557     -26.677  -0.855 -16.058  1.00 35.49     0.116 C 
BRANCH   4   5
ATOM      5  NE  ARG D 557     -25.910  -1.414 -14.976  1.00 35.49    -0.212 N 
ATOM      6  CZ  ARG D 557     -25.882  -2.682 -14.629  1.00 35.49     0.666 C 
ATOM      7  NH1 ARG D 557     -26.592  -3.603 -15.254  1.00 35.49    -0.235 N 
ATOM      8  NH2 ARG D 557     -25.113  -3.015 -13.634  1.00 35.49    -0.235 N 
ATOM      9  HH  ARG D 557     -27.104  -3.407 -15.912  1.00 35.49     0.174 HD
ATOM     10  HH  ARG D 557     -26.532  -4.415 -14.985  1.00 35.49     0.174 HD
ATOM     11  HH  ARG D 557     -24.660  -2.400 -13.255  1.00 35.49     0.174 HD
ATOM     12  HH  ARG D 557     -25.065  -3.824 -13.385  1.00 35.49     0.174 HD
ATOM     13  HE  ARG D 557     -25.479  -0.880 -14.474  1.00 35.49     0.178 HD
ENDBRANCH   4   5
ENDBRANCH   3   4
ENDBRANCH   2   3
ENDBRANCH   1   2
END_RES ARG D 557
BEGIN_RES GLU D 570
REMARK  3 active torsions:
REMARK  status: ('A' for Active; 'I' for Inactive)
REMARK    5  A    between atoms: CA   and  CB  
REMARK    6  A    between atoms: CB   and  CG  
REMARK    7  A    between atoms: CG   and  CD  
ROOT
ATOM     14  CA  GLU D 570     -18.033  -6.348 -13.375  1.00 32.92     0.160 C 
ENDROOT
BRANCH  14  15
ATOM     15  CB  GLU D 570     -19.500  -6.345 -13.794  1.00 32.92     0.043 C 
BRANCH  15  16
ATOM     16  CG  GLU D 570     -20.413  -5.412 -13.085  1.00 32.92     0.100 C 
BRANCH  16  17
ATOM     17  CD  GLU D 570     -21.731  -5.221 -13.797  1.00 32.92     0.185 C 
ATOM     18  OE1 GLU D 570     -22.324  -6.219 -14.250  1.00 32.92    -0.647 OA
ATOM     19  OE2 GLU D 570     -22.168  -4.060 -13.918  1.00 32.92    -0.647 OA
ENDBRANCH  16  17
ENDBRANCH  15  16
ENDBRANCH  14  15
END_RES GLU D 570
ENDMDL
MODEL 3
REMARK VINA RESULT:      -6.3      1.308      2.342
REMARK  13 active torsions:
REMARK  status: ('A' for Active; 'I' for Inactive)
REMARK    1  A    between atoms: C_2  and  C_3 
REMARK    2  A    between atoms: C_3  and  C_4 
REMARK    3  A    between atoms: C_4  and  C_5 
REMARK    4  A    between atoms: C_5  and  C_6 
REMARK    5  A    between atoms: C_6  and  C_7 
REMARK    6  A    between atoms: C_7  and  C_8 
REMARK    7  A    between atoms: C_8  and  C_9 
REMARK    8  A    between atoms: C_9  and  C_10 
REMARK    9  A    between atoms: C_10  and  C_11 
REMARK   10  A    between atoms: C_11  and  C_12 
REMARK   11  A    between atoms: C_12  and  C_13 
REMARK   12  A    between atoms: C_13  and  C_14 
REMARK   13  A    between atoms: C_14  and  N_15 
ROOT
HETATM    1  C   UNL     1     -21.612  -6.244  -5.602  1.00  0.00     0.000 C 
ENDROOT
BRANCH   1   2
HETATM    2  C   UNL     1     -21.946  -6.880  -4.263  1.00  0.00     0.000 C 
BRANCH   2   3
HETATM    3  C   UNL     1     -21.366  -6.058  -3.121  1.00  0.00     0.000 C 
BRANCH   3   4
HETATM    4  C   UNL     1     -22.197  -6.256  -1.862  1.00  0.00     0.000 C 
BRANCH   4   5
HETATM    5  C   UNL     1     -21.860  -7.584  -1.200  1.00  0.00     0.000 C 
BRANCH   5   6
HETATM    6  C   UNL     1     -22.338  -7.599   0.248  1.00  0.00     0.000 C 
BRANCH   6   7
HETATM    7  C   UNL     1     -23.348  -8.721   0.468  1.00  0.00    -0.000 C 
BRANCH   7   8
HETATM    8  C   UNL     1     -22.989  -9.952  -0.356  1.00  0.00    -0.005 C 
HETATM    9  C   UNL     1     -24.031 -11.045  -0.182  1.00  0.00     0.005 C 
ENDBRANCH   7   8
ENDBRANCH   6   7
ENDBRANCH   5   6
ENDBRANCH   4   5
ENDBRANCH   3   4
ENDBRANCH   2   3
ENDBRANCH   1   2
BRANCH   1  10
HETATM   10  C   UNL     1     -20.559  -5.160  -5.422  1.00  0.00     0.000 C 
BRANCH  10  11
HETATM   11  C   UNL     1     -20.388  -4.382  -6.714  1.00  0.00     0.000 C 
BRANCH  11  12
HETATM   12  C   UNL     1     -21.678  -4.375  -7.528  1.00  0.00     0.002 C 
BRANCH  12  13
HETATM   13  C   UNL     1     -21.350  -4.045  -8.976  1.00  0.00     0.036 C 
BRANCH  13  14
HETATM   14  C   UNL     1     -22.593  -3.655  -9.761  1.00  0.00     0.311 C 
BRANCH  14  15
HETATM   15  N   UNL     1     -22.516  -3.929 -11.253  1.00  0.00     0.005 N 
HETATM   16  C   UNL     1     -23.586  -4.893 -11.682  1.00  0.00     0.355 C 
HETATM   17  C   UNL     1     -22.630  -2.656 -12.045  1.00  0.00     0.355 C 
HETATM   18  O   UNL     1     -21.288  -4.497 -11.521  1.00  0.00    -0.065 OA
ENDBRANCH  14  15
ENDBRANCH  13  14
ENDBRANCH  12  13
ENDBRANCH  11  12
ENDBRANCH  10  11
ENDBRANCH   1  10
TORSDOF 13
BEGIN_RES ARG D 557
REMARK  4 active torsions:
REMARK  status: ('A' for Active; 'I' for Inactive)
REMARK    1  A    between atoms: CA   and  CB  
REMARK    2  A    between atoms: CB   and  CG  
REMARK    3  A    between atoms: CG   and  CD  
REMARK    4  A    between atoms: CD   and  NE  
REMARK       I    between atoms: NE   and  CZ  
REMARK       I    between atoms: CZ   and  NH1 
REMARK       I    between atoms: CZ   and  NH2 
ROOT
ATOM      1  CA  ARG D 557     -26.217   2.705 -17.014  1.00 35.49     0.159 C 
ENDROOT
BRANCH   1   2
ATOM      2  CB  ARG D 557     -26.789   1.319 -17.183  1.00 35.49     0.034 C 
BRANCH   2   3
ATOM      3  CG  ARG D 557     -28.230   1.227 -17.448  1.00 35.49     0.027 C 
BRANCH   3   4
ATOM      4  CD  ARG D 557     -28.919   0.312 -16.509  1.00 35.49     0.116 C 
BRANCH   4   5
ATOM      5  NE  ARG D 557     -29.309  -0.921 -17.141  1.00 35.49    -0.212 N 
ATOM      6  CZ  ARG D 557     -28.681  -2.071 -17.034  1.00 35.49     0.666 C 
ATOM      7  NH1 ARG D 557     -27.580  -2.214 -16.320  1.00 35.49    -0.235 N 
ATOM      8  NH2 ARG D 557     -29.189  -3.092 -17.660  1.00 35.49    -0.235 N 
ATOM      9  HH  ARG D 557     -27.229  -1.555 -15.898  1.00 35.49     0.174 HD
ATOM     10  HH  ARG D 557     -27.215  -2.988 -16.285  1.00 35.49     0.174 HD
ATOM     11  HH  ARG D 557     -29.906  -2.972 -18.107  1.00 35.49     0.174 HD
ATOM     12  HH  ARG D 557     -28.815  -3.851 -17.611  1.00 35.49     0.174 HD
ATOM     13  HE  ARG D 557     -29.967  -0.903 -17.679  1.00 35.49     0.178 HD
ENDBRANCH   4   5
ENDBRANCH   3   4
ENDBRANCH   2   3
ENDBRANCH   1   2
END_RES ARG D 557
BEGIN_RES GLU D 570
REMARK  3 active torsions:
REMARK  status: ('A' for Active; 'I' for Inactive)
REMARK    5  A    between atoms: CA   and  CB  
REMARK    6  A    between atoms: CB   and  CG  
REMARK    7  A    between atoms: CG   and  CD  
ROOT
ATOM     14  CA  GLU D 570     -18.033  -6.348 -13.375  1.00 32.92     0.160 C 
ENDROOT
BRANCH  14  15
ATOM     15  CB  GLU D 570     -19.500  -6.345 -13.794  1.00 32.92     0.043 C 
BRANCH  15  16
ATOM     16  CG  GLU D 570     -19.800  -6.533 -15.237  1.00 32.92     0.100 C 
BRANCH  16  17
ATOM     17  CD  GLU D 570     -20.861  -5.585 -15.747  1.00 32.92     0.185 C 
ATOM     18  OE1 GLU D 570     -21.583  -4.988 -14.926  1.00 32.92    -0.647 OA
ATOM     19  OE2 GLU D 570     -20.981  -5.451 -16.981  1.00 32.92    -0.647 OA
ENDBRANCH  16  17
ENDBRANCH  15  16
ENDBRANCH  14  15
END_RES GLU D 570
ENDMDL
MODEL 4
REMARK VINA RESULT:      -6.3      4.438      7.980
REMARK  13 active torsions:
REMARK  status: ('A' for Active; 'I' for Inactive)
REMARK    1  A    between atoms: C_2  and  C_3 
REMARK    2  A    between atoms: C_3  and  C_4 
REMARK    3  A    between atoms: C_4  and  C_5 
REMARK    4  A    between atoms: C_5  and  C_6 
REMARK    5  A    between atoms: C_6  and  C_7 
REMARK    6  A    between atoms: C_7  and  C_8 
REMARK    7  A    between atoms: C_8  and  C_9 
REMARK    8  A    between atoms: C_9  and  C_10 
REMARK    9  A    between atoms: C_10  and  C_11 
REMARK   10  A    between atoms: C_11  and  C_12 
REMARK   11  A    between atoms: C_12  and  C_13 
REMARK   12  A    between atoms: C_13  and  C_14 
REMARK   13  A    between atoms: C_14  and  N_15 
ROOT
HETATM    1  C   UNL     1     -21.124  -6.825  -5.928  1.00  0.00     0.000 C 
ENDROOT
BRANCH   1   2
HETATM    2  C   UNL     1     -20.030  -6.182  -6.764  1.00  0.00     0.000 C 
BRANCH   2   3
HETATM    3  C   UNL     1     -19.836  -4.726  -6.362  1.00  0.00     0.000 C 
BRANCH   3   4
HETATM    4  C   UNL     1     -20.527  -3.813  -7.364  1.00  0.00     0.000 C 
BRANCH   4   5
HETATM    5  C   UNL     1     -20.180  -4.220  -8.789  1.00  0.00     0.000 C 
BRANCH   5   6
HETATM    6  C   UNL     1     -21.436  -4.272  -9.652  1.00  0.00     0.000 C 
BRANCH   6   7
HETATM    7  C   UNL     1     -22.602  -3.590  -8.944  1.00  0.00    -0.000 C 
BRANCH   7   8
HETATM    8  C   UNL     1     -23.930  -4.229  -9.333  1.00  0.00    -0.005 C 
HETATM    9  C   UNL     1     -23.793  -5.031 -10.617  1.00  0.00     0.005 C 
ENDBRANCH   7   8
ENDBRANCH   6   7
ENDBRANCH   5   6
ENDBRANCH   4   5
ENDBRANCH   3   4
ENDBRANCH   2   3
ENDBRANCH   1   2
BRANCH   1  10
HETATM   10  C   UNL     1     -20.546  -7.355  -4.623  1.00  0.00     0.000 C 
BRANCH  10  11
HETATM   11  C   UNL     1     -21.652  -7.520  -3.595  1.00  0.00     0.000 C 
BRANCH  11  12
HETATM   12  C   UNL     1     -21.796  -6.269  -2.734  1.00  0.00     0.002 C 
BRANCH  12  13
HETATM   13  C   UNL     1     -22.145  -6.683  -1.313  1.00  0.00     0.036 C 
BRANCH  13  14
HETATM   14  C   UNL     1     -21.284  -7.844  -0.836  1.00  0.00     0.311 C 
BRANCH  14  15
HETATM   15  N   UNL     1     -21.895  -8.672   0.281  1.00  0.00     0.005 N 
HETATM   16  C   UNL     1     -23.277  -8.189   0.620  1.00  0.00     0.355 C 
HETATM   17  C   UNL     1     -21.941 -10.129  -0.088  1.00  0.00     0.355 C 
HETATM   18  O   UNL     1     -21.101  -8.534   1.400  1.00  0.00    -0.065 OA
ENDBRANCH  14  15
ENDBRANCH  13  14
ENDBRANCH  12  13
ENDBRANCH  11  12
ENDBRANCH  10  11
ENDBRANCH   1  10
TORSDOF 13
BEGIN_RES ARG D 557
REMARK  4 active torsions:
REMARK  status: ('A' for Active; 'I' for Inactive)
REMARK    1  A    between atoms: CA   and  CB  
REMARK    2  A    between atoms: CB   and  CG  
REMARK    3  A    between atoms: CG   and  CD  
REMARK    4  A    between atoms: CD   and  NE  
REMARK       I    between atoms: NE   and  CZ  
REMARK       I    between atoms: CZ   and  NH1 
REMARK       I    between atoms: CZ   and  NH2 
ROOT
ATOM      1  CA  ARG D 557     -26.217   2.705 -17.014  1.00 35.49     0.159 C 
ENDROOT
BRANCH   1   2
ATOM      2  CB  ARG D 557     -26.789   1.319 -17.183  1.00 35.49     0.034 C 
BRANCH   2   3
ATOM      3  CG  ARG D 557     -25.838   0.202 -17.136  1.00 35.49     0.027 C 
BRANCH   3   4
ATOM      4  CD  ARG D 557     -24.759   0.420 -16.145  1.00 35.49     0.116 C 
BRANCH   4   5
ATOM      5  NE  ARG D 557     -24.892  -0.443 -15.001  1.00 35.49    -0.212 N 
ATOM      6  CZ  ARG D 557     -24.067  -1.411 -14.669  1.00 35.49     0.666 C 
ATOM      7  NH1 ARG D 557     -23.001  -1.711 -15.387  1.00 35.49    -0.235 N 
ATOM      8  NH2 ARG D 557     -24.331  -2.079 -13.584  1.00 35.49    -0.235 N 
ATOM      9  HH  ARG D 557     -22.807  -1.283 -16.104  1.00 35.49     0.174 HD
ATOM     10  HH  ARG D 557     -22.498  -2.351 -15.120  1.00 35.49     0.174 HD
ATOM     11  HH  ARG D 557     -25.023  -1.858 -13.136  1.00 35.49     0.174 HD
ATOM     12  HH  ARG D 557     -23.820  -2.708 -13.335  1.00 35.49     0.174 HD
ATOM     13  HE  ARG D 557     -25.591  -0.367 -14.522  1.00 35.49     0.178 HD
ENDBRANCH   4   5
ENDBRANCH   3   4
ENDBRANCH   2   3
ENDBRANCH   1   2
END_RES ARG D 557
BEGIN_RES GLU D 570
REMARK  3 active torsions:
REMARK  status: ('A' for Active; 'I' for Inactive)
REMARK    5  A    between atoms: CA   and  CB  
REMARK    6  A    between atoms: CB   and  CG  
REMARK    7  A    between atoms: CG   and  CD  
ROOT
ATOM     14  CA  GLU D 570     -18.033  -6.348 -13.375  1.00 32.92     0.160 C 
ENDROOT
BRANCH  14  15
ATOM     15  CB  GLU D 570     -19.500  -6.345 -13.794  1.00 32.92     0.043 C 
BRANCH  15  16
ATOM     16  CG  GLU D 570     -20.450  -5.572 -12.953  1.00 32.92     0.100 C 
BRANCH  16  17
ATOM     17  CD  GLU D 570     -21.731  -5.227 -13.677  1.00 32.92     0.185 C 
ATOM     18  OE1 GLU D 570     -22.153  -4.056 -13.635  1.00 32.92    -0.647 OA
ATOM     19  OE2 GLU D 570     -22.328  -6.142 -14.278  1.00 32.92    -0.647 OA
ENDBRANCH  16  17
ENDBRANCH  15  16
ENDBRANCH  14  15
END_RES GLU D 570
ENDMDL
MODEL 5
REMARK VINA RESULT:      -6.2      2.081      2.906
REMARK  13 active torsions:
REMARK  status: ('A' for Active; 'I' for Inactive)
REMARK    1  A    between atoms: C_2  and  C_3 
REMARK    2  A    between atoms: C_3  and  C_4 
REMARK    3  A    between atoms: C_4  and  C_5 
REMARK    4  A    between atoms: C_5  and  C_6 
REMARK    5  A    between atoms: C_6  and  C_7 
REMARK    6  A    between atoms: C_7  and  C_8 
REMARK    7  A    between atoms: C_8  and  C_9 
REMARK    8  A    between atoms: C_9  and  C_10 
REMARK    9  A    between atoms: C_10  and  C_11 
REMARK   10  A    between atoms: C_11  and  C_12 
REMARK   11  A    between atoms: C_12  and  C_13 
REMARK   12  A    between atoms: C_13  and  C_14 
REMARK   13  A    between atoms: C_14  and  N_15 
ROOT
HETATM    1  C   UNL     1     -20.687  -6.036  -5.347  1.00  0.00     0.000 C 
ENDROOT
BRANCH   1   2
HETATM    2  C   UNL     1     -21.769  -7.094  -5.211  1.00  0.00     0.000 C 
BRANCH   2   3
HETATM    3  C   UNL     1     -21.150  -8.480  -5.092  1.00  0.00     0.000 C 
BRANCH   3   4
HETATM    4  C   UNL     1     -19.893  -8.418  -4.236  1.00  0.00     0.000 C 
BRANCH   4   5
HETATM    5  C   UNL     1     -20.126  -9.092  -2.892  1.00  0.00     0.000 C 
BRANCH   5   6
HETATM    6  C   UNL     1     -20.307  -8.049  -1.793  1.00  0.00     0.000 C 
BRANCH   6   7
HETATM    7  C   UNL     1     -21.522  -8.381  -0.933  1.00  0.00    -0.000 C 
BRANCH   7   8
HETATM    8  C   UNL     1     -22.380  -7.144  -0.695  1.00  0.00    -0.005 C 
HETATM    9  C   UNL     1     -22.198  -6.132  -1.815  1.00  0.00     0.005 C 
ENDBRANCH   7   8
ENDBRANCH   6   7
ENDBRANCH   5   6
ENDBRANCH   4   5
ENDBRANCH   3   4
ENDBRANCH   2   3
ENDBRANCH   1   2
BRANCH   1  10
HETATM   10  C   UNL     1     -20.265  -5.899  -6.803  1.00  0.00     0.000 C 
BRANCH  10  11
HETATM   11  C   UNL     1     -19.998  -4.441  -7.131  1.00  0.00     0.000 C 
BRANCH  11  12
HETATM   12  C   UNL     1     -21.295  -3.638  -7.171  1.00  0.00     0.002 C 
BRANCH  12  13
HETATM   13  C   UNL     1     -22.278  -4.329  -8.104  1.00  0.00     0.036 C 
BRANCH  13  14
HETATM   14  C   UNL     1     -22.141  -3.831  -9.535  1.00  0.00     0.311 C 
BRANCH  14  15
HETATM   15  N   UNL     1     -23.446  -3.753 -10.309  1.00  0.00     0.005 N 
HETATM   16  C   UNL     1     -23.804  -5.085 -10.903  1.00  0.00     0.355 C 
HETATM   17  C   UNL     1     -24.567  -3.267  -9.433  1.00  0.00     0.355 C 
HETATM   18  O   UNL     1     -23.280  -2.850 -11.339  1.00  0.00    -0.065 OA
ENDBRANCH  14  15
ENDBRANCH  13  14
ENDBRANCH  12  13
ENDBRANCH  11  12
ENDBRANCH  10  11
ENDBRANCH   1  10
TORSDOF 13
BEGIN_RES ARG D 557
REMARK  4 active torsions:
REMARK  status: ('A' for Active; 'I' for Inactive)
REMARK    1  A    between atoms: CA   and  CB  
REMARK    2  A    between atoms: CB   and  CG  
REMARK    3  A    between atoms: CG   and  CD  
REMARK    4  A    between atoms: CD   and  NE  
REMARK       I    between atoms: NE   and  CZ  
REMARK       I    between atoms: CZ   and  NH1 
REMARK       I    between atoms: CZ   and  NH2 
ROOT
ATOM      1  CA  ARG D 557     -26.217   2.705 -17.014  1.00 35.49     0.159 C 
ENDROOT
BRANCH   1   2
ATOM      2  CB  ARG D 557     -26.789   1.319 -17.183  1.00 35.49     0.034 C 
BRANCH   2   3
ATOM      3  CG  ARG D 557     -25.916   0.195 -16.821  1.00 35.49     0.027 C 
BRANCH   3   4
ATOM      4  CD  ARG D 557     -26.643  -0.872 -16.096  1.00 35.49     0.116 C 
BRANCH   4   5
ATOM      5  NE  ARG D 557     -25.832  -1.482 -15.075  1.00 35.49    -0.212 N 
ATOM      6  CZ  ARG D 557     -25.865  -2.748 -14.723  1.00 35.49     0.666 C 
ATOM      7  NH1 ARG D 557     -26.685  -3.619 -15.282  1.00 35.49    -0.235 N 
ATOM      8  NH2 ARG D 557     -25.042  -3.133 -13.791  1.00 35.49    -0.235 N 
ATOM      9  HH  ARG D 557     -27.233  -3.388 -15.899  1.00 35.49     0.174 HD
ATOM     10  HH  ARG D 557     -26.659  -4.432 -15.014  1.00 35.49     0.174 HD
ATOM     11  HH  ARG D 557     -24.519  -2.551 -13.453  1.00 35.49     0.174 HD
ATOM     12  HH  ARG D 557     -25.031  -3.943 -13.540  1.00 35.49     0.174 HD
ATOM     13  HE  ARG D 557     -25.326  -0.979 -14.613  1.00 35.49     0.178 HD
ENDBRANCH   4   5
ENDBRANCH   3   4
ENDBRANCH   2   3
ENDBRANCH   1   2
END_RES ARG D 557
BEGIN_RES GLU D 570
REMARK  3 active torsions:
REMARK  status: ('A' for Active; 'I' for Inactive)
REMARK    5  A    between atoms: CA   and  CB  
REMARK    6  A    between atoms: CB   and  CG  
REMARK    7  A    between atoms: CG   and  CD  
ROOT
ATOM     14  CA  GLU D 570     -18.033  -6.348 -13.375  1.00 32.92     0.160 C 
ENDROOT
BRANCH  14  15
ATOM     15  CB  GLU D 570     -19.500  -6.345 -13.794  1.00 32.92     0.043 C 
BRANCH  15  16
ATOM     16  CG  GLU D 570     -20.428  -5.471 -13.031  1.00 32.92     0.100 C 
BRANCH  16  17
ATOM     17  CD  GLU D 570     -21.715  -5.190 -13.771  1.00 32.92     0.185 C 
ATOM     18  OE1 GLU D 570     -22.051  -4.007 -13.973  1.00 32.92    -0.647 OA
ATOM     19  OE2 GLU D 570     -22.404  -6.163 -14.136  1.00 32.92    -0.647 OA
ENDBRANCH  16  17
ENDBRANCH  15  16
ENDBRANCH  14  15
END_RES GLU D 570
ENDMDL
MODEL 6
REMARK VINA RESULT:      -5.9      4.058      7.764
REMARK  13 active torsions:
REMARK  status: ('A' for Active; 'I' for Inactive)
REMARK    1  A    between atoms: C_2  and  C_3 
REMARK    2  A    between atoms: C_3  and  C_4 
REMARK    3  A    between atoms: C_4  and  C_5 
REMARK    4  A    between atoms: C_5  and  C_6 
REMARK    5  A    between atoms: C_6  and  C_7 
REMARK    6  A    between atoms: C_7  and  C_8 
REMARK    7  A    between atoms: C_8  and  C_9 
REMARK    8  A    between atoms: C_9  and  C_10 
REMARK    9  A    between atoms: C_10  and  C_11 
REMARK   10  A    between atoms: C_11  and  C_12 
REMARK   11  A    between atoms: C_12  and  C_13 
REMARK   12  A    between atoms: C_13  and  C_14 
REMARK   13  A    between atoms: C_14  and  N_15 
ROOT
HETATM    1  C   UNL     1     -20.807  -7.095  -5.509  1.00  0.00     0.000 C 
ENDROOT
BRANCH   1   2
HETATM    2  C   UNL     1     -20.926  -6.134  -6.681  1.00  0.00     0.000 C 
BRANCH   2   3
HETATM    3  C   UNL     1     -20.441  -4.746  -6.286  1.00  0.00     0.000 C 
BRANCH   3   4
HETATM    4  C   UNL     1     -21.163  -3.689  -7.109  1.00  0.00     0.000 C 
BRANCH   4   5
HETATM    5  C   UNL     1     -21.291  -4.133  -8.559  1.00  0.00     0.000 C 
BRANCH   5   6
HETATM    6  C   UNL     1     -22.708  -3.894  -9.070  1.00  0.00     0.000 C 
BRANCH   6   7
HETATM    7  C   UNL     1     -22.946  -4.661 -10.367  1.00  0.00    -0.000 C 
BRANCH   7   8
HETATM    8  C   UNL     1     -21.895  -4.311 -11.413  1.00  0.00    -0.005 C 
HETATM    9  C   UNL     1     -22.180  -2.956 -12.039  1.00  0.00     0.005 C 
ENDBRANCH   7   8
ENDBRANCH   6   7
ENDBRANCH   5   6
ENDBRANCH   4   5
ENDBRANCH   3   4
ENDBRANCH   2   3
ENDBRANCH   1   2
BRANCH   1  10
HETATM   10  C   UNL     1     -21.877  -6.792  -4.470  1.00  0.00     0.000 C 
BRANCH  10  11
HETATM   11  C   UNL     1     -21.259  -6.757  -3.083  1.00  0.00     0.000 C 
BRANCH  11  12
HETATM   12  C   UNL     1     -22.199  -6.102  -2.076  1.00  0.00     0.002 C 
BRANCH  12  13
HETATM   13  C   UNL     1     -22.340  -7.011  -0.865  1.00  0.00     0.036 C 
BRANCH  13  14
HETATM   14  C   UNL     1     -21.347  -8.163  -0.906  1.00  0.00     0.311 C 
BRANCH  14  15
HETATM   15  N   UNL     1     -21.939  -9.525  -0.587  1.00  0.00     0.005 N 
HETATM   16  C   UNL     1     -22.086 -10.357  -1.829  1.00  0.00     0.355 C 
HETATM   17  C   UNL     1     -21.099 -10.259   0.421  1.00  0.00     0.355 C 
HETATM   18  O   UNL     1     -23.193  -9.331  -0.045  1.00  0.00    -0.065 OA
ENDBRANCH  14  15
ENDBRANCH  13  14
ENDBRANCH  12  13
ENDBRANCH  11  12
ENDBRANCH  10  11
ENDBRANCH   1  10
TORSDOF 13
BEGIN_RES ARG D 557
REMARK  4 active torsions:
REMARK  status: ('A' for Active; 'I' for Inactive)
REMARK    1  A    between atoms: CA   and  CB  
REMARK    2  A    between atoms: CB   and  CG  
REMARK    3  A    between atoms: CG   and  CD  
REMARK    4  A    between atoms: CD   and  NE  
REMARK       I    between atoms: NE   and  CZ  
REMARK       I    between atoms: CZ   and  NH1 
REMARK       I    between atoms: CZ   and  NH2 
ROOT
ATOM      1  CA  ARG D 557     -26.217   2.705 -17.014  1.00 35.49     0.159 C 
ENDROOT
BRANCH   1   2
ATOM      2  CB  ARG D 557     -26.789   1.319 -17.183  1.00 35.49     0.034 C 
BRANCH   2   3
ATOM      3  CG  ARG D 557     -28.231   1.167 -16.954  1.00 35.49     0.027 C 
BRANCH   3   4
ATOM      4  CD  ARG D 557     -28.604  -0.224 -16.611  1.00 35.49     0.116 C 
BRANCH   4   5
ATOM      5  NE  ARG D 557     -27.556  -0.907 -15.900  1.00 35.49    -0.212 N 
ATOM      6  CZ  ARG D 557     -27.292  -2.193 -15.969  1.00 35.49     0.666 C 
ATOM      7  NH1 ARG D 557     -27.998  -3.022 -16.715  1.00 35.49    -0.235 N 
ATOM      8  NH2 ARG D 557     -26.288  -2.638 -15.271  1.00 35.49    -0.235 N 
ATOM      9  HH  ARG D 557     -28.662  -2.751 -17.184  1.00 35.49     0.174 HD
ATOM     10  HH  ARG D 557     -27.778  -3.850 -16.723  1.00 35.49     0.174 HD
ATOM     11  HH  ARG D 557     -25.845  -2.078 -14.805  1.00 35.49     0.174 HD
ATOM     12  HH  ARG D 557     -26.085  -3.461 -15.293  1.00 35.49     0.174 HD
ATOM     13  HE  ARG D 557     -27.097  -0.461 -15.340  1.00 35.49     0.178 HD
ENDBRANCH   4   5
ENDBRANCH   3   4
ENDBRANCH   2   3
ENDBRANCH   1   2
END_RES ARG D 557
BEGIN_RES GLU D 570
REMARK  3 active torsions:
REMARK  status: ('A' for Active; 'I' for Inactive)
REMARK    5  A    between atoms: CA   and  CB  
REMARK    6  A    between atoms: CB   and  CG  
REMARK    7  A    between atoms: CG   and  CD  
ROOT
ATOM     14  CA  GLU D 570     -18.033  -6.348 -13.375  1.00 32.92     0.160 C 
ENDROOT
BRANCH  14  15
ATOM     15  CB  GLU D 570     -19.500  -6.345 -13.794  1.00 32.92     0.043 C 
BRANCH  15  16
ATOM     16  CG  GLU D 570     -19.817  -5.892 -15.173  1.00 32.92     0.100 C 
BRANCH  16  17
ATOM     17  CD  GLU D 570     -21.268  -5.511 -15.349  1.00 32.92     0.185 C 
ATOM     18  OE1 GLU D 570     -22.113  -5.958 -14.550  1.00 32.92    -0.647 OA
ATOM     19  OE2 GLU D 570     -21.566  -4.770 -16.307  1.00 32.92    -0.647 OA
ENDBRANCH  16  17
ENDBRANCH  15  16
ENDBRANCH  14  15
END_RES GLU D 570
ENDMDL
MODEL 7
REMARK VINA RESULT:      -5.7      4.213      7.647
REMARK  13 active torsions:
REMARK  status: ('A' for Active; 'I' for Inactive)
REMARK    1  A    between atoms: C_2  and  C_3 
REMARK    2  A    between atoms: C_3  and  C_4 
REMARK    3  A    between atoms: C_4  and  C_5 
REMARK    4  A    between atoms: C_5  and  C_6 
REMARK    5  A    between atoms: C_6  and  C_7 
REMARK    6  A    between atoms: C_7  and  C_8 
REMARK    7  A    between atoms: C_8  and  C_9 
REMARK    8  A    between atoms: C_9  and  C_10 
REMARK    9  A    between atoms: C_10  and  C_11 
REMARK   10  A    between atoms: C_11  and  C_12 
REMARK   11  A    between atoms: C_12  and  C_13 
REMARK   12  A    between atoms: C_13  and  C_14 
REMARK   13  A    between atoms: C_14  and  N_15 
ROOT
HETATM    1  C   UNL     1     -21.663  -6.282  -4.501  1.00  0.00     0.000 C 
ENDROOT
BRANCH   1   2
HETATM    2  C   UNL     1     -21.469  -5.504  -5.792  1.00  0.00     0.000 C 
BRANCH   2   3
HETATM    3  C   UNL     1     -20.128  -4.785  -5.787  1.00  0.00     0.000 C 
BRANCH   3   4
HETATM    4  C   UNL     1     -19.493  -4.856  -7.167  1.00  0.00     0.000 C 
BRANCH   4   5
HETATM    5  C   UNL     1     -20.535  -5.204  -8.220  1.00  0.00     0.000 C 
BRANCH   5   6
HETATM    6  C   UNL     1     -20.309  -4.388  -9.489  1.00  0.00     0.000 C 
BRANCH   6   7
HETATM    7  C   UNL     1     -21.620  -3.783  -9.978  1.00  0.00    -0.000 C 
BRANCH   7   8
HETATM    8  C   UNL     1     -22.779  -4.175  -9.069  1.00  0.00    -0.005 C 
HETATM    9  C   UNL     1     -23.962  -4.677  -9.881  1.00  0.00     0.005 C 
ENDBRANCH   7   8
ENDBRANCH   6   7
ENDBRANCH   5   6
ENDBRANCH   4   5
ENDBRANCH   3   4
ENDBRANCH   2   3
ENDBRANCH   1   2
BRANCH   1  10
HETATM   10  C   UNL     1     -20.721  -7.476  -4.459  1.00  0.00     0.000 C 
BRANCH  10  11
HETATM   11  C   UNL     1     -21.514  -8.767  -4.555  1.00  0.00     0.000 C 
BRANCH  11  12
HETATM   12  C   UNL     1     -21.007  -9.802  -3.556  1.00  0.00     0.002 C 
BRANCH  12  13
HETATM   13  C   UNL     1     -20.885  -9.152  -2.186  1.00  0.00     0.036 C 
BRANCH  13  14
HETATM   14  C   UNL     1     -22.112  -9.417  -1.326  1.00  0.00     0.311 C 
BRANCH  14  15
HETATM   15  N   UNL     1     -22.340  -8.407  -0.215  1.00  0.00     0.005 N 
HETATM   16  C   UNL     1     -21.293  -8.530   0.854  1.00  0.00     0.355 C 
HETATM   17  C   UNL     1     -22.355  -7.003  -0.755  1.00  0.00     0.355 C 
HETATM   18  O   UNL     1     -23.571  -8.665   0.352  1.00  0.00    -0.065 OA
ENDBRANCH  14  15
ENDBRANCH  13  14
ENDBRANCH  12  13
ENDBRANCH  11  12
ENDBRANCH  10  11
ENDBRANCH   1  10
TORSDOF 13
BEGIN_RES ARG D 557
REMARK  4 active torsions:
REMARK  status: ('A' for Active; 'I' for Inactive)
REMARK    1  A    between atoms: CA   and  CB  
REMARK    2  A    between atoms: CB   and  CG  
REMARK    3  A    between atoms: CG   and  CD  
REMARK    4  A    between atoms: CD   and  NE  
REMARK       I    between atoms: NE   and  CZ  
REMARK       I    between atoms: CZ   and  NH1 
REMARK       I    between atoms: CZ   and  NH2 
ROOT
ATOM      1  CA  ARG D 557     -26.217   2.705 -17.014  1.00 35.49     0.159 C 
ENDROOT
BRANCH   1   2
ATOM      2  CB  ARG D 557     -26.789   1.319 -17.183  1.00 35.49     0.034 C 
BRANCH   2   3
ATOM      3  CG  ARG D 557     -25.918   0.196 -16.817  1.00 35.49     0.027 C 
BRANCH   3   4
ATOM      4  CD  ARG D 557     -26.653  -0.885 -16.121  1.00 35.49     0.116 C 
BRANCH   4   5
ATOM      5  NE  ARG D 557     -25.867  -1.490 -15.078  1.00 35.49    -0.212 N 
ATOM      6  CZ  ARG D 557     -25.889  -2.759 -14.738  1.00 35.49     0.666 C 
ATOM      7  NH1 ARG D 557     -26.674  -3.639 -15.332  1.00 35.49    -0.235 N 
ATOM      8  NH2 ARG D 557     -25.092  -3.138 -13.781  1.00 35.49    -0.235 N 
ATOM      9  HH  ARG D 557     -27.204  -3.412 -15.965  1.00 35.49     0.174 HD
ATOM     10  HH  ARG D 557     -26.643  -4.454 -15.070  1.00 35.49     0.174 HD
ATOM     11  HH  ARG D 557     -24.591  -2.550 -13.421  1.00 35.49     0.174 HD
ATOM     12  HH  ARG D 557     -25.075  -3.950 -13.537  1.00 35.49     0.174 HD
ATOM     13  HE  ARG D 557     -25.386  -0.982 -14.594  1.00 35.49     0.178 HD
ENDBRANCH   4   5
ENDBRANCH   3   4
ENDBRANCH   2   3
ENDBRANCH   1   2
END_RES ARG D 557
BEGIN_RES GLU D 570
REMARK  3 active torsions:
REMARK  status: ('A' for Active; 'I' for Inactive)
REMARK    5  A    between atoms: CA   and  CB  
REMARK    6  A    between atoms: CB   and  CG  
REMARK    7  A    between atoms: CG   and  CD  
ROOT
ATOM     14  CA  GLU D 570     -18.033  -6.348 -13.375  1.00 32.92     0.160 C 
ENDROOT
BRANCH  14  15
ATOM     15  CB  GLU D 570     -19.500  -6.345 -13.794  1.00 32.92     0.043 C 
BRANCH  15  16
ATOM     16  CG  GLU D 570     -20.439  -5.516 -12.994  1.00 32.92     0.100 C 
BRANCH  16  17
ATOM     17  CD  GLU D 570     -21.685  -5.135 -13.758  1.00 32.92     0.185 C 
ATOM     18  OE1 GLU D 570     -22.761  -5.014 -13.139  1.00 32.92    -0.647 OA
ATOM     19  OE2 GLU D 570     -21.589  -4.971 -14.990  1.00 32.92    -0.647 OA
ENDBRANCH  16  17
ENDBRANCH  15  16
ENDBRANCH  14  15
END_RES GLU D 570
ENDMDL
MODEL 8
REMARK VINA RESULT:      -5.7      2.276      4.180
REMARK  13 active torsions:
REMARK  status: ('A' for Active; 'I' for Inactive)
REMARK    1  A    between atoms: C_2  and  C_3 
REMARK    2  A    between atoms: C_3  and  C_4 
REMARK    3  A    between atoms: C_4  and  C_5 
REMARK    4  A    between atoms: C_5  and  C_6 
REMARK    5  A    between atoms: C_6  and  C_7 
REMARK    6  A    between atoms: C_7  and  C_8 
REMARK    7  A    between atoms: C_8  and  C_9 
REMARK    8  A    between atoms: C_9  and  C_10 
REMARK    9  A    between atoms: C_10  and  C_11 
REMARK   10  A    between atoms: C_11  and  C_12 
REMARK   11  A    between atoms: C_12  and  C_13 
REMARK   12  A    between atoms: C_13  and  C_14 
REMARK   13  A    between atoms: C_14  and  N_15 
ROOT
HETATM    1  C   UNL     1     -21.517  -6.232  -2.700  1.00  0.00     0.000 C 
ENDROOT
BRANCH   1   2
HETATM    2  C   UNL     1     -22.288  -6.589  -1.440  1.00  0.00     0.000 C 
BRANCH   2   3
HETATM    3  C   UNL     1     -21.574  -7.689  -0.668  1.00  0.00     0.000 C 
BRANCH   3   4
HETATM    4  C   UNL     1     -22.376  -8.064   0.568  1.00  0.00     0.000 C 
BRANCH   4   5
HETATM    5  C   UNL     1     -23.452  -9.083   0.220  1.00  0.00     0.000 C 
BRANCH   5   6
HETATM    6  C   UNL     1     -22.821 -10.415  -0.173  1.00  0.00     0.000 C 
BRANCH   6   7
HETATM    7  C   UNL     1     -23.599 -11.061  -1.314  1.00  0.00    -0.000 C 
BRANCH   7   8
HETATM    8  C   UNL     1     -22.884 -10.868  -2.645  1.00  0.00    -0.005 C 
HETATM    9  C   UNL     1     -21.375 -10.929  -2.466  1.00  0.00     0.005 C 
ENDBRANCH   7   8
ENDBRANCH   6   7
ENDBRANCH   5   6
ENDBRANCH   4   5
ENDBRANCH   3   4
ENDBRANCH   2   3
ENDBRANCH   1   2
BRANCH   1  10
HETATM   10  C   UNL     1     -21.777  -7.267  -3.786  1.00  0.00     0.000 C 
BRANCH  10  11
HETATM   11  C   UNL     1     -20.888  -6.993  -4.987  1.00  0.00     0.000 C 
BRANCH  11  12
HETATM   12  C   UNL     1     -20.609  -5.501  -5.138  1.00  0.00     0.002 C 
BRANCH  12  13
HETATM   13  C   UNL     1     -20.122  -5.228  -6.553  1.00  0.00     0.036 C 
BRANCH  13  14
HETATM   14  C   UNL     1     -21.209  -5.494  -7.584  1.00  0.00     0.311 C 
BRANCH  14  15
HETATM   15  N   UNL     1     -21.765  -4.251  -8.257  1.00  0.00     0.005 N 
HETATM   16  C   UNL     1     -21.207  -4.089  -9.642  1.00  0.00     0.355 C 
HETATM   17  C   UNL     1     -23.267  -4.292  -8.315  1.00  0.00     0.355 C 
HETATM   18  O   UNL     1     -21.391  -3.155  -7.508  1.00  0.00    -0.065 OA
ENDBRANCH  14  15
ENDBRANCH  13  14
ENDBRANCH  12  13
ENDBRANCH  11  12
ENDBRANCH  10  11
ENDBRANCH   1  10
TORSDOF 13
BEGIN_RES ARG D 557
REMARK  4 active torsions:
REMARK  status: ('A' for Active; 'I' for Inactive)
REMARK    1  A    between atoms: CA   and  CB  
REMARK    2  A    between atoms: CB   and  CG  
REMARK    3  A    between atoms: CG   and  CD  
REMARK    4  A    between atoms: CD   and  NE  
REMARK       I    between atoms: NE   and  CZ  
REMARK       I    between atoms: CZ   and  NH1 
REMARK       I    between atoms: CZ   and  NH2 
ROOT
ATOM      1  CA  ARG D 557     -26.217   2.705 -17.014  1.00 35.49     0.159 C 
ENDROOT
BRANCH   1   2
ATOM      2  CB  ARG D 557     -26.789   1.319 -17.183  1.00 35.49     0.034 C 
BRANCH   2   3
ATOM      3  CG  ARG D 557     -25.960   0.201 -16.718  1.00 35.49     0.027 C 
BRANCH   3   4
ATOM      4  CD  ARG D 557     -26.756  -0.850 -16.043  1.00 35.49     0.116 C 
BRANCH   4   5
ATOM      5  NE  ARG D 557     -28.009  -1.092 -16.709  1.00 35.49    -0.212 N 
ATOM      6  CZ  ARG D 557     -28.530  -2.273 -16.959  1.00 35.49     0.666 C 
ATOM      7  NH1 ARG D 557     -27.928  -3.399 -16.624  1.00 35.49    -0.235 N 
ATOM      8  NH2 ARG D 557     -29.687  -2.304 -17.554  1.00 35.49    -0.235 N 
ATOM      9  HH  ARG D 557     -27.168  -3.402 -16.229  1.00 35.49     0.174 HD
ATOM     10  HH  ARG D 557     -28.318  -4.139 -16.810  1.00 35.49     0.174 HD
ATOM     11  HH  ARG D 557     -30.056  -1.561 -17.752  1.00 35.49     0.174 HD
ATOM     12  HH  ARG D 557     -30.057  -3.047 -17.728  1.00 35.49     0.174 HD
ATOM     13  HE  ARG D 557     -28.429  -0.424 -17.025  1.00 35.49     0.178 HD
ENDBRANCH   4   5
ENDBRANCH   3   4
ENDBRANCH   2   3
ENDBRANCH   1   2
END_RES ARG D 557
BEGIN_RES GLU D 570
REMARK  3 active torsions:
REMARK  status: ('A' for Active; 'I' for Inactive)
REMARK    5  A    between atoms: CA   and  CB  
REMARK    6  A    between atoms: CB   and  CG  
REMARK    7  A    between atoms: CG   and  CD  
ROOT
ATOM     14  CA  GLU D 570     -18.033  -6.348 -13.375  1.00 32.92     0.160 C 
ENDROOT
BRANCH  14  15
ATOM     15  CB  GLU D 570     -19.500  -6.345 -13.794  1.00 32.92     0.043 C 
BRANCH  15  16
ATOM     16  CG  GLU D 570     -20.443  -5.534 -12.981  1.00 32.92     0.100 C 
BRANCH  16  17
ATOM     17  CD  GLU D 570     -21.739  -5.240 -13.700  1.00 32.92     0.185 C 
ATOM     18  OE1 GLU D 570     -22.299  -4.143 -13.512  1.00 32.92    -0.647 OA
ATOM     19  OE2 GLU D 570     -22.207  -6.122 -14.445  1.00 32.92    -0.647 OA
ENDBRANCH  16  17
ENDBRANCH  15  16
ENDBRANCH  14  15
END_RES GLU D 570
ENDMDL
MODEL 9
REMARK VINA RESULT:      -5.6      3.613      7.294
REMARK  13 active torsions:
REMARK  status: ('A' for Active; 'I' for Inactive)
REMARK    1  A    between atoms: C_2  and  C_3 
REMARK    2  A    between atoms: C_3  and  C_4 
REMARK    3  A    between atoms: C_4  and  C_5 
REMARK    4  A    between atoms: C_5  and  C_6 
REMARK    5  A    between atoms: C_6  and  C_7 
REMARK    6  A    between atoms: C_7  and  C_8 
REMARK    7  A    between atoms: C_8  and  C_9 
REMARK    8  A    between atoms: C_9  and  C_10 
REMARK    9  A    between atoms: C_10  and  C_11 
REMARK   10  A    between atoms: C_11  and  C_12 
REMARK   11  A    between atoms: C_12  and  C_13 
REMARK   12  A    between atoms: C_13  and  C_14 
REMARK   13  A    between atoms: C_14  and  N_15 
ROOT
HETATM    1  C   UNL     1     -20.303  -4.546  -6.182  1.00  0.00     0.000 C 
ENDROOT
BRANCH   1   2
HETATM    2  C   UNL     1     -20.873  -3.684  -7.296  1.00  0.00     0.000 C 
BRANCH   2   3
HETATM    3  C   UNL     1     -22.232  -4.210  -7.738  1.00  0.00     0.000 C 
BRANCH   3   4
HETATM    4  C   UNL     1     -22.370  -4.091  -9.249  1.00  0.00     0.000 C 
BRANCH   4   5
HETATM    5  C   UNL     1     -21.047  -4.398  -9.935  1.00  0.00     0.000 C 
BRANCH   5   6
HETATM    6  C   UNL     1     -20.839  -3.479 -11.134  1.00  0.00     0.000 C 
BRANCH   6   7
HETATM    7  C   UNL     1     -22.179  -3.077 -11.740  1.00  0.00    -0.000 C 
BRANCH   7   8
HETATM    8  C   UNL     1     -22.437  -3.819 -13.046  1.00  0.00    -0.005 C 
HETATM    9  C   UNL     1     -23.256  -5.076 -12.804  1.00  0.00     0.005 C 
ENDBRANCH   7   8
ENDBRANCH   6   7
ENDBRANCH   5   6
ENDBRANCH   4   5
ENDBRANCH   3   4
ENDBRANCH   2   3
ENDBRANCH   1   2
BRANCH   1  10
HETATM   10  C   UNL     1     -19.951  -5.928  -6.714  1.00  0.00     0.000 C 
BRANCH  10  11
HETATM   11  C   UNL     1     -20.284  -6.985  -5.676  1.00  0.00     0.000 C 
BRANCH  11  12
HETATM   12  C   UNL     1     -21.655  -6.737  -5.056  1.00  0.00     0.002 C 
BRANCH  12  13
HETATM   13  C   UNL     1     -21.643  -7.217  -3.613  1.00  0.00     0.036 C 
BRANCH  13  14
HETATM   14  C   UNL     1     -21.436  -8.722  -3.522  1.00  0.00     0.311 C 
BRANCH  14  15
HETATM   15  N   UNL     1     -21.109  -9.236  -2.131  1.00  0.00     0.005 N 
HETATM   16  C   UNL     1     -19.963 -10.207  -2.167  1.00  0.00     0.355 C 
HETATM   17  C   UNL     1     -20.788  -8.103  -1.196  1.00  0.00     0.355 C 
HETATM   18  O   UNL     1     -22.220  -9.895  -1.646  1.00  0.00    -0.065 OA
ENDBRANCH  14  15
ENDBRANCH  13  14
ENDBRANCH  12  13
ENDBRANCH  11  12
ENDBRANCH  10  11
ENDBRANCH   1  10
TORSDOF 13
BEGIN_RES ARG D 557
REMARK  4 active torsions:
REMARK  status: ('A' for Active; 'I' for Inactive)
REMARK    1  A    between atoms: CA   and  CB  
REMARK    2  A    between atoms: CB   and  CG  
REMARK    3  A    between atoms: CG   and  CD  
REMARK    4  A    between atoms: CD   and  NE  
REMARK       I    between atoms: NE   and  CZ  
REMARK       I    between atoms: CZ   and  NH1 
REMARK       I    between atoms: CZ   and  NH2 
ROOT
ATOM      1  CA  ARG D 557     -26.217   2.705 -17.014  1.00 35.49     0.159 C 
ENDROOT
BRANCH   1   2
ATOM      2  CB  ARG D 557     -26.789   1.319 -17.183  1.00 35.49     0.034 C 
BRANCH   2   3
ATOM      3  CG  ARG D 557     -28.231   1.226 -17.441  1.00 35.49     0.027 C 
BRANCH   3   4
ATOM      4  CD  ARG D 557     -28.914   0.308 -16.501  1.00 35.49     0.116 C 
BRANCH   4   5
ATOM      5  NE  ARG D 557     -29.295  -0.928 -17.131  1.00 35.49    -0.212 N 
ATOM      6  CZ  ARG D 557     -28.654  -2.072 -17.028  1.00 35.49     0.666 C 
ATOM      7  NH1 ARG D 557     -27.547  -2.203 -16.321  1.00 35.49    -0.235 N 
ATOM      8  NH2 ARG D 557     -29.155  -3.098 -17.651  1.00 35.49    -0.235 N 
ATOM      9  HH  ARG D 557     -27.201  -1.541 -15.901  1.00 35.49     0.174 HD
ATOM     10  HH  ARG D 557     -27.175  -2.974 -16.288  1.00 35.49     0.174 HD
ATOM     11  HH  ARG D 557     -29.875  -2.986 -18.094  1.00 35.49     0.174 HD
ATOM     12  HH  ARG D 557     -28.772  -3.853 -17.605  1.00 35.49     0.174 HD
ATOM     13  HE  ARG D 557     -29.957  -0.918 -17.664  1.00 35.49     0.178 HD
ENDBRANCH   4   5
ENDBRANCH   3   4
ENDBRANCH   2   3
ENDBRANCH   1   2
END_RES ARG D 557
BEGIN_RES GLU D 570
REMARK  3 active torsions:
REMARK  status: ('A' for Active; 'I' for Inactive)
REMARK    5  A    between atoms: CA   and  CB  
REMARK    6  A    between atoms: CB   and  CG  
REMARK    7  A    between atoms: CG   and  CD  
ROOT
ATOM     14  CA  GLU D 570     -18.033  -6.348 -13.375  1.00 32.92     0.160 C 
ENDROOT
BRANCH  14  15
ATOM     15  CB  GLU D 570     -19.500  -6.345 -13.794  1.00 32.92     0.043 C 
BRANCH  15  16
ATOM     16  CG  GLU D 570     -19.796  -6.358 -15.250  1.00 32.92     0.100 C 
BRANCH  16  17
ATOM     17  CD  GLU D 570     -20.930  -7.289 -15.612  1.00 32.92     0.185 C 
ATOM     18  OE1 GLU D 570     -20.687  -8.498 -15.791  1.00 32.92    -0.647 OA
ATOM     19  OE2 GLU D 570     -22.071  -6.801 -15.735  1.00 32.92    -0.647 OA
ENDBRANCH  16  17
ENDBRANCH  15  16
ENDBRANCH  14  15
END_RES GLU D 570
ENDMDL
