MODEL 1
REMARK VINA RESULT:      -8.2      0.000      0.000
REMARK  3 active torsions:
REMARK  status: ('A' for Active; 'I' for Inactive)
REMARK    1  A    between atoms: C_11  and  O_12 
REMARK    2  A    between atoms: C_24  and  C_28 
REMARK    3  A    between atoms: C_28  and  O_30 
ROOT
HETATM    1  C   UNL     1     -24.174 -10.819  -0.337  1.00  0.00     0.018 C 
HETATM    2  C   UNL     1     -22.709 -10.377  -0.555  1.00  0.00    -0.017 C 
HETATM    3  C   UNL     1     -22.243 -10.740  -1.987  1.00  0.00     0.005 C 
HETATM    4  C   UNL     1     -22.631 -12.181  -2.441  1.00  0.00     0.007 C 
HETATM    5  C   UNL     1     -22.527 -12.519  -3.980  1.00  0.00     0.011 C 
HETATM    6  C   UNL     1     -21.021 -12.726  -4.145  1.00  0.00    -0.025 C 
HETATM    7  C   UNL     1     -20.580 -10.803  -3.773  1.00  0.00     0.072 C 
HETATM    8  C   UNL     1     -20.806 -10.194  -2.329  1.00  0.00    -0.029 C 
HETATM    9  C   UNL     1     -20.973  -8.619  -2.302  1.00  0.00     0.013 C 
HETATM   10  C   UNL     1     -21.410  -8.144  -0.890  1.00  0.00     0.033 C 
HETATM   11  C   UNL     1     -22.711  -8.817  -0.474  1.00  0.00     0.126 C 
HETATM   12  C   UNL     1     -19.502 -10.263  -1.418  1.00  0.00     0.016 C 
HETATM   13  C   UNL     1     -19.023 -10.134  -4.577  1.00  0.00     0.133 C 
HETATM   14  O   UNL     1     -18.712  -8.946  -4.498  1.00  0.00    -0.298 OA
HETATM   15  C   UNL     1     -17.877 -11.209  -5.461  1.00  0.00     0.084 C 
HETATM   16  C   UNL     1     -18.114 -12.629  -5.645  1.00  0.00     0.006 C 
HETATM   17  C   UNL     1     -19.812 -13.321  -5.476  1.00  0.00    -0.032 C 
HETATM   18  C   UNL     1     -19.916 -11.978  -5.356  1.00  0.00     0.011 C 
HETATM   19  C   UNL     1     -18.986 -12.340  -3.583  1.00  0.00     0.010 C 
HETATM   20  C   UNL     1     -17.563 -12.893  -3.351  1.00  0.00    -0.040 C 
HETATM   21  C   UNL     1     -17.250 -13.497  -4.695  1.00  0.00     0.000 C 
HETATM   22  C   UNL     1     -15.743 -13.556  -4.915  1.00  0.00     0.025 C 
HETATM   23  C   UNL     1     -14.979 -12.223  -4.709  1.00  0.00     0.042 C 
HETATM   24  C   UNL     1     -15.241 -11.672  -3.300  1.00  0.00     0.021 C 
HETATM   25  C   UNL     1     -16.679 -11.695  -2.857  1.00  0.00     0.011 C 
HETATM   26  C   UNL     1     -13.474 -12.507  -4.768  1.00  0.00     0.026 C 
HETATM   27  C   UNL     1     -17.569 -13.905  -2.163  1.00  0.00     0.015 C 
HETATM   28  C   UNL     1     -20.319 -13.844  -6.806  1.00  0.00     0.016 C 
HETATM   29  C   UNL     1     -20.997 -14.268  -3.591  1.00  0.00     0.016 C 
HETATM   30  C   UNL     1     -21.870 -11.126   0.502  1.00  0.00     0.018 C 
ENDROOT
BRANCH  23  31
HETATM   31  C   UNL     1     -15.182 -11.301  -5.926  1.00  0.00     0.148 C 
HETATM   32  O   UNL     1     -15.120 -11.709  -7.081  1.00  0.00    -0.649 OA
BRANCH  31  33
HETATM   33  O   UNL     1     -15.402  -9.992  -5.688  1.00  0.00    -0.776 OA
HETATM   34  H   UNL     1     -16.136  -9.752  -5.096  1.00  0.00     0.167 HD
ENDBRANCH  31  33
ENDBRANCH  23  31
BRANCH  11  35
HETATM   35  O   UNL     1     -23.120  -8.347   0.803  1.00  0.00    -0.395 OA
HETATM   36  H   UNL     1     -23.824  -8.928   1.129  1.00  0.00     0.210 HD
ENDBRANCH  11  35
TORSDOF 3
BEGIN_RES ARG D 557
REMARK  4 active torsions:
REMARK  status: ('A' for Active; 'I' for Inactive)
REMARK    1  A    between atoms: CA   and  CB  
REMARK    2  A    between atoms: CB   and  CG  
REMARK    3  A    between atoms: CG   and  CD  
REMARK    4  A    between atoms: CD   and  NE  
REMARK       I    between atoms: NE   and  CZ  
REMARK       I    between atoms: CZ   and  NH1 
REMARK       I    between atoms: CZ   and  NH2 
ROOT
ATOM      1  CA  ARG D 557     -26.217   2.705 -17.014  1.00 35.49     0.159 C 
ENDROOT
BRANCH   1   2
ATOM      2  CB  ARG D 557     -26.789   1.319 -17.183  1.00 35.49     0.034 C 
BRANCH   2   3
ATOM      3  CG  ARG D 557     -25.836   0.203 -17.150  1.00 35.49     0.027 C 
BRANCH   3   4
ATOM      4  CD  ARG D 557     -24.756   0.412 -16.160  1.00 35.49     0.116 C 
BRANCH   4   5
ATOM      5  NE  ARG D 557     -24.900  -0.444 -15.012  1.00 35.49    -0.212 N 
ATOM      6  CZ  ARG D 557     -24.079  -1.411 -14.667  1.00 35.49     0.666 C 
ATOM      7  NH1 ARG D 557     -23.007  -1.717 -15.374  1.00 35.49    -0.235 N 
ATOM      8  NH2 ARG D 557     -24.354  -2.073 -13.580  1.00 35.49    -0.235 N 
ATOM      9  HH  ARG D 557     -22.806  -1.294 -16.091  1.00 35.49     0.174 HD
ATOM     10  HH  ARG D 557     -22.507  -2.356 -15.099  1.00 35.49     0.174 HD
ATOM     11  HH  ARG D 557     -25.049  -1.848 -13.140  1.00 35.49     0.174 HD
ATOM     12  HH  ARG D 557     -23.846  -2.701 -13.324  1.00 35.49     0.174 HD
ATOM     13  HE  ARG D 557     -25.603  -0.364 -14.540  1.00 35.49     0.178 HD
ENDBRANCH   4   5
ENDBRANCH   3   4
ENDBRANCH   2   3
ENDBRANCH   1   2
END_RES ARG D 557
BEGIN_RES GLU D 570
REMARK  3 active torsions:
REMARK  status: ('A' for Active; 'I' for Inactive)
REMARK    5  A    between atoms: CA   and  CB  
REMARK    6  A    between atoms: CB   and  CG  
REMARK    7  A    between atoms: CG   and  CD  
ROOT
ATOM     14  CA  GLU D 570     -18.033  -6.348 -13.375  1.00 32.92     0.160 C 
ENDROOT
BRANCH  14  15
ATOM     15  CB  GLU D 570     -19.500  -6.345 -13.794  1.00 32.92     0.043 C 
BRANCH  15  16
ATOM     16  CG  GLU D 570     -20.443  -5.535 -12.980  1.00 32.92     0.100 C 
BRANCH  16  17
ATOM     17  CD  GLU D 570     -21.733  -5.228 -13.704  1.00 32.92     0.185 C 
ATOM     18  OE1 GLU D 570     -22.291  -4.131 -13.507  1.00 32.92    -0.647 OA
ATOM     19  OE2 GLU D 570     -22.199  -6.099 -14.464  1.00 32.92    -0.647 OA
ENDBRANCH  16  17
ENDBRANCH  15  16
ENDBRANCH  14  15
END_RES GLU D 570
ENDMDL
MODEL 2
REMARK VINA RESULT:      -8.1      1.202      1.601
REMARK  3 active torsions:
REMARK  status: ('A' for Active; 'I' for Inactive)
REMARK    1  A    between atoms: C_11  and  O_12 
REMARK    2  A    between atoms: C_24  and  C_28 
REMARK    3  A    between atoms: C_28  and  O_30 
ROOT
HETATM    1  C   UNL     1     -23.322  -8.559   0.180  1.00  0.00     0.018 C 
HETATM    2  C   UNL     1     -22.047  -8.357  -0.669  1.00  0.00    -0.017 C 
HETATM    3  C   UNL     1     -21.836  -9.559  -1.623  1.00  0.00     0.005 C 
HETATM    4  C   UNL     1     -22.034 -10.953  -0.951  1.00  0.00     0.007 C 
HETATM    5  C   UNL     1     -22.197 -12.207  -1.895  1.00  0.00     0.011 C 
HETATM    6  C   UNL     1     -20.750 -12.464  -2.315  1.00  0.00    -0.025 C 
HETATM    7  C   UNL     1     -20.609 -10.756  -3.361  1.00  0.00     0.072 C 
HETATM    8  C   UNL     1     -20.633  -9.357  -2.620  1.00  0.00    -0.029 C 
HETATM    9  C   UNL     1     -21.084  -8.142  -3.530  1.00  0.00     0.013 C 
HETATM   10  C   UNL     1     -21.292  -6.866  -2.668  1.00  0.00     0.033 C 
HETATM   11  C   UNL     1     -22.325  -7.117  -1.578  1.00  0.00     0.126 C 
HETATM   12  C   UNL     1     -19.176  -8.811  -2.281  1.00  0.00     0.016 C 
HETATM   13  C   UNL     1     -19.413 -10.759  -4.806  1.00  0.00     0.133 C 
HETATM   14  O   UNL     1     -19.321  -9.802  -5.573  1.00  0.00    -0.298 OA
HETATM   15  C   UNL     1     -18.300 -12.144  -5.110  1.00  0.00     0.084 C 
HETATM   16  C   UNL     1     -18.299 -13.346  -4.296  1.00  0.00     0.006 C 
HETATM   17  C   UNL     1     -19.761 -13.772  -3.261  1.00  0.00    -0.032 C 
HETATM   18  C   UNL     1     -20.088 -12.672  -3.978  1.00  0.00     0.011 C 
HETATM   19  C   UNL     1     -18.752 -11.793  -2.721  1.00  0.00     0.010 C 
HETATM   20  C   UNL     1     -17.233 -12.057  -2.611  1.00  0.00    -0.040 C 
HETATM   21  C   UNL     1     -17.105 -13.386  -3.309  1.00  0.00     0.000 C 
HETATM   22  C   UNL     1     -15.696 -13.565  -3.860  1.00  0.00     0.025 C 
HETATM   23  C   UNL     1     -15.170 -12.413  -4.754  1.00  0.00     0.042 C 
HETATM   24  C   UNL     1     -15.226 -11.081  -3.990  1.00  0.00     0.021 C 
HETATM   25  C   UNL     1     -16.506 -10.819  -3.245  1.00  0.00     0.011 C 
HETATM   26  C   UNL     1     -13.686 -12.659  -5.047  1.00  0.00     0.026 C 
HETATM   27  C   UNL     1     -16.796 -12.057  -1.114  1.00  0.00     0.015 C 
HETATM   28  C   UNL     1     -20.432 -15.036  -3.765  1.00  0.00     0.016 C 
HETATM   29  C   UNL     1     -20.318 -13.278  -0.960  1.00  0.00     0.016 C 
HETATM   30  C   UNL     1     -20.877  -8.237   0.330  1.00  0.00     0.018 C 
ENDROOT
BRANCH  23  31
HETATM   31  C   UNL     1     -15.797 -12.501  -6.157  1.00  0.00     0.148 C 
HETATM   32  O   UNL     1     -15.983 -13.569  -6.732  1.00  0.00    -0.649 OA
BRANCH  31  33
HETATM   33  O   UNL     1     -16.114 -11.344  -6.773  1.00  0.00    -0.776 OA
HETATM   34  H   UNL     1     -15.676 -11.140  -7.617  1.00  0.00     0.167 HD
ENDBRANCH  31  33
ENDBRANCH  23  31
BRANCH  11  35
HETATM   35  O   UNL     1     -22.533  -5.933  -0.819  1.00  0.00    -0.395 OA
HETATM   36  H   UNL     1     -22.402  -5.171  -1.405  1.00  0.00     0.210 HD
ENDBRANCH  11  35
TORSDOF 3
BEGIN_RES ARG D 557
REMARK  4 active torsions:
REMARK  status: ('A' for Active; 'I' for Inactive)
REMARK    1  A    between atoms: CA   and  CB  
REMARK    2  A    between atoms: CB   and  CG  
REMARK    3  A    between atoms: CG   and  CD  
REMARK    4  A    between atoms: CD   and  NE  
REMARK       I    between atoms: NE   and  CZ  
REMARK       I    between atoms: CZ   and  NH1 
REMARK       I    between atoms: CZ   and  NH2 
ROOT
ATOM      1  CA  ARG D 557     -26.217   2.705 -17.014  1.00 35.49     0.159 C 
ENDROOT
BRANCH   1   2
ATOM      2  CB  ARG D 557     -26.789   1.319 -17.183  1.00 35.49     0.034 C 
BRANCH   2   3
ATOM      3  CG  ARG D 557     -25.837   0.202 -17.143  1.00 35.49     0.027 C 
BRANCH   3   4
ATOM      4  CD  ARG D 557     -24.760   0.414 -16.149  1.00 35.49     0.116 C 
BRANCH   4   5
ATOM      5  NE  ARG D 557     -24.911  -0.436 -14.997  1.00 35.49    -0.212 N 
ATOM      6  CZ  ARG D 557     -24.120  -1.433 -14.669  1.00 35.49     0.666 C 
ATOM      7  NH1 ARG D 557     -23.075  -1.778 -15.399  1.00 35.49    -0.235 N 
ATOM      8  NH2 ARG D 557     -24.395  -2.084 -13.576  1.00 35.49    -0.235 N 
ATOM      9  HH  ARG D 557     -22.874  -1.363 -16.120  1.00 35.49     0.174 HD
ATOM     10  HH  ARG D 557     -22.593  -2.436 -15.134  1.00 35.49     0.174 HD
ATOM     11  HH  ARG D 557     -25.072  -1.834 -13.122  1.00 35.49     0.174 HD
ATOM     12  HH  ARG D 557     -23.906  -2.731 -13.330  1.00 35.49     0.174 HD
ATOM     13  HE  ARG D 557     -25.600  -0.330 -14.510  1.00 35.49     0.178 HD
ENDBRANCH   4   5
ENDBRANCH   3   4
ENDBRANCH   2   3
ENDBRANCH   1   2
END_RES ARG D 557
BEGIN_RES GLU D 570
REMARK  3 active torsions:
REMARK  status: ('A' for Active; 'I' for Inactive)
REMARK    5  A    between atoms: CA   and  CB  
REMARK    6  A    between atoms: CB   and  CG  
REMARK    7  A    between atoms: CG   and  CD  
ROOT
ATOM     14  CA  GLU D 570     -18.033  -6.348 -13.375  1.00 32.92     0.160 C 
ENDROOT
BRANCH  14  15
ATOM     15  CB  GLU D 570     -19.500  -6.345 -13.794  1.00 32.92     0.043 C 
BRANCH  15  16
ATOM     16  CG  GLU D 570     -20.448  -5.558 -12.963  1.00 32.92     0.100 C 
BRANCH  16  17
ATOM     17  CD  GLU D 570     -21.713  -5.188 -13.702  1.00 32.92     0.185 C 
ATOM     18  OE1 GLU D 570     -22.308  -4.138 -13.394  1.00 32.92    -0.647 OA
ATOM     19  OE2 GLU D 570     -22.121  -5.966 -14.587  1.00 32.92    -0.647 OA
ENDBRANCH  16  17
ENDBRANCH  15  16
ENDBRANCH  14  15
END_RES GLU D 570
ENDMDL
MODEL 3
REMARK VINA RESULT:      -7.7      1.672      6.091
REMARK  3 active torsions:
REMARK  status: ('A' for Active; 'I' for Inactive)
REMARK    1  A    between atoms: C_11  and  O_12 
REMARK    2  A    between atoms: C_24  and  C_28 
REMARK    3  A    between atoms: C_28  and  O_30 
ROOT
HETATM    1  C   UNL     1     -14.636 -14.113  -6.029  1.00  0.00     0.018 C 
HETATM    2  C   UNL     1     -15.060 -13.183  -4.870  1.00  0.00    -0.017 C 
HETATM    3  C   UNL     1     -16.568 -13.358  -4.560  1.00  0.00     0.005 C 
HETATM    4  C   UNL     1     -17.483 -13.390  -5.823  1.00  0.00     0.007 C 
HETATM    5  C   UNL     1     -18.960 -13.918  -5.648  1.00  0.00     0.011 C 
HETATM    6  C   UNL     1     -19.644 -12.705  -5.016  1.00  0.00    -0.025 C 
HETATM    7  C   UNL     1     -18.597 -12.836  -3.308  1.00  0.00     0.072 C 
HETATM    8  C   UNL     1     -17.041 -12.545  -3.297  1.00  0.00    -0.029 C 
HETATM    9  C   UNL     1     -16.259 -13.212  -2.092  1.00  0.00     0.013 C 
HETATM   10  C   UNL     1     -14.725 -13.061  -2.290  1.00  0.00     0.033 C 
HETATM   11  C   UNL     1     -14.289 -13.685  -3.608  1.00  0.00     0.126 C 
HETATM   12  C   UNL     1     -16.696 -11.033  -2.934  1.00  0.00     0.016 C 
HETATM   13  C   UNL     1     -19.439 -12.187  -1.762  1.00  0.00     0.133 C 
HETATM   14  O   UNL     1     -18.931 -12.308  -0.648  1.00  0.00    -0.298 OA
HETATM   15  C   UNL     1     -21.009 -11.305  -1.839  1.00  0.00     0.084 C 
HETATM   16  C   UNL     1     -21.733 -11.094  -3.079  1.00  0.00     0.006 C 
HETATM   17  C   UNL     1     -21.393 -12.150  -4.549  1.00  0.00    -0.032 C 
HETATM   18  C   UNL     1     -20.656 -12.641  -3.527  1.00  0.00     0.011 C 
HETATM   19  C   UNL     1     -19.607 -10.924  -3.819  1.00  0.00     0.010 C 
HETATM   20  C   UNL     1     -20.088  -9.469  -3.618  1.00  0.00    -0.040 C 
HETATM   21  C   UNL     1     -21.584  -9.644  -3.606  1.00  0.00     0.000 C 
HETATM   22  C   UNL     1     -22.247  -8.508  -2.838  1.00  0.00     0.025 C 
HETATM   23  C   UNL     1     -21.703  -8.252  -1.409  1.00  0.00     0.042 C 
HETATM   24  C   UNL     1     -20.191  -7.987  -1.456  1.00  0.00     0.021 C 
HETATM   25  C   UNL     1     -19.397  -8.934  -2.315  1.00  0.00     0.011 C 
HETATM   26  C   UNL     1     -22.332  -6.962  -0.869  1.00  0.00     0.026 C 
HETATM   27  C   UNL     1     -19.543  -8.562  -4.764  1.00  0.00     0.015 C 
HETATM   28  C   UNL     1     -22.596 -13.010  -4.888  1.00  0.00     0.016 C 
HETATM   29  C   UNL     1     -19.879 -11.889  -6.418  1.00  0.00     0.016 C 
HETATM   30  C   UNL     1     -14.760 -11.744  -5.340  1.00  0.00     0.018 C 
ENDROOT
BRANCH  23  31
HETATM   31  C   UNL     1     -22.250  -9.311  -0.435  1.00  0.00     0.148 C 
HETATM   32  O   UNL     1     -23.401  -9.731  -0.494  1.00  0.00    -0.649 OA
BRANCH  31  33
HETATM   33  O   UNL     1     -21.423  -9.755   0.534  1.00  0.00    -0.776 OA
HETATM   34  H   UNL     1     -21.612 -10.621   0.935  1.00  0.00     0.167 HD
ENDBRANCH  31  33
ENDBRANCH  23  31
BRANCH  11  35
HETATM   35  O   UNL     1     -12.881 -13.574  -3.760  1.00  0.00    -0.395 OA
HETATM   36  H   UNL     1     -12.495 -13.390  -2.890  1.00  0.00     0.210 HD
ENDBRANCH  11  35
TORSDOF 3
BEGIN_RES ARG D 557
REMARK  4 active torsions:
REMARK  status: ('A' for Active; 'I' for Inactive)
REMARK    1  A    between atoms: CA   and  CB  
REMARK    2  A    between atoms: CB   and  CG  
REMARK    3  A    between atoms: CG   and  CD  
REMARK    4  A    between atoms: CD   and  NE  
REMARK       I    between atoms: NE   and  CZ  
REMARK       I    between atoms: CZ   and  NH1 
REMARK       I    between atoms: CZ   and  NH2 
ROOT
ATOM      1  CA  ARG D 557     -26.217   2.705 -17.014  1.00 35.49     0.159 C 
ENDROOT
BRANCH   1   2
ATOM      2  CB  ARG D 557     -26.789   1.319 -17.183  1.00 35.49     0.034 C 
BRANCH   2   3
ATOM      3  CG  ARG D 557     -25.837   0.202 -17.144  1.00 35.49     0.027 C 
BRANCH   3   4
ATOM      4  CD  ARG D 557     -24.752   0.419 -16.160  1.00 35.49     0.116 C 
BRANCH   4   5
ATOM      5  NE  ARG D 557     -24.886  -0.433 -15.009  1.00 35.49    -0.212 N 
ATOM      6  CZ  ARG D 557     -24.063  -1.401 -14.669  1.00 35.49     0.666 C 
ATOM      7  NH1 ARG D 557     -22.998  -1.709 -15.386  1.00 35.49    -0.235 N 
ATOM      8  NH2 ARG D 557     -24.328  -2.059 -13.579  1.00 35.49    -0.235 N 
ATOM      9  HH  ARG D 557     -22.803  -1.288 -16.106  1.00 35.49     0.174 HD
ATOM     10  HH  ARG D 557     -22.496  -2.348 -15.114  1.00 35.49     0.174 HD
ATOM     11  HH  ARG D 557     -25.019  -1.833 -13.132  1.00 35.49     0.174 HD
ATOM     12  HH  ARG D 557     -23.818  -2.688 -13.326  1.00 35.49     0.174 HD
ATOM     13  HE  ARG D 557     -25.584  -0.352 -14.530  1.00 35.49     0.178 HD
ENDBRANCH   4   5
ENDBRANCH   3   4
ENDBRANCH   2   3
ENDBRANCH   1   2
END_RES ARG D 557
BEGIN_RES GLU D 570
REMARK  3 active torsions:
REMARK  status: ('A' for Active; 'I' for Inactive)
REMARK    5  A    between atoms: CA   and  CB  
REMARK    6  A    between atoms: CB   and  CG  
REMARK    7  A    between atoms: CG   and  CD  
ROOT
ATOM     14  CA  GLU D 570     -18.033  -6.348 -13.375  1.00 32.92     0.160 C 
ENDROOT
BRANCH  14  15
ATOM     15  CB  GLU D 570     -19.500  -6.345 -13.794  1.00 32.92     0.043 C 
BRANCH  15  16
ATOM     16  CG  GLU D 570     -20.445  -5.543 -12.974  1.00 32.92     0.100 C 
BRANCH  16  17
ATOM     17  CD  GLU D 570     -21.721  -5.204 -13.708  1.00 32.92     0.185 C 
ATOM     18  OE1 GLU D 570     -22.289  -4.122 -13.465  1.00 32.92    -0.647 OA
ATOM     19  OE2 GLU D 570     -22.166  -6.036 -14.522  1.00 32.92    -0.647 OA
ENDBRANCH  16  17
ENDBRANCH  15  16
ENDBRANCH  14  15
END_RES GLU D 570
ENDMDL
MODEL 4
REMARK VINA RESULT:      -7.7      2.365      3.095
REMARK  3 active torsions:
REMARK  status: ('A' for Active; 'I' for Inactive)
REMARK    1  A    between atoms: C_11  and  O_12 
REMARK    2  A    between atoms: C_24  and  C_28 
REMARK    3  A    between atoms: C_28  and  O_30 
ROOT
HETATM    1  C   UNL     1     -23.250  -7.929   0.360  1.00  0.00     0.018 C 
HETATM    2  C   UNL     1     -22.188  -8.029  -0.758  1.00  0.00    -0.017 C 
HETATM    3  C   UNL     1     -22.477  -9.247  -1.671  1.00  0.00     0.005 C 
HETATM    4  C   UNL     1     -22.828 -10.557  -0.899  1.00  0.00     0.007 C 
HETATM    5  C   UNL     1     -23.481 -11.739  -1.716  1.00  0.00     0.011 C 
HETATM    6  C   UNL     1     -22.263 -12.325  -2.430  1.00  0.00    -0.025 C 
HETATM    7  C   UNL     1     -21.980 -10.697  -3.571  1.00  0.00     0.072 C 
HETATM    8  C   UNL     1     -21.517  -9.331  -2.917  1.00  0.00    -0.029 C 
HETATM    9  C   UNL     1     -21.875  -8.044  -3.768  1.00  0.00     0.013 C 
HETATM   10  C   UNL     1     -21.588  -6.755  -2.950  1.00  0.00     0.033 C 
HETATM   11  C   UNL     1     -22.376  -6.758  -1.648  1.00  0.00     0.126 C 
HETATM   12  C   UNL     1     -19.937  -9.139  -2.936  1.00  0.00     0.016 C 
HETATM   13  C   UNL     1     -21.174 -10.979  -5.241  1.00  0.00     0.133 C 
HETATM   14  O   UNL     1     -21.044 -10.069  -6.059  1.00  0.00    -0.298 OA
HETATM   15  C   UNL     1     -20.502 -12.585  -5.709  1.00  0.00     0.084 C 
HETATM   16  C   UNL     1     -20.590 -13.753  -4.853  1.00  0.00     0.006 C 
HETATM   17  C   UNL     1     -21.837 -13.828  -3.501  1.00  0.00    -0.032 C 
HETATM   18  C   UNL     1     -22.059 -12.682  -4.185  1.00  0.00     0.011 C 
HETATM   19  C   UNL     1     -20.310 -12.138  -3.301  1.00  0.00     0.010 C 
HETATM   20  C   UNL     1     -18.907 -12.748  -3.515  1.00  0.00    -0.040 C 
HETATM   21  C   UNL     1     -19.244 -14.070  -4.152  1.00  0.00     0.000 C 
HETATM   22  C   UNL     1     -18.075 -14.573  -4.990  1.00  0.00     0.025 C 
HETATM   23  C   UNL     1     -17.518 -13.574  -6.037  1.00  0.00     0.042 C 
HETATM   24  C   UNL     1     -17.096 -12.266  -5.351  1.00  0.00     0.021 C 
HETATM   25  C   UNL     1     -18.081 -11.713  -4.357  1.00  0.00     0.011 C 
HETATM   26  C   UNL     1     -16.235 -14.159  -6.636  1.00  0.00     0.026 C 
HETATM   27  C   UNL     1     -18.154 -12.849  -2.152  1.00  0.00     0.015 C 
HETATM   28  C   UNL     1     -22.873 -14.901  -3.777  1.00  0.00     0.016 C 
HETATM   29  C   UNL     1     -21.732 -13.217  -1.162  1.00  0.00     0.016 C 
HETATM   30  C   UNL     1     -20.827  -8.184  -0.049  1.00  0.00     0.018 C 
ENDROOT
BRANCH  23  31
HETATM   31  C   UNL     1     -18.450 -13.514  -7.261  1.00  0.00     0.148 C 
HETATM   32  O   UNL     1     -19.004 -14.509  -7.719  1.00  0.00    -0.649 OA
BRANCH  31  33
HETATM   33  O   UNL     1     -18.621 -12.317  -7.858  1.00  0.00    -0.776 OA
HETATM   34  H   UNL     1     -18.650 -11.525  -7.293  1.00  0.00     0.167 HD
ENDBRANCH  31  33
ENDBRANCH  23  31
BRANCH  11  35
HETATM   35  O   UNL     1     -22.134  -5.558  -0.926  1.00  0.00    -0.395 OA
HETATM   36  H   UNL     1     -21.358  -5.124  -1.312  1.00  0.00     0.210 HD
ENDBRANCH  11  35
TORSDOF 3
BEGIN_RES ARG D 557
REMARK  4 active torsions:
REMARK  status: ('A' for Active; 'I' for Inactive)
REMARK    1  A    between atoms: CA   and  CB  
REMARK    2  A    between atoms: CB   and  CG  
REMARK    3  A    between atoms: CG   and  CD  
REMARK    4  A    between atoms: CD   and  NE  
REMARK       I    between atoms: NE   and  CZ  
REMARK       I    between atoms: CZ   and  NH1 
REMARK       I    between atoms: CZ   and  NH2 
ROOT
ATOM      1  CA  ARG D 557     -26.217   2.705 -17.014  1.00 35.49     0.159 C 
ENDROOT
BRANCH   1   2
ATOM      2  CB  ARG D 557     -26.789   1.319 -17.183  1.00 35.49     0.034 C 
BRANCH   2   3
ATOM      3  CG  ARG D 557     -28.235   1.225 -17.420  1.00 35.49     0.027 C 
BRANCH   3   4
ATOM      4  CD  ARG D 557     -28.901   0.291 -16.484  1.00 35.49     0.116 C 
BRANCH   4   5
ATOM      5  NE  ARG D 557     -29.282  -0.940 -17.125  1.00 35.49    -0.212 N 
ATOM      6  CZ  ARG D 557     -28.647  -2.086 -17.026  1.00 35.49     0.666 C 
ATOM      7  NH1 ARG D 557     -27.544  -2.227 -16.313  1.00 35.49    -0.235 N 
ATOM      8  NH2 ARG D 557     -29.147  -3.106 -17.660  1.00 35.49    -0.235 N 
ATOM      9  HH  ARG D 557     -27.199  -1.569 -15.886  1.00 35.49     0.174 HD
ATOM     10  HH  ARG D 557     -27.175  -2.999 -16.283  1.00 35.49     0.174 HD
ATOM     11  HH  ARG D 557     -29.864  -2.987 -18.107  1.00 35.49     0.174 HD
ATOM     12  HH  ARG D 557     -28.768  -3.863 -17.617  1.00 35.49     0.174 HD
ATOM     13  HE  ARG D 557     -29.940  -0.922 -17.663  1.00 35.49     0.178 HD
ENDBRANCH   4   5
ENDBRANCH   3   4
ENDBRANCH   2   3
ENDBRANCH   1   2
END_RES ARG D 557
BEGIN_RES GLU D 570
REMARK  3 active torsions:
REMARK  status: ('A' for Active; 'I' for Inactive)
REMARK    5  A    between atoms: CA   and  CB  
REMARK    6  A    between atoms: CB   and  CG  
REMARK    7  A    between atoms: CG   and  CD  
ROOT
ATOM     14  CA  GLU D 570     -18.033  -6.348 -13.375  1.00 32.92     0.160 C 
ENDROOT
BRANCH  14  15
ATOM     15  CB  GLU D 570     -19.500  -6.345 -13.794  1.00 32.92     0.043 C 
BRANCH  15  16
ATOM     16  CG  GLU D 570     -19.796  -6.301 -15.249  1.00 32.92     0.100 C 
BRANCH  16  17
ATOM     17  CD  GLU D 570     -21.219  -5.891 -15.549  1.00 32.92     0.185 C 
ATOM     18  OE1 GLU D 570     -21.435  -5.095 -16.482  1.00 32.92    -0.647 OA
ATOM     19  OE2 GLU D 570     -22.126  -6.359 -14.832  1.00 32.92    -0.647 OA
ENDBRANCH  16  17
ENDBRANCH  15  16
ENDBRANCH  14  15
END_RES GLU D 570
ENDMDL
MODEL 5
REMARK VINA RESULT:      -7.4      2.004      6.400
REMARK  3 active torsions:
REMARK  status: ('A' for Active; 'I' for Inactive)
REMARK    1  A    between atoms: C_11  and  O_12 
REMARK    2  A    between atoms: C_24  and  C_28 
REMARK    3  A    between atoms: C_28  and  O_30 
ROOT
HETATM    1  C   UNL     1     -16.364 -12.034  -7.786  1.00  0.00     0.018 C 
HETATM    2  C   UNL     1     -17.434 -12.797  -6.974  1.00  0.00    -0.017 C 
HETATM    3  C   UNL     1     -18.361 -11.802  -6.231  1.00  0.00     0.005 C 
HETATM    4  C   UNL     1     -17.608 -10.642  -5.510  1.00  0.00     0.007 C 
HETATM    5  C   UNL     1     -18.456  -9.396  -5.040  1.00  0.00     0.011 C 
HETATM    6  C   UNL     1     -19.116  -9.937  -3.772  1.00  0.00    -0.025 C 
HETATM    7  C   UNL     1     -20.240 -11.272  -4.765  1.00  0.00     0.072 C 
HETATM    8  C   UNL     1     -19.563 -12.504  -5.495  1.00  0.00    -0.029 C 
HETATM    9  C   UNL     1     -20.428 -13.124  -6.668  1.00  0.00     0.013 C 
HETATM   10  C   UNL     1     -19.595 -14.168  -7.463  1.00  0.00     0.033 C 
HETATM   11  C   UNL     1     -18.329 -13.534  -8.021  1.00  0.00     0.126 C 
HETATM   12  C   UNL     1     -19.512 -13.810  -4.586  1.00  0.00     0.016 C 
HETATM   13  C   UNL     1     -21.874 -11.742  -3.972  1.00  0.00     0.133 C 
HETATM   14  O   UNL     1     -22.683 -12.473  -4.540  1.00  0.00    -0.298 OA
HETATM   15  C   UNL     1     -22.314 -11.189  -2.314  1.00  0.00     0.084 C 
HETATM   16  C   UNL     1     -21.465 -10.316  -1.524  1.00  0.00     0.006 C 
HETATM   17  C   UNL     1     -20.169  -9.290  -2.337  1.00  0.00    -0.032 C 
HETATM   18  C   UNL     1     -20.860  -9.911  -3.320  1.00  0.00     0.011 C 
HETATM   19  C   UNL     1     -19.899 -11.547  -2.587  1.00  0.00     0.010 C 
HETATM   20  C   UNL     1     -20.051 -12.194  -1.192  1.00  0.00    -0.040 C 
HETATM   21  C   UNL     1     -20.705 -11.083  -0.413  1.00  0.00     0.000 C 
HETATM   22  C   UNL     1     -21.491 -11.649   0.764  1.00  0.00     0.025 C 
HETATM   23  C   UNL     1     -22.511 -12.765   0.419  1.00  0.00     0.042 C 
HETATM   24  C   UNL     1     -21.805 -13.927  -0.295  1.00  0.00     0.021 C 
HETATM   25  C   UNL     1     -20.854 -13.527  -1.391  1.00  0.00     0.011 C 
HETATM   26  C   UNL     1     -23.053 -13.352   1.727  1.00  0.00     0.026 C 
HETATM   27  C   UNL     1     -18.656 -12.640  -0.654  1.00  0.00     0.015 C 
HETATM   28  C   UNL     1     -20.494  -7.813  -2.218  1.00  0.00     0.016 C 
HETATM   29  C   UNL     1     -17.827  -9.695  -2.789  1.00  0.00     0.016 C 
HETATM   30  C   UNL     1     -16.665 -13.683  -5.971  1.00  0.00     0.018 C 
ENDROOT
BRANCH  23  31
HETATM   31  C   UNL     1     -23.775 -12.153  -0.211  1.00  0.00     0.148 C 
HETATM   32  O   UNL     1     -24.234 -11.073   0.147  1.00  0.00    -0.649 OA
BRANCH  31  33
HETATM   33  O   UNL     1     -24.404 -12.866  -1.167  1.00  0.00    -0.776 OA
HETATM   34  H   UNL     1     -23.972 -13.675  -1.493  1.00  0.00     0.167 HD
ENDBRANCH  31  33
ENDBRANCH  23  31
BRANCH  11  35
HETATM   35  O   UNL     1     -17.595 -14.489  -8.776  1.00  0.00    -0.395 OA
HETATM   36  H   UNL     1     -16.652 -14.363  -8.588  1.00  0.00     0.210 HD
ENDBRANCH  11  35
TORSDOF 3
BEGIN_RES ARG D 557
REMARK  4 active torsions:
REMARK  status: ('A' for Active; 'I' for Inactive)
REMARK    1  A    between atoms: CA   and  CB  
REMARK    2  A    between atoms: CB   and  CG  
REMARK    3  A    between atoms: CG   and  CD  
REMARK    4  A    between atoms: CD   and  NE  
REMARK       I    between atoms: NE   and  CZ  
REMARK       I    between atoms: CZ   and  NH1 
REMARK       I    between atoms: CZ   and  NH2 
ROOT
ATOM      1  CA  ARG D 557     -26.217   2.705 -17.014  1.00 35.49     0.159 C 
ENDROOT
BRANCH   1   2
ATOM      2  CB  ARG D 557     -26.789   1.319 -17.183  1.00 35.49     0.034 C 
BRANCH   2   3
ATOM      3  CG  ARG D 557     -25.836   0.203 -17.151  1.00 35.49     0.027 C 
BRANCH   3   4
ATOM      4  CD  ARG D 557     -24.760   0.408 -16.155  1.00 35.49     0.116 C 
BRANCH   4   5
ATOM      5  NE  ARG D 557     -24.912  -0.448 -15.008  1.00 35.49    -0.212 N 
ATOM      6  CZ  ARG D 557     -24.098  -1.420 -14.661  1.00 35.49     0.666 C 
ATOM      7  NH1 ARG D 557     -23.024  -1.730 -15.364  1.00 35.49    -0.235 N 
ATOM      8  NH2 ARG D 557     -24.380  -2.081 -13.576  1.00 35.49    -0.235 N 
ATOM      9  HH  ARG D 557     -22.818  -1.306 -16.080  1.00 35.49     0.174 HD
ATOM     10  HH  ARG D 557     -22.528  -2.371 -15.087  1.00 35.49     0.174 HD
ATOM     11  HH  ARG D 557     -25.076  -1.854 -13.139  1.00 35.49     0.174 HD
ATOM     12  HH  ARG D 557     -23.875  -2.712 -13.318  1.00 35.49     0.174 HD
ATOM     13  HE  ARG D 557     -25.617  -0.366 -14.539  1.00 35.49     0.178 HD
ENDBRANCH   4   5
ENDBRANCH   3   4
ENDBRANCH   2   3
ENDBRANCH   1   2
END_RES ARG D 557
BEGIN_RES GLU D 570
REMARK  3 active torsions:
REMARK  status: ('A' for Active; 'I' for Inactive)
REMARK    5  A    between atoms: CA   and  CB  
REMARK    6  A    between atoms: CB   and  CG  
REMARK    7  A    between atoms: CG   and  CD  
ROOT
ATOM     14  CA  GLU D 570     -18.033  -6.348 -13.375  1.00 32.92     0.160 C 
ENDROOT
BRANCH  14  15
ATOM     15  CB  GLU D 570     -19.500  -6.345 -13.794  1.00 32.92     0.043 C 
BRANCH  15  16
ATOM     16  CG  GLU D 570     -20.441  -5.529 -12.984  1.00 32.92     0.100 C 
BRANCH  16  17
ATOM     17  CD  GLU D 570     -21.722  -5.205 -13.719  1.00 32.92     0.185 C 
ATOM     18  OE1 GLU D 570     -22.305  -4.131 -13.473  1.00 32.92    -0.647 OA
ATOM     19  OE2 GLU D 570     -22.155  -6.040 -14.536  1.00 32.92    -0.647 OA
ENDBRANCH  16  17
ENDBRANCH  15  16
ENDBRANCH  14  15
END_RES GLU D 570
ENDMDL
MODEL 6
REMARK VINA RESULT:      -7.3      1.943      6.446
REMARK  3 active torsions:
REMARK  status: ('A' for Active; 'I' for Inactive)
REMARK    1  A    between atoms: C_11  and  O_12 
REMARK    2  A    between atoms: C_24  and  C_28 
REMARK    3  A    between atoms: C_28  and  O_30 
ROOT
HETATM    1  C   UNL     1     -13.514 -12.308  -5.938  1.00  0.00     0.018 C 
HETATM    2  C   UNL     1     -14.648 -13.116  -5.267  1.00  0.00    -0.017 C 
HETATM    3  C   UNL     1     -15.945 -12.272  -5.198  1.00  0.00     0.005 C 
HETATM    4  C   UNL     1     -15.730 -10.804  -4.716  1.00  0.00     0.007 C 
HETATM    5  C   UNL     1     -16.902  -9.773  -4.952  1.00  0.00     0.011 C 
HETATM    6  C   UNL     1     -17.867 -10.146  -3.825  1.00  0.00    -0.025 C 
HETATM    7  C   UNL     1     -18.290 -11.948  -4.602  1.00  0.00     0.072 C 
HETATM    8  C   UNL     1     -17.183 -13.079  -4.653  1.00  0.00    -0.029 C 
HETATM    9  C   UNL     1     -17.434 -14.191  -5.753  1.00  0.00     0.013 C 
HETATM   10  C   UNL     1     -16.195 -15.120  -5.879  1.00  0.00     0.033 C 
HETATM   11  C   UNL     1     -14.951 -14.313  -6.223  1.00  0.00     0.126 C 
HETATM   12  C   UNL     1     -17.227 -14.047  -3.390  1.00  0.00     0.016 C 
HETATM   13  C   UNL     1     -19.985 -12.649  -4.208  1.00  0.00     0.133 C 
HETATM   14  O   UNL     1     -20.386 -13.698  -4.711  1.00  0.00    -0.298 OA
HETATM   15  C   UNL     1     -21.089 -11.848  -3.029  1.00  0.00     0.084 C 
HETATM   16  C   UNL     1     -20.759 -10.602  -2.363  1.00  0.00     0.006 C 
HETATM   17  C   UNL     1     -19.467  -9.488  -3.057  1.00  0.00    -0.032 C 
HETATM   18  C   UNL     1     -19.629 -10.504  -3.934  1.00  0.00     0.011 C 
HETATM   19  C   UNL     1     -18.718 -11.562  -2.456  1.00  0.00     0.010 C 
HETATM   20  C   UNL     1     -19.244 -11.857  -1.033  1.00  0.00    -0.040 C 
HETATM   21  C   UNL     1     -20.327 -10.820  -0.890  1.00  0.00     0.000 C 
HETATM   22  C   UNL     1     -21.369 -11.272   0.125  1.00  0.00     0.025 C 
HETATM   23  C   UNL     1     -21.972 -12.681  -0.111  1.00  0.00     0.042 C 
HETATM   24  C   UNL     1     -20.856 -13.735  -0.163  1.00  0.00     0.021 C 
HETATM   25  C   UNL     1     -19.663 -13.369  -1.003  1.00  0.00     0.011 C 
HETATM   26  C   UNL     1     -22.835 -13.052   1.101  1.00  0.00     0.026 C 
HETATM   27  C   UNL     1     -18.083 -11.740   0.002  1.00  0.00     0.015 C 
HETATM   28  C   UNL     1     -20.076  -8.182  -3.533  1.00  0.00     0.016 C 
HETATM   29  C   UNL     1     -17.089  -9.311  -2.649  1.00  0.00     0.016 C 
HETATM   30  C   UNL     1     -14.146 -13.468  -3.851  1.00  0.00     0.018 C 
ENDROOT
BRANCH  23  31
HETATM   31  C   UNL     1     -23.011 -12.630  -1.245  1.00  0.00     0.148 C 
HETATM   32  O   UNL     1     -23.092 -13.500  -2.106  1.00  0.00    -0.649 OA
BRANCH  31  33
HETATM   33  O   UNL     1     -23.831 -11.560  -1.293  1.00  0.00    -0.776 OA
HETATM   34  H   UNL     1     -24.715 -11.643  -0.895  1.00  0.00     0.167 HD
ENDBRANCH  31  33
ENDBRANCH  23  31
BRANCH  11  35
HETATM   35  O   UNL     1     -13.833 -15.177  -6.372  1.00  0.00    -0.395 OA
HETATM   36  H   UNL     1     -13.958 -15.699  -7.179  1.00  0.00     0.210 HD
ENDBRANCH  11  35
TORSDOF 3
BEGIN_RES ARG D 557
REMARK  4 active torsions:
REMARK  status: ('A' for Active; 'I' for Inactive)
REMARK    1  A    between atoms: CA   and  CB  
REMARK    2  A    between atoms: CB   and  CG  
REMARK    3  A    between atoms: CG   and  CD  
REMARK    4  A    between atoms: CD   and  NE  
REMARK       I    between atoms: NE   and  CZ  
REMARK       I    between atoms: CZ   and  NH1 
REMARK       I    between atoms: CZ   and  NH2 
ROOT
ATOM      1  CA  ARG D 557     -26.217   2.705 -17.014  1.00 35.49     0.159 C 
ENDROOT
BRANCH   1   2
ATOM      2  CB  ARG D 557     -26.789   1.319 -17.183  1.00 35.49     0.034 C 
BRANCH   2   3
ATOM      3  CG  ARG D 557     -25.838   0.202 -17.139  1.00 35.49     0.027 C 
BRANCH   3   4
ATOM      4  CD  ARG D 557     -24.762   0.416 -16.144  1.00 35.49     0.116 C 
BRANCH   4   5
ATOM      5  NE  ARG D 557     -24.910  -0.435 -14.993  1.00 35.49    -0.212 N 
ATOM      6  CZ  ARG D 557     -24.119  -1.432 -14.668  1.00 35.49     0.666 C 
ATOM      7  NH1 ARG D 557     -23.075  -1.777 -15.399  1.00 35.49    -0.235 N 
ATOM      8  NH2 ARG D 557     -24.393  -2.084 -13.575  1.00 35.49    -0.235 N 
ATOM      9  HH  ARG D 557     -22.875  -1.361 -16.121  1.00 35.49     0.174 HD
ATOM     10  HH  ARG D 557     -22.593  -2.435 -15.136  1.00 35.49     0.174 HD
ATOM     11  HH  ARG D 557     -25.069  -1.835 -13.119  1.00 35.49     0.174 HD
ATOM     12  HH  ARG D 557     -23.902  -2.731 -13.330  1.00 35.49     0.174 HD
ATOM     13  HE  ARG D 557     -25.599  -0.330 -14.505  1.00 35.49     0.178 HD
ENDBRANCH   4   5
ENDBRANCH   3   4
ENDBRANCH   2   3
ENDBRANCH   1   2
END_RES ARG D 557
BEGIN_RES GLU D 570
REMARK  3 active torsions:
REMARK  status: ('A' for Active; 'I' for Inactive)
REMARK    5  A    between atoms: CA   and  CB  
REMARK    6  A    between atoms: CB   and  CG  
REMARK    7  A    between atoms: CG   and  CD  
ROOT
ATOM     14  CA  GLU D 570     -18.033  -6.348 -13.375  1.00 32.92     0.160 C 
ENDROOT
BRANCH  14  15
ATOM     15  CB  GLU D 570     -19.500  -6.345 -13.794  1.00 32.92     0.043 C 
BRANCH  15  16
ATOM     16  CG  GLU D 570     -20.448  -5.558 -12.963  1.00 32.92     0.100 C 
BRANCH  16  17
ATOM     17  CD  GLU D 570     -21.716  -5.196 -13.699  1.00 32.92     0.185 C 
ATOM     18  OE1 GLU D 570     -22.307  -4.139 -13.404  1.00 32.92    -0.647 OA
ATOM     19  OE2 GLU D 570     -22.133  -5.985 -14.570  1.00 32.92    -0.647 OA
ENDBRANCH  16  17
ENDBRANCH  15  16
ENDBRANCH  14  15
END_RES GLU D 570
ENDMDL
MODEL 7
REMARK VINA RESULT:      -7.0      2.224      3.137
REMARK  3 active torsions:
REMARK  status: ('A' for Active; 'I' for Inactive)
REMARK    1  A    between atoms: C_11  and  O_12 
REMARK    2  A    between atoms: C_24  and  C_28 
REMARK    3  A    between atoms: C_28  and  O_30 
ROOT
HETATM    1  C   UNL     1     -22.365  -7.736  -0.590  1.00  0.00     0.018 C 
HETATM    2  C   UNL     1     -21.437  -7.842  -1.820  1.00  0.00    -0.017 C 
HETATM    3  C   UNL     1     -21.123  -9.326  -2.135  1.00  0.00     0.005 C 
HETATM    4  C   UNL     1     -20.753 -10.182  -0.883  1.00  0.00     0.007 C 
HETATM    5  C   UNL     1     -20.770 -11.753  -1.036  1.00  0.00     0.011 C 
HETATM    6  C   UNL     1     -19.450 -12.003  -1.766  1.00  0.00    -0.025 C 
HETATM    7  C   UNL     1     -20.050 -11.083  -3.447  1.00  0.00     0.072 C 
HETATM    8  C   UNL     1     -20.296  -9.519  -3.461  1.00  0.00    -0.029 C 
HETATM    9  C   UNL     1     -21.274  -9.021  -4.603  1.00  0.00     0.013 C 
HETATM   10  C   UNL     1     -21.628  -7.522  -4.399  1.00  0.00     0.033 C 
HETATM   11  C   UNL     1     -22.261  -7.300  -3.032  1.00  0.00     0.126 C 
HETATM   12  C   UNL     1     -19.018  -8.696  -3.933  1.00  0.00     0.016 C 
HETATM   13  C   UNL     1     -19.276 -11.683  -5.047  1.00  0.00     0.133 C 
HETATM   14  O   UNL     1     -19.643 -11.259  -6.143  1.00  0.00    -0.298 OA
HETATM   15  C   UNL     1     -17.919 -12.869  -5.056  1.00  0.00     0.084 C 
HETATM   16  C   UNL     1     -17.386 -13.463  -3.844  1.00  0.00     0.006 C 
HETATM   17  C   UNL     1     -18.381 -13.474  -2.294  1.00  0.00    -0.032 C 
HETATM   18  C   UNL     1     -19.165 -12.957  -3.268  1.00  0.00     0.011 C 
HETATM   19  C   UNL     1     -17.878 -11.391  -3.094  1.00  0.00     0.010 C 
HETATM   20  C   UNL     1     -16.366 -11.363  -3.410  1.00  0.00    -0.040 C 
HETATM   21  C   UNL     1     -16.033 -12.832  -3.426  1.00  0.00     0.000 C 
HETATM   22  C   UNL     1     -14.802 -13.090  -4.286  1.00  0.00     0.025 C 
HETATM   23  C   UNL     1     -14.850 -12.512  -5.724  1.00  0.00     0.042 C 
HETATM   24  C   UNL     1     -15.101 -10.997  -5.679  1.00  0.00     0.021 C 
HETATM   25  C   UNL     1     -16.191 -10.553  -4.741  1.00  0.00     0.011 C 
HETATM   26  C   UNL     1     -13.469 -12.683  -6.366  1.00  0.00     0.026 C 
HETATM   27  C   UNL     1     -15.609 -10.532  -2.329  1.00  0.00     0.015 C 
HETATM   28  C   UNL     1     -18.763 -14.889  -1.906  1.00  0.00     0.016 C 
HETATM   29  C   UNL     1     -18.499 -11.933  -0.433  1.00  0.00     0.016 C 
HETATM   30  C   UNL     1     -20.149  -7.074  -1.457  1.00  0.00     0.018 C 
ENDROOT
BRANCH  23  31
HETATM   31  C   UNL     1     -15.737 -13.394  -6.621  1.00  0.00     0.148 C 
HETATM   32  O   UNL     1     -15.725 -14.620  -6.561  1.00  0.00    -0.649 OA
BRANCH  31  33
HETATM   33  O   UNL     1     -16.524 -12.774  -7.524  1.00  0.00    -0.776 OA
HETATM   34  H   UNL     1     -16.101 -12.392  -8.313  1.00  0.00     0.167 HD
ENDBRANCH  31  33
ENDBRANCH  23  31
BRANCH  11  35
HETATM   35  O   UNL     1     -22.613  -5.933  -2.872  1.00  0.00    -0.395 OA
HETATM   36  H   UNL     1     -22.084  -5.409  -3.492  1.00  0.00     0.210 HD
ENDBRANCH  11  35
TORSDOF 3
BEGIN_RES ARG D 557
REMARK  4 active torsions:
REMARK  status: ('A' for Active; 'I' for Inactive)
REMARK    1  A    between atoms: CA   and  CB  
REMARK    2  A    between atoms: CB   and  CG  
REMARK    3  A    between atoms: CG   and  CD  
REMARK    4  A    between atoms: CD   and  NE  
REMARK       I    between atoms: NE   and  CZ  
REMARK       I    between atoms: CZ   and  NH1 
REMARK       I    between atoms: CZ   and  NH2 
ROOT
ATOM      1  CA  ARG D 557     -26.217   2.705 -17.014  1.00 35.49     0.159 C 
ENDROOT
BRANCH   1   2
ATOM      2  CB  ARG D 557     -26.789   1.319 -17.183  1.00 35.49     0.034 C 
BRANCH   2   3
ATOM      3  CG  ARG D 557     -25.965   0.202 -16.705  1.00 35.49     0.027 C 
BRANCH   3   4
ATOM      4  CD  ARG D 557     -26.771  -0.852 -16.047  1.00 35.49     0.116 C 
BRANCH   4   5
ATOM      5  NE  ARG D 557     -27.994  -1.122 -16.756  1.00 35.49    -0.212 N 
ATOM      6  CZ  ARG D 557     -28.520  -2.310 -16.957  1.00 35.49     0.666 C 
ATOM      7  NH1 ARG D 557     -27.950  -3.419 -16.524  1.00 35.49    -0.235 N 
ATOM      8  NH2 ARG D 557     -29.648  -2.366 -17.603  1.00 35.49    -0.235 N 
ATOM      9  HH  ARG D 557     -27.209  -3.406 -16.094  1.00 35.49     0.174 HD
ATOM     10  HH  ARG D 557     -28.340  -4.166 -16.682  1.00 35.49     0.174 HD
ATOM     11  HH  ARG D 557     -29.996  -1.632 -17.864  1.00 35.49     0.174 HD
ATOM     12  HH  ARG D 557     -30.019  -3.114 -17.749  1.00 35.49     0.174 HD
ATOM     13  HE  ARG D 557     -28.390  -0.470 -17.132  1.00 35.49     0.178 HD
ENDBRANCH   4   5
ENDBRANCH   3   4
ENDBRANCH   2   3
ENDBRANCH   1   2
END_RES ARG D 557
BEGIN_RES GLU D 570
REMARK  3 active torsions:
REMARK  status: ('A' for Active; 'I' for Inactive)
REMARK    5  A    between atoms: CA   and  CB  
REMARK    6  A    between atoms: CB   and  CG  
REMARK    7  A    between atoms: CG   and  CD  
ROOT
ATOM     14  CA  GLU D 570     -18.033  -6.348 -13.375  1.00 32.92     0.160 C 
ENDROOT
BRANCH  14  15
ATOM     15  CB  GLU D 570     -19.500  -6.345 -13.794  1.00 32.92     0.043 C 
BRANCH  15  16
ATOM     16  CG  GLU D 570     -19.804  -6.067 -15.222  1.00 32.92     0.100 C 
BRANCH  16  17
ATOM     17  CD  GLU D 570     -21.270  -5.802 -15.471  1.00 32.92     0.185 C 
ATOM     18  OE1 GLU D 570     -22.116  -6.585 -15.000  1.00 32.92    -0.647 OA
ATOM     19  OE2 GLU D 570     -21.575  -4.808 -16.160  1.00 32.92    -0.647 OA
ENDBRANCH  16  17
ENDBRANCH  15  16
ENDBRANCH  14  15
END_RES GLU D 570
ENDMDL
MODEL 8
REMARK VINA RESULT:      -6.9      1.948      3.603
REMARK  3 active torsions:
REMARK  status: ('A' for Active; 'I' for Inactive)
REMARK    1  A    between atoms: C_11  and  O_12 
REMARK    2  A    between atoms: C_24  and  C_28 
REMARK    3  A    between atoms: C_28  and  O_30 
ROOT
HETATM    1  C   UNL     1     -22.460  -9.152  -0.519  1.00  0.00     0.018 C 
HETATM    2  C   UNL     1     -22.120 -10.549  -1.086  1.00  0.00    -0.017 C 
HETATM    3  C   UNL     1     -20.661 -10.582  -1.604  1.00  0.00     0.005 C 
HETATM    4  C   UNL     1     -20.257  -9.343  -2.463  1.00  0.00     0.007 C 
HETATM    5  C   UNL     1     -18.720  -9.104  -2.729  1.00  0.00     0.011 C 
HETATM    6  C   UNL     1     -18.438 -10.128  -3.829  1.00  0.00    -0.025 C 
HETATM    7  C   UNL     1     -18.749 -11.705  -2.626  1.00  0.00     0.072 C 
HETATM    8  C   UNL     1     -20.199 -12.014  -2.068  1.00  0.00    -0.029 C 
HETATM    9  C   UNL     1     -20.218 -12.877  -0.740  1.00  0.00     0.013 C 
HETATM   10  C   UNL     1     -21.655 -12.936  -0.152  1.00  0.00     0.033 C 
HETATM   11  C   UNL     1     -22.181 -11.534   0.125  1.00  0.00     0.126 C 
HETATM   12  C   UNL     1     -21.005 -13.044  -2.976  1.00  0.00     0.016 C 
HETATM   13  C   UNL     1     -17.815 -13.276  -3.051  1.00  0.00     0.133 C 
HETATM   14  O   UNL     1     -17.855 -14.269  -2.326  1.00  0.00    -0.298 OA
HETATM   15  C   UNL     1     -16.858 -13.425  -4.571  1.00  0.00     0.084 C 
HETATM   16  C   UNL     1     -16.712 -12.336  -5.518  1.00  0.00     0.006 C 
HETATM   17  C   UNL     1     -17.024 -10.598  -4.997  1.00  0.00    -0.032 C 
HETATM   18  C   UNL     1     -17.134 -11.370  -3.893  1.00  0.00     0.011 C 
HETATM   19  C   UNL     1     -18.832 -11.986  -4.828  1.00  0.00     0.010 C 
HETATM   20  C   UNL     1     -18.958 -12.756  -6.161  1.00  0.00    -0.040 C 
HETATM   21  C   UNL     1     -17.601 -12.526  -6.773  1.00  0.00     0.000 C 
HETATM   22  C   UNL     1     -17.263 -13.640  -7.757  1.00  0.00     0.025 C 
HETATM   23  C   UNL     1     -17.390 -15.085  -7.208  1.00  0.00     0.042 C 
HETATM   24  C   UNL     1     -18.809 -15.326  -6.671  1.00  0.00     0.021 C 
HETATM   25  C   UNL     1     -19.365 -14.229  -5.804  1.00  0.00     0.011 C 
HETATM   26  C   UNL     1     -17.216 -16.067  -8.372  1.00  0.00     0.026 C 
HETATM   27  C   UNL     1     -20.155 -12.198  -6.992  1.00  0.00     0.015 C 
HETATM   28  C   UNL     1     -15.745  -9.783  -5.033  1.00  0.00     0.016 C 
HETATM   29  C   UNL     1     -19.009  -9.216  -5.065  1.00  0.00     0.016 C 
HETATM   30  C   UNL     1     -23.117 -10.801  -2.237  1.00  0.00     0.018 C 
ENDROOT
BRANCH  23  31
HETATM   31  C   UNL     1     -16.182 -15.422  -6.315  1.00  0.00     0.148 C 
HETATM   32  O   UNL     1     -15.045 -15.037  -6.570  1.00  0.00    -0.649 OA
BRANCH  31  33
HETATM   33  O   UNL     1     -16.401 -16.200  -5.236  1.00  0.00    -0.776 OA
HETATM   34  H   UNL     1     -16.052 -17.108  -5.248  1.00  0.00     0.167 HD
ENDBRANCH  31  33
ENDBRANCH  23  31
BRANCH  11  35
HETATM   35  O   UNL     1     -23.480 -11.602   0.696  1.00  0.00    -0.395 OA
HETATM   36  H   UNL     1     -23.399 -11.462   1.652  1.00  0.00     0.210 HD
ENDBRANCH  11  35
TORSDOF 3
BEGIN_RES ARG D 557
REMARK  4 active torsions:
REMARK  status: ('A' for Active; 'I' for Inactive)
REMARK    1  A    between atoms: CA   and  CB  
REMARK    2  A    between atoms: CB   and  CG  
REMARK    3  A    between atoms: CG   and  CD  
REMARK    4  A    between atoms: CD   and  NE  
REMARK       I    between atoms: NE   and  CZ  
REMARK       I    between atoms: CZ   and  NH1 
REMARK       I    between atoms: CZ   and  NH2 
ROOT
ATOM      1  CA  ARG D 557     -26.217   2.705 -17.014  1.00 35.49     0.159 C 
ENDROOT
BRANCH   1   2
ATOM      2  CB  ARG D 557     -26.789   1.319 -17.183  1.00 35.49     0.034 C 
BRANCH   2   3
ATOM      3  CG  ARG D 557     -25.837   0.202 -17.144  1.00 35.49     0.027 C 
BRANCH   3   4
ATOM      4  CD  ARG D 557     -24.759   0.413 -16.151  1.00 35.49     0.116 C 
BRANCH   4   5
ATOM      5  NE  ARG D 557     -24.909  -0.437 -14.999  1.00 35.49    -0.212 N 
ATOM      6  CZ  ARG D 557     -24.105  -1.419 -14.660  1.00 35.49     0.666 C 
ATOM      7  NH1 ARG D 557     -23.045  -1.747 -15.375  1.00 35.49    -0.235 N 
ATOM      8  NH2 ARG D 557     -24.383  -2.072 -13.569  1.00 35.49    -0.235 N 
ATOM      9  HH  ARG D 557     -22.842  -1.329 -16.095  1.00 35.49     0.174 HD
ATOM     10  HH  ARG D 557     -22.555  -2.395 -15.103  1.00 35.49     0.174 HD
ATOM     11  HH  ARG D 557     -25.069  -1.833 -13.123  1.00 35.49     0.174 HD
ATOM     12  HH  ARG D 557     -23.884  -2.710 -13.315  1.00 35.49     0.174 HD
ATOM     13  HE  ARG D 557     -25.606  -0.342 -14.521  1.00 35.49     0.178 HD
ENDBRANCH   4   5
ENDBRANCH   3   4
ENDBRANCH   2   3
ENDBRANCH   1   2
END_RES ARG D 557
BEGIN_RES GLU D 570
REMARK  3 active torsions:
REMARK  status: ('A' for Active; 'I' for Inactive)
REMARK    5  A    between atoms: CA   and  CB  
REMARK    6  A    between atoms: CB   and  CG  
REMARK    7  A    between atoms: CG   and  CD  
ROOT
ATOM     14  CA  GLU D 570     -18.033  -6.348 -13.375  1.00 32.92     0.160 C 
ENDROOT
BRANCH  14  15
ATOM     15  CB  GLU D 570     -19.500  -6.345 -13.794  1.00 32.92     0.043 C 
BRANCH  15  16
ATOM     16  CG  GLU D 570     -20.446  -5.549 -12.969  1.00 32.92     0.100 C 
BRANCH  16  17
ATOM     17  CD  GLU D 570     -21.721  -5.204 -13.703  1.00 32.92     0.185 C 
ATOM     18  OE1 GLU D 570     -22.151  -5.988 -14.570  1.00 32.92    -0.647 OA
ATOM     19  OE2 GLU D 570     -22.286  -4.130 -13.419  1.00 32.92    -0.647 OA
ENDBRANCH  16  17
ENDBRANCH  15  16
ENDBRANCH  14  15
END_RES GLU D 570
ENDMDL
MODEL 9
REMARK VINA RESULT:      -6.8      2.703      5.491
REMARK  3 active torsions:
REMARK  status: ('A' for Active; 'I' for Inactive)
REMARK    1  A    between atoms: C_11  and  O_12 
REMARK    2  A    between atoms: C_24  and  C_28 
REMARK    3  A    between atoms: C_28  and  O_30 
ROOT
HETATM    1  C   UNL     1     -19.597  -7.017  -5.654  1.00  0.00     0.018 C 
HETATM    2  C   UNL     1     -20.590  -7.685  -4.676  1.00  0.00    -0.017 C 
HETATM    3  C   UNL     1     -19.837  -8.613  -3.691  1.00  0.00     0.005 C 
HETATM    4  C   UNL     1     -18.769  -9.531  -4.365  1.00  0.00     0.007 C 
HETATM    5  C   UNL     1     -17.713 -10.238  -3.429  1.00  0.00     0.011 C 
HETATM    6  C   UNL     1     -18.538 -11.390  -2.855  1.00  0.00    -0.025 C 
HETATM    7  C   UNL     1     -19.758 -10.177  -1.819  1.00  0.00     0.072 C 
HETATM    8  C   UNL     1     -20.767  -9.220  -2.575  1.00  0.00    -0.029 C 
HETATM    9  C   UNL     1     -21.231  -7.962  -1.732  1.00  0.00     0.013 C 
HETATM   10  C   UNL     1     -22.031  -6.974  -2.625  1.00  0.00     0.033 C 
HETATM   11  C   UNL     1     -21.195  -6.529  -3.817  1.00  0.00     0.126 C 
HETATM   12  C   UNL     1     -22.210  -9.866  -2.763  1.00  0.00     0.016 C 
HETATM   13  C   UNL     1     -20.510 -10.889  -0.255  1.00  0.00     0.133 C 
HETATM   14  O   UNL     1     -21.191 -10.204   0.507  1.00  0.00    -0.298 OA
HETATM   15  C   UNL     1     -20.318 -12.628   0.182  1.00  0.00     0.084 C 
HETATM   16  C   UNL     1     -19.535 -13.556  -0.613  1.00  0.00     0.006 C 
HETATM   17  C   UNL     1     -18.266 -12.934  -1.793  1.00  0.00    -0.032 C 
HETATM   18  C   UNL     1     -18.751 -11.861  -1.128  1.00  0.00     0.011 C 
HETATM   19  C   UNL     1     -20.403 -12.260  -2.246  1.00  0.00     0.010 C 
HETATM   20  C   UNL     1     -21.310 -13.510  -2.190  1.00  0.00    -0.040 C 
HETATM   21  C   UNL     1     -20.427 -14.493  -1.468  1.00  0.00     0.000 C 
HETATM   22  C   UNL     1     -21.269 -15.553  -0.767  1.00  0.00     0.025 C 
HETATM   23  C   UNL     1     -22.387 -15.017   0.164  1.00  0.00     0.042 C 
HETATM   24  C   UNL     1     -23.328 -14.087  -0.616  1.00  0.00     0.021 C 
HETATM   25  C   UNL     1     -22.648 -13.074  -1.497  1.00  0.00     0.011 C 
HETATM   26  C   UNL     1     -23.253 -16.198   0.616  1.00  0.00     0.026 C 
HETATM   27  C   UNL     1     -21.724 -13.936  -3.633  1.00  0.00     0.015 C 
HETATM   28  C   UNL     1     -16.871 -13.334  -1.349  1.00  0.00     0.016 C 
HETATM   29  C   UNL     1     -18.371 -12.384  -4.147  1.00  0.00     0.016 C 
HETATM   30  C   UNL     1     -21.576  -8.492  -5.547  1.00  0.00     0.018 C 
ENDROOT
BRANCH  23  31
HETATM   31  C   UNL     1     -21.782 -14.531   1.494  1.00  0.00     0.148 C 
HETATM   32  O   UNL     1     -22.173 -13.518   2.066  1.00  0.00    -0.649 OA
BRANCH  31  33
HETATM   33  O   UNL     1     -20.761 -15.243   2.013  1.00  0.00    -0.776 OA
HETATM   34  H   UNL     1     -20.975 -16.045   2.520  1.00  0.00     0.167 HD
ENDBRANCH  31  33
ENDBRANCH  23  31
BRANCH  11  35
HETATM   35  O   UNL     1     -21.923  -5.598  -4.606  1.00  0.00    -0.395 OA
HETATM   36  H   UNL     1     -21.447  -4.754  -4.597  1.00  0.00     0.210 HD
ENDBRANCH  11  35
TORSDOF 3
BEGIN_RES ARG D 557
REMARK  4 active torsions:
REMARK  status: ('A' for Active; 'I' for Inactive)
REMARK    1  A    between atoms: CA   and  CB  
REMARK    2  A    between atoms: CB   and  CG  
REMARK    3  A    between atoms: CG   and  CD  
REMARK    4  A    between atoms: CD   and  NE  
REMARK       I    between atoms: NE   and  CZ  
REMARK       I    between atoms: CZ   and  NH1 
REMARK       I    between atoms: CZ   and  NH2 
ROOT
ATOM      1  CA  ARG D 557     -26.217   2.705 -17.014  1.00 35.49     0.159 C 
ENDROOT
BRANCH   1   2
ATOM      2  CB  ARG D 557     -26.789   1.319 -17.183  1.00 35.49     0.034 C 
BRANCH   2   3
ATOM      3  CG  ARG D 557     -25.839   0.201 -17.130  1.00 35.49     0.027 C 
BRANCH   3   4
ATOM      4  CD  ARG D 557     -24.771   0.415 -16.126  1.00 35.49     0.116 C 
BRANCH   4   5
ATOM      5  NE  ARG D 557     -24.922  -0.445 -14.982  1.00 35.49    -0.212 N 
ATOM      6  CZ  ARG D 557     -24.117  -1.429 -14.650  1.00 35.49     0.666 C 
ATOM      7  NH1 ARG D 557     -23.055  -1.750 -15.367  1.00 35.49    -0.235 N 
ATOM      8  NH2 ARG D 557     -24.395  -2.092 -13.565  1.00 35.49    -0.235 N 
ATOM      9  HH  ARG D 557     -22.852  -1.325 -16.083  1.00 35.49     0.174 HD
ATOM     10  HH  ARG D 557     -22.565  -2.399 -15.099  1.00 35.49     0.174 HD
ATOM     11  HH  ARG D 557     -25.083  -1.858 -13.119  1.00 35.49     0.174 HD
ATOM     12  HH  ARG D 557     -23.897  -2.731 -13.317  1.00 35.49     0.174 HD
ATOM     13  HE  ARG D 557     -25.620  -0.356 -14.505  1.00 35.49     0.178 HD
ENDBRANCH   4   5
ENDBRANCH   3   4
ENDBRANCH   2   3
ENDBRANCH   1   2
END_RES ARG D 557
BEGIN_RES GLU D 570
REMARK  3 active torsions:
REMARK  status: ('A' for Active; 'I' for Inactive)
REMARK    5  A    between atoms: CA   and  CB  
REMARK    6  A    between atoms: CB   and  CG  
REMARK    7  A    between atoms: CG   and  CD  
ROOT
ATOM     14  CA  GLU D 570     -18.033  -6.348 -13.375  1.00 32.92     0.160 C 
ENDROOT
BRANCH  14  15
ATOM     15  CB  GLU D 570     -19.500  -6.345 -13.794  1.00 32.92     0.043 C 
BRANCH  15  16
ATOM     16  CG  GLU D 570     -20.438  -5.512 -12.998  1.00 32.92     0.100 C 
BRANCH  16  17
ATOM     17  CD  GLU D 570     -21.699  -5.159 -13.752  1.00 32.92     0.185 C 
ATOM     18  OE1 GLU D 570     -22.009  -5.827 -14.757  1.00 32.92    -0.647 OA
ATOM     19  OE2 GLU D 570     -22.374  -4.195 -13.343  1.00 32.92    -0.647 OA
ENDBRANCH  16  17
ENDBRANCH  15  16
ENDBRANCH  14  15
END_RES GLU D 570
ENDMDL
