MODEL 1
REMARK VINA RESULT:      -7.3      0.000      0.000
REMARK  22 active torsions:
REMARK  status: ('A' for Active; 'I' for Inactive)
REMARK    1  A    between atoms: C_2  and  C_3 
REMARK    2  A    between atoms: C_3  and  C_4 
REMARK    3  A    between atoms: C_4  and  C_5 
REMARK    4  A    between atoms: C_5  and  C_6 
REMARK    5  A    between atoms: C_6  and  C_7 
REMARK    6  A    between atoms: C_7  and  C_8 
REMARK    7  A    between atoms: C_8  and  C_9 
REMARK    8  A    between atoms: C_9  and  C_10 
REMARK    9  A    between atoms: C_10  and  C_11 
REMARK   10  A    between atoms: C_11  and  C_12 
REMARK   11  A    between atoms: C_12  and  O_14 
REMARK   12  A    between atoms: O_14  and  C_15 
REMARK   13  A    between atoms: C_15  and  C_16 
REMARK   14  A    between atoms: C_16  and  C_17 
REMARK   15  A    between atoms: C_16  and  O_25 
REMARK   16  A    between atoms: C_17  and  C_18 
REMARK   17  A    between atoms: C_17  and  O_24 
REMARK   18  A    between atoms: C_18  and  C_19 
REMARK   19  A    between atoms: C_18  and  O_23 
REMARK   20  A    between atoms: C_19  and  C_20 
REMARK   21  A    between atoms: C_19  and  O_22 
REMARK   22  A    between atoms: C_20  and  O_21 
ROOT
HETATM    1  C   UNL     1     -21.865  -3.649 -10.744  1.00  0.00     0.213 C 
ENDROOT
BRANCH   1   2
HETATM    2  O   UNL     1     -22.128  -4.671  -9.779  1.00  0.00    -0.319 OA
BRANCH   2   3
HETATM    3  C   UNL     1     -22.389  -4.218  -8.543  1.00  0.00     0.258 C 
HETATM    4  O   UNL     1     -23.516  -4.144  -8.034  1.00  0.00    -0.265 OA
BRANCH   3   5
HETATM    5  C   UNL     1     -21.104  -3.890  -7.827  1.00  0.00     0.111 C 
BRANCH   5   6
HETATM    6  C   UNL     1     -21.047  -4.640  -6.501  1.00  0.00     0.010 C 
BRANCH   6   7
HETATM    7  C   UNL     1     -20.298  -5.957  -6.614  1.00  0.00     0.000 C 
BRANCH   7   8
HETATM    8  C   UNL     1     -20.967  -7.012  -5.738  1.00  0.00     0.000 C 
BRANCH   8   9
HETATM    9  C   UNL     1     -22.097  -6.389  -4.934  1.00  0.00     0.000 C 
BRANCH   9  10
HETATM   10  C   UNL     1     -21.887  -6.636  -3.450  1.00  0.00     0.000 C 
BRANCH  10  11
HETATM   11  C   UNL     1     -20.918  -7.788  -3.244  1.00  0.00     0.000 C 
BRANCH  11  12
HETATM   12  C   UNL     1     -20.480  -7.846  -1.790  1.00  0.00     0.000 C 
BRANCH  12  13
HETATM   13  C   UNL     1     -21.071  -9.073  -1.115  1.00  0.00    -0.000 C 
BRANCH  13  14
HETATM   14  C   UNL     1     -21.560  -8.729   0.284  1.00  0.00    -0.005 C 
HETATM   15  C   UNL     1     -22.770  -7.817   0.209  1.00  0.00     0.005 C 
ENDBRANCH  13  14
ENDBRANCH  12  13
ENDBRANCH  11  12
ENDBRANCH  10  11
ENDBRANCH   9  10
ENDBRANCH   8   9
ENDBRANCH   7   8
ENDBRANCH   6   7
ENDBRANCH   5   6
ENDBRANCH   3   5
ENDBRANCH   2   3
ENDBRANCH   1   2
BRANCH   1  16
HETATM   16  C   UNL     1     -22.588  -3.852 -12.068  1.00  0.00     0.173 C 
BRANCH  16  17
HETATM   17  C   UNL     1     -23.864  -2.978 -12.163  1.00  0.00     0.180 C 
BRANCH  17  18
HETATM   18  C   UNL     1     -24.725  -3.325 -13.397  1.00  0.00     0.180 C 
BRANCH  18  19
HETATM   19  C   UNL     1     -25.007  -2.081 -14.282  1.00  0.00     0.173 C 
BRANCH  19  20
HETATM   20  C   UNL     1     -23.700  -1.398 -14.688  1.00  0.00     0.198 C 
BRANCH  20  21
HETATM   21  O   UNL     1     -22.875  -2.242 -15.490  1.00  0.00    -0.398 OA
HETATM   22  H   UNL     1     -22.564  -1.706 -16.244  1.00  0.00     0.209 HD
ENDBRANCH  20  21
ENDBRANCH  19  20
BRANCH  19  23
HETATM   23  O   UNL     1     -25.717  -2.397 -15.484  1.00  0.00    -0.391 OA
HETATM   24  H   UNL     1     -25.083  -2.388 -16.221  1.00  0.00     0.210 HD
ENDBRANCH  19  23
ENDBRANCH  18  19
BRANCH  18  25
HETATM   25  O   UNL     1     -24.084  -4.333 -14.181  1.00  0.00    -0.390 OA
HETATM   26  H   UNL     1     -23.606  -3.887 -14.900  1.00  0.00     0.210 HD
ENDBRANCH  18  25
ENDBRANCH  17  18
BRANCH  17  27
HETATM   27  O   UNL     1     -24.645  -3.105 -10.978  1.00  0.00    -0.390 OA
HETATM   28  H   UNL     1     -24.787  -2.218 -10.605  1.00  0.00     0.210 HD
ENDBRANCH  17  27
ENDBRANCH  16  17
BRANCH  16  29
HETATM   29  O   UNL     1     -21.643  -3.600 -13.116  1.00  0.00    -0.391 OA
HETATM   30  H   UNL     1     -20.994  -2.937 -12.820  1.00  0.00     0.210 HD
ENDBRANCH  16  29
ENDBRANCH   1  16
TORSDOF 22
BEGIN_RES ARG D 557
REMARK  4 active torsions:
REMARK  status: ('A' for Active; 'I' for Inactive)
REMARK    1  A    between atoms: CA   and  CB  
REMARK    2  A    between atoms: CB   and  CG  
REMARK    3  A    between atoms: CG   and  CD  
REMARK    4  A    between atoms: CD   and  NE  
REMARK       I    between atoms: NE   and  CZ  
REMARK       I    between atoms: CZ   and  NH1 
REMARK       I    between atoms: CZ   and  NH2 
ROOT
ATOM      1  CA  ARG D 557     -26.217   2.705 -17.014  1.00 35.49     0.159 C 
ENDROOT
BRANCH   1   2
ATOM      2  CB  ARG D 557     -26.789   1.319 -17.183  1.00 35.49     0.034 C 
BRANCH   2   3
ATOM      3  CG  ARG D 557     -28.140   1.093 -16.654  1.00 35.49     0.027 C 
BRANCH   3   4
ATOM      4  CD  ARG D 557     -28.811  -0.060 -17.297  1.00 35.49     0.116 C 
BRANCH   4   5
ATOM      5  NE  ARG D 557     -28.243  -1.317 -16.884  1.00 35.49    -0.212 N 
ATOM      6  CZ  ARG D 557     -28.774  -2.502 -17.085  1.00 35.49     0.666 C 
ATOM      7  NH1 ARG D 557     -29.933  -2.666 -17.696  1.00 35.49    -0.235 N 
ATOM      8  NH2 ARG D 557     -28.109  -3.538 -16.661  1.00 35.49    -0.235 N 
ATOM      9  HH  ARG D 557     -30.386  -1.999 -17.985  1.00 35.49     0.174 HD
ATOM     10  HH  ARG D 557     -30.228  -3.464 -17.802  1.00 35.49     0.174 HD
ATOM     11  HH  ARG D 557     -27.360  -3.402 -16.277  1.00 35.49     0.174 HD
ATOM     12  HH  ARG D 557     -28.417  -4.319 -16.776  1.00 35.49     0.174 HD
ATOM     13  HE  ARG D 557     -27.532  -1.300 -16.419  1.00 35.49     0.178 HD
ENDBRANCH   4   5
ENDBRANCH   3   4
ENDBRANCH   2   3
ENDBRANCH   1   2
END_RES ARG D 557
BEGIN_RES GLU D 570
REMARK  3 active torsions:
REMARK  status: ('A' for Active; 'I' for Inactive)
REMARK    5  A    between atoms: CA   and  CB  
REMARK    6  A    between atoms: CB   and  CG  
REMARK    7  A    between atoms: CG   and  CD  
ROOT
ATOM     14  CA  GLU D 570     -18.033  -6.348 -13.375  1.00 32.92     0.160 C 
ENDROOT
BRANCH  14  15
ATOM     15  CB  GLU D 570     -19.500  -6.345 -13.794  1.00 32.92     0.043 C 
BRANCH  15  16
ATOM     16  CG  GLU D 570     -19.801  -6.126 -15.232  1.00 32.92     0.100 C 
BRANCH  16  17
ATOM     17  CD  GLU D 570     -21.253  -5.798 -15.488  1.00 32.92     0.185 C 
ATOM     18  OE1 GLU D 570     -21.547  -4.686 -15.966  1.00 32.92    -0.647 OA
ATOM     19  OE2 GLU D 570     -22.107  -6.656 -15.190  1.00 32.92    -0.647 OA
ENDBRANCH  16  17
ENDBRANCH  15  16
ENDBRANCH  14  15
END_RES GLU D 570
ENDMDL
MODEL 2
REMARK VINA RESULT:      -7.1      1.240      1.890
REMARK  22 active torsions:
REMARK  status: ('A' for Active; 'I' for Inactive)
REMARK    1  A    between atoms: C_2  and  C_3 
REMARK    2  A    between atoms: C_3  and  C_4 
REMARK    3  A    between atoms: C_4  and  C_5 
REMARK    4  A    between atoms: C_5  and  C_6 
REMARK    5  A    between atoms: C_6  and  C_7 
REMARK    6  A    between atoms: C_7  and  C_8 
REMARK    7  A    between atoms: C_8  and  C_9 
REMARK    8  A    between atoms: C_9  and  C_10 
REMARK    9  A    between atoms: C_10  and  C_11 
REMARK   10  A    between atoms: C_11  and  C_12 
REMARK   11  A    between atoms: C_12  and  O_14 
REMARK   12  A    between atoms: O_14  and  C_15 
REMARK   13  A    between atoms: C_15  and  C_16 
REMARK   14  A    between atoms: C_16  and  C_17 
REMARK   15  A    between atoms: C_16  and  O_25 
REMARK   16  A    between atoms: C_17  and  C_18 
REMARK   17  A    between atoms: C_17  and  O_24 
REMARK   18  A    between atoms: C_18  and  C_19 
REMARK   19  A    between atoms: C_18  and  O_23 
REMARK   20  A    between atoms: C_19  and  C_20 
REMARK   21  A    between atoms: C_19  and  O_22 
REMARK   22  A    between atoms: C_20  and  O_21 
ROOT
HETATM    1  C   UNL     1     -23.444  -4.566  -9.796  1.00  0.00     0.213 C 
ENDROOT
BRANCH   1   2
HETATM    2  O   UNL     1     -22.015  -4.558  -9.746  1.00  0.00    -0.319 OA
BRANCH   2   3
HETATM    3  C   UNL     1     -21.499  -4.214  -8.556  1.00  0.00     0.258 C 
HETATM    4  O   UNL     1     -22.117  -3.636  -7.651  1.00  0.00    -0.265 OA
BRANCH   3   5
HETATM    5  C   UNL     1     -20.079  -4.707  -8.442  1.00  0.00     0.111 C 
BRANCH   5   6
HETATM    6  C   UNL     1     -19.667  -4.753  -6.975  1.00  0.00     0.010 C 
BRANCH   6   7
HETATM    7  C   UNL     1     -20.002  -6.083  -6.322  1.00  0.00     0.000 C 
BRANCH   7   8
HETATM    8  C   UNL     1     -21.012  -5.870  -5.199  1.00  0.00     0.000 C 
BRANCH   8   9
HETATM    9  C   UNL     1     -21.688  -7.184  -4.842  1.00  0.00     0.000 C 
BRANCH   9  10
HETATM   10  C   UNL     1     -21.503  -7.489  -3.365  1.00  0.00     0.000 C 
BRANCH  10  11
HETATM   11  C   UNL     1     -21.651  -6.218  -2.547  1.00  0.00     0.000 C 
BRANCH  11  12
HETATM   12  C   UNL     1     -22.260  -6.540  -1.192  1.00  0.00     0.000 C 
BRANCH  12  13
HETATM   13  C   UNL     1     -22.284  -8.044  -0.974  1.00  0.00    -0.000 C 
BRANCH  13  14
HETATM   14  C   UNL     1     -22.569  -8.367   0.485  1.00  0.00    -0.005 C 
HETATM   15  C   UNL     1     -21.274  -8.438   1.271  1.00  0.00     0.005 C 
ENDBRANCH  13  14
ENDBRANCH  12  13
ENDBRANCH  11  12
ENDBRANCH  10  11
ENDBRANCH   9  10
ENDBRANCH   8   9
ENDBRANCH   7   8
ENDBRANCH   6   7
ENDBRANCH   5   6
ENDBRANCH   3   5
ENDBRANCH   2   3
ENDBRANCH   1   2
BRANCH   1  16
HETATM   16  C   UNL     1     -24.034  -3.521 -10.732  1.00  0.00     0.173 C 
BRANCH  16  17
HETATM   17  C   UNL     1     -23.907  -3.946 -12.216  1.00  0.00     0.180 C 
BRANCH  17  18
HETATM   18  C   UNL     1     -22.931  -3.044 -13.005  1.00  0.00     0.180 C 
BRANCH  18  19
HETATM   19  C   UNL     1     -23.337  -2.907 -14.497  1.00  0.00     0.173 C 
BRANCH  19  20
HETATM   20  C   UNL     1     -23.825  -1.490 -14.797  1.00  0.00     0.198 C 
BRANCH  20  21
HETATM   21  O   UNL     1     -25.197  -1.304 -14.447  1.00  0.00    -0.398 OA
HETATM   22  H   UNL     1     -25.678  -1.102 -15.271  1.00  0.00     0.209 HD
ENDBRANCH  20  21
ENDBRANCH  19  20
BRANCH  19  23
HETATM   23  O   UNL     1     -22.263  -3.192 -15.398  1.00  0.00    -0.391 OA
HETATM   24  H   UNL     1     -21.509  -3.518 -14.877  1.00  0.00     0.210 HD
ENDBRANCH  19  23
ENDBRANCH  18  19
BRANCH  18  25
HETATM   25  O   UNL     1     -22.863  -1.748 -12.407  1.00  0.00    -0.390 OA
HETATM   26  H   UNL     1     -22.944  -1.091 -13.120  1.00  0.00     0.210 HD
ENDBRANCH  18  25
ENDBRANCH  17  18
BRANCH  17  27
HETATM   27  O   UNL     1     -23.492  -5.306 -12.312  1.00  0.00    -0.390 OA
HETATM   28  H   UNL     1     -24.281  -5.872 -12.274  1.00  0.00     0.210 HD
ENDBRANCH  17  27
ENDBRANCH  16  17
BRANCH  16  29
HETATM   29  O   UNL     1     -25.387  -3.289 -10.318  1.00  0.00    -0.391 OA
HETATM   30  H   UNL     1     -25.798  -2.624 -10.898  1.00  0.00     0.210 HD
ENDBRANCH  16  29
ENDBRANCH   1  16
TORSDOF 22
BEGIN_RES ARG D 557
REMARK  4 active torsions:
REMARK  status: ('A' for Active; 'I' for Inactive)
REMARK    1  A    between atoms: CA   and  CB  
REMARK    2  A    between atoms: CB   and  CG  
REMARK    3  A    between atoms: CG   and  CD  
REMARK    4  A    between atoms: CD   and  NE  
REMARK       I    between atoms: NE   and  CZ  
REMARK       I    between atoms: CZ   and  NH1 
REMARK       I    between atoms: CZ   and  NH2 
ROOT
ATOM      1  CA  ARG D 557     -26.217   2.705 -17.014  1.00 35.49     0.159 C 
ENDROOT
BRANCH   1   2
ATOM      2  CB  ARG D 557     -26.789   1.319 -17.183  1.00 35.49     0.034 C 
BRANCH   2   3
ATOM      3  CG  ARG D 557     -28.237   1.225 -17.408  1.00 35.49     0.027 C 
BRANCH   3   4
ATOM      4  CD  ARG D 557     -28.894   0.289 -16.467  1.00 35.49     0.116 C 
BRANCH   4   5
ATOM      5  NE  ARG D 557     -29.241  -0.958 -17.097  1.00 35.49    -0.212 N 
ATOM      6  CZ  ARG D 557     -28.575  -2.086 -16.986  1.00 35.49     0.666 C 
ATOM      7  NH1 ARG D 557     -27.470  -2.190 -16.271  1.00 35.49    -0.235 N 
ATOM      8  NH2 ARG D 557     -29.047  -3.126 -17.610  1.00 35.49    -0.235 N 
ATOM      9  HH  ARG D 557     -27.143  -1.519 -15.850  1.00 35.49     0.174 HD
ATOM     10  HH  ARG D 557     -27.080  -2.952 -16.233  1.00 35.49     0.174 HD
ATOM     11  HH  ARG D 557     -29.767  -3.031 -18.059  1.00 35.49     0.174 HD
ATOM     12  HH  ARG D 557     -28.647  -3.872 -17.560  1.00 35.49     0.174 HD
ATOM     13  HE  ARG D 557     -29.899  -0.964 -17.635  1.00 35.49     0.178 HD
ENDBRANCH   4   5
ENDBRANCH   3   4
ENDBRANCH   2   3
ENDBRANCH   1   2
END_RES ARG D 557
BEGIN_RES GLU D 570
REMARK  3 active torsions:
REMARK  status: ('A' for Active; 'I' for Inactive)
REMARK    5  A    between atoms: CA   and  CB  
REMARK    6  A    between atoms: CB   and  CG  
REMARK    7  A    between atoms: CG   and  CD  
ROOT
ATOM     14  CA  GLU D 570     -18.033  -6.348 -13.375  1.00 32.92     0.160 C 
ENDROOT
BRANCH  14  15
ATOM     15  CB  GLU D 570     -19.500  -6.345 -13.794  1.00 32.92     0.043 C 
BRANCH  15  16
ATOM     16  CG  GLU D 570     -19.796  -6.357 -15.250  1.00 32.92     0.100 C 
BRANCH  16  17
ATOM     17  CD  GLU D 570     -21.257  -6.598 -15.552  1.00 32.92     0.185 C 
ATOM     18  OE1 GLU D 570     -22.115  -6.223 -14.730  1.00 32.92    -0.647 OA
ATOM     19  OE2 GLU D 570     -21.545  -7.184 -16.615  1.00 32.92    -0.647 OA
ENDBRANCH  16  17
ENDBRANCH  15  16
ENDBRANCH  14  15
END_RES GLU D 570
ENDMDL
MODEL 3
REMARK VINA RESULT:      -7.1      1.911      3.143
REMARK  22 active torsions:
REMARK  status: ('A' for Active; 'I' for Inactive)
REMARK    1  A    between atoms: C_2  and  C_3 
REMARK    2  A    between atoms: C_3  and  C_4 
REMARK    3  A    between atoms: C_4  and  C_5 
REMARK    4  A    between atoms: C_5  and  C_6 
REMARK    5  A    between atoms: C_6  and  C_7 
REMARK    6  A    between atoms: C_7  and  C_8 
REMARK    7  A    between atoms: C_8  and  C_9 
REMARK    8  A    between atoms: C_9  and  C_10 
REMARK    9  A    between atoms: C_10  and  C_11 
REMARK   10  A    between atoms: C_11  and  C_12 
REMARK   11  A    between atoms: C_12  and  O_14 
REMARK   12  A    between atoms: O_14  and  C_15 
REMARK   13  A    between atoms: C_15  and  C_16 
REMARK   14  A    between atoms: C_16  and  C_17 
REMARK   15  A    between atoms: C_16  and  O_25 
REMARK   16  A    between atoms: C_17  and  C_18 
REMARK   17  A    between atoms: C_17  and  O_24 
REMARK   18  A    between atoms: C_18  and  C_19 
REMARK   19  A    between atoms: C_18  and  O_23 
REMARK   20  A    between atoms: C_19  and  C_20 
REMARK   21  A    between atoms: C_19  and  O_22 
REMARK   22  A    between atoms: C_20  and  O_21 
ROOT
HETATM    1  C   UNL     1     -23.538  -2.730 -12.889  1.00  0.00     0.213 C 
ENDROOT
BRANCH   1   2
HETATM    2  O   UNL     1     -23.110  -2.771 -11.525  1.00  0.00    -0.319 OA
BRANCH   2   3
HETATM    3  C   UNL     1     -23.955  -3.398 -10.693  1.00  0.00     0.258 C 
HETATM    4  O   UNL     1     -25.166  -3.157 -10.590  1.00  0.00    -0.265 OA
BRANCH   3   5
HETATM    5  C   UNL     1     -23.237  -4.502  -9.958  1.00  0.00     0.111 C 
BRANCH   5   6
HETATM    6  C   UNL     1     -22.107  -3.912  -9.122  1.00  0.00     0.010 C 
BRANCH   6   7
HETATM    7  C   UNL     1     -20.755  -4.508  -9.474  1.00  0.00     0.000 C 
BRANCH   7   8
HETATM    8  C   UNL     1     -19.876  -4.575  -8.230  1.00  0.00     0.000 C 
BRANCH   8   9
HETATM    9  C   UNL     1     -20.654  -4.111  -7.010  1.00  0.00     0.000 C 
BRANCH   9  10
HETATM   10  C   UNL     1     -20.385  -5.031  -5.830  1.00  0.00     0.000 C 
BRANCH  10  11
HETATM   11  C   UNL     1     -21.656  -5.767  -5.443  1.00  0.00     0.000 C 
BRANCH  11  12
HETATM   12  C   UNL     1     -21.326  -7.193  -5.033  1.00  0.00     0.000 C 
BRANCH  12  13
HETATM   13  C   UNL     1     -20.958  -7.241  -3.559  1.00  0.00    -0.000 C 
BRANCH  13  14
HETATM   14  C   UNL     1     -21.724  -6.179  -2.784  1.00  0.00    -0.005 C 
HETATM   15  C   UNL     1     -22.234  -6.748  -1.475  1.00  0.00     0.005 C 
ENDBRANCH  13  14
ENDBRANCH  12  13
ENDBRANCH  11  12
ENDBRANCH  10  11
ENDBRANCH   9  10
ENDBRANCH   8   9
ENDBRANCH   7   8
ENDBRANCH   6   7
ENDBRANCH   5   6
ENDBRANCH   3   5
ENDBRANCH   2   3
ENDBRANCH   1   2
BRANCH   1  16
HETATM   16  C   UNL     1     -23.051  -3.905 -13.723  1.00  0.00     0.173 C 
BRANCH  16  17
HETATM   17  C   UNL     1     -24.099  -5.045 -13.773  1.00  0.00     0.180 C 
BRANCH  17  18
HETATM   18  C   UNL     1     -24.698  -5.233 -15.185  1.00  0.00     0.180 C 
BRANCH  18  19
HETATM   19  C   UNL     1     -25.271  -6.661 -15.391  1.00  0.00     0.173 C 
BRANCH  19  20
HETATM   20  C   UNL     1     -26.461  -6.633 -16.351  1.00  0.00     0.198 C 
BRANCH  20  21
HETATM   21  O   UNL     1     -26.070  -6.323 -17.688  1.00  0.00    -0.398 OA
HETATM   22  H   UNL     1     -25.905  -7.171 -18.142  1.00  0.00     0.209 HD
ENDBRANCH  20  21
ENDBRANCH  19  20
BRANCH  19  23
HETATM   23  O   UNL     1     -24.311  -7.579 -15.924  1.00  0.00    -0.391 OA
HETATM   24  H   UNL     1     -23.814  -7.961 -15.181  1.00  0.00     0.210 HD
ENDBRANCH  19  23
ENDBRANCH  18  19
BRANCH  18  25
HETATM   25  O   UNL     1     -25.724  -4.268 -15.421  1.00  0.00    -0.390 OA
HETATM   26  H   UNL     1     -25.437  -3.430 -15.018  1.00  0.00     0.210 HD
ENDBRANCH  18  25
ENDBRANCH  17  18
BRANCH  17  27
HETATM   27  O   UNL     1     -23.525  -6.270 -13.325  1.00  0.00    -0.390 OA
HETATM   28  H   UNL     1     -24.083  -6.630 -12.614  1.00  0.00     0.210 HD
ENDBRANCH  17  27
ENDBRANCH  16  17
BRANCH  16  29
HETATM   29  O   UNL     1     -22.697  -3.397 -15.017  1.00  0.00    -0.391 OA
HETATM   30  H   UNL     1     -23.505  -3.177 -15.514  1.00  0.00     0.210 HD
ENDBRANCH  16  29
ENDBRANCH   1  16
TORSDOF 22
BEGIN_RES ARG D 557
REMARK  4 active torsions:
REMARK  status: ('A' for Active; 'I' for Inactive)
REMARK    1  A    between atoms: CA   and  CB  
REMARK    2  A    between atoms: CB   and  CG  
REMARK    3  A    between atoms: CG   and  CD  
REMARK    4  A    between atoms: CD   and  NE  
REMARK       I    between atoms: NE   and  CZ  
REMARK       I    between atoms: CZ   and  NH1 
REMARK       I    between atoms: CZ   and  NH2 
ROOT
ATOM      1  CA  ARG D 557     -26.217   2.705 -17.014  1.00 35.49     0.159 C 
ENDROOT
BRANCH   1   2
ATOM      2  CB  ARG D 557     -26.789   1.319 -17.183  1.00 35.49     0.034 C 
BRANCH   2   3
ATOM      3  CG  ARG D 557     -28.237   1.224 -17.403  1.00 35.49     0.027 C 
BRANCH   3   4
ATOM      4  CD  ARG D 557     -28.891   0.286 -16.462  1.00 35.49     0.116 C 
BRANCH   4   5
ATOM      5  NE  ARG D 557     -29.275  -0.944 -17.102  1.00 35.49    -0.212 N 
ATOM      6  CZ  ARG D 557     -28.642  -2.092 -17.006  1.00 35.49     0.666 C 
ATOM      7  NH1 ARG D 557     -27.538  -2.235 -16.296  1.00 35.49    -0.235 N 
ATOM      8  NH2 ARG D 557     -29.146  -3.111 -17.639  1.00 35.49    -0.235 N 
ATOM      9  HH  ARG D 557     -27.190  -1.578 -15.870  1.00 35.49     0.174 HD
ATOM     10  HH  ARG D 557     -27.170  -3.008 -16.268  1.00 35.49     0.174 HD
ATOM     11  HH  ARG D 557     -29.864  -2.991 -18.083  1.00 35.49     0.174 HD
ATOM     12  HH  ARG D 557     -28.768  -3.868 -17.597  1.00 35.49     0.174 HD
ATOM     13  HE  ARG D 557     -29.936  -0.926 -17.638  1.00 35.49     0.178 HD
ENDBRANCH   4   5
ENDBRANCH   3   4
ENDBRANCH   2   3
ENDBRANCH   1   2
END_RES ARG D 557
BEGIN_RES GLU D 570
REMARK  3 active torsions:
REMARK  status: ('A' for Active; 'I' for Inactive)
REMARK    5  A    between atoms: CA   and  CB  
REMARK    6  A    between atoms: CB   and  CG  
REMARK    7  A    between atoms: CG   and  CD  
ROOT
ATOM     14  CA  GLU D 570     -18.033  -6.348 -13.375  1.00 32.92     0.160 C 
ENDROOT
BRANCH  14  15
ATOM     15  CB  GLU D 570     -19.500  -6.345 -13.794  1.00 32.92     0.043 C 
BRANCH  15  16
ATOM     16  CG  GLU D 570     -20.079  -7.628 -14.270  1.00 32.92     0.100 C 
BRANCH  16  17
ATOM     17  CD  GLU D 570     -21.022  -7.452 -15.437  1.00 32.92     0.185 C 
ATOM     18  OE1 GLU D 570     -21.320  -8.444 -16.129  1.00 32.92    -0.647 OA
ATOM     19  OE2 GLU D 570     -21.455  -6.307 -15.671  1.00 32.92    -0.647 OA
ENDBRANCH  16  17
ENDBRANCH  15  16
ENDBRANCH  14  15
END_RES GLU D 570
ENDMDL
MODEL 4
REMARK VINA RESULT:      -7.0      3.090      4.965
REMARK  22 active torsions:
REMARK  status: ('A' for Active; 'I' for Inactive)
REMARK    1  A    between atoms: C_2  and  C_3 
REMARK    2  A    between atoms: C_3  and  C_4 
REMARK    3  A    between atoms: C_4  and  C_5 
REMARK    4  A    between atoms: C_5  and  C_6 
REMARK    5  A    between atoms: C_6  and  C_7 
REMARK    6  A    between atoms: C_7  and  C_8 
REMARK    7  A    between atoms: C_8  and  C_9 
REMARK    8  A    between atoms: C_9  and  C_10 
REMARK    9  A    between atoms: C_10  and  C_11 
REMARK   10  A    between atoms: C_11  and  C_12 
REMARK   11  A    between atoms: C_12  and  O_14 
REMARK   12  A    between atoms: O_14  and  C_15 
REMARK   13  A    between atoms: C_15  and  C_16 
REMARK   14  A    between atoms: C_16  and  C_17 
REMARK   15  A    between atoms: C_16  and  O_25 
REMARK   16  A    between atoms: C_17  and  C_18 
REMARK   17  A    between atoms: C_17  and  O_24 
REMARK   18  A    between atoms: C_18  and  C_19 
REMARK   19  A    between atoms: C_18  and  O_23 
REMARK   20  A    between atoms: C_19  and  C_20 
REMARK   21  A    between atoms: C_19  and  O_22 
REMARK   22  A    between atoms: C_20  and  O_21 
ROOT
HETATM    1  C   UNL     1     -24.380  -5.905 -15.112  1.00  0.00     0.213 C 
ENDROOT
BRANCH   1   2
HETATM    2  O   UNL     1     -23.837  -6.154 -13.812  1.00  0.00    -0.319 OA
BRANCH   2   3
HETATM    3  C   UNL     1     -23.080  -5.159 -13.323  1.00  0.00     0.258 C 
HETATM    4  O   UNL     1     -22.360  -4.412 -14.000  1.00  0.00    -0.265 OA
BRANCH   3   5
HETATM    5  C   UNL     1     -23.295  -5.025 -11.837  1.00  0.00     0.111 C 
BRANCH   5   6
HETATM    6  C   UNL     1     -22.050  -4.429 -11.190  1.00  0.00     0.010 C 
BRANCH   6   7
HETATM    7  C   UNL     1     -22.346  -3.798  -9.840  1.00  0.00     0.000 C 
BRANCH   7   8
HETATM    8  C   UNL     1     -21.654  -4.588  -8.734  1.00  0.00     0.000 C 
BRANCH   8   9
HETATM    9  C   UNL     1     -21.198  -3.653  -7.626  1.00  0.00     0.000 C 
BRANCH   9  10
HETATM   10  C   UNL     1     -20.712  -4.451  -6.428  1.00  0.00     0.000 C 
BRANCH  10  11
HETATM   11  C   UNL     1     -20.409  -5.881  -6.842  1.00  0.00     0.000 C 
BRANCH  11  12
HETATM   12  C   UNL     1     -20.660  -6.824  -5.677  1.00  0.00     0.000 C 
BRANCH  12  13
HETATM   13  C   UNL     1     -21.211  -6.052  -4.489  1.00  0.00    -0.000 C 
BRANCH  13  14
HETATM   14  C   UNL     1     -21.580  -7.002  -3.360  1.00  0.00    -0.005 C 
HETATM   15  C   UNL     1     -22.026  -6.221  -2.139  1.00  0.00     0.005 C 
ENDBRANCH  13  14
ENDBRANCH  12  13
ENDBRANCH  11  12
ENDBRANCH  10  11
ENDBRANCH   9  10
ENDBRANCH   8   9
ENDBRANCH   7   8
ENDBRANCH   6   7
ENDBRANCH   5   6
ENDBRANCH   3   5
ENDBRANCH   2   3
ENDBRANCH   1   2
BRANCH   1  16
HETATM   16  C   UNL     1     -25.479  -6.876 -15.517  1.00  0.00     0.173 C 
BRANCH  16  17
HETATM   17  C   UNL     1     -26.608  -6.167 -16.305  1.00  0.00     0.180 C 
BRANCH  17  18
HETATM   18  C   UNL     1     -28.015  -6.591 -15.830  1.00  0.00     0.180 C 
BRANCH  18  19
HETATM   19  C   UNL     1     -28.966  -6.899 -17.018  1.00  0.00     0.173 C 
BRANCH  19  20
HETATM   20  C   UNL     1     -28.398  -6.341 -18.324  1.00  0.00     0.198 C 
BRANCH  20  21
HETATM   21  O   UNL     1     -28.750  -4.972 -18.524  1.00  0.00    -0.398 OA
HETATM   22  H   UNL     1     -29.693  -4.952 -18.773  1.00  0.00     0.209 HD
ENDBRANCH  20  21
ENDBRANCH  19  20
BRANCH  19  23
HETATM   23  O   UNL     1     -29.187  -8.300 -17.211  1.00  0.00    -0.391 OA
HETATM   24  H   UNL     1     -28.412  -8.778 -16.869  1.00  0.00     0.210 HD
ENDBRANCH  19  23
ENDBRANCH  18  19
BRANCH  18  25
HETATM   25  O   UNL     1     -27.927  -7.736 -14.980  1.00  0.00    -0.390 OA
HETATM   26  H   UNL     1     -27.683  -7.424 -14.092  1.00  0.00     0.210 HD
ENDBRANCH  18  25
ENDBRANCH  17  18
BRANCH  17  27
HETATM   27  O   UNL     1     -26.472  -4.751 -16.206  1.00  0.00    -0.390 OA
HETATM   28  H   UNL     1     -25.592  -4.502 -16.537  1.00  0.00     0.210 HD
ENDBRANCH  17  27
ENDBRANCH  16  17
BRANCH  16  29
HETATM   29  O   UNL     1     -24.861  -7.947 -16.243  1.00  0.00    -0.391 OA
HETATM   30  H   UNL     1     -24.037  -7.630 -16.655  1.00  0.00     0.210 HD
ENDBRANCH  16  29
ENDBRANCH   1  16
TORSDOF 22
BEGIN_RES ARG D 557
REMARK  4 active torsions:
REMARK  status: ('A' for Active; 'I' for Inactive)
REMARK    1  A    between atoms: CA   and  CB  
REMARK    2  A    between atoms: CB   and  CG  
REMARK    3  A    between atoms: CG   and  CD  
REMARK    4  A    between atoms: CD   and  NE  
REMARK       I    between atoms: NE   and  CZ  
REMARK       I    between atoms: CZ   and  NH1 
REMARK       I    between atoms: CZ   and  NH2 
ROOT
ATOM      1  CA  ARG D 557     -26.217   2.705 -17.014  1.00 35.49     0.159 C 
ENDROOT
BRANCH   1   2
ATOM      2  CB  ARG D 557     -26.789   1.319 -17.183  1.00 35.49     0.034 C 
BRANCH   2   3
ATOM      3  CG  ARG D 557     -25.838   0.202 -17.141  1.00 35.49     0.027 C 
BRANCH   3   4
ATOM      4  CD  ARG D 557     -24.733   0.438 -16.184  1.00 35.49     0.116 C 
BRANCH   4   5
ATOM      5  NE  ARG D 557     -24.847  -0.387 -15.010  1.00 35.49    -0.212 N 
ATOM      6  CZ  ARG D 557     -24.032  -1.362 -14.674  1.00 35.49     0.666 C 
ATOM      7  NH1 ARG D 557     -22.995  -1.707 -15.414  1.00 35.49    -0.235 N 
ATOM      8  NH2 ARG D 557     -24.277  -1.991 -13.561  1.00 35.49    -0.235 N 
ATOM      9  HH  ARG D 557     -22.814  -1.305 -16.149  1.00 35.49     0.174 HD
ATOM     10  HH  ARG D 557     -22.497  -2.349 -15.143  1.00 35.49     0.174 HD
ATOM     11  HH  ARG D 557     -24.949  -1.742 -13.100  1.00 35.49     0.174 HD
ATOM     12  HH  ARG D 557     -23.771  -2.624 -13.309  1.00 35.49     0.174 HD
ATOM     13  HE  ARG D 557     -25.529  -0.282 -14.513  1.00 35.49     0.178 HD
ENDBRANCH   4   5
ENDBRANCH   3   4
ENDBRANCH   2   3
ENDBRANCH   1   2
END_RES ARG D 557
BEGIN_RES GLU D 570
REMARK  3 active torsions:
REMARK  status: ('A' for Active; 'I' for Inactive)
REMARK    5  A    between atoms: CA   and  CB  
REMARK    6  A    between atoms: CB   and  CG  
REMARK    7  A    between atoms: CG   and  CD  
ROOT
ATOM     14  CA  GLU D 570     -18.033  -6.348 -13.375  1.00 32.92     0.160 C 
ENDROOT
BRANCH  14  15
ATOM     15  CB  GLU D 570     -19.500  -6.345 -13.794  1.00 32.92     0.043 C 
BRANCH  15  16
ATOM     16  CG  GLU D 570     -20.040  -7.587 -14.404  1.00 32.92     0.100 C 
BRANCH  16  17
ATOM     17  CD  GLU D 570     -20.884  -7.324 -15.630  1.00 32.92     0.185 C 
ATOM     18  OE1 GLU D 570     -20.667  -6.299 -16.304  1.00 32.92    -0.647 OA
ATOM     19  OE2 GLU D 570     -21.782  -8.142 -15.908  1.00 32.92    -0.647 OA
ENDBRANCH  16  17
ENDBRANCH  15  16
ENDBRANCH  14  15
END_RES GLU D 570
ENDMDL
MODEL 5
REMARK VINA RESULT:      -6.9      1.272      1.837
REMARK  22 active torsions:
REMARK  status: ('A' for Active; 'I' for Inactive)
REMARK    1  A    between atoms: C_2  and  C_3 
REMARK    2  A    between atoms: C_3  and  C_4 
REMARK    3  A    between atoms: C_4  and  C_5 
REMARK    4  A    between atoms: C_5  and  C_6 
REMARK    5  A    between atoms: C_6  and  C_7 
REMARK    6  A    between atoms: C_7  and  C_8 
REMARK    7  A    between atoms: C_8  and  C_9 
REMARK    8  A    between atoms: C_9  and  C_10 
REMARK    9  A    between atoms: C_10  and  C_11 
REMARK   10  A    between atoms: C_11  and  C_12 
REMARK   11  A    between atoms: C_12  and  O_14 
REMARK   12  A    between atoms: O_14  and  C_15 
REMARK   13  A    between atoms: C_15  and  C_16 
REMARK   14  A    between atoms: C_16  and  C_17 
REMARK   15  A    between atoms: C_16  and  O_25 
REMARK   16  A    between atoms: C_17  and  C_18 
REMARK   17  A    between atoms: C_17  and  O_24 
REMARK   18  A    between atoms: C_18  and  C_19 
REMARK   19  A    between atoms: C_18  and  O_23 
REMARK   20  A    between atoms: C_19  and  C_20 
REMARK   21  A    between atoms: C_19  and  O_22 
REMARK   22  A    between atoms: C_20  and  O_21 
ROOT
HETATM    1  C   UNL     1     -22.329  -4.494 -10.584  1.00  0.00     0.213 C 
ENDROOT
BRANCH   1   2
HETATM    2  O   UNL     1     -21.456  -4.430  -9.453  1.00  0.00    -0.319 OA
BRANCH   2   3
HETATM    3  C   UNL     1     -22.065  -4.131  -8.295  1.00  0.00     0.258 C 
HETATM    4  O   UNL     1     -23.269  -4.299  -8.057  1.00  0.00    -0.265 OA
BRANCH   3   5
HETATM    5  C   UNL     1     -21.055  -3.637  -7.290  1.00  0.00     0.111 C 
BRANCH   5   6
HETATM    6  C   UNL     1     -19.921  -4.647  -7.162  1.00  0.00     0.010 C 
BRANCH   6   7
HETATM    7  C   UNL     1     -20.349  -5.910  -6.433  1.00  0.00     0.000 C 
BRANCH   7   8
HETATM    8  C   UNL     1     -21.037  -5.545  -5.122  1.00  0.00     0.000 C 
BRANCH   8   9
HETATM    9  C   UNL     1     -20.991  -6.721  -4.159  1.00  0.00     0.000 C 
BRANCH   9  10
HETATM   10  C   UNL     1     -21.420  -6.281  -2.769  1.00  0.00     0.000 C 
BRANCH  10  11
HETATM   11  C   UNL     1     -21.846  -7.487  -1.949  1.00  0.00     0.000 C 
BRANCH  11  12
HETATM   12  C   UNL     1     -22.373  -7.036  -0.597  1.00  0.00     0.000 C 
BRANCH  12  13
HETATM   13  C   UNL     1     -22.437  -8.216   0.359  1.00  0.00    -0.000 C 
BRANCH  13  14
HETATM   14  C   UNL     1     -22.404  -9.528  -0.411  1.00  0.00    -0.005 C 
HETATM   15  C   UNL     1     -23.665 -10.326  -0.145  1.00  0.00     0.005 C 
ENDBRANCH  13  14
ENDBRANCH  12  13
ENDBRANCH  11  12
ENDBRANCH  10  11
ENDBRANCH   9  10
ENDBRANCH   8   9
ENDBRANCH   7   8
ENDBRANCH   6   7
ENDBRANCH   5   6
ENDBRANCH   3   5
ENDBRANCH   2   3
ENDBRANCH   1   2
BRANCH   1  16
HETATM   16  C   UNL     1     -21.674  -4.073 -11.892  1.00  0.00     0.173 C 
BRANCH  16  17
HETATM   17  C   UNL     1     -22.719  -3.883 -13.020  1.00  0.00     0.180 C 
BRANCH  17  18
HETATM   18  C   UNL     1     -23.489  -2.550 -12.890  1.00  0.00     0.180 C 
BRANCH  18  19
HETATM   19  C   UNL     1     -24.537  -2.368 -14.021  1.00  0.00     0.173 C 
BRANCH  19  20
HETATM   20  C   UNL     1     -24.122  -1.241 -14.968  1.00  0.00     0.198 C 
BRANCH  20  21
HETATM   21  O   UNL     1     -25.007  -0.124 -14.899  1.00  0.00    -0.398 OA
HETATM   22  H   UNL     1     -24.965   0.219 -13.987  1.00  0.00     0.209 HD
ENDBRANCH  20  21
ENDBRANCH  19  20
BRANCH  19  23
HETATM   23  O   UNL     1     -24.720  -3.547 -14.811  1.00  0.00    -0.391 OA
HETATM   24  H   UNL     1     -25.465  -3.393 -15.416  1.00  0.00     0.210 HD
ENDBRANCH  19  23
ENDBRANCH  18  19
BRANCH  18  25
HETATM   25  O   UNL     1     -24.139  -2.474 -11.620  1.00  0.00    -0.390 OA
HETATM   26  H   UNL     1     -24.041  -3.340 -11.189  1.00  0.00     0.210 HD
ENDBRANCH  18  25
ENDBRANCH  17  18
BRANCH  17  27
HETATM   27  O   UNL     1     -22.092  -3.956 -14.297  1.00  0.00    -0.390 OA
HETATM   28  H   UNL     1     -22.777  -3.874 -14.983  1.00  0.00     0.210 HD
ENDBRANCH  17  27
ENDBRANCH  16  17
BRANCH  16  29
HETATM   29  O   UNL     1     -20.900  -2.896 -11.625  1.00  0.00    -0.391 OA
HETATM   30  H   UNL     1     -20.762  -2.806 -10.665  1.00  0.00     0.210 HD
ENDBRANCH  16  29
ENDBRANCH   1  16
TORSDOF 22
BEGIN_RES ARG D 557
REMARK  4 active torsions:
REMARK  status: ('A' for Active; 'I' for Inactive)
REMARK    1  A    between atoms: CA   and  CB  
REMARK    2  A    between atoms: CB   and  CG  
REMARK    3  A    between atoms: CG   and  CD  
REMARK    4  A    between atoms: CD   and  NE  
REMARK       I    between atoms: NE   and  CZ  
REMARK       I    between atoms: CZ   and  NH1 
REMARK       I    between atoms: CZ   and  NH2 
ROOT
ATOM      1  CA  ARG D 557     -26.217   2.705 -17.014  1.00 35.49     0.159 C 
ENDROOT
BRANCH   1   2
ATOM      2  CB  ARG D 557     -26.789   1.319 -17.183  1.00 35.49     0.034 C 
BRANCH   2   3
ATOM      3  CG  ARG D 557     -28.233   1.226 -17.432  1.00 35.49     0.027 C 
BRANCH   3   4
ATOM      4  CD  ARG D 557     -28.910   0.305 -16.490  1.00 35.49     0.116 C 
BRANCH   4   5
ATOM      5  NE  ARG D 557     -29.202  -0.969 -17.093  1.00 35.49    -0.212 N 
ATOM      6  CZ  ARG D 557     -28.497  -2.068 -16.947  1.00 35.49     0.666 C 
ATOM      7  NH1 ARG D 557     -27.398  -2.113 -16.216  1.00 35.49    -0.235 N 
ATOM      8  NH2 ARG D 557     -28.922  -3.139 -17.551  1.00 35.49    -0.235 N 
ATOM      9  HH  ARG D 557     -27.101  -1.421 -15.808  1.00 35.49     0.174 HD
ATOM     10  HH  ARG D 557     -26.981  -2.859 -16.155  1.00 35.49     0.174 HD
ATOM     11  HH  ARG D 557     -29.639  -3.081 -18.010  1.00 35.49     0.174 HD
ATOM     12  HH  ARG D 557     -28.496  -3.868 -17.477  1.00 35.49     0.174 HD
ATOM     13  HE  ARG D 557     -29.853  -1.012 -17.639  1.00 35.49     0.178 HD
ENDBRANCH   4   5
ENDBRANCH   3   4
ENDBRANCH   2   3
ENDBRANCH   1   2
END_RES ARG D 557
BEGIN_RES GLU D 570
REMARK  3 active torsions:
REMARK  status: ('A' for Active; 'I' for Inactive)
REMARK    5  A    between atoms: CA   and  CB  
REMARK    6  A    between atoms: CB   and  CG  
REMARK    7  A    between atoms: CG   and  CD  
ROOT
ATOM     14  CA  GLU D 570     -18.033  -6.348 -13.375  1.00 32.92     0.160 C 
ENDROOT
BRANCH  14  15
ATOM     15  CB  GLU D 570     -19.500  -6.345 -13.794  1.00 32.92     0.043 C 
BRANCH  15  16
ATOM     16  CG  GLU D 570     -20.094  -7.640 -14.216  1.00 32.92     0.100 C 
BRANCH  16  17
ATOM     17  CD  GLU D 570     -20.893  -7.533 -15.494  1.00 32.92     0.185 C 
ATOM     18  OE1 GLU D 570     -21.101  -8.561 -16.166  1.00 32.92    -0.647 OA
ATOM     19  OE2 GLU D 570     -21.302  -6.405 -15.835  1.00 32.92    -0.647 OA
ENDBRANCH  16  17
ENDBRANCH  15  16
ENDBRANCH  14  15
END_RES GLU D 570
ENDMDL
MODEL 6
REMARK VINA RESULT:      -6.7      1.678      2.617
REMARK  22 active torsions:
REMARK  status: ('A' for Active; 'I' for Inactive)
REMARK    1  A    between atoms: C_2  and  C_3 
REMARK    2  A    between atoms: C_3  and  C_4 
REMARK    3  A    between atoms: C_4  and  C_5 
REMARK    4  A    between atoms: C_5  and  C_6 
REMARK    5  A    between atoms: C_6  and  C_7 
REMARK    6  A    between atoms: C_7  and  C_8 
REMARK    7  A    between atoms: C_8  and  C_9 
REMARK    8  A    between atoms: C_9  and  C_10 
REMARK    9  A    between atoms: C_10  and  C_11 
REMARK   10  A    between atoms: C_11  and  C_12 
REMARK   11  A    between atoms: C_12  and  O_14 
REMARK   12  A    between atoms: O_14  and  C_15 
REMARK   13  A    between atoms: C_15  and  C_16 
REMARK   14  A    between atoms: C_16  and  C_17 
REMARK   15  A    between atoms: C_16  and  O_25 
REMARK   16  A    between atoms: C_17  and  C_18 
REMARK   17  A    between atoms: C_17  and  O_24 
REMARK   18  A    between atoms: C_18  and  C_19 
REMARK   19  A    between atoms: C_18  and  O_23 
REMARK   20  A    between atoms: C_19  and  C_20 
REMARK   21  A    between atoms: C_19  and  O_22 
REMARK   22  A    between atoms: C_20  and  O_21 
ROOT
HETATM    1  C   UNL     1     -21.986  -4.076  -9.345  1.00  0.00     0.213 C 
ENDROOT
BRANCH   1   2
HETATM    2  O   UNL     1     -21.802  -4.811  -8.132  1.00  0.00    -0.319 OA
BRANCH   2   3
HETATM    3  C   UNL     1     -20.672  -4.520  -7.468  1.00  0.00     0.258 C 
HETATM    4  O   UNL     1     -19.739  -3.839  -7.913  1.00  0.00    -0.265 OA
BRANCH   3   5
HETATM    5  C   UNL     1     -20.737  -5.072  -6.067  1.00  0.00     0.111 C 
BRANCH   5   6
HETATM    6  C   UNL     1     -21.411  -6.439  -6.083  1.00  0.00     0.010 C 
BRANCH   6   7
HETATM    7  C   UNL     1     -22.138  -6.741  -4.783  1.00  0.00     0.000 C 
BRANCH   7   8
HETATM    8  C   UNL     1     -21.310  -6.253  -3.599  1.00  0.00     0.000 C 
BRANCH   8   9
HETATM    9  C   UNL     1     -22.144  -6.276  -2.328  1.00  0.00     0.000 C 
BRANCH   9  10
HETATM   10  C   UNL     1     -21.783  -7.486  -1.482  1.00  0.00     0.000 C 
BRANCH  10  11
HETATM   11  C   UNL     1     -22.490  -7.413  -0.139  1.00  0.00     0.000 C 
BRANCH  11  12
HETATM   12  C   UNL     1     -22.724  -8.814   0.401  1.00  0.00     0.000 C 
BRANCH  12  13
HETATM   13  C   UNL     1     -22.805  -9.809  -0.745  1.00  0.00    -0.000 C 
BRANCH  13  14
HETATM   14  C   UNL     1     -23.910 -10.825  -0.493  1.00  0.00    -0.005 C 
HETATM   15  C   UNL     1     -23.384 -11.981   0.334  1.00  0.00     0.005 C 
ENDBRANCH  13  14
ENDBRANCH  12  13
ENDBRANCH  11  12
ENDBRANCH  10  11
ENDBRANCH   9  10
ENDBRANCH   8   9
ENDBRANCH   7   8
ENDBRANCH   6   7
ENDBRANCH   5   6
ENDBRANCH   3   5
ENDBRANCH   2   3
ENDBRANCH   1   2
BRANCH   1  16
HETATM   16  C   UNL     1     -23.383  -3.497  -9.509  1.00  0.00     0.173 C 
BRANCH  16  17
HETATM   17  C   UNL     1     -24.080  -4.035 -10.784  1.00  0.00     0.180 C 
BRANCH  17  18
HETATM   18  C   UNL     1     -24.034  -3.025 -11.951  1.00  0.00     0.180 C 
BRANCH  18  19
HETATM   19  C   UNL     1     -23.041  -3.461 -13.063  1.00  0.00     0.173 C 
BRANCH  19  20
HETATM   20  C   UNL     1     -23.192  -2.576 -14.301  1.00  0.00     0.198 C 
BRANCH  20  21
HETATM   21  O   UNL     1     -23.800  -1.321 -13.997  1.00  0.00    -0.398 OA
HETATM   22  H   UNL     1     -23.285  -0.633 -14.460  1.00  0.00     0.209 HD
ENDBRANCH  20  21
ENDBRANCH  19  20
BRANCH  19  23
HETATM   23  O   UNL     1     -21.673  -3.393 -12.650  1.00  0.00    -0.391 OA
HETATM   24  H   UNL     1     -21.428  -2.455 -12.566  1.00  0.00     0.210 HD
ENDBRANCH  19  23
ENDBRANCH  18  19
BRANCH  18  25
HETATM   25  O   UNL     1     -25.337  -2.858 -12.513  1.00  0.00    -0.390 OA
HETATM   26  H   UNL     1     -25.476  -3.578 -13.151  1.00  0.00     0.210 HD
ENDBRANCH  18  25
ENDBRANCH  17  18
BRANCH  17  27
HETATM   27  O   UNL     1     -23.493  -5.269 -11.189  1.00  0.00    -0.390 OA
HETATM   28  H   UNL     1     -23.998  -5.619 -11.943  1.00  0.00     0.210 HD
ENDBRANCH  17  27
ENDBRANCH  16  17
BRANCH  16  29
HETATM   29  O   UNL     1     -24.107  -3.773  -8.302  1.00  0.00    -0.391 OA
HETATM   30  H   UNL     1     -23.556  -4.311  -7.706  1.00  0.00     0.210 HD
ENDBRANCH  16  29
ENDBRANCH   1  16
TORSDOF 22
BEGIN_RES ARG D 557
REMARK  4 active torsions:
REMARK  status: ('A' for Active; 'I' for Inactive)
REMARK    1  A    between atoms: CA   and  CB  
REMARK    2  A    between atoms: CB   and  CG  
REMARK    3  A    between atoms: CG   and  CD  
REMARK    4  A    between atoms: CD   and  NE  
REMARK       I    between atoms: NE   and  CZ  
REMARK       I    between atoms: CZ   and  NH1 
REMARK       I    between atoms: CZ   and  NH2 
ROOT
ATOM      1  CA  ARG D 557     -26.217   2.705 -17.014  1.00 35.49     0.159 C 
ENDROOT
BRANCH   1   2
ATOM      2  CB  ARG D 557     -26.789   1.319 -17.183  1.00 35.49     0.034 C 
BRANCH   2   3
ATOM      3  CG  ARG D 557     -26.180   0.251 -16.382  1.00 35.49     0.027 C 
BRANCH   3   4
ATOM      4  CD  ARG D 557     -27.131  -0.845 -16.085  1.00 35.49     0.116 C 
BRANCH   4   5
ATOM      5  NE  ARG D 557     -26.480  -1.984 -15.495  1.00 35.49    -0.212 N 
ATOM      6  CZ  ARG D 557     -26.830  -3.240 -15.660  1.00 35.49     0.666 C 
ATOM      7  NH1 ARG D 557     -27.864  -3.597 -16.400  1.00 35.49    -0.235 N 
ATOM      8  NH2 ARG D 557     -26.111  -4.147 -15.065  1.00 35.49    -0.235 N 
ATOM      9  HH  ARG D 557     -28.349  -3.017 -16.802  1.00 35.49     0.174 HD
ATOM     10  HH  ARG D 557     -28.043  -4.431 -16.474  1.00 35.49     0.174 HD
ATOM     11  HH  ARG D 557     -25.445  -3.888 -14.600  1.00 35.49     0.174 HD
ATOM     12  HH  ARG D 557     -26.304  -4.968 -15.151  1.00 35.49     0.174 HD
ATOM     13  HE  ARG D 557     -25.847  -1.842 -14.944  1.00 35.49     0.178 HD
ENDBRANCH   4   5
ENDBRANCH   3   4
ENDBRANCH   2   3
ENDBRANCH   1   2
END_RES ARG D 557
BEGIN_RES GLU D 570
REMARK  3 active torsions:
REMARK  status: ('A' for Active; 'I' for Inactive)
REMARK    5  A    between atoms: CA   and  CB  
REMARK    6  A    between atoms: CB   and  CG  
REMARK    7  A    between atoms: CG   and  CD  
ROOT
ATOM     14  CA  GLU D 570     -18.033  -6.348 -13.375  1.00 32.92     0.160 C 
ENDROOT
BRANCH  14  15
ATOM     15  CB  GLU D 570     -19.500  -6.345 -13.794  1.00 32.92     0.043 C 
BRANCH  15  16
ATOM     16  CG  GLU D 570     -19.805  -6.046 -15.217  1.00 32.92     0.100 C 
BRANCH  16  17
ATOM     17  CD  GLU D 570     -21.270  -5.767 -15.460  1.00 32.92     0.185 C 
ATOM     18  OE1 GLU D 570     -21.594  -4.996 -16.384  1.00 32.92    -0.647 OA
ATOM     19  OE2 GLU D 570     -22.101  -6.312 -14.707  1.00 32.92    -0.647 OA
ENDBRANCH  16  17
ENDBRANCH  15  16
ENDBRANCH  14  15
END_RES GLU D 570
ENDMDL
MODEL 7
REMARK VINA RESULT:      -6.7      1.500      2.285
REMARK  22 active torsions:
REMARK  status: ('A' for Active; 'I' for Inactive)
REMARK    1  A    between atoms: C_2  and  C_3 
REMARK    2  A    between atoms: C_3  and  C_4 
REMARK    3  A    between atoms: C_4  and  C_5 
REMARK    4  A    between atoms: C_5  and  C_6 
REMARK    5  A    between atoms: C_6  and  C_7 
REMARK    6  A    between atoms: C_7  and  C_8 
REMARK    7  A    between atoms: C_8  and  C_9 
REMARK    8  A    between atoms: C_9  and  C_10 
REMARK    9  A    between atoms: C_10  and  C_11 
REMARK   10  A    between atoms: C_11  and  C_12 
REMARK   11  A    between atoms: C_12  and  O_14 
REMARK   12  A    between atoms: O_14  and  C_15 
REMARK   13  A    between atoms: C_15  and  C_16 
REMARK   14  A    between atoms: C_16  and  C_17 
REMARK   15  A    between atoms: C_16  and  O_25 
REMARK   16  A    between atoms: C_17  and  C_18 
REMARK   17  A    between atoms: C_17  and  O_24 
REMARK   18  A    between atoms: C_18  and  C_19 
REMARK   19  A    between atoms: C_18  and  O_23 
REMARK   20  A    between atoms: C_19  and  C_20 
REMARK   21  A    between atoms: C_19  and  O_22 
REMARK   22  A    between atoms: C_20  and  O_21 
ROOT
HETATM    1  C   UNL     1     -20.759  -4.081  -9.569  1.00  0.00     0.213 C 
ENDROOT
BRANCH   1   2
HETATM    2  O   UNL     1     -21.565  -4.900  -8.717  1.00  0.00    -0.319 OA
BRANCH   2   3
HETATM    3  C   UNL     1     -20.900  -5.473  -7.702  1.00  0.00     0.258 C 
HETATM    4  O   UNL     1     -19.821  -6.072  -7.804  1.00  0.00    -0.265 OA
BRANCH   3   5
HETATM    5  C   UNL     1     -21.612  -5.209  -6.400  1.00  0.00     0.111 C 
BRANCH   5   6
HETATM    6  C   UNL     1     -20.658  -5.447  -5.234  1.00  0.00     0.010 C 
BRANCH   6   7
HETATM    7  C   UNL     1     -20.918  -6.769  -4.534  1.00  0.00     0.000 C 
BRANCH   7   8
HETATM    8  C   UNL     1     -21.936  -6.573  -3.415  1.00  0.00     0.000 C 
BRANCH   8   9
HETATM    9  C   UNL     1     -21.346  -7.012  -2.084  1.00  0.00     0.000 C 
BRANCH   9  10
HETATM   10  C   UNL     1     -22.332  -6.750  -0.958  1.00  0.00     0.000 C 
BRANCH  10  11
HETATM   11  C   UNL     1     -22.122  -7.753   0.163  1.00  0.00     0.000 C 
BRANCH  11  12
HETATM   12  C   UNL     1     -23.308  -8.700   0.242  1.00  0.00     0.000 C 
BRANCH  12  13
HETATM   13  C   UNL     1     -22.974 -10.014  -0.446  1.00  0.00    -0.000 C 
BRANCH  13  14
HETATM   14  C   UNL     1     -23.899 -11.120   0.039  1.00  0.00    -0.005 C 
HETATM   15  C   UNL     1     -24.080 -12.167  -1.042  1.00  0.00     0.005 C 
ENDBRANCH  13  14
ENDBRANCH  12  13
ENDBRANCH  11  12
ENDBRANCH  10  11
ENDBRANCH   9  10
ENDBRANCH   8   9
ENDBRANCH   7   8
ENDBRANCH   6   7
ENDBRANCH   5   6
ENDBRANCH   3   5
ENDBRANCH   2   3
ENDBRANCH   1   2
BRANCH   1  16
HETATM   16  C   UNL     1     -21.154  -4.144 -11.037  1.00  0.00     0.173 C 
BRANCH  16  17
HETATM   17  C   UNL     1     -22.476  -3.383 -11.308  1.00  0.00     0.180 C 
BRANCH  17  18
HETATM   18  C   UNL     1     -23.065  -3.702 -12.700  1.00  0.00     0.180 C 
BRANCH  18  19
HETATM   19  C   UNL     1     -24.309  -2.831 -13.022  1.00  0.00     0.173 C 
BRANCH  19  20
HETATM   20  C   UNL     1     -24.882  -3.192 -14.393  1.00  0.00     0.198 C 
BRANCH  20  21
HETATM   21  O   UNL     1     -25.270  -2.037 -15.138  1.00  0.00    -0.398 OA
HETATM   22  H   UNL     1     -24.984  -2.181 -16.059  1.00  0.00     0.209 HD
ENDBRANCH  20  21
ENDBRANCH  19  20
BRANCH  19  23
HETATM   23  O   UNL     1     -25.361  -2.980 -12.064  1.00  0.00    -0.391 OA
HETATM   24  H   UNL     1     -25.844  -3.798 -12.270  1.00  0.00     0.210 HD
ENDBRANCH  19  23
ENDBRANCH  18  19
BRANCH  18  25
HETATM   25  O   UNL     1     -22.074  -3.513 -13.712  1.00  0.00    -0.390 OA
HETATM   26  H   UNL     1     -21.454  -4.260 -13.659  1.00  0.00     0.210 HD
ENDBRANCH  18  25
ENDBRANCH  17  18
BRANCH  17  27
HETATM   27  O   UNL     1     -23.437  -3.678 -10.298  1.00  0.00    -0.390 OA
HETATM   28  H   UNL     1     -23.978  -2.885 -10.146  1.00  0.00     0.210 HD
ENDBRANCH  17  27
ENDBRANCH  16  17
BRANCH  16  29
HETATM   29  O   UNL     1     -20.045  -3.653 -11.802  1.00  0.00    -0.391 OA
HETATM   30  H   UNL     1     -20.035  -2.680 -11.777  1.00  0.00     0.210 HD
ENDBRANCH  16  29
ENDBRANCH   1  16
TORSDOF 22
BEGIN_RES ARG D 557
REMARK  4 active torsions:
REMARK  status: ('A' for Active; 'I' for Inactive)
REMARK    1  A    between atoms: CA   and  CB  
REMARK    2  A    between atoms: CB   and  CG  
REMARK    3  A    between atoms: CG   and  CD  
REMARK    4  A    between atoms: CD   and  NE  
REMARK       I    between atoms: NE   and  CZ  
REMARK       I    between atoms: CZ   and  NH1 
REMARK       I    between atoms: CZ   and  NH2 
ROOT
ATOM      1  CA  ARG D 557     -26.217   2.705 -17.014  1.00 35.49     0.159 C 
ENDROOT
BRANCH   1   2
ATOM      2  CB  ARG D 557     -26.789   1.319 -17.183  1.00 35.49     0.034 C 
BRANCH   2   3
ATOM      3  CG  ARG D 557     -28.235   1.225 -17.416  1.00 35.49     0.027 C 
BRANCH   3   4
ATOM      4  CD  ARG D 557     -28.903   0.315 -16.458  1.00 35.49     0.116 C 
BRANCH   4   5
ATOM      5  NE  ARG D 557     -28.174  -0.913 -16.277  1.00 35.49    -0.212 N 
ATOM      6  CZ  ARG D 557     -28.498  -2.081 -16.786  1.00 35.49     0.666 C 
ATOM      7  NH1 ARG D 557     -29.575  -2.256 -17.530  1.00 35.49    -0.235 N 
ATOM      8  NH2 ARG D 557     -27.708  -3.084 -16.536  1.00 35.49    -0.235 N 
ATOM      9  HH  ARG D 557     -30.107  -1.609 -17.708  1.00 35.49     0.174 HD
ATOM     10  HH  ARG D 557     -29.734  -3.040 -17.836  1.00 35.49     0.174 HD
ATOM     11  HH  ARG D 557     -27.016  -2.940 -16.059  1.00 35.49     0.174 HD
ATOM     12  HH  ARG D 557     -27.883  -3.852 -16.850  1.00 35.49     0.174 HD
ATOM     13  HE  ARG D 557     -27.506  -0.907 -15.752  1.00 35.49     0.178 HD
ENDBRANCH   4   5
ENDBRANCH   3   4
ENDBRANCH   2   3
ENDBRANCH   1   2
END_RES ARG D 557
BEGIN_RES GLU D 570
REMARK  3 active torsions:
REMARK  status: ('A' for Active; 'I' for Inactive)
REMARK    5  A    between atoms: CA   and  CB  
REMARK    6  A    between atoms: CB   and  CG  
REMARK    7  A    between atoms: CG   and  CD  
ROOT
ATOM     14  CA  GLU D 570     -18.033  -6.348 -13.375  1.00 32.92     0.160 C 
ENDROOT
BRANCH  14  15
ATOM     15  CB  GLU D 570     -19.500  -6.345 -13.794  1.00 32.92     0.043 C 
BRANCH  15  16
ATOM     16  CG  GLU D 570     -19.797  -6.412 -15.248  1.00 32.92     0.100 C 
BRANCH  16  17
ATOM     17  CD  GLU D 570     -21.218  -6.019 -15.579  1.00 32.92     0.185 C 
ATOM     18  OE1 GLU D 570     -22.142  -6.415 -14.842  1.00 32.92    -0.647 OA
ATOM     19  OE2 GLU D 570     -21.410  -5.323 -16.595  1.00 32.92    -0.647 OA
ENDBRANCH  16  17
ENDBRANCH  15  16
ENDBRANCH  14  15
END_RES GLU D 570
ENDMDL
MODEL 8
REMARK VINA RESULT:      -6.6      1.519      2.418
REMARK  22 active torsions:
REMARK  status: ('A' for Active; 'I' for Inactive)
REMARK    1  A    between atoms: C_2  and  C_3 
REMARK    2  A    between atoms: C_3  and  C_4 
REMARK    3  A    between atoms: C_4  and  C_5 
REMARK    4  A    between atoms: C_5  and  C_6 
REMARK    5  A    between atoms: C_6  and  C_7 
REMARK    6  A    between atoms: C_7  and  C_8 
REMARK    7  A    between atoms: C_8  and  C_9 
REMARK    8  A    between atoms: C_9  and  C_10 
REMARK    9  A    between atoms: C_10  and  C_11 
REMARK   10  A    between atoms: C_11  and  C_12 
REMARK   11  A    between atoms: C_12  and  O_14 
REMARK   12  A    between atoms: O_14  and  C_15 
REMARK   13  A    between atoms: C_15  and  C_16 
REMARK   14  A    between atoms: C_16  and  C_17 
REMARK   15  A    between atoms: C_16  and  O_25 
REMARK   16  A    between atoms: C_17  and  C_18 
REMARK   17  A    between atoms: C_17  and  O_24 
REMARK   18  A    between atoms: C_18  and  C_19 
REMARK   19  A    between atoms: C_18  and  O_23 
REMARK   20  A    between atoms: C_19  and  C_20 
REMARK   21  A    between atoms: C_19  and  O_22 
REMARK   22  A    between atoms: C_20  and  O_21 
ROOT
HETATM    1  C   UNL     1     -22.264  -4.556  -9.236  1.00  0.00     0.213 C 
ENDROOT
BRANCH   1   2
HETATM    2  O   UNL     1     -20.886  -4.464  -8.863  1.00  0.00    -0.319 OA
BRANCH   2   3
HETATM    3  C   UNL     1     -20.555  -5.171  -7.772  1.00  0.00     0.258 C 
HETATM    4  O   UNL     1     -19.891  -6.217  -7.773  1.00  0.00    -0.265 OA
BRANCH   3   5
HETATM    5  C   UNL     1     -21.036  -4.465  -6.530  1.00  0.00     0.111 C 
BRANCH   5   6
HETATM    6  C   UNL     1     -20.570  -5.225  -5.293  1.00  0.00     0.010 C 
BRANCH   6   7
HETATM    7  C   UNL     1     -21.573  -6.276  -4.848  1.00  0.00     0.000 C 
BRANCH   7   8
HETATM    8  C   UNL     1     -21.630  -6.328  -3.325  1.00  0.00     0.000 C 
BRANCH   8   9
HETATM    9  C   UNL     1     -21.432  -7.755  -2.839  1.00  0.00     0.000 C 
BRANCH   9  10
HETATM   10  C   UNL     1     -21.233  -7.776  -1.332  1.00  0.00     0.000 C 
BRANCH  10  11
HETATM   11  C   UNL     1     -22.412  -7.114  -0.641  1.00  0.00     0.000 C 
BRANCH  11  12
HETATM   12  C   UNL     1     -23.053  -8.083   0.338  1.00  0.00     0.000 C 
BRANCH  12  13
HETATM   13  C   UNL     1     -22.570  -9.498   0.064  1.00  0.00    -0.000 C 
BRANCH  13  14
HETATM   14  C   UNL     1     -23.751 -10.435  -0.143  1.00  0.00    -0.005 C 
HETATM   15  C   UNL     1     -23.598 -11.195  -1.445  1.00  0.00     0.005 C 
ENDBRANCH  13  14
ENDBRANCH  12  13
ENDBRANCH  11  12
ENDBRANCH  10  11
ENDBRANCH   9  10
ENDBRANCH   8   9
ENDBRANCH   7   8
ENDBRANCH   6   7
ENDBRANCH   5   6
ENDBRANCH   3   5
ENDBRANCH   2   3
ENDBRANCH   1   2
BRANCH   1  16
HETATM   16  C   UNL     1     -22.658  -3.622 -10.371  1.00  0.00     0.173 C 
BRANCH  16  17
HETATM   17  C   UNL     1     -21.917  -3.974 -11.685  1.00  0.00     0.180 C 
BRANCH  17  18
HETATM   18  C   UNL     1     -22.484  -3.212 -12.904  1.00  0.00     0.180 C 
BRANCH  18  19
HETATM   19  C   UNL     1     -23.366  -4.120 -13.803  1.00  0.00     0.173 C 
BRANCH  19  20
HETATM   20  C   UNL     1     -24.635  -3.386 -14.235  1.00  0.00     0.198 C 
BRANCH  20  21
HETATM   21  O   UNL     1     -24.352  -2.261 -15.067  1.00  0.00    -0.398 OA
HETATM   22  H   UNL     1     -23.749  -2.569 -15.769  1.00  0.00     0.209 HD
ENDBRANCH  20  21
ENDBRANCH  19  20
BRANCH  19  23
HETATM   23  O   UNL     1     -22.695  -4.554 -14.990  1.00  0.00    -0.391 OA
HETATM   24  H   UNL     1     -23.254  -5.220 -15.427  1.00  0.00     0.210 HD
ENDBRANCH  19  23
ENDBRANCH  18  19
BRANCH  18  25
HETATM   25  O   UNL     1     -23.246  -2.084 -12.471  1.00  0.00    -0.390 OA
HETATM   26  H   UNL     1     -22.753  -1.284 -12.721  1.00  0.00     0.210 HD
ENDBRANCH  18  25
ENDBRANCH  17  18
BRANCH  17  27
HETATM   27  O   UNL     1     -20.522  -3.710 -11.557  1.00  0.00    -0.390 OA
HETATM   28  H   UNL     1     -20.314  -2.902 -12.056  1.00  0.00     0.210 HD
ENDBRANCH  17  27
ENDBRANCH  16  17
BRANCH  16  29
HETATM   29  O   UNL     1     -24.087  -3.670 -10.490  1.00  0.00    -0.391 OA
HETATM   30  H   UNL     1     -24.453  -4.255  -9.803  1.00  0.00     0.210 HD
ENDBRANCH  16  29
ENDBRANCH   1  16
TORSDOF 22
BEGIN_RES ARG D 557
REMARK  4 active torsions:
REMARK  status: ('A' for Active; 'I' for Inactive)
REMARK    1  A    between atoms: CA   and  CB  
REMARK    2  A    between atoms: CB   and  CG  
REMARK    3  A    between atoms: CG   and  CD  
REMARK    4  A    between atoms: CD   and  NE  
REMARK       I    between atoms: NE   and  CZ  
REMARK       I    between atoms: CZ   and  NH1 
REMARK       I    between atoms: CZ   and  NH2 
ROOT
ATOM      1  CA  ARG D 557     -26.217   2.705 -17.014  1.00 35.49     0.159 C 
ENDROOT
BRANCH   1   2
ATOM      2  CB  ARG D 557     -26.789   1.319 -17.183  1.00 35.49     0.034 C 
BRANCH   2   3
ATOM      3  CG  ARG D 557     -28.224   1.228 -17.476  1.00 35.49     0.027 C 
BRANCH   3   4
ATOM      4  CD  ARG D 557     -28.928   0.295 -16.567  1.00 35.49     0.116 C 
BRANCH   4   5
ATOM      5  NE  ARG D 557     -28.140  -0.872 -16.270  1.00 35.49    -0.212 N 
ATOM      6  CZ  ARG D 557     -28.367  -2.086 -16.718  1.00 35.49     0.666 C 
ATOM      7  NH1 ARG D 557     -29.389  -2.373 -17.503  1.00 35.49    -0.235 N 
ATOM      8  NH2 ARG D 557     -27.535  -3.022 -16.363  1.00 35.49    -0.235 N 
ATOM      9  HH  ARG D 557     -29.948  -1.772 -17.750  1.00 35.49     0.174 HD
ATOM     10  HH  ARG D 557     -29.486  -3.183 -17.766  1.00 35.49     0.174 HD
ATOM     11  HH  ARG D 557     -26.880  -2.806 -15.862  1.00 35.49     0.174 HD
ATOM     12  HH  ARG D 557     -27.647  -3.817 -16.635  1.00 35.49     0.174 HD
ATOM     13  HE  ARG D 557     -27.503  -0.792 -15.712  1.00 35.49     0.178 HD
ENDBRANCH   4   5
ENDBRANCH   3   4
ENDBRANCH   2   3
ENDBRANCH   1   2
END_RES ARG D 557
BEGIN_RES GLU D 570
REMARK  3 active torsions:
REMARK  status: ('A' for Active; 'I' for Inactive)
REMARK    5  A    between atoms: CA   and  CB  
REMARK    6  A    between atoms: CB   and  CG  
REMARK    7  A    between atoms: CG   and  CD  
ROOT
ATOM     14  CA  GLU D 570     -18.033  -6.348 -13.375  1.00 32.92     0.160 C 
ENDROOT
BRANCH  14  15
ATOM     15  CB  GLU D 570     -19.500  -6.345 -13.794  1.00 32.92     0.043 C 
BRANCH  15  16
ATOM     16  CG  GLU D 570     -20.087  -7.635 -14.241  1.00 32.92     0.100 C 
BRANCH  16  17
ATOM     17  CD  GLU D 570     -20.682  -7.562 -15.628  1.00 32.92     0.185 C 
ATOM     18  OE1 GLU D 570     -20.740  -6.460 -16.205  1.00 32.92    -0.647 OA
ATOM     19  OE2 GLU D 570     -21.109  -8.618 -16.136  1.00 32.92    -0.647 OA
ENDBRANCH  16  17
ENDBRANCH  15  16
ENDBRANCH  14  15
END_RES GLU D 570
ENDMDL
MODEL 9
REMARK VINA RESULT:      -6.6      2.137      3.733
REMARK  22 active torsions:
REMARK  status: ('A' for Active; 'I' for Inactive)
REMARK    1  A    between atoms: C_2  and  C_3 
REMARK    2  A    between atoms: C_3  and  C_4 
REMARK    3  A    between atoms: C_4  and  C_5 
REMARK    4  A    between atoms: C_5  and  C_6 
REMARK    5  A    between atoms: C_6  and  C_7 
REMARK    6  A    between atoms: C_7  and  C_8 
REMARK    7  A    between atoms: C_8  and  C_9 
REMARK    8  A    between atoms: C_9  and  C_10 
REMARK    9  A    between atoms: C_10  and  C_11 
REMARK   10  A    between atoms: C_11  and  C_12 
REMARK   11  A    between atoms: C_12  and  O_14 
REMARK   12  A    between atoms: O_14  and  C_15 
REMARK   13  A    between atoms: C_15  and  C_16 
REMARK   14  A    between atoms: C_16  and  C_17 
REMARK   15  A    between atoms: C_16  and  O_25 
REMARK   16  A    between atoms: C_17  and  C_18 
REMARK   17  A    between atoms: C_17  and  O_24 
REMARK   18  A    between atoms: C_18  and  C_19 
REMARK   19  A    between atoms: C_18  and  O_23 
REMARK   20  A    between atoms: C_19  and  C_20 
REMARK   21  A    between atoms: C_19  and  O_22 
REMARK   22  A    between atoms: C_20  and  O_21 
ROOT
HETATM    1  C   UNL     1     -21.532  -4.183  -7.063  1.00  0.00     0.213 C 
ENDROOT
BRANCH   1   2
HETATM    2  O   UNL     1     -21.519  -5.582  -6.765  1.00  0.00    -0.319 OA
BRANCH   2   3
HETATM    3  C   UNL     1     -22.042  -5.905  -5.572  1.00  0.00     0.258 C 
HETATM    4  O   UNL     1     -23.252  -5.941  -5.310  1.00  0.00    -0.265 OA
BRANCH   3   5
HETATM    5  C   UNL     1     -20.948  -6.300  -4.614  1.00  0.00     0.111 C 
BRANCH   5   6
HETATM    6  C   UNL     1     -20.275  -7.579  -5.100  1.00  0.00     0.010 C 
BRANCH   6   7
HETATM    7  C   UNL     1     -21.249  -8.740  -5.207  1.00  0.00     0.000 C 
BRANCH   7   8
HETATM    8  C   UNL     1     -20.654  -9.979  -4.548  1.00  0.00     0.000 C 
BRANCH   8   9
HETATM    9  C   UNL     1     -21.758 -10.850  -3.970  1.00  0.00     0.000 C 
BRANCH   9  10
HETATM   10  C   UNL     1     -21.410 -11.273  -2.552  1.00  0.00     0.000 C 
BRANCH  10  11
HETATM   11  C   UNL     1     -20.545 -10.214  -1.890  1.00  0.00     0.000 C 
BRANCH  11  12
HETATM   12  C   UNL     1     -21.376  -9.403  -0.909  1.00  0.00     0.000 C 
BRANCH  12  13
HETATM   13  C   UNL     1     -21.233  -7.919  -1.205  1.00  0.00    -0.000 C 
BRANCH  13  14
HETATM   14  C   UNL     1     -22.415  -7.146  -0.640  1.00  0.00    -0.005 C 
HETATM   15  C   UNL     1     -23.067  -7.928   0.483  1.00  0.00     0.005 C 
ENDBRANCH  13  14
ENDBRANCH  12  13
ENDBRANCH  11  12
ENDBRANCH  10  11
ENDBRANCH   9  10
ENDBRANCH   8   9
ENDBRANCH   7   8
ENDBRANCH   6   7
ENDBRANCH   5   6
ENDBRANCH   3   5
ENDBRANCH   2   3
ENDBRANCH   1   2
BRANCH   1  16
HETATM   16  C   UNL     1     -22.484  -3.801  -8.186  1.00  0.00     0.173 C 
BRANCH  16  17
HETATM   17  C   UNL     1     -22.097  -4.484  -9.522  1.00  0.00     0.180 C 
BRANCH  17  18
HETATM   18  C   UNL     1     -22.527  -3.656 -10.753  1.00  0.00     0.180 C 
BRANCH  18  19
HETATM   19  C   UNL     1     -22.170  -4.364 -12.087  1.00  0.00     0.173 C 
BRANCH  19  20
HETATM   20  C   UNL     1     -23.348  -5.201 -12.588  1.00  0.00     0.198 C 
BRANCH  20  21
HETATM   21  O   UNL     1     -23.901  -4.686 -13.798  1.00  0.00    -0.398 OA
HETATM   22  H   UNL     1     -23.707  -5.334 -14.501  1.00  0.00     0.209 HD
ENDBRANCH  20  21
ENDBRANCH  19  20
BRANCH  19  23
HETATM   23  O   UNL     1     -21.819  -3.450 -13.131  1.00  0.00    -0.391 OA
HETATM   24  H   UNL     1     -22.633  -3.019 -13.442  1.00  0.00     0.210 HD
ENDBRANCH  19  23
ENDBRANCH  18  19
BRANCH  18  25
HETATM   25  O   UNL     1     -23.932  -3.398 -10.710  1.00  0.00    -0.390 OA
HETATM   26  H   UNL     1     -24.217  -3.176 -11.612  1.00  0.00     0.210 HD
ENDBRANCH  18  25
ENDBRANCH  17  18
BRANCH  17  27
HETATM   27  O   UNL     1     -20.693  -4.726  -9.569  1.00  0.00    -0.390 OA
HETATM   28  H   UNL     1     -20.321  -4.237 -10.323  1.00  0.00     0.210 HD
ENDBRANCH  17  27
ENDBRANCH  16  17
BRANCH  16  29
HETATM   29  O   UNL     1     -23.813  -4.115  -7.748  1.00  0.00    -0.391 OA
HETATM   30  H   UNL     1     -24.405  -4.179  -8.518  1.00  0.00     0.210 HD
ENDBRANCH  16  29
ENDBRANCH   1  16
TORSDOF 22
BEGIN_RES ARG D 557
REMARK  4 active torsions:
REMARK  status: ('A' for Active; 'I' for Inactive)
REMARK    1  A    between atoms: CA   and  CB  
REMARK    2  A    between atoms: CB   and  CG  
REMARK    3  A    between atoms: CG   and  CD  
REMARK    4  A    between atoms: CD   and  NE  
REMARK       I    between atoms: NE   and  CZ  
REMARK       I    between atoms: CZ   and  NH1 
REMARK       I    between atoms: CZ   and  NH2 
ROOT
ATOM      1  CA  ARG D 557     -26.217   2.705 -17.014  1.00 35.49     0.159 C 
ENDROOT
BRANCH   1   2
ATOM      2  CB  ARG D 557     -26.789   1.319 -17.183  1.00 35.49     0.034 C 
BRANCH   2   3
ATOM      3  CG  ARG D 557     -25.833   0.205 -17.178  1.00 35.49     0.027 C 
BRANCH   3   4
ATOM      4  CD  ARG D 557     -24.730   0.412 -16.213  1.00 35.49     0.116 C 
BRANCH   4   5
ATOM      5  NE  ARG D 557     -24.904  -0.365 -15.015  1.00 35.49    -0.212 N 
ATOM      6  CZ  ARG D 557     -24.151  -1.373 -14.636  1.00 35.49     0.666 C 
ATOM      7  NH1 ARG D 557     -23.126  -1.800 -15.351  1.00 35.49    -0.235 N 
ATOM      8  NH2 ARG D 557     -24.443  -1.950 -13.506  1.00 35.49    -0.235 N 
ATOM      9  HH  ARG D 557     -22.915  -1.434 -16.096  1.00 35.49     0.174 HD
ATOM     10  HH  ARG D 557     -22.669  -2.461 -15.052  1.00 35.49     0.174 HD
ATOM     11  HH  ARG D 557     -25.105  -1.648 -13.062  1.00 35.49     0.174 HD
ATOM     12  HH  ARG D 557     -23.977  -2.601 -13.227  1.00 35.49     0.174 HD
ATOM     13  HE  ARG D 557     -25.585  -0.205 -14.530  1.00 35.49     0.178 HD
ENDBRANCH   4   5
ENDBRANCH   3   4
ENDBRANCH   2   3
ENDBRANCH   1   2
END_RES ARG D 557
BEGIN_RES GLU D 570
REMARK  3 active torsions:
REMARK  status: ('A' for Active; 'I' for Inactive)
REMARK    5  A    between atoms: CA   and  CB  
REMARK    6  A    between atoms: CB   and  CG  
REMARK    7  A    between atoms: CG   and  CD  
ROOT
ATOM     14  CA  GLU D 570     -18.033  -6.348 -13.375  1.00 32.92     0.160 C 
ENDROOT
BRANCH  14  15
ATOM     15  CB  GLU D 570     -19.500  -6.345 -13.794  1.00 32.92     0.043 C 
BRANCH  15  16
ATOM     16  CG  GLU D 570     -19.803  -6.080 -15.224  1.00 32.92     0.100 C 
BRANCH  16  17
ATOM     17  CD  GLU D 570     -21.272  -5.834 -15.480  1.00 32.92     0.185 C 
ATOM     18  OE1 GLU D 570     -22.070  -6.786 -15.388  1.00 32.92    -0.647 OA
ATOM     19  OE2 GLU D 570     -21.625  -4.679 -15.791  1.00 32.92    -0.647 OA
ENDBRANCH  16  17
ENDBRANCH  15  16
ENDBRANCH  14  15
END_RES GLU D 570
ENDMDL
