MODEL 1
REMARK VINA RESULT:      -7.3      0.000      0.000
REMARK  16 active torsions:
REMARK  status: ('A' for Active; 'I' for Inactive)
REMARK    1  A    between atoms: C_2  and  C_3 
REMARK    2  A    between atoms: C_3  and  C_4 
REMARK    3  A    between atoms: C_4  and  C_5 
REMARK    4  A    between atoms: C_5  and  C_6 
REMARK    5  A    between atoms: C_6  and  C_7 
REMARK    6  A    between atoms: C_7  and  C_8 
REMARK    7  A    between atoms: C_8  and  C_9 
REMARK    8  A    between atoms: C_9  and  C_10 
REMARK    9  A    between atoms: C_10  and  C_11 
REMARK   10  A    between atoms: C_11  and  C_12 
REMARK   11  A    between atoms: C_12  and  N_13 
REMARK   12  A    between atoms: N_13  and  C_16 
REMARK   13  A    between atoms: C_16  and  C_17 
REMARK   14  A    between atoms: C_17  and  C_18 
REMARK   15  A    between atoms: C_17  and  O_23 
REMARK   16  A    between atoms: C_18  and  S_19 
ROOT
HETATM    1  C   UNL     1     -22.957  -4.298  -8.444  1.00  0.00     0.236 C 
ENDROOT
BRANCH   1   2
HETATM    2  C   UNL     1     -21.444  -4.130  -8.515  1.00  0.00     0.028 C 
BRANCH   2   3
HETATM    3  C   UNL     1     -20.851  -3.657  -7.201  1.00  0.00     0.002 C 
BRANCH   3   4
HETATM    4  C   UNL     1     -19.992  -4.786  -6.646  1.00  0.00     0.000 C 
BRANCH   4   5
HETATM    5  C   UNL     1     -20.486  -5.217  -5.284  1.00  0.00     0.000 C 
BRANCH   5   6
HETATM    6  C   UNL     1     -21.587  -6.255  -5.431  1.00  0.00     0.000 C 
BRANCH   6   7
HETATM    7  C   UNL     1     -21.817  -6.923  -4.090  1.00  0.00     0.000 C 
BRANCH   7   8
HETATM    8  C   UNL     1     -21.426  -6.004  -2.946  1.00  0.00     0.000 C 
BRANCH   8   9
HETATM    9  C   UNL     1     -22.137  -6.446  -1.674  1.00  0.00     0.000 C 
BRANCH   9  10
HETATM   10  C   UNL     1     -21.964  -7.941  -1.454  1.00  0.00    -0.000 C 
BRANCH  10  11
HETATM   11  C   UNL     1     -21.177  -8.209  -0.177  1.00  0.00    -0.005 C 
HETATM   12  C   UNL     1     -22.065  -8.058   1.044  1.00  0.00     0.005 C 
ENDBRANCH  10  11
ENDBRANCH   9  10
ENDBRANCH   8   9
ENDBRANCH   7   8
ENDBRANCH   6   7
ENDBRANCH   5   6
ENDBRANCH   4   5
ENDBRANCH   3   4
ENDBRANCH   2   3
ENDBRANCH   1   2
BRANCH   1  13
HETATM   13  N   UNL     1     -23.609  -4.009  -9.818  1.00  0.00    -0.072 N 
HETATM   14  C   UNL     1     -23.917  -5.356 -10.485  1.00  0.00     0.272 C 
HETATM   15  C   UNL     1     -24.882  -3.195  -9.667  1.00  0.00     0.272 C 
BRANCH  13  16
HETATM   16  C   UNL     1     -22.600  -3.289 -10.769  1.00  0.00     0.269 C 
BRANCH  16  17
HETATM   17  C   UNL     1     -22.866  -3.332 -12.294  1.00  0.00     0.160 C 
BRANCH  17  18
HETATM   18  C   UNL     1     -23.506  -2.134 -12.985  1.00  0.00     0.198 C 
BRANCH  18  19
HETATM   19  S   UNL     1     -23.952  -2.476 -14.652  1.00  0.00     0.104 S 
HETATM   20  O   UNL     1     -22.716  -2.252 -15.379  1.00  0.00    -0.595 OA
HETATM   21  O   UNL     1     -24.386  -3.873 -14.589  1.00  0.00    -0.595 OA
HETATM   22  O   UNL     1     -25.033  -1.519 -14.870  1.00  0.00    -0.595 OA
ENDBRANCH  18  19
ENDBRANCH  17  18
BRANCH  17  23
HETATM   23  O   UNL     1     -21.622  -3.674 -12.941  1.00  0.00    -0.393 OA
HETATM   24  H   UNL     1     -21.624  -3.215 -13.824  1.00  0.00     0.210 HD
ENDBRANCH  17  23
ENDBRANCH  16  17
ENDBRANCH  13  16
ENDBRANCH   1  13
TORSDOF 16
BEGIN_RES ARG D 557
REMARK  4 active torsions:
REMARK  status: ('A' for Active; 'I' for Inactive)
REMARK    1  A    between atoms: CA   and  CB  
REMARK    2  A    between atoms: CB   and  CG  
REMARK    3  A    between atoms: CG   and  CD  
REMARK    4  A    between atoms: CD   and  NE  
REMARK       I    between atoms: NE   and  CZ  
REMARK       I    between atoms: CZ   and  NH1 
REMARK       I    between atoms: CZ   and  NH2 
ROOT
ATOM      1  CA  ARG D 557     -26.217   2.705 -17.014  1.00 35.49     0.159 C 
ENDROOT
BRANCH   1   2
ATOM      2  CB  ARG D 557     -26.789   1.319 -17.183  1.00 35.49     0.034 C 
BRANCH   2   3
ATOM      3  CG  ARG D 557     -28.226   1.228 -17.469  1.00 35.49     0.027 C 
BRANCH   3   4
ATOM      4  CD  ARG D 557     -28.935   0.340 -16.519  1.00 35.49     0.116 C 
BRANCH   4   5
ATOM      5  NE  ARG D 557     -29.309  -0.912 -17.122  1.00 35.49    -0.212 N 
ATOM      6  CZ  ARG D 557     -28.651  -2.045 -17.011  1.00 35.49     0.666 C 
ATOM      7  NH1 ARG D 557     -27.531  -2.150 -16.320  1.00 35.49    -0.235 N 
ATOM      8  NH2 ARG D 557     -29.148  -3.088 -17.609  1.00 35.49    -0.235 N 
ATOM      9  HH  ARG D 557     -27.188  -1.477 -15.916  1.00 35.49     0.174 HD
ATOM     10  HH  ARG D 557     -27.148  -2.915 -16.280  1.00 35.49     0.174 HD
ATOM     11  HH  ARG D 557     -29.877  -2.992 -18.042  1.00 35.49     0.174 HD
ATOM     12  HH  ARG D 557     -28.755  -3.837 -17.557  1.00 35.49     0.174 HD
ATOM     13  HE  ARG D 557     -29.979  -0.919 -17.645  1.00 35.49     0.178 HD
ENDBRANCH   4   5
ENDBRANCH   3   4
ENDBRANCH   2   3
ENDBRANCH   1   2
END_RES ARG D 557
BEGIN_RES GLU D 570
REMARK  3 active torsions:
REMARK  status: ('A' for Active; 'I' for Inactive)
REMARK    5  A    between atoms: CA   and  CB  
REMARK    6  A    between atoms: CB   and  CG  
REMARK    7  A    between atoms: CG   and  CD  
ROOT
ATOM     14  CA  GLU D 570     -18.033  -6.348 -13.375  1.00 32.92     0.160 C 
ENDROOT
BRANCH  14  15
ATOM     15  CB  GLU D 570     -19.500  -6.345 -13.794  1.00 32.92     0.043 C 
BRANCH  15  16
ATOM     16  CG  GLU D 570     -19.802  -6.106 -15.229  1.00 32.92     0.100 C 
BRANCH  16  17
ATOM     17  CD  GLU D 570     -21.258  -5.794 -15.481  1.00 32.92     0.185 C 
ATOM     18  OE1 GLU D 570     -21.574  -5.172 -16.514  1.00 32.92    -0.647 OA
ATOM     19  OE2 GLU D 570     -22.091  -6.161 -14.629  1.00 32.92    -0.647 OA
ENDBRANCH  16  17
ENDBRANCH  15  16
ENDBRANCH  14  15
END_RES GLU D 570
ENDMDL
MODEL 2
REMARK VINA RESULT:      -7.2      1.800      2.698
REMARK  16 active torsions:
REMARK  status: ('A' for Active; 'I' for Inactive)
REMARK    1  A    between atoms: C_2  and  C_3 
REMARK    2  A    between atoms: C_3  and  C_4 
REMARK    3  A    between atoms: C_4  and  C_5 
REMARK    4  A    between atoms: C_5  and  C_6 
REMARK    5  A    between atoms: C_6  and  C_7 
REMARK    6  A    between atoms: C_7  and  C_8 
REMARK    7  A    between atoms: C_8  and  C_9 
REMARK    8  A    between atoms: C_9  and  C_10 
REMARK    9  A    between atoms: C_10  and  C_11 
REMARK   10  A    between atoms: C_11  and  C_12 
REMARK   11  A    between atoms: C_12  and  N_13 
REMARK   12  A    between atoms: N_13  and  C_16 
REMARK   13  A    between atoms: C_16  and  C_17 
REMARK   14  A    between atoms: C_17  and  C_18 
REMARK   15  A    between atoms: C_17  and  O_23 
REMARK   16  A    between atoms: C_18  and  S_19 
ROOT
HETATM    1  C   UNL     1     -22.142  -4.554 -11.351  1.00  0.00     0.236 C 
ENDROOT
BRANCH   1   2
HETATM    2  C   UNL     1     -20.816  -3.907 -10.966  1.00  0.00     0.028 C 
BRANCH   2   3
HETATM    3  C   UNL     1     -20.332  -4.348  -9.597  1.00  0.00     0.002 C 
BRANCH   3   4
HETATM    4  C   UNL     1     -21.501  -4.223  -8.629  1.00  0.00     0.000 C 
BRANCH   4   5
HETATM    5  C   UNL     1     -21.022  -3.802  -7.258  1.00  0.00     0.000 C 
BRANCH   5   6
HETATM    6  C   UNL     1     -20.132  -4.881  -6.661  1.00  0.00     0.000 C 
BRANCH   6   7
HETATM    7  C   UNL     1     -20.930  -6.164  -6.537  1.00  0.00     0.000 C 
BRANCH   7   8
HETATM    8  C   UNL     1     -21.830  -6.134  -5.315  1.00  0.00     0.000 C 
BRANCH   8   9
HETATM    9  C   UNL     1     -21.110  -6.781  -4.139  1.00  0.00     0.000 C 
BRANCH   9  10
HETATM   10  C   UNL     1     -21.713  -6.320  -2.821  1.00  0.00    -0.000 C 
BRANCH  10  11
HETATM   11  C   UNL     1     -21.512  -7.377  -1.740  1.00  0.00    -0.005 C 
HETATM   12  C   UNL     1     -22.460  -7.145  -0.578  1.00  0.00     0.005 C 
ENDBRANCH  10  11
ENDBRANCH   9  10
ENDBRANCH   8   9
ENDBRANCH   7   8
ENDBRANCH   6   7
ENDBRANCH   5   6
ENDBRANCH   4   5
ENDBRANCH   3   4
ENDBRANCH   2   3
ENDBRANCH   1   2
BRANCH   1  13
HETATM   13  N   UNL     1     -23.134  -3.496 -11.893  1.00  0.00    -0.072 N 
HETATM   14  C   UNL     1     -24.266  -3.345 -10.869  1.00  0.00     0.272 C 
HETATM   15  C   UNL     1     -22.450  -2.160 -12.120  1.00  0.00     0.272 C 
BRANCH  13  16
HETATM   16  C   UNL     1     -23.818  -4.000 -13.205  1.00  0.00     0.269 C 
BRANCH  16  17
HETATM   17  C   UNL     1     -23.103  -5.093 -14.036  1.00  0.00     0.160 C 
BRANCH  17  18
HETATM   18  C   UNL     1     -23.789  -6.434 -14.272  1.00  0.00     0.198 C 
BRANCH  18  19
HETATM   19  S   UNL     1     -24.835  -6.416 -15.687  1.00  0.00     0.104 S 
HETATM   20  O   UNL     1     -23.908  -6.598 -16.788  1.00  0.00    -0.595 OA
HETATM   21  O   UNL     1     -25.730  -7.548 -15.440  1.00  0.00    -0.595 OA
HETATM   22  O   UNL     1     -25.472  -5.107 -15.565  1.00  0.00    -0.595 OA
ENDBRANCH  18  19
ENDBRANCH  17  18
BRANCH  17  23
HETATM   23  O   UNL     1     -22.722  -4.500 -15.295  1.00  0.00    -0.393 OA
HETATM   24  H   UNL     1     -21.783  -4.189 -15.191  1.00  0.00     0.210 HD
ENDBRANCH  17  23
ENDBRANCH  16  17
ENDBRANCH  13  16
ENDBRANCH   1  13
TORSDOF 16
BEGIN_RES ARG D 557
REMARK  4 active torsions:
REMARK  status: ('A' for Active; 'I' for Inactive)
REMARK    1  A    between atoms: CA   and  CB  
REMARK    2  A    between atoms: CB   and  CG  
REMARK    3  A    between atoms: CG   and  CD  
REMARK    4  A    between atoms: CD   and  NE  
REMARK       I    between atoms: NE   and  CZ  
REMARK       I    between atoms: CZ   and  NH1 
REMARK       I    between atoms: CZ   and  NH2 
ROOT
ATOM      1  CA  ARG D 557     -26.217   2.705 -17.014  1.00 35.49     0.159 C 
ENDROOT
BRANCH   1   2
ATOM      2  CB  ARG D 557     -26.789   1.319 -17.183  1.00 35.49     0.034 C 
BRANCH   2   3
ATOM      3  CG  ARG D 557     -28.229   1.227 -17.451  1.00 35.49     0.027 C 
BRANCH   3   4
ATOM      4  CD  ARG D 557     -28.918   0.304 -16.520  1.00 35.49     0.116 C 
BRANCH   4   5
ATOM      5  NE  ARG D 557     -28.130  -0.866 -16.234  1.00 35.49    -0.212 N 
ATOM      6  CZ  ARG D 557     -28.350  -2.074 -16.705  1.00 35.49     0.666 C 
ATOM      7  NH1 ARG D 557     -29.362  -2.350 -17.506  1.00 35.49    -0.235 N 
ATOM      8  NH2 ARG D 557     -27.519  -3.013 -16.357  1.00 35.49    -0.235 N 
ATOM      9  HH  ARG D 557     -29.919  -1.746 -17.750  1.00 35.49     0.174 HD
ATOM     10  HH  ARG D 557     -29.453  -3.155 -17.784  1.00 35.49     0.174 HD
ATOM     11  HH  ARG D 557     -26.870  -2.805 -15.844  1.00 35.49     0.174 HD
ATOM     12  HH  ARG D 557     -27.626  -3.804 -16.644  1.00 35.49     0.174 HD
ATOM     13  HE  ARG D 557     -27.500  -0.795 -15.668  1.00 35.49     0.178 HD
ENDBRANCH   4   5
ENDBRANCH   3   4
ENDBRANCH   2   3
ENDBRANCH   1   2
END_RES ARG D 557
BEGIN_RES GLU D 570
REMARK  3 active torsions:
REMARK  status: ('A' for Active; 'I' for Inactive)
REMARK    5  A    between atoms: CA   and  CB  
REMARK    6  A    between atoms: CB   and  CG  
REMARK    7  A    between atoms: CG   and  CD  
ROOT
ATOM     14  CA  GLU D 570     -18.033  -6.348 -13.375  1.00 32.92     0.160 C 
ENDROOT
BRANCH  14  15
ATOM     15  CB  GLU D 570     -19.500  -6.345 -13.794  1.00 32.92     0.043 C 
BRANCH  15  16
ATOM     16  CG  GLU D 570     -20.081  -7.630 -14.261  1.00 32.92     0.100 C 
BRANCH  16  17
ATOM     17  CD  GLU D 570     -20.657  -7.544 -15.656  1.00 32.92     0.185 C 
ATOM     18  OE1 GLU D 570     -21.152  -8.565 -16.170  1.00 32.92    -0.647 OA
ATOM     19  OE2 GLU D 570     -20.597  -6.447 -16.246  1.00 32.92    -0.647 OA
ENDBRANCH  16  17
ENDBRANCH  15  16
ENDBRANCH  14  15
END_RES GLU D 570
ENDMDL
MODEL 3
REMARK VINA RESULT:      -6.7      1.960      3.059
REMARK  16 active torsions:
REMARK  status: ('A' for Active; 'I' for Inactive)
REMARK    1  A    between atoms: C_2  and  C_3 
REMARK    2  A    between atoms: C_3  and  C_4 
REMARK    3  A    between atoms: C_4  and  C_5 
REMARK    4  A    between atoms: C_5  and  C_6 
REMARK    5  A    between atoms: C_6  and  C_7 
REMARK    6  A    between atoms: C_7  and  C_8 
REMARK    7  A    between atoms: C_8  and  C_9 
REMARK    8  A    between atoms: C_9  and  C_10 
REMARK    9  A    between atoms: C_10  and  C_11 
REMARK   10  A    between atoms: C_11  and  C_12 
REMARK   11  A    between atoms: C_12  and  N_13 
REMARK   12  A    between atoms: N_13  and  C_16 
REMARK   13  A    between atoms: C_16  and  C_17 
REMARK   14  A    between atoms: C_17  and  C_18 
REMARK   15  A    between atoms: C_17  and  O_23 
REMARK   16  A    between atoms: C_18  and  S_19 
ROOT
HETATM    1  C   UNL     1     -20.234  -5.697  -7.723  1.00  0.00     0.236 C 
ENDROOT
BRANCH   1   2
HETATM    2  C   UNL     1     -20.022  -5.503  -6.226  1.00  0.00     0.028 C 
BRANCH   2   3
HETATM    3  C   UNL     1     -20.531  -6.678  -5.412  1.00  0.00     0.002 C 
BRANCH   3   4
HETATM    4  C   UNL     1     -21.541  -6.143  -4.406  1.00  0.00     0.000 C 
BRANCH   4   5
HETATM    5  C   UNL     1     -21.498  -6.942  -3.123  1.00  0.00     0.000 C 
BRANCH   5   6
HETATM    6  C   UNL     1     -22.035  -6.109  -1.970  1.00  0.00     0.000 C 
BRANCH   6   7
HETATM    7  C   UNL     1     -22.353  -7.027  -0.806  1.00  0.00     0.000 C 
BRANCH   7   8
HETATM    8  C   UNL     1     -21.660  -8.369  -0.961  1.00  0.00     0.000 C 
BRANCH   8   9
HETATM    9  C   UNL     1     -22.081  -9.292   0.175  1.00  0.00     0.000 C 
BRANCH   9  10
HETATM   10  C   UNL     1     -23.590  -9.485   0.179  1.00  0.00    -0.000 C 
BRANCH  10  11
HETATM   11  C   UNL     1     -23.944 -10.957  -0.002  1.00  0.00    -0.005 C 
HETATM   12  C   UNL     1     -23.826 -11.363  -1.459  1.00  0.00     0.005 C 
ENDBRANCH  10  11
ENDBRANCH   9  10
ENDBRANCH   8   9
ENDBRANCH   7   8
ENDBRANCH   6   7
ENDBRANCH   5   6
ENDBRANCH   4   5
ENDBRANCH   3   4
ENDBRANCH   2   3
ENDBRANCH   1   2
BRANCH   1  13
HETATM   13  N   UNL     1     -21.020  -4.507  -8.327  1.00  0.00    -0.072 N 
HETATM   14  C   UNL     1     -21.134  -3.423  -7.248  1.00  0.00     0.272 C 
HETATM   15  C   UNL     1     -20.325  -3.952  -9.558  1.00  0.00     0.272 C 
BRANCH  13  16
HETATM   16  C   UNL     1     -22.488  -4.926  -8.660  1.00  0.00     0.269 C 
BRANCH  16  17
HETATM   17  C   UNL     1     -23.288  -4.068  -9.671  1.00  0.00     0.160 C 
BRANCH  17  18
HETATM   18  C   UNL     1     -23.646  -4.643 -11.036  1.00  0.00     0.198 C 
BRANCH  18  19
HETATM   19  S   UNL     1     -24.005  -3.392 -12.221  1.00  0.00     0.104 S 
HETATM   20  O   UNL     1     -22.910  -2.454 -12.054  1.00  0.00    -0.595 OA
HETATM   21  O   UNL     1     -23.996  -4.133 -13.483  1.00  0.00    -0.595 OA
HETATM   22  O   UNL     1     -25.329  -2.951 -11.791  1.00  0.00    -0.595 OA
ENDBRANCH  18  19
ENDBRANCH  17  18
BRANCH  17  23
HETATM   23  O   UNL     1     -24.478  -3.603  -8.998  1.00  0.00    -0.393 OA
HETATM   24  H   UNL     1     -24.539  -4.111  -8.145  1.00  0.00     0.210 HD
ENDBRANCH  17  23
ENDBRANCH  16  17
ENDBRANCH  13  16
ENDBRANCH   1  13
TORSDOF 16
BEGIN_RES ARG D 557
REMARK  4 active torsions:
REMARK  status: ('A' for Active; 'I' for Inactive)
REMARK    1  A    between atoms: CA   and  CB  
REMARK    2  A    between atoms: CB   and  CG  
REMARK    3  A    between atoms: CG   and  CD  
REMARK    4  A    between atoms: CD   and  NE  
REMARK       I    between atoms: NE   and  CZ  
REMARK       I    between atoms: CZ   and  NH1 
REMARK       I    between atoms: CZ   and  NH2 
ROOT
ATOM      1  CA  ARG D 557     -26.217   2.705 -17.014  1.00 35.49     0.159 C 
ENDROOT
BRANCH   1   2
ATOM      2  CB  ARG D 557     -26.789   1.319 -17.183  1.00 35.49     0.034 C 
BRANCH   2   3
ATOM      3  CG  ARG D 557     -28.193   1.132 -16.798  1.00 35.49     0.027 C 
BRANCH   3   4
ATOM      4  CD  ARG D 557     -28.522  -0.287 -16.533  1.00 35.49     0.116 C 
BRANCH   4   5
ATOM      5  NE  ARG D 557     -27.460  -0.969 -15.840  1.00 35.49    -0.212 N 
ATOM      6  CZ  ARG D 557     -27.213  -2.259 -15.893  1.00 35.49     0.666 C 
ATOM      7  NH1 ARG D 557     -27.950  -3.094 -16.602  1.00 35.49    -0.235 N 
ATOM      8  NH2 ARG D 557     -26.194  -2.703 -15.217  1.00 35.49    -0.235 N 
ATOM      9  HH  ARG D 557     -28.624  -2.823 -17.057  1.00 35.49     0.174 HD
ATOM     10  HH  ARG D 557     -27.739  -3.924 -16.601  1.00 35.49     0.174 HD
ATOM     11  HH  ARG D 557     -25.731  -2.139 -14.774  1.00 35.49     0.174 HD
ATOM     12  HH  ARG D 557     -26.001  -3.528 -15.229  1.00 35.49     0.174 HD
ATOM     13  HE  ARG D 557     -26.980  -0.518 -15.302  1.00 35.49     0.178 HD
ENDBRANCH   4   5
ENDBRANCH   3   4
ENDBRANCH   2   3
ENDBRANCH   1   2
END_RES ARG D 557
BEGIN_RES GLU D 570
REMARK  3 active torsions:
REMARK  status: ('A' for Active; 'I' for Inactive)
REMARK    5  A    between atoms: CA   and  CB  
REMARK    6  A    between atoms: CB   and  CG  
REMARK    7  A    between atoms: CG   and  CD  
ROOT
ATOM     14  CA  GLU D 570     -18.033  -6.348 -13.375  1.00 32.92     0.160 C 
ENDROOT
BRANCH  14  15
ATOM     15  CB  GLU D 570     -19.500  -6.345 -13.794  1.00 32.92     0.043 C 
BRANCH  15  16
ATOM     16  CG  GLU D 570     -19.796  -6.361 -15.250  1.00 32.92     0.100 C 
BRANCH  16  17
ATOM     17  CD  GLU D 570     -20.927  -7.296 -15.611  1.00 32.92     0.185 C 
ATOM     18  OE1 GLU D 570     -22.061  -6.823 -15.817  1.00 32.92    -0.647 OA
ATOM     19  OE2 GLU D 570     -20.680  -8.516 -15.673  1.00 32.92    -0.647 OA
ENDBRANCH  16  17
ENDBRANCH  15  16
ENDBRANCH  14  15
END_RES GLU D 570
ENDMDL
MODEL 4
REMARK VINA RESULT:      -6.4      2.559      4.135
REMARK  16 active torsions:
REMARK  status: ('A' for Active; 'I' for Inactive)
REMARK    1  A    between atoms: C_2  and  C_3 
REMARK    2  A    between atoms: C_3  and  C_4 
REMARK    3  A    between atoms: C_4  and  C_5 
REMARK    4  A    between atoms: C_5  and  C_6 
REMARK    5  A    between atoms: C_6  and  C_7 
REMARK    6  A    between atoms: C_7  and  C_8 
REMARK    7  A    between atoms: C_8  and  C_9 
REMARK    8  A    between atoms: C_9  and  C_10 
REMARK    9  A    between atoms: C_10  and  C_11 
REMARK   10  A    between atoms: C_11  and  C_12 
REMARK   11  A    between atoms: C_12  and  N_13 
REMARK   12  A    between atoms: N_13  and  C_16 
REMARK   13  A    between atoms: C_16  and  C_17 
REMARK   14  A    between atoms: C_17  and  C_18 
REMARK   15  A    between atoms: C_17  and  O_23 
REMARK   16  A    between atoms: C_18  and  S_19 
ROOT
HETATM    1  C   UNL     1     -20.819  -5.038  -5.762  1.00  0.00     0.236 C 
ENDROOT
BRANCH   1   2
HETATM    2  C   UNL     1     -20.981  -6.554  -5.725  1.00  0.00     0.028 C 
BRANCH   2   3
HETATM    3  C   UNL     1     -22.062  -6.997  -4.756  1.00  0.00     0.002 C 
BRANCH   3   4
HETATM    4  C   UNL     1     -21.418  -7.157  -3.385  1.00  0.00     0.000 C 
BRANCH   4   5
HETATM    5  C   UNL     1     -21.942  -6.116  -2.420  1.00  0.00     0.000 C 
BRANCH   5   6
HETATM    6  C   UNL     1     -22.301  -6.767  -1.094  1.00  0.00     0.000 C 
BRANCH   6   7
HETATM    7  C   UNL     1     -21.304  -7.872  -0.802  1.00  0.00     0.000 C 
BRANCH   7   8
HETATM    8  C   UNL     1     -21.738  -8.700   0.395  1.00  0.00     0.000 C 
BRANCH   8   9
HETATM    9  C   UNL     1     -23.171  -9.171   0.192  1.00  0.00     0.000 C 
BRANCH   9  10
HETATM   10  C   UNL     1     -23.215 -10.378  -0.734  1.00  0.00    -0.000 C 
BRANCH  10  11
HETATM   11  C   UNL     1     -23.967 -11.530  -0.078  1.00  0.00    -0.005 C 
HETATM   12  C   UNL     1     -23.003 -12.480   0.609  1.00  0.00     0.005 C 
ENDBRANCH  10  11
ENDBRANCH   9  10
ENDBRANCH   8   9
ENDBRANCH   7   8
ENDBRANCH   6   7
ENDBRANCH   5   6
ENDBRANCH   4   5
ENDBRANCH   3   4
ENDBRANCH   2   3
ENDBRANCH   1   2
BRANCH   1  13
HETATM   13  N   UNL     1     -20.816  -4.521  -7.221  1.00  0.00    -0.072 N 
HETATM   14  C   UNL     1     -21.167  -3.027  -7.191  1.00  0.00     0.272 C 
HETATM   15  C   UNL     1     -19.464  -4.729  -7.880  1.00  0.00     0.272 C 
BRANCH  13  16
HETATM   16  C   UNL     1     -21.950  -5.202  -8.053  1.00  0.00     0.269 C 
BRANCH  16  17
HETATM   17  C   UNL     1     -22.809  -4.319  -8.991  1.00  0.00     0.160 C 
BRANCH  17  18
HETATM   18  C   UNL     1     -23.115  -4.792 -10.407  1.00  0.00     0.198 C 
BRANCH  18  19
HETATM   19  S   UNL     1     -22.048  -4.070 -11.605  1.00  0.00     0.104 S 
HETATM   20  O   UNL     1     -22.531  -4.625 -12.856  1.00  0.00    -0.595 OA
HETATM   21  O   UNL     1     -22.292  -2.637 -11.431  1.00  0.00    -0.595 OA
HETATM   22  O   UNL     1     -20.738  -4.518 -11.141  1.00  0.00    -0.595 OA
ENDBRANCH  18  19
ENDBRANCH  17  18
BRANCH  17  23
HETATM   23  O   UNL     1     -24.033  -4.009  -8.293  1.00  0.00    -0.393 OA
HETATM   24  H   UNL     1     -24.437  -3.228  -8.758  1.00  0.00     0.210 HD
ENDBRANCH  17  23
ENDBRANCH  16  17
ENDBRANCH  13  16
ENDBRANCH   1  13
TORSDOF 16
BEGIN_RES ARG D 557
REMARK  4 active torsions:
REMARK  status: ('A' for Active; 'I' for Inactive)
REMARK    1  A    between atoms: CA   and  CB  
REMARK    2  A    between atoms: CB   and  CG  
REMARK    3  A    between atoms: CG   and  CD  
REMARK    4  A    between atoms: CD   and  NE  
REMARK       I    between atoms: NE   and  CZ  
REMARK       I    between atoms: CZ   and  NH1 
REMARK       I    between atoms: CZ   and  NH2 
ROOT
ATOM      1  CA  ARG D 557     -26.217   2.705 -17.014  1.00 35.49     0.159 C 
ENDROOT
BRANCH   1   2
ATOM      2  CB  ARG D 557     -26.789   1.319 -17.183  1.00 35.49     0.034 C 
BRANCH   2   3
ATOM      3  CG  ARG D 557     -25.835   0.203 -17.160  1.00 35.49     0.027 C 
BRANCH   3   4
ATOM      4  CD  ARG D 557     -24.762   0.399 -16.159  1.00 35.49     0.116 C 
BRANCH   4   5
ATOM      5  NE  ARG D 557     -24.914  -0.470 -15.023  1.00 35.49    -0.212 N 
ATOM      6  CZ  ARG D 557     -24.084  -1.427 -14.671  1.00 35.49     0.666 C 
ATOM      7  NH1 ARG D 557     -22.993  -1.707 -15.358  1.00 35.49    -0.235 N 
ATOM      8  NH2 ARG D 557     -24.370  -2.104 -13.597  1.00 35.49    -0.235 N 
ATOM      9  HH  ARG D 557     -22.784  -1.273 -16.067  1.00 35.49     0.174 HD
ATOM     10  HH  ARG D 557     -22.487  -2.341 -15.079  1.00 35.49     0.174 HD
ATOM     11  HH  ARG D 557     -25.077  -1.896 -13.169  1.00 35.49     0.174 HD
ATOM     12  HH  ARG D 557     -23.856  -2.726 -13.336  1.00 35.49     0.174 HD
ATOM     13  HE  ARG D 557     -25.628  -0.407 -14.565  1.00 35.49     0.178 HD
ENDBRANCH   4   5
ENDBRANCH   3   4
ENDBRANCH   2   3
ENDBRANCH   1   2
END_RES ARG D 557
BEGIN_RES GLU D 570
REMARK  3 active torsions:
REMARK  status: ('A' for Active; 'I' for Inactive)
REMARK    5  A    between atoms: CA   and  CB  
REMARK    6  A    between atoms: CB   and  CG  
REMARK    7  A    between atoms: CG   and  CD  
ROOT
ATOM     14  CA  GLU D 570     -18.033  -6.348 -13.375  1.00 32.92     0.160 C 
ENDROOT
BRANCH  14  15
ATOM     15  CB  GLU D 570     -19.500  -6.345 -13.794  1.00 32.92     0.043 C 
BRANCH  15  16
ATOM     16  CG  GLU D 570     -19.797  -6.251 -15.247  1.00 32.92     0.100 C 
BRANCH  16  17
ATOM     17  CD  GLU D 570     -20.744  -7.326 -15.726  1.00 32.92     0.185 C 
ATOM     18  OE1 GLU D 570     -20.613  -8.486 -15.289  1.00 32.92    -0.647 OA
ATOM     19  OE2 GLU D 570     -21.615  -7.009 -16.560  1.00 32.92    -0.647 OA
ENDBRANCH  16  17
ENDBRANCH  15  16
ENDBRANCH  14  15
END_RES GLU D 570
ENDMDL
MODEL 5
REMARK VINA RESULT:      -6.3      6.201     10.328
REMARK  16 active torsions:
REMARK  status: ('A' for Active; 'I' for Inactive)
REMARK    1  A    between atoms: C_2  and  C_3 
REMARK    2  A    between atoms: C_3  and  C_4 
REMARK    3  A    between atoms: C_4  and  C_5 
REMARK    4  A    between atoms: C_5  and  C_6 
REMARK    5  A    between atoms: C_6  and  C_7 
REMARK    6  A    between atoms: C_7  and  C_8 
REMARK    7  A    between atoms: C_8  and  C_9 
REMARK    8  A    between atoms: C_9  and  C_10 
REMARK    9  A    between atoms: C_10  and  C_11 
REMARK   10  A    between atoms: C_11  and  C_12 
REMARK   11  A    between atoms: C_12  and  N_13 
REMARK   12  A    between atoms: N_13  and  C_16 
REMARK   13  A    between atoms: C_16  and  C_17 
REMARK   14  A    between atoms: C_17  and  C_18 
REMARK   15  A    between atoms: C_17  and  O_23 
REMARK   16  A    between atoms: C_18  and  S_19 
ROOT
HETATM    1  C   UNL     1     -30.792  -3.841 -17.398  1.00  0.00     0.236 C 
ENDROOT
BRANCH   1   2
HETATM    2  C   UNL     1     -31.788  -4.527 -16.470  1.00  0.00     0.028 C 
BRANCH   2   3
HETATM    3  C   UNL     1     -33.228  -4.279 -16.880  1.00  0.00     0.002 C 
BRANCH   3   4
HETATM    4  C   UNL     1     -33.981  -3.784 -15.652  1.00  0.00     0.000 C 
BRANCH   4   5
HETATM    5  C   UNL     1     -33.533  -4.524 -14.412  1.00  0.00     0.000 C 
BRANCH   5   6
HETATM    6  C   UNL     1     -34.116  -3.866 -13.172  1.00  0.00     0.000 C 
BRANCH   6   7
HETATM    7  C   UNL     1     -33.052  -3.821 -12.092  1.00  0.00     0.000 C 
BRANCH   7   8
HETATM    8  C   UNL     1     -33.635  -4.166 -10.733  1.00  0.00     0.000 C 
BRANCH   8   9
HETATM    9  C   UNL     1     -34.749  -5.190 -10.905  1.00  0.00     0.000 C 
BRANCH   9  10
HETATM   10  C   UNL     1     -34.657  -6.268  -9.835  1.00  0.00    -0.000 C 
BRANCH  10  11
HETATM   11  C   UNL     1     -34.813  -7.653 -10.453  1.00  0.00    -0.005 C 
HETATM   12  C   UNL     1     -33.918  -8.658  -9.752  1.00  0.00     0.005 C 
ENDBRANCH  10  11
ENDBRANCH   9  10
ENDBRANCH   8   9
ENDBRANCH   7   8
ENDBRANCH   6   7
ENDBRANCH   5   6
ENDBRANCH   4   5
ENDBRANCH   3   4
ENDBRANCH   2   3
ENDBRANCH   1   2
BRANCH   1  13
HETATM   13  N   UNL     1     -29.412  -4.540 -17.337  1.00  0.00    -0.072 N 
HETATM   14  C   UNL     1     -29.052  -4.995 -18.758  1.00  0.00     0.272 C 
HETATM   15  C   UNL     1     -28.341  -3.607 -16.798  1.00  0.00     0.272 C 
BRANCH  13  16
HETATM   16  C   UNL     1     -29.489  -5.847 -16.484  1.00  0.00     0.269 C 
BRANCH  16  17
HETATM   17  C   UNL     1     -28.383  -6.915 -16.670  1.00  0.00     0.160 C 
BRANCH  17  18
HETATM   18  C   UNL     1     -27.301  -7.077 -15.610  1.00  0.00     0.198 C 
BRANCH  18  19
HETATM   19  S   UNL     1     -25.707  -6.618 -16.199  1.00  0.00     0.104 S 
HETATM   20  O   UNL     1     -24.907  -7.802 -15.945  1.00  0.00    -0.595 OA
HETATM   21  O   UNL     1     -25.956  -6.334 -17.613  1.00  0.00    -0.595 OA
HETATM   22  O   UNL     1     -25.422  -5.437 -15.389  1.00  0.00    -0.595 OA
ENDBRANCH  18  19
ENDBRANCH  17  18
BRANCH  17  23
HETATM   23  O   UNL     1     -29.038  -8.178 -16.910  1.00  0.00    -0.393 OA
HETATM   24  H   UNL     1     -29.985  -8.067 -16.627  1.00  0.00     0.210 HD
ENDBRANCH  17  23
ENDBRANCH  16  17
ENDBRANCH  13  16
ENDBRANCH   1  13
TORSDOF 16
BEGIN_RES ARG D 557
REMARK  4 active torsions:
REMARK  status: ('A' for Active; 'I' for Inactive)
REMARK    1  A    between atoms: CA   and  CB  
REMARK    2  A    between atoms: CB   and  CG  
REMARK    3  A    between atoms: CG   and  CD  
REMARK    4  A    between atoms: CD   and  NE  
REMARK       I    between atoms: NE   and  CZ  
REMARK       I    between atoms: CZ   and  NH1 
REMARK       I    between atoms: CZ   and  NH2 
ROOT
ATOM      1  CA  ARG D 557     -26.217   2.705 -17.014  1.00 35.49     0.159 C 
ENDROOT
BRANCH   1   2
ATOM      2  CB  ARG D 557     -26.789   1.319 -17.183  1.00 35.49     0.034 C 
BRANCH   2   3
ATOM      3  CG  ARG D 557     -25.861   0.195 -17.008  1.00 35.49     0.027 C 
BRANCH   3   4
ATOM      4  CD  ARG D 557     -26.219  -0.659 -15.853  1.00 35.49     0.116 C 
BRANCH   4   5
ATOM      5  NE  ARG D 557     -25.099  -0.887 -14.979  1.00 35.49    -0.212 N 
ATOM      6  CZ  ARG D 557     -24.922  -1.943 -14.217  1.00 35.49     0.666 C 
ATOM      7  NH1 ARG D 557     -25.795  -2.932 -14.162  1.00 35.49    -0.235 N 
ATOM      8  NH2 ARG D 557     -23.835  -1.994 -13.504  1.00 35.49    -0.235 N 
ATOM      9  HH  ARG D 557     -26.516  -2.921 -14.625  1.00 35.49     0.174 HD
ATOM     10  HH  ARG D 557     -25.625  -3.597 -13.649  1.00 35.49     0.174 HD
ATOM     11  HH  ARG D 557     -23.286  -1.344 -13.565  1.00 35.49     0.174 HD
ATOM     12  HH  ARG D 557     -23.684  -2.661 -13.002  1.00 35.49     0.174 HD
ATOM     13  HE  ARG D 557     -24.523  -0.267 -14.897  1.00 35.49     0.178 HD
ENDBRANCH   4   5
ENDBRANCH   3   4
ENDBRANCH   2   3
ENDBRANCH   1   2
END_RES ARG D 557
BEGIN_RES GLU D 570
REMARK  3 active torsions:
REMARK  status: ('A' for Active; 'I' for Inactive)
REMARK    5  A    between atoms: CA   and  CB  
REMARK    6  A    between atoms: CB   and  CG  
REMARK    7  A    between atoms: CG   and  CD  
ROOT
ATOM     14  CA  GLU D 570     -18.033  -6.348 -13.375  1.00 32.92     0.160 C 
ENDROOT
BRANCH  14  15
ATOM     15  CB  GLU D 570     -19.500  -6.345 -13.794  1.00 32.92     0.043 C 
BRANCH  15  16
ATOM     16  CG  GLU D 570     -20.445  -5.546 -12.972  1.00 32.92     0.100 C 
BRANCH  16  17
ATOM     17  CD  GLU D 570     -21.743  -5.250 -13.686  1.00 32.92     0.185 C 
ATOM     18  OE1 GLU D 570     -22.633  -4.617 -13.087  1.00 32.92    -0.647 OA
ATOM     19  OE2 GLU D 570     -21.878  -5.671 -14.852  1.00 32.92    -0.647 OA
ENDBRANCH  16  17
ENDBRANCH  15  16
ENDBRANCH  14  15
END_RES GLU D 570
ENDMDL
MODEL 6
REMARK VINA RESULT:      -6.2      3.764      6.226
REMARK  16 active torsions:
REMARK  status: ('A' for Active; 'I' for Inactive)
REMARK    1  A    between atoms: C_2  and  C_3 
REMARK    2  A    between atoms: C_3  and  C_4 
REMARK    3  A    between atoms: C_4  and  C_5 
REMARK    4  A    between atoms: C_5  and  C_6 
REMARK    5  A    between atoms: C_6  and  C_7 
REMARK    6  A    between atoms: C_7  and  C_8 
REMARK    7  A    between atoms: C_8  and  C_9 
REMARK    8  A    between atoms: C_9  and  C_10 
REMARK    9  A    between atoms: C_10  and  C_11 
REMARK   10  A    between atoms: C_11  and  C_12 
REMARK   11  A    between atoms: C_12  and  N_13 
REMARK   12  A    between atoms: N_13  and  C_16 
REMARK   13  A    between atoms: C_16  and  C_17 
REMARK   14  A    between atoms: C_17  and  C_18 
REMARK   15  A    between atoms: C_17  and  O_23 
REMARK   16  A    between atoms: C_18  and  S_19 
ROOT
HETATM    1  C   UNL     1     -20.721  -7.674  -2.775  1.00  0.00     0.236 C 
ENDROOT
BRANCH   1   2
HETATM    2  C   UNL     1     -21.694  -6.538  -2.484  1.00  0.00     0.028 C 
BRANCH   2   3
HETATM    3  C   UNL     1     -22.311  -6.644  -1.101  1.00  0.00     0.002 C 
BRANCH   3   4
HETATM    4  C   UNL     1     -21.632  -7.800  -0.378  1.00  0.00     0.000 C 
BRANCH   4   5
HETATM    5  C   UNL     1     -22.427  -8.214   0.839  1.00  0.00     0.000 C 
BRANCH   5   6
HETATM    6  C   UNL     1     -23.664  -8.990   0.416  1.00  0.00     0.000 C 
BRANCH   6   7
HETATM    7  C   UNL     1     -23.242 -10.138  -0.480  1.00  0.00     0.000 C 
BRANCH   7   8
HETATM    8  C   UNL     1     -23.711 -11.470   0.079  1.00  0.00     0.000 C 
BRANCH   8   9
HETATM    9  C   UNL     1     -22.533 -12.431   0.156  1.00  0.00     0.000 C 
BRANCH   9  10
HETATM   10  C   UNL     1     -21.316 -11.742   0.754  1.00  0.00    -0.000 C 
BRANCH  10  11
HETATM   11  C   UNL     1     -20.059 -12.092  -0.036  1.00  0.00    -0.005 C 
HETATM   12  C   UNL     1     -19.746 -11.012  -1.054  1.00  0.00     0.005 C 
ENDBRANCH  10  11
ENDBRANCH   9  10
ENDBRANCH   8   9
ENDBRANCH   7   8
ENDBRANCH   6   7
ENDBRANCH   5   6
ENDBRANCH   4   5
ENDBRANCH   3   4
ENDBRANCH   2   3
ENDBRANCH   1   2
BRANCH   1  13
HETATM   13  N   UNL     1     -20.925  -8.220  -4.209  1.00  0.00    -0.072 N 
HETATM   14  C   UNL     1     -19.540  -8.494  -4.810  1.00  0.00     0.272 C 
HETATM   15  C   UNL     1     -21.755  -9.492  -4.205  1.00  0.00     0.272 C 
BRANCH  13  16
HETATM   16  C   UNL     1     -21.575  -7.137  -5.128  1.00  0.00     0.269 C 
BRANCH  16  17
HETATM   17  C   UNL     1     -20.645  -6.229  -5.970  1.00  0.00     0.160 C 
BRANCH  17  18
HETATM   18  C   UNL     1     -21.027  -5.874  -7.402  1.00  0.00     0.198 C 
BRANCH  18  19
HETATM   19  S   UNL     1     -20.335  -4.343  -7.924  1.00  0.00     0.104 S 
HETATM   20  O   UNL     1     -18.950  -4.445  -7.503  1.00  0.00    -0.595 OA
HETATM   21  O   UNL     1     -20.543  -4.373  -9.373  1.00  0.00    -0.595 OA
HETATM   22  O   UNL     1     -21.175  -3.382  -7.215  1.00  0.00    -0.595 OA
ENDBRANCH  18  19
ENDBRANCH  17  18
BRANCH  17  23
HETATM   23  O   UNL     1     -20.404  -5.029  -5.206  1.00  0.00    -0.393 OA
HETATM   24  H   UNL     1     -20.005  -5.316  -4.341  1.00  0.00     0.210 HD
ENDBRANCH  17  23
ENDBRANCH  16  17
ENDBRANCH  13  16
ENDBRANCH   1  13
TORSDOF 16
BEGIN_RES ARG D 557
REMARK  4 active torsions:
REMARK  status: ('A' for Active; 'I' for Inactive)
REMARK    1  A    between atoms: CA   and  CB  
REMARK    2  A    between atoms: CB   and  CG  
REMARK    3  A    between atoms: CG   and  CD  
REMARK    4  A    between atoms: CD   and  NE  
REMARK       I    between atoms: NE   and  CZ  
REMARK       I    between atoms: CZ   and  NH1 
REMARK       I    between atoms: CZ   and  NH2 
ROOT
ATOM      1  CA  ARG D 557     -26.217   2.705 -17.014  1.00 35.49     0.159 C 
ENDROOT
BRANCH   1   2
ATOM      2  CB  ARG D 557     -26.789   1.319 -17.183  1.00 35.49     0.034 C 
BRANCH   2   3
ATOM      3  CG  ARG D 557     -25.841   0.200 -17.113  1.00 35.49     0.027 C 
BRANCH   3   4
ATOM      4  CD  ARG D 557     -24.766   0.433 -16.122  1.00 35.49     0.116 C 
BRANCH   4   5
ATOM      5  NE  ARG D 557     -24.862  -0.460 -14.997  1.00 35.49    -0.212 N 
ATOM      6  CZ  ARG D 557     -24.016  -1.422 -14.705  1.00 35.49     0.666 C 
ATOM      7  NH1 ARG D 557     -22.959  -1.687 -15.450  1.00 35.49    -0.235 N 
ATOM      8  NH2 ARG D 557     -24.249  -2.121 -13.632  1.00 35.49    -0.235 N 
ATOM      9  HH  ARG D 557     -22.785  -1.238 -16.159  1.00 35.49     0.174 HD
ATOM     10  HH  ARG D 557     -22.440  -2.325 -15.209  1.00 35.49     0.174 HD
ATOM     11  HH  ARG D 557     -24.935  -1.922 -13.166  1.00 35.49     0.174 HD
ATOM     12  HH  ARG D 557     -23.723  -2.747 -13.409  1.00 35.49     0.174 HD
ATOM     13  HE  ARG D 557     -25.553  -0.407 -14.504  1.00 35.49     0.178 HD
ENDBRANCH   4   5
ENDBRANCH   3   4
ENDBRANCH   2   3
ENDBRANCH   1   2
END_RES ARG D 557
BEGIN_RES GLU D 570
REMARK  3 active torsions:
REMARK  status: ('A' for Active; 'I' for Inactive)
REMARK    5  A    between atoms: CA   and  CB  
REMARK    6  A    between atoms: CB   and  CG  
REMARK    7  A    between atoms: CG   and  CD  
ROOT
ATOM     14  CA  GLU D 570     -18.033  -6.348 -13.375  1.00 32.92     0.160 C 
ENDROOT
BRANCH  14  15
ATOM     15  CB  GLU D 570     -19.500  -6.345 -13.794  1.00 32.92     0.043 C 
BRANCH  15  16
ATOM     16  CG  GLU D 570     -20.443  -5.536 -12.979  1.00 32.92     0.100 C 
BRANCH  16  17
ATOM     17  CD  GLU D 570     -21.650  -5.073 -13.761  1.00 32.92     0.185 C 
ATOM     18  OE1 GLU D 570     -21.582  -5.018 -15.004  1.00 32.92    -0.647 OA
ATOM     19  OE2 GLU D 570     -22.670  -4.747 -13.123  1.00 32.92    -0.647 OA
ENDBRANCH  16  17
ENDBRANCH  15  16
ENDBRANCH  14  15
END_RES GLU D 570
ENDMDL
MODEL 7
REMARK VINA RESULT:      -6.1      2.510      3.887
REMARK  16 active torsions:
REMARK  status: ('A' for Active; 'I' for Inactive)
REMARK    1  A    between atoms: C_2  and  C_3 
REMARK    2  A    between atoms: C_3  and  C_4 
REMARK    3  A    between atoms: C_4  and  C_5 
REMARK    4  A    between atoms: C_5  and  C_6 
REMARK    5  A    between atoms: C_6  and  C_7 
REMARK    6  A    between atoms: C_7  and  C_8 
REMARK    7  A    between atoms: C_8  and  C_9 
REMARK    8  A    between atoms: C_9  and  C_10 
REMARK    9  A    between atoms: C_10  and  C_11 
REMARK   10  A    between atoms: C_11  and  C_12 
REMARK   11  A    between atoms: C_12  and  N_13 
REMARK   12  A    between atoms: N_13  and  C_16 
REMARK   13  A    between atoms: C_16  and  C_17 
REMARK   14  A    between atoms: C_17  and  C_18 
REMARK   15  A    between atoms: C_17  and  O_23 
REMARK   16  A    between atoms: C_18  and  S_19 
ROOT
HETATM    1  C   UNL     1     -23.033  -5.005 -13.050  1.00  0.00     0.236 C 
ENDROOT
BRANCH   1   2
HETATM    2  C   UNL     1     -22.608  -4.537 -11.663  1.00  0.00     0.028 C 
BRANCH   2   3
HETATM    3  C   UNL     1     -21.115  -4.280 -11.571  1.00  0.00     0.002 C 
BRANCH   3   4
HETATM    4  C   UNL     1     -20.807  -3.846 -10.144  1.00  0.00     0.000 C 
BRANCH   4   5
HETATM    5  C   UNL     1     -21.533  -4.722  -9.147  1.00  0.00     0.000 C 
BRANCH   5   6
HETATM    6  C   UNL     1     -22.184  -3.863  -8.074  1.00  0.00     0.000 C 
BRANCH   6   7
HETATM    7  C   UNL     1     -21.196  -3.655  -6.943  1.00  0.00     0.000 C 
BRANCH   7   8
HETATM    8  C   UNL     1     -20.426  -4.930  -6.647  1.00  0.00     0.000 C 
BRANCH   8   9
HETATM    9  C   UNL     1     -20.524  -5.248  -5.161  1.00  0.00     0.000 C 
BRANCH   9  10
HETATM   10  C   UNL     1     -21.677  -6.204  -4.892  1.00  0.00    -0.000 C 
BRANCH  10  11
HETATM   11  C   UNL     1     -21.445  -6.973  -3.596  1.00  0.00    -0.005 C 
HETATM   12  C   UNL     1     -21.924  -6.171  -2.401  1.00  0.00     0.005 C 
ENDBRANCH  10  11
ENDBRANCH   9  10
ENDBRANCH   8   9
ENDBRANCH   7   8
ENDBRANCH   6   7
ENDBRANCH   5   6
ENDBRANCH   4   5
ENDBRANCH   3   4
ENDBRANCH   2   3
ENDBRANCH   1   2
BRANCH   1  13
HETATM   13  N   UNL     1     -23.769  -3.875 -13.811  1.00  0.00    -0.072 N 
HETATM   14  C   UNL     1     -24.495  -3.006 -12.775  1.00  0.00     0.272 C 
HETATM   15  C   UNL     1     -22.801  -3.030 -14.620  1.00  0.00     0.272 C 
BRANCH  13  16
HETATM   16  C   UNL     1     -24.891  -4.463 -14.727  1.00  0.00     0.269 C 
BRANCH  16  17
HETATM   17  C   UNL     1     -24.814  -5.959 -15.119  1.00  0.00     0.160 C 
BRANCH  17  18
HETATM   18  C   UNL     1     -26.082  -6.704 -15.516  1.00  0.00     0.198 C 
BRANCH  18  19
HETATM   19  S   UNL     1     -26.858  -6.006 -16.933  1.00  0.00     0.104 S 
HETATM   20  O   UNL     1     -27.010  -4.609 -16.572  1.00  0.00    -0.595 OA
HETATM   21  O   UNL     1     -25.885  -6.267 -17.995  1.00  0.00    -0.595 OA
HETATM   22  O   UNL     1     -28.078  -6.805 -17.024  1.00  0.00    -0.595 OA
ENDBRANCH  18  19
ENDBRANCH  17  18
BRANCH  17  23
HETATM   23  O   UNL     1     -23.817  -6.084 -16.156  1.00  0.00    -0.393 OA
HETATM   24  H   UNL     1     -24.081  -6.866 -16.711  1.00  0.00     0.210 HD
ENDBRANCH  17  23
ENDBRANCH  16  17
ENDBRANCH  13  16
ENDBRANCH   1  13
TORSDOF 16
BEGIN_RES ARG D 557
REMARK  4 active torsions:
REMARK  status: ('A' for Active; 'I' for Inactive)
REMARK    1  A    between atoms: CA   and  CB  
REMARK    2  A    between atoms: CB   and  CG  
REMARK    3  A    between atoms: CG   and  CD  
REMARK    4  A    between atoms: CD   and  NE  
REMARK       I    between atoms: NE   and  CZ  
REMARK       I    between atoms: CZ   and  NH1 
REMARK       I    between atoms: CZ   and  NH2 
ROOT
ATOM      1  CA  ARG D 557     -26.217   2.705 -17.014  1.00 35.49     0.159 C 
ENDROOT
BRANCH   1   2
ATOM      2  CB  ARG D 557     -26.789   1.319 -17.183  1.00 35.49     0.034 C 
BRANCH   2   3
ATOM      3  CG  ARG D 557     -25.949   0.199 -16.740  1.00 35.49     0.027 C 
BRANCH   3   4
ATOM      4  CD  ARG D 557     -26.671  -0.724 -15.836  1.00 35.49     0.116 C 
BRANCH   4   5
ATOM      5  NE  ARG D 557     -27.461  -1.686 -16.560  1.00 35.49    -0.212 N 
ATOM      6  CZ  ARG D 557     -28.720  -1.541 -16.906  1.00 35.49     0.666 C 
ATOM      7  NH1 ARG D 557     -29.420  -0.463 -16.602  1.00 35.49    -0.235 N 
ATOM      8  NH2 ARG D 557     -29.272  -2.508 -17.580  1.00 35.49    -0.235 N 
ATOM      9  HH  ARG D 557     -29.076   0.186 -16.161  1.00 35.49     0.174 HD
ATOM     10  HH  ARG D 557     -30.237  -0.423 -16.856  1.00 35.49     0.174 HD
ATOM     11  HH  ARG D 557     -28.794  -3.188 -17.769  1.00 35.49     0.174 HD
ATOM     12  HH  ARG D 557     -30.082  -2.448 -17.825  1.00 35.49     0.174 HD
ATOM     13  HE  ARG D 557     -27.110  -2.441 -16.734  1.00 35.49     0.178 HD
ENDBRANCH   4   5
ENDBRANCH   3   4
ENDBRANCH   2   3
ENDBRANCH   1   2
END_RES ARG D 557
BEGIN_RES GLU D 570
REMARK  3 active torsions:
REMARK  status: ('A' for Active; 'I' for Inactive)
REMARK    5  A    between atoms: CA   and  CB  
REMARK    6  A    between atoms: CB   and  CG  
REMARK    7  A    between atoms: CG   and  CD  
ROOT
ATOM     14  CA  GLU D 570     -18.033  -6.348 -13.375  1.00 32.92     0.160 C 
ENDROOT
BRANCH  14  15
ATOM     15  CB  GLU D 570     -19.500  -6.345 -13.794  1.00 32.92     0.043 C 
BRANCH  15  16
ATOM     16  CG  GLU D 570     -20.089  -7.636 -14.233  1.00 32.92     0.100 C 
BRANCH  16  17
ATOM     17  CD  GLU D 570     -20.737  -7.555 -15.596  1.00 32.92     0.185 C 
ATOM     18  OE1 GLU D 570     -20.873  -6.441 -16.136  1.00 32.92    -0.647 OA
ATOM     19  OE2 GLU D 570     -21.128  -8.616 -16.121  1.00 32.92    -0.647 OA
ENDBRANCH  16  17
ENDBRANCH  15  16
ENDBRANCH  14  15
END_RES GLU D 570
ENDMDL
MODEL 8
REMARK VINA RESULT:      -5.9      2.966      4.905
REMARK  16 active torsions:
REMARK  status: ('A' for Active; 'I' for Inactive)
REMARK    1  A    between atoms: C_2  and  C_3 
REMARK    2  A    between atoms: C_3  and  C_4 
REMARK    3  A    between atoms: C_4  and  C_5 
REMARK    4  A    between atoms: C_5  and  C_6 
REMARK    5  A    between atoms: C_6  and  C_7 
REMARK    6  A    between atoms: C_7  and  C_8 
REMARK    7  A    between atoms: C_8  and  C_9 
REMARK    8  A    between atoms: C_9  and  C_10 
REMARK    9  A    between atoms: C_10  and  C_11 
REMARK   10  A    between atoms: C_11  and  C_12 
REMARK   11  A    between atoms: C_12  and  N_13 
REMARK   12  A    between atoms: N_13  and  C_16 
REMARK   13  A    between atoms: C_16  and  C_17 
REMARK   14  A    between atoms: C_17  and  C_18 
REMARK   15  A    between atoms: C_17  and  O_23 
REMARK   16  A    between atoms: C_18  and  S_19 
ROOT
HETATM    1  C   UNL     1     -22.187  -6.173  -4.994  1.00  0.00     0.236 C 
ENDROOT
BRANCH   1   2
HETATM    2  C   UNL     1     -21.616  -6.919  -3.793  1.00  0.00     0.028 C 
BRANCH   2   3
HETATM    3  C   UNL     1     -21.646  -6.085  -2.526  1.00  0.00     0.002 C 
BRANCH   3   4
HETATM    4  C   UNL     1     -22.216  -6.954  -1.412  1.00  0.00     0.000 C 
BRANCH   4   5
HETATM    5  C   UNL     1     -21.152  -7.864  -0.842  1.00  0.00     0.000 C 
BRANCH   5   6
HETATM    6  C   UNL     1     -21.667  -9.293  -0.773  1.00  0.00     0.000 C 
BRANCH   6   7
HETATM    7  C   UNL     1     -21.091  -9.965   0.457  1.00  0.00     0.000 C 
BRANCH   7   8
HETATM    8  C   UNL     1     -20.294 -11.202   0.083  1.00  0.00     0.000 C 
BRANCH   8   9
HETATM    9  C   UNL     1     -20.025 -11.198  -1.416  1.00  0.00     0.000 C 
BRANCH   9  10
HETATM   10  C   UNL     1     -18.531 -11.137  -1.694  1.00  0.00    -0.000 C 
BRANCH  10  11
HETATM   11  C   UNL     1     -18.203  -9.964  -2.611  1.00  0.00    -0.005 C 
HETATM   12  C   UNL     1     -19.293  -9.773  -3.650  1.00  0.00     0.005 C 
ENDBRANCH  10  11
ENDBRANCH   9  10
ENDBRANCH   8   9
ENDBRANCH   7   8
ENDBRANCH   6   7
ENDBRANCH   5   6
ENDBRANCH   4   5
ENDBRANCH   3   4
ENDBRANCH   2   3
ENDBRANCH   1   2
BRANCH   1  13
HETATM   13  N   UNL     1     -21.083  -5.887  -6.041  1.00  0.00    -0.072 N 
HETATM   14  C   UNL     1     -20.384  -4.580  -5.642  1.00  0.00     0.272 C 
HETATM   15  C   UNL     1     -20.075  -7.021  -6.107  1.00  0.00     0.272 C 
BRANCH  13  16
HETATM   16  C   UNL     1     -21.708  -5.617  -7.447  1.00  0.00     0.269 C 
BRANCH  16  17
HETATM   17  C   UNL     1     -22.376  -4.245  -7.706  1.00  0.00     0.160 C 
BRANCH  17  18
HETATM   18  C   UNL     1     -22.200  -3.560  -9.056  1.00  0.00     0.198 C 
BRANCH  18  19
HETATM   19  S   UNL     1     -23.599  -3.765 -10.103  1.00  0.00     0.104 S 
HETATM   20  O   UNL     1     -24.595  -2.900  -9.499  1.00  0.00    -0.595 OA
HETATM   21  O   UNL     1     -23.098  -3.316 -11.403  1.00  0.00    -0.595 OA
HETATM   22  O   UNL     1     -23.827  -5.205 -10.011  1.00  0.00    -0.595 OA
ENDBRANCH  18  19
ENDBRANCH  17  18
BRANCH  17  23
HETATM   23  O   UNL     1     -23.779  -4.381  -7.395  1.00  0.00    -0.393 OA
HETATM   24  H   UNL     1     -24.134  -5.098  -7.986  1.00  0.00     0.210 HD
ENDBRANCH  17  23
ENDBRANCH  16  17
ENDBRANCH  13  16
ENDBRANCH   1  13
TORSDOF 16
BEGIN_RES ARG D 557
REMARK  4 active torsions:
REMARK  status: ('A' for Active; 'I' for Inactive)
REMARK    1  A    between atoms: CA   and  CB  
REMARK    2  A    between atoms: CB   and  CG  
REMARK    3  A    between atoms: CG   and  CD  
REMARK    4  A    between atoms: CD   and  NE  
REMARK       I    between atoms: NE   and  CZ  
REMARK       I    between atoms: CZ   and  NH1 
REMARK       I    between atoms: CZ   and  NH2 
ROOT
ATOM      1  CA  ARG D 557     -26.217   2.705 -17.014  1.00 35.49     0.159 C 
ENDROOT
BRANCH   1   2
ATOM      2  CB  ARG D 557     -26.789   1.319 -17.183  1.00 35.49     0.034 C 
BRANCH   2   3
ATOM      3  CG  ARG D 557     -25.834   0.204 -17.168  1.00 35.49     0.027 C 
BRANCH   3   4
ATOM      4  CD  ARG D 557     -24.741   0.411 -16.191  1.00 35.49     0.116 C 
BRANCH   4   5
ATOM      5  NE  ARG D 557     -24.878  -0.436 -15.036  1.00 35.49    -0.212 N 
ATOM      6  CZ  ARG D 557     -24.060  -1.405 -14.692  1.00 35.49     0.666 C 
ATOM      7  NH1 ARG D 557     -22.995  -1.721 -15.406  1.00 35.49    -0.235 N 
ATOM      8  NH2 ARG D 557     -24.328  -2.058 -13.598  1.00 35.49    -0.235 N 
ATOM      9  HH  ARG D 557     -22.799  -1.304 -16.128  1.00 35.49     0.174 HD
ATOM     10  HH  ARG D 557     -22.496  -2.361 -15.131  1.00 35.49     0.174 HD
ATOM     11  HH  ARG D 557     -25.017  -1.826 -13.153  1.00 35.49     0.174 HD
ATOM     12  HH  ARG D 557     -23.820  -2.687 -13.342  1.00 35.49     0.174 HD
ATOM     13  HE  ARG D 557     -25.576  -0.350 -14.558  1.00 35.49     0.178 HD
ENDBRANCH   4   5
ENDBRANCH   3   4
ENDBRANCH   2   3
ENDBRANCH   1   2
END_RES ARG D 557
BEGIN_RES GLU D 570
REMARK  3 active torsions:
REMARK  status: ('A' for Active; 'I' for Inactive)
REMARK    5  A    between atoms: CA   and  CB  
REMARK    6  A    between atoms: CB   and  CG  
REMARK    7  A    between atoms: CG   and  CD  
ROOT
ATOM     14  CA  GLU D 570     -18.033  -6.348 -13.375  1.00 32.92     0.160 C 
ENDROOT
BRANCH  14  15
ATOM     15  CB  GLU D 570     -19.500  -6.345 -13.794  1.00 32.92     0.043 C 
BRANCH  15  16
ATOM     16  CG  GLU D 570     -19.816  -5.904 -15.177  1.00 32.92     0.100 C 
BRANCH  16  17
ATOM     17  CD  GLU D 570     -21.290  -5.653 -15.393  1.00 32.92     0.185 C 
ATOM     18  OE1 GLU D 570     -21.663  -4.525 -15.769  1.00 32.92    -0.647 OA
ATOM     19  OE2 GLU D 570     -22.082  -6.589 -15.168  1.00 32.92    -0.647 OA
ENDBRANCH  16  17
ENDBRANCH  15  16
ENDBRANCH  14  15
END_RES GLU D 570
ENDMDL
MODEL 9
REMARK VINA RESULT:      -5.7      5.508      8.787
REMARK  16 active torsions:
REMARK  status: ('A' for Active; 'I' for Inactive)
REMARK    1  A    between atoms: C_2  and  C_3 
REMARK    2  A    between atoms: C_3  and  C_4 
REMARK    3  A    between atoms: C_4  and  C_5 
REMARK    4  A    between atoms: C_5  and  C_6 
REMARK    5  A    between atoms: C_6  and  C_7 
REMARK    6  A    between atoms: C_7  and  C_8 
REMARK    7  A    between atoms: C_8  and  C_9 
REMARK    8  A    between atoms: C_9  and  C_10 
REMARK    9  A    between atoms: C_10  and  C_11 
REMARK   10  A    between atoms: C_11  and  C_12 
REMARK   11  A    between atoms: C_12  and  N_13 
REMARK   12  A    between atoms: N_13  and  C_16 
REMARK   13  A    between atoms: C_16  and  C_17 
REMARK   14  A    between atoms: C_17  and  C_18 
REMARK   15  A    between atoms: C_17  and  O_23 
REMARK   16  A    between atoms: C_18  and  S_19 
ROOT
HETATM    1  C   UNL     1     -22.278  -8.917  -0.484  1.00  0.00     0.236 C 
ENDROOT
BRANCH   1   2
HETATM    2  C   UNL     1     -21.409  -7.762  -0.970  1.00  0.00     0.028 C 
BRANCH   2   3
HETATM    3  C   UNL     1     -22.231  -6.603  -1.502  1.00  0.00     0.002 C 
BRANCH   3   4
HETATM    4  C   UNL     1     -21.527  -6.065  -2.741  1.00  0.00     0.000 C 
BRANCH   4   5
HETATM    5  C   UNL     1     -21.858  -6.906  -3.954  1.00  0.00     0.000 C 
BRANCH   5   6
HETATM    6  C   UNL     1     -20.793  -6.722  -5.023  1.00  0.00     0.000 C 
BRANCH   6   7
HETATM    7  C   UNL     1     -21.003  -5.383  -5.703  1.00  0.00     0.000 C 
BRANCH   7   8
HETATM    8  C   UNL     1     -19.681  -4.775  -6.138  1.00  0.00     0.000 C 
BRANCH   8   9
HETATM    9  C   UNL     1     -19.756  -4.401  -7.612  1.00  0.00     0.000 C 
BRANCH   9  10
HETATM   10  C   UNL     1     -21.164  -3.962  -7.984  1.00  0.00    -0.000 C 
BRANCH  10  11
HETATM   11  C   UNL     1     -21.491  -4.368  -9.417  1.00  0.00    -0.005 C 
HETATM   12  C   UNL     1     -22.992  -4.475  -9.617  1.00  0.00     0.005 C 
ENDBRANCH  10  11
ENDBRANCH   9  10
ENDBRANCH   8   9
ENDBRANCH   7   8
ENDBRANCH   6   7
ENDBRANCH   5   6
ENDBRANCH   4   5
ENDBRANCH   3   4
ENDBRANCH   2   3
ENDBRANCH   1   2
BRANCH   1  13
HETATM   13  N   UNL     1     -21.738 -10.270  -1.006  1.00  0.00    -0.072 N 
HETATM   14  C   UNL     1     -21.989 -11.326   0.079  1.00  0.00     0.272 C 
HETATM   15  C   UNL     1     -22.419 -10.677  -2.301  1.00  0.00     0.272 C 
BRANCH  13  16
HETATM   16  C   UNL     1     -20.187 -10.215  -1.188  1.00  0.00     0.269 C 
BRANCH  16  17
HETATM   17  C   UNL     1     -19.587 -10.665  -2.543  1.00  0.00     0.160 C 
BRANCH  17  18
HETATM   18  C   UNL     1     -19.052  -9.624  -3.518  1.00  0.00     0.198 C 
BRANCH  18  19
HETATM   19  S   UNL     1     -18.396 -10.346  -4.982  1.00  0.00     0.104 S 
HETATM   20  O   UNL     1     -18.562  -9.297  -5.972  1.00  0.00    -0.595 OA
HETATM   21  O   UNL     1     -17.009 -10.628  -4.609  1.00  0.00    -0.595 OA
HETATM   22  O   UNL     1     -19.234 -11.533  -5.126  1.00  0.00    -0.595 OA
ENDBRANCH  18  19
ENDBRANCH  17  18
BRANCH  17  23
HETATM   23  O   UNL     1     -18.573 -11.652  -2.260  1.00  0.00    -0.393 OA
HETATM   24  H   UNL     1     -17.858 -11.187  -1.747  1.00  0.00     0.210 HD
ENDBRANCH  17  23
ENDBRANCH  16  17
ENDBRANCH  13  16
ENDBRANCH   1  13
TORSDOF 16
BEGIN_RES ARG D 557
REMARK  4 active torsions:
REMARK  status: ('A' for Active; 'I' for Inactive)
REMARK    1  A    between atoms: CA   and  CB  
REMARK    2  A    between atoms: CB   and  CG  
REMARK    3  A    between atoms: CG   and  CD  
REMARK    4  A    between atoms: CD   and  NE  
REMARK       I    between atoms: NE   and  CZ  
REMARK       I    between atoms: CZ   and  NH1 
REMARK       I    between atoms: CZ   and  NH2 
ROOT
ATOM      1  CA  ARG D 557     -26.217   2.705 -17.014  1.00 35.49     0.159 C 
ENDROOT
BRANCH   1   2
ATOM      2  CB  ARG D 557     -26.789   1.319 -17.183  1.00 35.49     0.034 C 
BRANCH   2   3
ATOM      3  CG  ARG D 557     -25.839   0.201 -17.129  1.00 35.49     0.027 C 
BRANCH   3   4
ATOM      4  CD  ARG D 557     -24.761   0.424 -16.139  1.00 35.49     0.116 C 
BRANCH   4   5
ATOM      5  NE  ARG D 557     -24.880  -0.449 -15.001  1.00 35.49    -0.212 N 
ATOM      6  CZ  ARG D 557     -24.044  -1.410 -14.679  1.00 35.49     0.666 C 
ATOM      7  NH1 ARG D 557     -22.975  -1.692 -15.401  1.00 35.49    -0.235 N 
ATOM      8  NH2 ARG D 557     -24.297  -2.089 -13.598  1.00 35.49    -0.235 N 
ATOM      9  HH  ARG D 557     -22.788  -1.256 -16.115  1.00 35.49     0.174 HD
ATOM     10  HH  ARG D 557     -22.464  -2.328 -15.141  1.00 35.49     0.174 HD
ATOM     11  HH  ARG D 557     -24.990  -1.880 -13.148  1.00 35.49     0.174 HD
ATOM     12  HH  ARG D 557     -23.778  -2.714 -13.356  1.00 35.49     0.174 HD
ATOM     13  HE  ARG D 557     -25.579  -0.385 -14.521  1.00 35.49     0.178 HD
ENDBRANCH   4   5
ENDBRANCH   3   4
ENDBRANCH   2   3
ENDBRANCH   1   2
END_RES ARG D 557
BEGIN_RES GLU D 570
REMARK  3 active torsions:
REMARK  status: ('A' for Active; 'I' for Inactive)
REMARK    5  A    between atoms: CA   and  CB  
REMARK    6  A    between atoms: CB   and  CG  
REMARK    7  A    between atoms: CG   and  CD  
ROOT
ATOM     14  CA  GLU D 570     -18.033  -6.348 -13.375  1.00 32.92     0.160 C 
ENDROOT
BRANCH  14  15
ATOM     15  CB  GLU D 570     -19.500  -6.345 -13.794  1.00 32.92     0.043 C 
BRANCH  15  16
ATOM     16  CG  GLU D 570     -20.447  -5.556 -12.965  1.00 32.92     0.100 C 
BRANCH  16  17
ATOM     17  CD  GLU D 570     -21.628  -5.036 -13.752  1.00 32.92     0.185 C 
ATOM     18  OE1 GLU D 570     -21.603  -5.105 -14.996  1.00 32.92    -0.647 OA
ATOM     19  OE2 GLU D 570     -22.580  -4.539 -13.118  1.00 32.92    -0.647 OA
ENDBRANCH  16  17
ENDBRANCH  15  16
ENDBRANCH  14  15
END_RES GLU D 570
ENDMDL
