MODEL 1
REMARK VINA RESULT:      -5.4      0.000      0.000
REMARK  7 active torsions:
REMARK  status: ('A' for Active; 'I' for Inactive)
REMARK    1  A    between atoms: C_1  and  C_2 
REMARK    2  A    between atoms: C_1  and  C_8 
REMARK    3  A    between atoms: C_2  and  CA_3 
REMARK    4  A    between atoms: CA_3  and  C_4 
REMARK    5  A    between atoms: CA_3  and  N_7 
REMARK    6  A    between atoms: C_4  and  OXT_6 
REMARK    7  A    between atoms: C_8  and  N_9 
ROOT
HETATM    1  CA  UNL     1     -23.487  -3.680  -9.182  1.00  0.00     0.314 C 
ENDROOT
BRANCH   1   2
HETATM    2  C   UNL     1     -22.464  -4.691  -9.743  1.00  0.00     0.048 C 
BRANCH   2   3
HETATM    3  C   UNL     1     -21.026  -4.154  -9.657  1.00  0.00     0.032 C 
BRANCH   3   4
HETATM    4  C   UNL     1     -20.351  -4.085 -11.032  1.00  0.00     0.267 C 
BRANCH   4   5
HETATM    5  N   UNL     1     -21.280  -3.600 -12.050  1.00  0.00     0.078 N 
HETATM    6  H   UNL     1     -20.994  -3.978 -12.982  1.00  0.00     0.312 HD
HETATM    7  H   UNL     1     -21.213  -2.558 -12.092  1.00  0.00     0.312 HD
ENDBRANCH   4   5
ENDBRANCH   3   4
ENDBRANCH   2   3
ENDBRANCH   1   2
BRANCH   1   8
HETATM    8  C   UNL     1     -24.651  -3.523 -10.138  1.00  0.00     0.173 C 
HETATM    9  O   UNL     1     -24.486  -3.698 -11.335  1.00  0.00    -0.648 OA
BRANCH   8  10
HETATM   10  OXT UNL     1     -25.881  -3.203  -9.683  1.00  0.00    -0.775 OA
HETATM   11  HXT UNL     1     -26.044  -2.400  -9.169  1.00  0.00     0.167 HD
ENDBRANCH   8  10
ENDBRANCH   1   8
BRANCH   1  12
HETATM   12  N   UNL     1     -23.968  -4.113  -7.867  1.00  0.00     0.093 N 
HETATM   13  H1  UNL     1     -23.267  -4.740  -7.410  1.00  0.00     0.314 HD
HETATM   14  H2  UNL     1     -24.867  -4.637  -7.980  1.00  0.00     0.314 HD
ENDBRANCH   1  12
TORSDOF 7
BEGIN_RES ARG D 557
REMARK  4 active torsions:
REMARK  status: ('A' for Active; 'I' for Inactive)
REMARK    1  A    between atoms: CA   and  CB  
REMARK    2  A    between atoms: CB   and  CG  
REMARK    3  A    between atoms: CG   and  CD  
REMARK    4  A    between atoms: CD   and  NE  
REMARK       I    between atoms: NE   and  CZ  
REMARK       I    between atoms: CZ   and  NH1 
REMARK       I    between atoms: CZ   and  NH2 
ROOT
ATOM      1  CA  ARG D 557     -26.217   2.705 -17.014  1.00 35.49     0.159 C 
ENDROOT
BRANCH   1   2
ATOM      2  CB  ARG D 557     -26.789   1.319 -17.183  1.00 35.49     0.034 C 
BRANCH   2   3
ATOM      3  CG  ARG D 557     -25.857   0.196 -17.024  1.00 35.49     0.027 C 
BRANCH   3   4
ATOM      4  CD  ARG D 557     -26.217  -0.678 -15.883  1.00 35.49     0.116 C 
BRANCH   4   5
ATOM      5  NE  ARG D 557     -25.115  -0.866 -14.976  1.00 35.49    -0.212 N 
ATOM      6  CZ  ARG D 557     -24.875  -1.951 -14.275  1.00 35.49     0.666 C 
ATOM      7  NH1 ARG D 557     -25.656  -3.014 -14.323  1.00 35.49    -0.235 N 
ATOM      8  NH2 ARG D 557     -23.816  -1.954 -13.518  1.00 35.49    -0.235 N 
ATOM      9  HH  ARG D 557     -26.357  -3.035 -14.815  1.00 35.49     0.174 HD
ATOM     10  HH  ARG D 557     -25.448  -3.694 -13.845  1.00 35.49     0.174 HD
ATOM     11  HH  ARG D 557     -23.326  -1.257 -13.513  1.00 35.49     0.174 HD
ATOM     12  HH  ARG D 557     -23.626  -2.638 -13.054  1.00 35.49     0.174 HD
ATOM     13  HE  ARG D 557     -24.602  -0.205 -14.829  1.00 35.49     0.178 HD
ENDBRANCH   4   5
ENDBRANCH   3   4
ENDBRANCH   2   3
ENDBRANCH   1   2
END_RES ARG D 557
BEGIN_RES GLU D 570
REMARK  3 active torsions:
REMARK  status: ('A' for Active; 'I' for Inactive)
REMARK    5  A    between atoms: CA   and  CB  
REMARK    6  A    between atoms: CB   and  CG  
REMARK    7  A    between atoms: CG   and  CD  
ROOT
ATOM     14  CA  GLU D 570     -18.033  -6.348 -13.375  1.00 32.92     0.160 C 
ENDROOT
BRANCH  14  15
ATOM     15  CB  GLU D 570     -19.500  -6.345 -13.794  1.00 32.92     0.043 C 
BRANCH  15  16
ATOM     16  CG  GLU D 570     -19.801  -6.117 -15.231  1.00 32.92     0.100 C 
BRANCH  16  17
ATOM     17  CD  GLU D 570     -21.123  -5.419 -15.453  1.00 32.92     0.185 C 
ATOM     18  OE1 GLU D 570     -21.464  -5.125 -16.615  1.00 32.92    -0.647 OA
ATOM     19  OE2 GLU D 570     -21.816  -5.149 -14.453  1.00 32.92    -0.647 OA
ENDBRANCH  16  17
ENDBRANCH  15  16
ENDBRANCH  14  15
END_RES GLU D 570
ENDMDL
MODEL 2
REMARK VINA RESULT:      -5.3      1.474      2.159
REMARK  7 active torsions:
REMARK  status: ('A' for Active; 'I' for Inactive)
REMARK    1  A    between atoms: C_1  and  C_2 
REMARK    2  A    between atoms: C_1  and  C_8 
REMARK    3  A    between atoms: C_2  and  CA_3 
REMARK    4  A    between atoms: CA_3  and  C_4 
REMARK    5  A    between atoms: CA_3  and  N_7 
REMARK    6  A    between atoms: C_4  and  OXT_6 
REMARK    7  A    between atoms: C_8  and  N_9 
ROOT
HETATM    1  CA  UNL     1     -22.980  -4.071 -10.510  1.00  0.00     0.314 C 
ENDROOT
BRANCH   1   2
HETATM    2  C   UNL     1     -22.246  -4.862  -9.407  1.00  0.00     0.048 C 
BRANCH   2   3
HETATM    3  C   UNL     1     -20.800  -4.374  -9.220  1.00  0.00     0.032 C 
BRANCH   3   4
HETATM    4  C   UNL     1     -20.531  -3.894  -7.789  1.00  0.00     0.267 C 
BRANCH   4   5
HETATM    5  N   UNL     1     -21.741  -3.340  -7.185  1.00  0.00     0.078 N 
HETATM    6  H   UNL     1     -22.558  -3.937  -7.447  1.00  0.00     0.312 HD
HETATM    7  H   UNL     1     -21.901  -2.385  -7.579  1.00  0.00     0.312 HD
ENDBRANCH   4   5
ENDBRANCH   3   4
ENDBRANCH   2   3
ENDBRANCH   1   2
BRANCH   1   8
HETATM    8  C   UNL     1     -24.287  -3.519  -9.981  1.00  0.00     0.173 C 
HETATM    9  O   UNL     1     -25.157  -3.160 -10.758  1.00  0.00    -0.648 OA
BRANCH   8  10
HETATM   10  OXT UNL     1     -24.512  -3.427  -8.652  1.00  0.00    -0.775 OA
HETATM   11  HXT UNL     1     -25.380  -3.609  -8.266  1.00  0.00     0.167 HD
ENDBRANCH   8  10
ENDBRANCH   1   8
BRANCH   1  12
HETATM   12  N   UNL     1     -22.136  -2.983 -11.008  1.00  0.00     0.093 N 
HETATM   13  H1  UNL     1     -21.973  -2.273 -10.257  1.00  0.00     0.314 HD
HETATM   14  H2  UNL     1     -22.611  -2.515 -11.816  1.00  0.00     0.314 HD
ENDBRANCH   1  12
TORSDOF 7
BEGIN_RES ARG D 557
REMARK  4 active torsions:
REMARK  status: ('A' for Active; 'I' for Inactive)
REMARK    1  A    between atoms: CA   and  CB  
REMARK    2  A    between atoms: CB   and  CG  
REMARK    3  A    between atoms: CG   and  CD  
REMARK    4  A    between atoms: CD   and  NE  
REMARK       I    between atoms: NE   and  CZ  
REMARK       I    between atoms: CZ   and  NH1 
REMARK       I    between atoms: CZ   and  NH2 
ROOT
ATOM      1  CA  ARG D 557     -26.217   2.705 -17.014  1.00 35.49     0.159 C 
ENDROOT
BRANCH   1   2
ATOM      2  CB  ARG D 557     -26.789   1.319 -17.183  1.00 35.49     0.034 C 
BRANCH   2   3
ATOM      3  CG  ARG D 557     -25.836   0.203 -17.154  1.00 35.49     0.027 C 
BRANCH   3   4
ATOM      4  CD  ARG D 557     -24.757   0.408 -16.161  1.00 35.49     0.116 C 
BRANCH   4   5
ATOM      5  NE  ARG D 557     -24.908  -0.444 -15.012  1.00 35.49    -0.212 N 
ATOM      6  CZ  ARG D 557     -24.093  -1.414 -14.662  1.00 35.49     0.666 C 
ATOM      7  NH1 ARG D 557     -23.020  -1.726 -15.364  1.00 35.49    -0.235 N 
ATOM      8  NH2 ARG D 557     -24.374  -2.072 -13.574  1.00 35.49    -0.235 N 
ATOM      9  HH  ARG D 557     -22.814  -1.306 -16.082  1.00 35.49     0.174 HD
ATOM     10  HH  ARG D 557     -22.524  -2.367 -15.086  1.00 35.49     0.174 HD
ATOM     11  HH  ARG D 557     -25.070  -1.843 -13.137  1.00 35.49     0.174 HD
ATOM     12  HH  ARG D 557     -23.870  -2.702 -13.315  1.00 35.49     0.174 HD
ATOM     13  HE  ARG D 557     -25.612  -0.360 -14.542  1.00 35.49     0.178 HD
ENDBRANCH   4   5
ENDBRANCH   3   4
ENDBRANCH   2   3
ENDBRANCH   1   2
END_RES ARG D 557
BEGIN_RES GLU D 570
REMARK  3 active torsions:
REMARK  status: ('A' for Active; 'I' for Inactive)
REMARK    5  A    between atoms: CA   and  CB  
REMARK    6  A    between atoms: CB   and  CG  
REMARK    7  A    between atoms: CG   and  CD  
ROOT
ATOM     14  CA  GLU D 570     -18.033  -6.348 -13.375  1.00 32.92     0.160 C 
ENDROOT
BRANCH  14  15
ATOM     15  CB  GLU D 570     -19.500  -6.345 -13.794  1.00 32.92     0.043 C 
BRANCH  15  16
ATOM     16  CG  GLU D 570     -20.426  -5.464 -13.036  1.00 32.92     0.100 C 
BRANCH  16  17
ATOM     17  CD  GLU D 570     -21.738  -5.235 -13.751  1.00 32.92     0.185 C 
ATOM     18  OE1 GLU D 570     -22.308  -6.200 -14.295  1.00 32.92    -0.647 OA
ATOM     19  OE2 GLU D 570     -22.192  -4.074 -13.781  1.00 32.92    -0.647 OA
ENDBRANCH  16  17
ENDBRANCH  15  16
ENDBRANCH  14  15
END_RES GLU D 570
ENDMDL
MODEL 3
REMARK VINA RESULT:      -5.2      1.281      1.752
REMARK  7 active torsions:
REMARK  status: ('A' for Active; 'I' for Inactive)
REMARK    1  A    between atoms: C_1  and  C_2 
REMARK    2  A    between atoms: C_1  and  C_8 
REMARK    3  A    between atoms: C_2  and  CA_3 
REMARK    4  A    between atoms: CA_3  and  C_4 
REMARK    5  A    between atoms: CA_3  and  N_7 
REMARK    6  A    between atoms: C_4  and  OXT_6 
REMARK    7  A    between atoms: C_8  and  N_9 
ROOT
HETATM    1  CA  UNL     1     -23.401  -3.650  -9.252  1.00  0.00     0.314 C 
ENDROOT
BRANCH   1   2
HETATM    2  C   UNL     1     -22.359  -4.657  -9.783  1.00  0.00     0.048 C 
BRANCH   2   3
HETATM    3  C   UNL     1     -20.925  -4.114  -9.657  1.00  0.00     0.032 C 
BRANCH   3   4
HETATM    4  C   UNL     1     -20.294  -4.456  -8.303  1.00  0.00     0.267 C 
BRANCH   4   5
HETATM    5  N   UNL     1     -20.659  -5.805  -7.879  1.00  0.00     0.078 N 
HETATM    6  H   UNL     1     -21.700  -5.866  -7.792  1.00  0.00     0.312 HD
HETATM    7  H   UNL     1     -20.248  -5.979  -6.934  1.00  0.00     0.312 HD
ENDBRANCH   4   5
ENDBRANCH   3   4
ENDBRANCH   2   3
ENDBRANCH   1   2
BRANCH   1   8
HETATM    8  C   UNL     1     -24.560  -3.532 -10.220  1.00  0.00     0.173 C 
HETATM    9  O   UNL     1     -25.636  -3.103  -9.834  1.00  0.00    -0.648 OA
BRANCH   8  10
HETATM   10  OXT UNL     1     -24.418  -3.885 -11.515  1.00  0.00    -0.775 OA
HETATM   11  HXT UNL     1     -23.568  -4.168 -11.879  1.00  0.00     0.167 HD
ENDBRANCH   8  10
ENDBRANCH   1   8
BRANCH   1  12
HETATM   12  N   UNL     1     -23.885  -4.062  -7.932  1.00  0.00     0.093 N 
HETATM   13  H1  UNL     1     -24.577  -3.369  -7.564  1.00  0.00     0.314 HD
HETATM   14  H2  UNL     1     -23.079  -4.118  -7.266  1.00  0.00     0.314 HD
ENDBRANCH   1  12
TORSDOF 7
BEGIN_RES ARG D 557
REMARK  4 active torsions:
REMARK  status: ('A' for Active; 'I' for Inactive)
REMARK    1  A    between atoms: CA   and  CB  
REMARK    2  A    between atoms: CB   and  CG  
REMARK    3  A    between atoms: CG   and  CD  
REMARK    4  A    between atoms: CD   and  NE  
REMARK       I    between atoms: NE   and  CZ  
REMARK       I    between atoms: CZ   and  NH1 
REMARK       I    between atoms: CZ   and  NH2 
ROOT
ATOM      1  CA  ARG D 557     -26.217   2.705 -17.014  1.00 35.49     0.159 C 
ENDROOT
BRANCH   1   2
ATOM      2  CB  ARG D 557     -26.789   1.319 -17.183  1.00 35.49     0.034 C 
BRANCH   2   3
ATOM      3  CG  ARG D 557     -25.854   0.196 -17.040  1.00 35.49     0.027 C 
BRANCH   3   4
ATOM      4  CD  ARG D 557     -26.209  -0.693 -15.910  1.00 35.49     0.116 C 
BRANCH   4   5
ATOM      5  NE  ARG D 557     -25.147  -0.791 -14.943  1.00 35.49    -0.212 N 
ATOM      6  CZ  ARG D 557     -24.753  -1.893 -14.345  1.00 35.49     0.666 C 
ATOM      7  NH1 ARG D 557     -25.322  -3.064 -14.568  1.00 35.49    -0.235 N 
ATOM      8  NH2 ARG D 557     -23.758  -1.801 -13.511  1.00 35.49    -0.235 N 
ATOM      9  HH  ARG D 557     -25.976  -3.148 -15.114  1.00 35.49     0.174 HD
ATOM     10  HH  ARG D 557     -25.020  -3.749 -14.151  1.00 35.49     0.174 HD
ATOM     11  HH  ARG D 557     -23.405  -1.033 -13.393  1.00 35.49     0.174 HD
ATOM     12  HH  ARG D 557     -23.473  -2.491 -13.109  1.00 35.49     0.174 HD
ATOM     13  HE  ARG D 557     -24.773  -0.072 -14.686  1.00 35.49     0.178 HD
ENDBRANCH   4   5
ENDBRANCH   3   4
ENDBRANCH   2   3
ENDBRANCH   1   2
END_RES ARG D 557
BEGIN_RES GLU D 570
REMARK  3 active torsions:
REMARK  status: ('A' for Active; 'I' for Inactive)
REMARK    5  A    between atoms: CA   and  CB  
REMARK    6  A    between atoms: CB   and  CG  
REMARK    7  A    between atoms: CG   and  CD  
ROOT
ATOM     14  CA  GLU D 570     -18.033  -6.348 -13.375  1.00 32.92     0.160 C 
ENDROOT
BRANCH  14  15
ATOM     15  CB  GLU D 570     -19.500  -6.345 -13.794  1.00 32.92     0.043 C 
BRANCH  15  16
ATOM     16  CG  GLU D 570     -20.440  -5.521 -12.991  1.00 32.92     0.100 C 
BRANCH  16  17
ATOM     17  CD  GLU D 570     -21.768  -5.303 -13.678  1.00 32.92     0.185 C 
ATOM     18  OE1 GLU D 570     -22.206  -6.185 -14.441  1.00 32.92    -0.647 OA
ATOM     19  OE2 GLU D 570     -22.368  -4.232 -13.463  1.00 32.92    -0.647 OA
ENDBRANCH  16  17
ENDBRANCH  15  16
ENDBRANCH  14  15
END_RES GLU D 570
ENDMDL
MODEL 4
REMARK VINA RESULT:      -5.1      4.271      6.716
REMARK  7 active torsions:
REMARK  status: ('A' for Active; 'I' for Inactive)
REMARK    1  A    between atoms: C_1  and  C_2 
REMARK    2  A    between atoms: C_1  and  C_8 
REMARK    3  A    between atoms: C_2  and  CA_3 
REMARK    4  A    between atoms: CA_3  and  C_4 
REMARK    5  A    between atoms: CA_3  and  N_7 
REMARK    6  A    between atoms: C_4  and  OXT_6 
REMARK    7  A    between atoms: C_8  and  N_9 
ROOT
HETATM    1  CA  UNL     1     -26.947  -5.933 -16.756  1.00  0.00     0.314 C 
ENDROOT
BRANCH   1   2
HETATM    2  C   UNL     1     -28.415  -5.459 -16.799  1.00  0.00     0.048 C 
BRANCH   2   3
HETATM    3  C   UNL     1     -29.136  -5.950 -18.066  1.00  0.00     0.032 C 
BRANCH   3   4
HETATM    4  C   UNL     1     -30.167  -7.042 -17.758  1.00  0.00     0.267 C 
BRANCH   4   5
HETATM    5  N   UNL     1     -29.520  -8.339 -17.578  1.00  0.00     0.078 N 
HETATM    6  H   UNL     1     -28.682  -8.221 -16.964  1.00  0.00     0.312 HD
HETATM    7  H   UNL     1     -29.189  -8.678 -18.510  1.00  0.00     0.312 HD
ENDBRANCH   4   5
ENDBRANCH   3   4
ENDBRANCH   2   3
ENDBRANCH   1   2
BRANCH   1   8
HETATM    8  C   UNL     1     -26.768  -6.996 -15.692  1.00  0.00     0.173 C 
HETATM    9  O   UNL     1     -27.745  -7.478 -15.140  1.00  0.00    -0.648 OA
BRANCH   8  10
HETATM   10  OXT UNL     1     -25.537  -7.432 -15.350  1.00  0.00    -0.775 OA
HETATM   11  HXT UNL     1     -25.132  -7.209 -14.500  1.00  0.00     0.167 HD
ENDBRANCH   8  10
ENDBRANCH   1   8
BRANCH   1  12
HETATM   12  N   UNL     1     -26.537  -6.452 -18.063  1.00  0.00     0.093 N 
HETATM   13  H1  UNL     1     -25.656  -7.010 -17.974  1.00  0.00     0.314 HD
HETATM   14  H2  UNL     1     -26.364  -5.654 -18.717  1.00  0.00     0.314 HD
ENDBRANCH   1  12
TORSDOF 7
BEGIN_RES ARG D 557
REMARK  4 active torsions:
REMARK  status: ('A' for Active; 'I' for Inactive)
REMARK    1  A    between atoms: CA   and  CB  
REMARK    2  A    between atoms: CB   and  CG  
REMARK    3  A    between atoms: CG   and  CD  
REMARK    4  A    between atoms: CD   and  NE  
REMARK       I    between atoms: NE   and  CZ  
REMARK       I    between atoms: CZ   and  NH1 
REMARK       I    between atoms: CZ   and  NH2 
ROOT
ATOM      1  CA  ARG D 557     -26.217   2.705 -17.014  1.00 35.49     0.159 C 
ENDROOT
BRANCH   1   2
ATOM      2  CB  ARG D 557     -26.789   1.319 -17.183  1.00 35.49     0.034 C 
BRANCH   2   3
ATOM      3  CG  ARG D 557     -25.835   0.204 -17.165  1.00 35.49     0.027 C 
BRANCH   3   4
ATOM      4  CD  ARG D 557     -24.746   0.409 -16.182  1.00 35.49     0.116 C 
BRANCH   4   5
ATOM      5  NE  ARG D 557     -24.892  -0.436 -15.026  1.00 35.49    -0.212 N 
ATOM      6  CZ  ARG D 557     -24.076  -1.404 -14.674  1.00 35.49     0.666 C 
ATOM      7  NH1 ARG D 557     -23.006  -1.721 -15.379  1.00 35.49    -0.235 N 
ATOM      8  NH2 ARG D 557     -24.353  -2.055 -13.581  1.00 35.49    -0.235 N 
ATOM      9  HH  ARG D 557     -22.804  -1.305 -16.100  1.00 35.49     0.174 HD
ATOM     10  HH  ARG D 557     -22.509  -2.361 -15.099  1.00 35.49     0.174 HD
ATOM     11  HH  ARG D 557     -25.046  -1.823 -13.142  1.00 35.49     0.174 HD
ATOM     12  HH  ARG D 557     -23.847  -2.683 -13.320  1.00 35.49     0.174 HD
ATOM     13  HE  ARG D 557     -25.594  -0.349 -14.554  1.00 35.49     0.178 HD
ENDBRANCH   4   5
ENDBRANCH   3   4
ENDBRANCH   2   3
ENDBRANCH   1   2
END_RES ARG D 557
BEGIN_RES GLU D 570
REMARK  3 active torsions:
REMARK  status: ('A' for Active; 'I' for Inactive)
REMARK    5  A    between atoms: CA   and  CB  
REMARK    6  A    between atoms: CB   and  CG  
REMARK    7  A    between atoms: CG   and  CD  
ROOT
ATOM     14  CA  GLU D 570     -18.033  -6.348 -13.375  1.00 32.92     0.160 C 
ENDROOT
BRANCH  14  15
ATOM     15  CB  GLU D 570     -19.500  -6.345 -13.794  1.00 32.92     0.043 C 
BRANCH  15  16
ATOM     16  CG  GLU D 570     -20.440  -5.523 -12.989  1.00 32.92     0.100 C 
BRANCH  16  17
ATOM     17  CD  GLU D 570     -21.748  -5.259 -13.698  1.00 32.92     0.185 C 
ATOM     18  OE1 GLU D 570     -22.245  -6.157 -14.404  1.00 32.92    -0.647 OA
ATOM     19  OE2 GLU D 570     -22.272  -4.137 -13.560  1.00 32.92    -0.647 OA
ENDBRANCH  16  17
ENDBRANCH  15  16
ENDBRANCH  14  15
END_RES GLU D 570
ENDMDL
MODEL 5
REMARK VINA RESULT:      -5.1      3.383      6.167
REMARK  7 active torsions:
REMARK  status: ('A' for Active; 'I' for Inactive)
REMARK    1  A    between atoms: C_1  and  C_2 
REMARK    2  A    between atoms: C_1  and  C_8 
REMARK    3  A    between atoms: C_2  and  CA_3 
REMARK    4  A    between atoms: CA_3  and  C_4 
REMARK    5  A    between atoms: CA_3  and  N_7 
REMARK    6  A    between atoms: C_4  and  OXT_6 
REMARK    7  A    between atoms: C_8  and  N_9 
ROOT
HETATM    1  CA  UNL     1     -26.741  -6.001 -16.526  1.00  0.00     0.314 C 
ENDROOT
BRANCH   1   2
HETATM    2  C   UNL     1     -27.457  -4.647 -16.343  1.00  0.00     0.048 C 
BRANCH   2   3
HETATM    3  C   UNL     1     -28.968  -4.761 -16.605  1.00  0.00     0.032 C 
BRANCH   3   4
HETATM    4  C   UNL     1     -29.371  -4.151 -17.952  1.00  0.00     0.267 C 
BRANCH   4   5
HETATM    5  N   UNL     1     -30.312  -3.048 -17.769  1.00  0.00     0.078 N 
HETATM    6  H   UNL     1     -31.246  -3.329 -18.147  1.00  0.00     0.312 HD
HETATM    7  H   UNL     1     -29.975  -2.229 -18.324  1.00  0.00     0.312 HD
ENDBRANCH   4   5
ENDBRANCH   3   4
ENDBRANCH   2   3
ENDBRANCH   1   2
BRANCH   1   8
HETATM    8  C   UNL     1     -25.570  -6.111 -15.571  1.00  0.00     0.173 C 
HETATM    9  O   UNL     1     -25.195  -7.208 -15.188  1.00  0.00    -0.648 OA
BRANCH   8  10
HETATM   10  OXT UNL     1     -24.922  -5.007 -15.141  1.00  0.00    -0.775 OA
HETATM   11  HXT UNL     1     -23.978  -4.871 -15.304  1.00  0.00     0.167 HD
ENDBRANCH   8  10
ENDBRANCH   1   8
BRANCH   1  12
HETATM   12  N   UNL     1     -27.674  -7.109 -16.310  1.00  0.00     0.093 N 
HETATM   13  H1  UNL     1     -28.462  -6.809 -15.692  1.00  0.00     0.314 HD
HETATM   14  H2  UNL     1     -27.171  -7.905 -15.852  1.00  0.00     0.314 HD
ENDBRANCH   1  12
TORSDOF 7
BEGIN_RES ARG D 557
REMARK  4 active torsions:
REMARK  status: ('A' for Active; 'I' for Inactive)
REMARK    1  A    between atoms: CA   and  CB  
REMARK    2  A    between atoms: CB   and  CG  
REMARK    3  A    between atoms: CG   and  CD  
REMARK    4  A    between atoms: CD   and  NE  
REMARK       I    between atoms: NE   and  CZ  
REMARK       I    between atoms: CZ   and  NH1 
REMARK       I    between atoms: CZ   and  NH2 
ROOT
ATOM      1  CA  ARG D 557     -26.217   2.705 -17.014  1.00 35.49     0.159 C 
ENDROOT
BRANCH   1   2
ATOM      2  CB  ARG D 557     -26.789   1.319 -17.183  1.00 35.49     0.034 C 
BRANCH   2   3
ATOM      3  CG  ARG D 557     -25.836   0.203 -17.153  1.00 35.49     0.027 C 
BRANCH   3   4
ATOM      4  CD  ARG D 557     -24.797   0.376 -16.112  1.00 35.49     0.116 C 
BRANCH   4   5
ATOM      5  NE  ARG D 557     -24.986  -0.520 -15.002  1.00 35.49    -0.212 N 
ATOM      6  CZ  ARG D 557     -24.175  -1.495 -14.655  1.00 35.49     0.666 C 
ATOM      7  NH1 ARG D 557     -23.071  -1.770 -15.324  1.00 35.49    -0.235 N 
ATOM      8  NH2 ARG D 557     -24.494  -2.195 -13.606  1.00 35.49    -0.235 N 
ATOM      9  HH  ARG D 557     -22.840  -1.321 -16.016  1.00 35.49     0.174 HD
ATOM     10  HH  ARG D 557     -22.579  -2.416 -15.049  1.00 35.49     0.174 HD
ATOM     11  HH  ARG D 557     -25.209  -1.990 -13.189  1.00 35.49     0.174 HD
ATOM     12  HH  ARG D 557     -23.994  -2.830 -13.349  1.00 35.49     0.174 HD
ATOM     13  HE  ARG D 557     -25.710  -0.460 -14.560  1.00 35.49     0.178 HD
ENDBRANCH   4   5
ENDBRANCH   3   4
ENDBRANCH   2   3
ENDBRANCH   1   2
END_RES ARG D 557
BEGIN_RES GLU D 570
REMARK  3 active torsions:
REMARK  status: ('A' for Active; 'I' for Inactive)
REMARK    5  A    between atoms: CA   and  CB  
REMARK    6  A    between atoms: CB   and  CG  
REMARK    7  A    between atoms: CG   and  CD  
ROOT
ATOM     14  CA  GLU D 570     -18.033  -6.348 -13.375  1.00 32.92     0.160 C 
ENDROOT
BRANCH  14  15
ATOM     15  CB  GLU D 570     -19.500  -6.345 -13.794  1.00 32.92     0.043 C 
BRANCH  15  16
ATOM     16  CG  GLU D 570     -20.434  -5.496 -13.010  1.00 32.92     0.100 C 
BRANCH  16  17
ATOM     17  CD  GLU D 570     -21.750  -5.262 -13.715  1.00 32.92     0.185 C 
ATOM     18  OE1 GLU D 570     -22.403  -4.234 -13.452  1.00 32.92    -0.647 OA
ATOM     19  OE2 GLU D 570     -22.140  -6.125 -14.526  1.00 32.92    -0.647 OA
ENDBRANCH  16  17
ENDBRANCH  15  16
ENDBRANCH  14  15
END_RES GLU D 570
ENDMDL
MODEL 6
REMARK VINA RESULT:      -5.0      2.527      3.683
REMARK  7 active torsions:
REMARK  status: ('A' for Active; 'I' for Inactive)
REMARK    1  A    between atoms: C_1  and  C_2 
REMARK    2  A    between atoms: C_1  and  C_8 
REMARK    3  A    between atoms: C_2  and  CA_3 
REMARK    4  A    between atoms: CA_3  and  C_4 
REMARK    5  A    between atoms: CA_3  and  N_7 
REMARK    6  A    between atoms: C_4  and  OXT_6 
REMARK    7  A    between atoms: C_8  and  N_9 
ROOT
HETATM    1  CA  UNL     1     -24.193  -2.904 -13.363  1.00  0.00     0.314 C 
ENDROOT
BRANCH   1   2
HETATM    2  C   UNL     1     -23.158  -2.605 -12.258  1.00  0.00     0.048 C 
BRANCH   2   3
HETATM    3  C   UNL     1     -23.283  -3.584 -11.079  1.00  0.00     0.032 C 
BRANCH   3   4
HETATM    4  C   UNL     1     -24.551  -3.336 -10.253  1.00  0.00     0.267 C 
BRANCH   4   5
HETATM    5  N   UNL     1     -24.985  -4.557  -9.578  1.00  0.00     0.078 N 
HETATM    6  H   UNL     1     -24.356  -4.739  -8.763  1.00  0.00     0.312 HD
HETATM    7  H   UNL     1     -24.887  -5.357 -10.243  1.00  0.00     0.312 HD
ENDBRANCH   4   5
ENDBRANCH   3   4
ENDBRANCH   2   3
ENDBRANCH   1   2
BRANCH   1   8
HETATM    8  C   UNL     1     -24.084  -1.883 -14.477  1.00  0.00     0.173 C 
HETATM    9  O   UNL     1     -23.130  -1.909 -15.239  1.00  0.00    -0.648 OA
BRANCH   8  10
HETATM   10  OXT UNL     1     -25.038  -0.943 -14.650  1.00  0.00    -0.775 OA
HETATM   11  HXT UNL     1     -25.956  -1.176 -14.847  1.00  0.00     0.167 HD
ENDBRANCH   8  10
ENDBRANCH   1   8
BRANCH   1  12
HETATM   12  N   UNL     1     -23.999  -4.254 -13.896  1.00  0.00     0.093 N 
HETATM   13  H1  UNL     1     -23.892  -4.943 -13.116  1.00  0.00     0.314 HD
HETATM   14  H2  UNL     1     -23.135  -4.276 -14.486  1.00  0.00     0.314 HD
ENDBRANCH   1  12
TORSDOF 7
BEGIN_RES ARG D 557
REMARK  4 active torsions:
REMARK  status: ('A' for Active; 'I' for Inactive)
REMARK    1  A    between atoms: CA   and  CB  
REMARK    2  A    between atoms: CB   and  CG  
REMARK    3  A    between atoms: CG   and  CD  
REMARK    4  A    between atoms: CD   and  NE  
REMARK       I    between atoms: NE   and  CZ  
REMARK       I    between atoms: CZ   and  NH1 
REMARK       I    between atoms: CZ   and  NH2 
ROOT
ATOM      1  CA  ARG D 557     -26.217   2.705 -17.014  1.00 35.49     0.159 C 
ENDROOT
BRANCH   1   2
ATOM      2  CB  ARG D 557     -26.789   1.319 -17.183  1.00 35.49     0.034 C 
BRANCH   2   3
ATOM      3  CG  ARG D 557     -28.188   1.128 -16.782  1.00 35.49     0.027 C 
BRANCH   3   4
ATOM      4  CD  ARG D 557     -28.636  -0.274 -16.944  1.00 35.49     0.116 C 
BRANCH   4   5
ATOM      5  NE  ARG D 557     -27.763  -1.202 -16.275  1.00 35.49    -0.212 N 
ATOM      6  CZ  ARG D 557     -27.787  -2.510 -16.406  1.00 35.49     0.666 C 
ATOM      7  NH1 ARG D 557     -28.657  -3.129 -17.182  1.00 35.49    -0.235 N 
ATOM      8  NH2 ARG D 557     -26.905  -3.196 -15.739  1.00 35.49    -0.235 N 
ATOM      9  HH  ARG D 557     -29.244  -2.697 -17.632  1.00 35.49     0.174 HD
ATOM     10  HH  ARG D 557     -28.623  -3.984 -17.230  1.00 35.49     0.174 HD
ATOM     11  HH  ARG D 557     -26.351  -2.769 -15.251  1.00 35.49     0.174 HD
ATOM     12  HH  ARG D 557     -26.887  -4.041 -15.800  1.00 35.49     0.174 HD
ATOM     13  HE  ARG D 557     -27.218  -0.894 -15.700  1.00 35.49     0.178 HD
ENDBRANCH   4   5
ENDBRANCH   3   4
ENDBRANCH   2   3
ENDBRANCH   1   2
END_RES ARG D 557
BEGIN_RES GLU D 570
REMARK  3 active torsions:
REMARK  status: ('A' for Active; 'I' for Inactive)
REMARK    5  A    between atoms: CA   and  CB  
REMARK    6  A    between atoms: CB   and  CG  
REMARK    7  A    between atoms: CG   and  CD  
ROOT
ATOM     14  CA  GLU D 570     -18.033  -6.348 -13.375  1.00 32.92     0.160 C 
ENDROOT
BRANCH  14  15
ATOM     15  CB  GLU D 570     -19.500  -6.345 -13.794  1.00 32.92     0.043 C 
BRANCH  15  16
ATOM     16  CG  GLU D 570     -19.806  -6.023 -15.212  1.00 32.92     0.100 C 
BRANCH  16  17
ATOM     17  CD  GLU D 570     -21.272  -5.743 -15.449  1.00 32.92     0.185 C 
ATOM     18  OE1 GLU D 570     -21.601  -4.688 -16.025  1.00 32.92    -0.647 OA
ATOM     19  OE2 GLU D 570     -22.101  -6.580 -15.040  1.00 32.92    -0.647 OA
ENDBRANCH  16  17
ENDBRANCH  15  16
ENDBRANCH  14  15
END_RES GLU D 570
ENDMDL
MODEL 7
REMARK VINA RESULT:      -4.9      1.110      2.417
REMARK  7 active torsions:
REMARK  status: ('A' for Active; 'I' for Inactive)
REMARK    1  A    between atoms: C_1  and  C_2 
REMARK    2  A    between atoms: C_1  and  C_8 
REMARK    3  A    between atoms: C_2  and  CA_3 
REMARK    4  A    between atoms: CA_3  and  C_4 
REMARK    5  A    between atoms: CA_3  and  N_7 
REMARK    6  A    between atoms: C_4  and  OXT_6 
REMARK    7  A    between atoms: C_8  and  N_9 
ROOT
HETATM    1  CA  UNL     1     -21.868  -4.416 -10.917  1.00  0.00     0.314 C 
ENDROOT
BRANCH   1   2
HETATM    2  C   UNL     1     -21.902  -3.599  -9.609  1.00  0.00     0.048 C 
BRANCH   2   3
HETATM    3  C   UNL     1     -21.304  -4.385  -8.430  1.00  0.00     0.032 C 
BRANCH   3   4
HETATM    4  C   UNL     1     -22.308  -4.567  -7.286  1.00  0.00     0.267 C 
BRANCH   4   5
HETATM    5  N   UNL     1     -23.647  -4.142  -7.690  1.00  0.00     0.078 N 
HETATM    6  H   UNL     1     -23.563  -3.396  -8.418  1.00  0.00     0.312 HD
HETATM    7  H   UNL     1     -24.128  -3.727  -6.860  1.00  0.00     0.312 HD
ENDBRANCH   4   5
ENDBRANCH   3   4
ENDBRANCH   2   3
ENDBRANCH   1   2
BRANCH   1   8
HETATM    8  C   UNL     1     -23.272  -4.805 -11.332  1.00  0.00     0.173 C 
HETATM    9  O   UNL     1     -24.098  -5.103 -10.483  1.00  0.00    -0.648 OA
BRANCH   8  10
HETATM   10  OXT UNL     1     -23.632  -4.815 -12.633  1.00  0.00    -0.775 OA
HETATM   11  HXT UNL     1     -24.393  -4.315 -12.958  1.00  0.00     0.167 HD
ENDBRANCH   8  10
ENDBRANCH   1   8
BRANCH   1  12
HETATM   12  N   UNL     1     -21.221  -3.649 -11.984  1.00  0.00     0.093 N 
HETATM   13  H1  UNL     1     -21.936  -3.141 -12.554  1.00  0.00     0.314 HD
HETATM   14  H2  UNL     1     -20.692  -4.301 -12.611  1.00  0.00     0.314 HD
ENDBRANCH   1  12
TORSDOF 7
BEGIN_RES ARG D 557
REMARK  4 active torsions:
REMARK  status: ('A' for Active; 'I' for Inactive)
REMARK    1  A    between atoms: CA   and  CB  
REMARK    2  A    between atoms: CB   and  CG  
REMARK    3  A    between atoms: CG   and  CD  
REMARK    4  A    between atoms: CD   and  NE  
REMARK       I    between atoms: NE   and  CZ  
REMARK       I    between atoms: CZ   and  NH1 
REMARK       I    between atoms: CZ   and  NH2 
ROOT
ATOM      1  CA  ARG D 557     -26.217   2.705 -17.014  1.00 35.49     0.159 C 
ENDROOT
BRANCH   1   2
ATOM      2  CB  ARG D 557     -26.789   1.319 -17.183  1.00 35.49     0.034 C 
BRANCH   2   3
ATOM      3  CG  ARG D 557     -25.860   0.195 -17.012  1.00 35.49     0.027 C 
BRANCH   3   4
ATOM      4  CD  ARG D 557     -26.255  -0.699 -15.900  1.00 35.49     0.116 C 
BRANCH   4   5
ATOM      5  NE  ARG D 557     -25.197  -0.871 -14.939  1.00 35.49    -0.212 N 
ATOM      6  CZ  ARG D 557     -24.874  -1.997 -14.345  1.00 35.49     0.666 C 
ATOM      7  NH1 ARG D 557     -25.522  -3.126 -14.566  1.00 35.49    -0.235 N 
ATOM      8  NH2 ARG D 557     -23.871  -1.973 -13.517  1.00 35.49    -0.235 N 
ATOM      9  HH  ARG D 557     -26.184  -3.166 -15.109  1.00 35.49     0.174 HD
ATOM     10  HH  ARG D 557     -25.265  -3.831 -14.151  1.00 35.49     0.174 HD
ATOM     11  HH  ARG D 557     -23.466  -1.232 -13.399  1.00 35.49     0.174 HD
ATOM     12  HH  ARG D 557     -23.630  -2.682 -13.117  1.00 35.49     0.174 HD
ATOM     13  HE  ARG D 557     -24.774  -0.179 -14.683  1.00 35.49     0.178 HD
ENDBRANCH   4   5
ENDBRANCH   3   4
ENDBRANCH   2   3
ENDBRANCH   1   2
END_RES ARG D 557
BEGIN_RES GLU D 570
REMARK  3 active torsions:
REMARK  status: ('A' for Active; 'I' for Inactive)
REMARK    5  A    between atoms: CA   and  CB  
REMARK    6  A    between atoms: CB   and  CG  
REMARK    7  A    between atoms: CG   and  CD  
ROOT
ATOM     14  CA  GLU D 570     -18.033  -6.348 -13.375  1.00 32.92     0.160 C 
ENDROOT
BRANCH  14  15
ATOM     15  CB  GLU D 570     -19.500  -6.345 -13.794  1.00 32.92     0.043 C 
BRANCH  15  16
ATOM     16  CG  GLU D 570     -19.797  -6.253 -15.247  1.00 32.92     0.100 C 
BRANCH  16  17
ATOM     17  CD  GLU D 570     -21.031  -5.435 -15.546  1.00 32.92     0.185 C 
ATOM     18  OE1 GLU D 570     -21.689  -4.964 -14.598  1.00 32.92    -0.647 OA
ATOM     19  OE2 GLU D 570     -21.353  -5.278 -16.740  1.00 32.92    -0.647 OA
ENDBRANCH  16  17
ENDBRANCH  15  16
ENDBRANCH  14  15
END_RES GLU D 570
ENDMDL
MODEL 8
REMARK VINA RESULT:      -4.8      5.734      8.005
REMARK  7 active torsions:
REMARK  status: ('A' for Active; 'I' for Inactive)
REMARK    1  A    between atoms: C_1  and  C_2 
REMARK    2  A    between atoms: C_1  and  C_8 
REMARK    3  A    between atoms: C_2  and  CA_3 
REMARK    4  A    between atoms: CA_3  and  C_4 
REMARK    5  A    between atoms: CA_3  and  N_7 
REMARK    6  A    between atoms: C_4  and  OXT_6 
REMARK    7  A    between atoms: C_8  and  N_9 
ROOT
HETATM    1  CA  UNL     1     -31.730  -4.776 -16.553  1.00  0.00     0.314 C 
ENDROOT
BRANCH   1   2
HETATM    2  C   UNL     1     -30.425  -5.589 -16.684  1.00  0.00     0.048 C 
BRANCH   2   3
HETATM    3  C   UNL     1     -30.649  -6.912 -17.434  1.00  0.00     0.032 C 
BRANCH   3   4
HETATM    4  C   UNL     1     -29.543  -7.194 -18.457  1.00  0.00     0.267 C 
BRANCH   4   5
HETATM    5  N   UNL     1     -29.531  -8.602 -18.844  1.00  0.00     0.078 N 
HETATM    6  H   UNL     1     -30.512  -8.966 -18.842  1.00  0.00     0.312 HD
HETATM    7  H   UNL     1     -28.990  -9.139 -18.129  1.00  0.00     0.312 HD
ENDBRANCH   4   5
ENDBRANCH   3   4
ENDBRANCH   2   3
ENDBRANCH   1   2
BRANCH   1   8
HETATM    8  C   UNL     1     -31.706  -3.587 -17.492  1.00  0.00     0.173 C 
HETATM    9  O   UNL     1     -32.722  -2.935 -17.677  1.00  0.00    -0.648 OA
BRANCH   8  10
HETATM   10  OXT UNL     1     -30.569  -3.226 -18.123  1.00  0.00    -0.775 OA
HETATM   11  HXT UNL     1     -29.778  -3.784 -18.112  1.00  0.00     0.167 HD
ENDBRANCH   8  10
ENDBRANCH   1   8
BRANCH   1  12
HETATM   12  N   UNL     1     -32.892  -5.621 -16.838  1.00  0.00     0.093 N 
HETATM   13  H1  UNL     1     -32.616  -6.429 -17.443  1.00  0.00     0.314 HD
HETATM   14  H2  UNL     1     -33.619  -5.058 -17.339  1.00  0.00     0.314 HD
ENDBRANCH   1  12
TORSDOF 7
BEGIN_RES ARG D 557
REMARK  4 active torsions:
REMARK  status: ('A' for Active; 'I' for Inactive)
REMARK    1  A    between atoms: CA   and  CB  
REMARK    2  A    between atoms: CB   and  CG  
REMARK    3  A    between atoms: CG   and  CD  
REMARK    4  A    between atoms: CD   and  NE  
REMARK       I    between atoms: NE   and  CZ  
REMARK       I    between atoms: CZ   and  NH1 
REMARK       I    between atoms: CZ   and  NH2 
ROOT
ATOM      1  CA  ARG D 557     -26.217   2.705 -17.014  1.00 35.49     0.159 C 
ENDROOT
BRANCH   1   2
ATOM      2  CB  ARG D 557     -26.789   1.319 -17.183  1.00 35.49     0.034 C 
BRANCH   2   3
ATOM      3  CG  ARG D 557     -28.229   1.165 -16.942  1.00 35.49     0.027 C 
BRANCH   3   4
ATOM      4  CD  ARG D 557     -28.599  -0.231 -16.613  1.00 35.49     0.116 C 
BRANCH   4   5
ATOM      5  NE  ARG D 557     -27.558  -0.912 -15.889  1.00 35.49    -0.212 N 
ATOM      6  CZ  ARG D 557     -27.286  -2.196 -15.961  1.00 35.49     0.666 C 
ATOM      7  NH1 ARG D 557     -27.976  -3.025 -16.723  1.00 35.49    -0.235 N 
ATOM      8  NH2 ARG D 557     -26.291  -2.640 -15.250  1.00 35.49    -0.235 N 
ATOM      9  HH  ARG D 557     -28.634  -2.755 -17.201  1.00 35.49     0.174 HD
ATOM     10  HH  ARG D 557     -27.751  -3.852 -16.732  1.00 35.49     0.174 HD
ATOM     11  HH  ARG D 557     -25.858  -2.080 -14.774  1.00 35.49     0.174 HD
ATOM     12  HH  ARG D 557     -26.083  -3.461 -15.274  1.00 35.49     0.174 HD
ATOM     13  HE  ARG D 557     -27.110  -0.467 -15.320  1.00 35.49     0.178 HD
ENDBRANCH   4   5
ENDBRANCH   3   4
ENDBRANCH   2   3
ENDBRANCH   1   2
END_RES ARG D 557
BEGIN_RES GLU D 570
REMARK  3 active torsions:
REMARK  status: ('A' for Active; 'I' for Inactive)
REMARK    5  A    between atoms: CA   and  CB  
REMARK    6  A    between atoms: CB   and  CG  
REMARK    7  A    between atoms: CG   and  CD  
ROOT
ATOM     14  CA  GLU D 570     -18.033  -6.348 -13.375  1.00 32.92     0.160 C 
ENDROOT
BRANCH  14  15
ATOM     15  CB  GLU D 570     -19.500  -6.345 -13.794  1.00 32.92     0.043 C 
BRANCH  15  16
ATOM     16  CG  GLU D 570     -20.451  -5.572 -12.953  1.00 32.92     0.100 C 
BRANCH  16  17
ATOM     17  CD  GLU D 570     -21.696  -5.157 -13.701  1.00 32.92     0.185 C 
ATOM     18  OE1 GLU D 570     -21.703  -5.217 -14.946  1.00 32.92    -0.647 OA
ATOM     19  OE2 GLU D 570     -22.669  -4.751 -13.036  1.00 32.92    -0.647 OA
ENDBRANCH  16  17
ENDBRANCH  15  16
ENDBRANCH  14  15
END_RES GLU D 570
ENDMDL
MODEL 9
REMARK VINA RESULT:      -4.7      6.974      8.544
REMARK  7 active torsions:
REMARK  status: ('A' for Active; 'I' for Inactive)
REMARK    1  A    between atoms: C_1  and  C_2 
REMARK    2  A    between atoms: C_1  and  C_8 
REMARK    3  A    between atoms: C_2  and  CA_3 
REMARK    4  A    between atoms: CA_3  and  C_4 
REMARK    5  A    between atoms: CA_3  and  N_7 
REMARK    6  A    between atoms: C_4  and  OXT_6 
REMARK    7  A    between atoms: C_8  and  N_9 
ROOT
HETATM    1  CA  UNL     1     -33.925  -1.994 -11.508  1.00  0.00     0.314 C 
ENDROOT
BRANCH   1   2
HETATM    2  C   UNL     1     -33.140  -3.315 -11.363  1.00  0.00     0.048 C 
BRANCH   2   3
HETATM    3  C   UNL     1     -33.947  -4.377 -10.599  1.00  0.00     0.032 C 
BRANCH   3   4
HETATM    4  C   UNL     1     -34.316  -5.573 -11.485  1.00  0.00     0.267 C 
BRANCH   4   5
HETATM    5  N   UNL     1     -34.067  -6.835 -10.794  1.00  0.00     0.078 N 
HETATM    6  H   UNL     1     -33.346  -6.682 -10.051  1.00  0.00     0.312 HD
HETATM    7  H   UNL     1     -33.679  -7.520 -11.481  1.00  0.00     0.312 HD
ENDBRANCH   4   5
ENDBRANCH   3   4
ENDBRANCH   2   3
ENDBRANCH   1   2
BRANCH   1   8
HETATM    8  C   UNL     1     -34.955  -2.113 -12.613  1.00  0.00     0.173 C 
HETATM    9  O   UNL     1     -36.084  -1.679 -12.444  1.00  0.00    -0.648 OA
BRANCH   8  10
HETATM   10  OXT UNL     1     -34.639  -2.684 -13.795  1.00  0.00    -0.775 OA
HETATM   11  HXT UNL     1     -34.028  -3.431 -13.856  1.00  0.00     0.167 HD
ENDBRANCH   8  10
ENDBRANCH   1   8
BRANCH   1  12
HETATM   12  N   UNL     1     -34.577  -1.643 -10.245  1.00  0.00     0.093 N 
HETATM   13  H1  UNL     1     -35.411  -2.254 -10.082  1.00  0.00     0.314 HD
HETATM   14  H2  UNL     1     -34.893  -0.645 -10.281  1.00  0.00     0.314 HD
ENDBRANCH   1  12
TORSDOF 7
BEGIN_RES ARG D 557
REMARK  4 active torsions:
REMARK  status: ('A' for Active; 'I' for Inactive)
REMARK    1  A    between atoms: CA   and  CB  
REMARK    2  A    between atoms: CB   and  CG  
REMARK    3  A    between atoms: CG   and  CD  
REMARK    4  A    between atoms: CD   and  NE  
REMARK       I    between atoms: NE   and  CZ  
REMARK       I    between atoms: CZ   and  NH1 
REMARK       I    between atoms: CZ   and  NH2 
ROOT
ATOM      1  CA  ARG D 557     -26.217   2.705 -17.014  1.00 35.49     0.159 C 
ENDROOT
BRANCH   1   2
ATOM      2  CB  ARG D 557     -26.789   1.319 -17.183  1.00 35.49     0.034 C 
BRANCH   2   3
ATOM      3  CG  ARG D 557     -28.233   1.226 -17.430  1.00 35.49     0.027 C 
BRANCH   3   4
ATOM      4  CD  ARG D 557     -28.906   0.296 -16.494  1.00 35.49     0.116 C 
BRANCH   4   5
ATOM      5  NE  ARG D 557     -29.282  -0.938 -17.133  1.00 35.49    -0.212 N 
ATOM      6  CZ  ARG D 557     -28.644  -2.082 -17.030  1.00 35.49     0.666 C 
ATOM      7  NH1 ARG D 557     -27.542  -2.217 -16.315  1.00 35.49    -0.235 N 
ATOM      8  NH2 ARG D 557     -29.140  -3.106 -17.662  1.00 35.49    -0.235 N 
ATOM      9  HH  ARG D 557     -27.199  -1.558 -15.889  1.00 35.49     0.174 HD
ATOM     10  HH  ARG D 557     -27.171  -2.989 -16.282  1.00 35.49     0.174 HD
ATOM     11  HH  ARG D 557     -29.856  -2.990 -18.111  1.00 35.49     0.174 HD
ATOM     12  HH  ARG D 557     -28.758  -3.861 -17.617  1.00 35.49     0.174 HD
ATOM     13  HE  ARG D 557     -29.940  -0.924 -17.672  1.00 35.49     0.178 HD
ENDBRANCH   4   5
ENDBRANCH   3   4
ENDBRANCH   2   3
ENDBRANCH   1   2
END_RES ARG D 557
BEGIN_RES GLU D 570
REMARK  3 active torsions:
REMARK  status: ('A' for Active; 'I' for Inactive)
REMARK    5  A    between atoms: CA   and  CB  
REMARK    6  A    between atoms: CB   and  CG  
REMARK    7  A    between atoms: CG   and  CD  
ROOT
ATOM     14  CA  GLU D 570     -18.033  -6.348 -13.375  1.00 32.92     0.160 C 
ENDROOT
BRANCH  14  15
ATOM     15  CB  GLU D 570     -19.500  -6.345 -13.794  1.00 32.92     0.043 C 
BRANCH  15  16
ATOM     16  CG  GLU D 570     -20.449  -5.566 -12.958  1.00 32.92     0.100 C 
BRANCH  16  17
ATOM     17  CD  GLU D 570     -21.700  -5.164 -13.705  1.00 32.92     0.185 C 
ATOM     18  OE1 GLU D 570     -22.764  -5.027 -13.072  1.00 32.92    -0.647 OA
ATOM     19  OE2 GLU D 570     -21.617  -5.000 -14.938  1.00 32.92    -0.647 OA
ENDBRANCH  16  17
ENDBRANCH  15  16
ENDBRANCH  14  15
END_RES GLU D 570
ENDMDL
