MODEL 1
REMARK VINA RESULT:      -8.2      0.000      0.000
REMARK  2 active torsions:
REMARK  status: ('A' for Active; 'I' for Inactive)
REMARK    1  A    between atoms: C_5  and  O_8 
REMARK    2  A    between atoms: C_13  and  O_32 
ROOT
HETATM    1  C   UNL     1     -21.105 -13.730  -3.312  1.00  0.00     0.036 A 
HETATM    2  C   UNL     1     -21.253 -12.387  -2.906  1.00  0.00     0.023 A 
HETATM    3  C   UNL     1     -21.654 -12.113  -1.594  1.00  0.00     0.106 A 
HETATM    4  C   UNL     1     -21.861 -13.175  -0.693  1.00  0.00     0.080 A 
HETATM    5  C   UNL     1     -21.680 -14.504  -1.104  1.00  0.00     0.103 A 
HETATM    6  C   UNL     1     -21.307 -14.778  -2.417  1.00  0.00     0.046 A 
HETATM    7 BR   UNL     1     -21.026 -16.548  -3.038  1.00  0.00    -0.048 Br
HETATM    8 BR   UNL     1     -22.362 -12.828   1.111  1.00  0.00    -0.045 Br
HETATM    9  O   UNL     1     -21.838 -10.831  -1.129  1.00  0.00    -0.306 OA
HETATM   10  C   UNL     1     -21.691  -9.752  -1.973  1.00  0.00     0.106 A 
HETATM   11  C   UNL     1     -21.955  -8.471  -1.452  1.00  0.00     0.080 A 
HETATM   12  C   UNL     1     -21.799  -7.329  -2.252  1.00  0.00     0.103 A 
HETATM   13  C   UNL     1     -21.391  -7.465  -3.576  1.00  0.00     0.046 A 
HETATM   14  C   UNL     1     -21.139  -8.732  -4.099  1.00  0.00     0.036 A 
HETATM   15  C   UNL     1     -21.270  -9.888  -3.300  1.00  0.00     0.023 A 
HETATM   16  C   UNL     1     -20.921 -11.251  -3.847  1.00  0.00     0.161 A 
HETATM   17  C   UNL     1     -19.516 -11.332  -4.368  1.00  0.00     0.028 A 
HETATM   18  C   UNL     1     -19.554 -11.569  -5.735  1.00  0.00     0.074 A 
HETATM   19  C   UNL     1     -18.402 -11.726  -6.492  1.00  0.00     0.074 A 
HETATM   20  C   UNL     1     -17.162 -11.630  -5.832  1.00  0.00     0.080 A 
HETATM   21  C   UNL     1     -17.110 -11.373  -4.439  1.00  0.00     0.080 A 
HETATM   22  C   UNL     1     -18.299 -11.227  -3.702  1.00  0.00     0.068 A 
HETATM   23 CL   UNL     1     -18.279 -10.924  -2.000  1.00  0.00    -0.082 Cl
HETATM   24 CL   UNL     1     -15.575 -11.245  -3.628  1.00  0.00    -0.081 Cl
HETATM   25 CL   UNL     1     -15.688 -11.831  -6.733  1.00  0.00    -0.081 Cl
HETATM   26 CL   UNL     1     -18.501 -12.044  -8.188  1.00  0.00    -0.081 Cl
HETATM   27  C   UNL     1     -20.954 -11.623  -6.154  1.00  0.00     0.297 A 
HETATM   28  O   UNL     1     -21.389 -11.786  -7.274  1.00  0.00    -0.259 OA
HETATM   29  O   UNL     1     -21.715 -11.443  -5.040  1.00  0.00    -0.291 OA
HETATM   30 BR   UNL     1     -21.136  -5.966  -4.710  1.00  0.00    -0.048 Br
HETATM   31 BR   UNL     1     -22.514  -8.260   0.357  1.00  0.00    -0.045 Br
ENDROOT
BRANCH   5  32
HETATM   32  O   UNL     1     -21.856 -15.549  -0.235  1.00  0.00    -0.358 OA
HETATM   33  H   UNL     1     -22.240 -15.205   0.589  1.00  0.00     0.217 HD
ENDBRANCH   5  32
BRANCH  12  34
HETATM   34  O   UNL     1     -22.035  -6.073  -1.759  1.00  0.00    -0.358 OA
HETATM   35  H   UNL     1     -22.909  -5.777  -2.071  1.00  0.00     0.217 HD
ENDBRANCH  12  34
TORSDOF 2
BEGIN_RES ARG D 557
REMARK  4 active torsions:
REMARK  status: ('A' for Active; 'I' for Inactive)
REMARK    1  A    between atoms: CA   and  CB  
REMARK    2  A    between atoms: CB   and  CG  
REMARK    3  A    between atoms: CG   and  CD  
REMARK    4  A    between atoms: CD   and  NE  
REMARK       I    between atoms: NE   and  CZ  
REMARK       I    between atoms: CZ   and  NH1 
REMARK       I    between atoms: CZ   and  NH2 
ROOT
ATOM      1  CA  ARG D 557     -26.217   2.705 -17.014  1.00 35.49     0.159 C 
ENDROOT
BRANCH   1   2
ATOM      2  CB  ARG D 557     -26.789   1.319 -17.183  1.00 35.49     0.034 C 
BRANCH   2   3
ATOM      3  CG  ARG D 557     -25.836   0.203 -17.150  1.00 35.49     0.027 C 
BRANCH   3   4
ATOM      4  CD  ARG D 557     -24.757   0.411 -16.157  1.00 35.49     0.116 C 
BRANCH   4   5
ATOM      5  NE  ARG D 557     -24.904  -0.444 -15.009  1.00 35.49    -0.212 N 
ATOM      6  CZ  ARG D 557     -24.087  -1.414 -14.664  1.00 35.49     0.666 C 
ATOM      7  NH1 ARG D 557     -23.016  -1.724 -15.371  1.00 35.49    -0.235 N 
ATOM      8  NH2 ARG D 557     -24.364  -2.074 -13.577  1.00 35.49    -0.235 N 
ATOM      9  HH  ARG D 557     -22.813  -1.301 -16.088  1.00 35.49     0.174 HD
ATOM     10  HH  ARG D 557     -22.518  -2.365 -15.096  1.00 35.49     0.174 HD
ATOM     11  HH  ARG D 557     -25.058  -1.847 -13.137  1.00 35.49     0.174 HD
ATOM     12  HH  ARG D 557     -23.858  -2.705 -13.321  1.00 35.49     0.174 HD
ATOM     13  HE  ARG D 557     -25.607  -0.362 -14.537  1.00 35.49     0.178 HD
ENDBRANCH   4   5
ENDBRANCH   3   4
ENDBRANCH   2   3
ENDBRANCH   1   2
END_RES ARG D 557
BEGIN_RES GLU D 570
REMARK  3 active torsions:
REMARK  status: ('A' for Active; 'I' for Inactive)
REMARK    5  A    between atoms: CA   and  CB  
REMARK    6  A    between atoms: CB   and  CG  
REMARK    7  A    between atoms: CG   and  CD  
ROOT
ATOM     14  CA  GLU D 570     -18.033  -6.348 -13.375  1.00 32.92     0.160 C 
ENDROOT
BRANCH  14  15
ATOM     15  CB  GLU D 570     -19.500  -6.345 -13.794  1.00 32.92     0.043 C 
BRANCH  15  16
ATOM     16  CG  GLU D 570     -20.443  -5.535 -12.980  1.00 32.92     0.100 C 
BRANCH  16  17
ATOM     17  CD  GLU D 570     -21.734  -5.230 -13.703  1.00 32.92     0.185 C 
ATOM     18  OE1 GLU D 570     -22.293  -4.134 -13.508  1.00 32.92    -0.647 OA
ATOM     19  OE2 GLU D 570     -22.201  -6.105 -14.460  1.00 32.92    -0.647 OA
ENDBRANCH  16  17
ENDBRANCH  15  16
ENDBRANCH  14  15
END_RES GLU D 570
ENDMDL
MODEL 2
REMARK VINA RESULT:      -7.6      2.388      4.962
REMARK  2 active torsions:
REMARK  status: ('A' for Active; 'I' for Inactive)
REMARK    1  A    between atoms: C_5  and  O_8 
REMARK    2  A    between atoms: C_13  and  O_32 
ROOT
HETATM    1  C   UNL     1     -19.456  -8.371  -5.060  1.00  0.00     0.036 A 
HETATM    2  C   UNL     1     -19.417  -9.232  -3.944  1.00  0.00     0.023 A 
HETATM    3  C   UNL     1     -20.189  -8.925  -2.819  1.00  0.00     0.106 A 
HETATM    4  C   UNL     1     -21.022  -7.790  -2.835  1.00  0.00     0.080 A 
HETATM    5  C   UNL     1     -21.074  -6.960  -3.964  1.00  0.00     0.103 A 
HETATM    6  C   UNL     1     -20.284  -7.250  -5.074  1.00  0.00     0.046 A 
HETATM    7 BR   UNL     1     -20.317  -6.184  -6.642  1.00  0.00    -0.048 Br
HETATM    8 BR   UNL     1     -22.119  -7.375  -1.334  1.00  0.00    -0.045 Br
HETATM    9  O   UNL     1     -20.189  -9.706  -1.686  1.00  0.00    -0.306 OA
HETATM   10  C   UNL     1     -19.366 -10.806  -1.593  1.00  0.00     0.106 A 
HETATM   11  C   UNL     1     -19.366 -11.526  -0.383  1.00  0.00     0.080 A 
HETATM   12  C   UNL     1     -18.569 -12.671  -0.234  1.00  0.00     0.103 A 
HETATM   13  C   UNL     1     -17.761 -13.092  -1.286  1.00  0.00     0.046 A 
HETATM   14  C   UNL     1     -17.750 -12.376  -2.482  1.00  0.00     0.036 A 
HETATM   15  C   UNL     1     -18.563 -11.235  -2.654  1.00  0.00     0.023 A 
HETATM   16  C   UNL     1     -18.606 -10.508  -3.977  1.00  0.00     0.161 A 
HETATM   17  C   UNL     1     -18.986 -11.397  -5.124  1.00  0.00     0.028 A 
HETATM   18  C   UNL     1     -17.917 -11.482  -6.005  1.00  0.00     0.074 A 
HETATM   19  C   UNL     1     -17.985 -12.212  -7.183  1.00  0.00     0.074 A 
HETATM   20  C   UNL     1     -19.185 -12.889  -7.471  1.00  0.00     0.080 A 
HETATM   21  C   UNL     1     -20.278 -12.822  -6.573  1.00  0.00     0.080 A 
HETATM   22  C   UNL     1     -20.176 -12.067  -5.390  1.00  0.00     0.068 A 
HETATM   23 CL   UNL     1     -21.492 -11.952  -4.273  1.00  0.00    -0.082 Cl
HETATM   24 CL   UNL     1     -21.757 -13.669  -6.927  1.00  0.00    -0.081 Cl
HETATM   25 CL   UNL     1     -19.324 -13.808  -8.942  1.00  0.00    -0.081 Cl
HETATM   26 CL   UNL     1     -16.634 -12.267  -8.260  1.00  0.00    -0.081 Cl
HETATM   27  C   UNL     1     -16.813 -10.691  -5.465  1.00  0.00     0.297 A 
HETATM   28  O   UNL     1     -15.705 -10.542  -5.936  1.00  0.00    -0.259 OA
HETATM   29  O   UNL     1     -17.246 -10.137  -4.300  1.00  0.00    -0.291 OA
HETATM   30 BR   UNL     1     -16.676 -14.643  -1.166  1.00  0.00    -0.048 Br
HETATM   31 BR   UNL     1     -20.464 -10.970   1.071  1.00  0.00    -0.045 Br
ENDROOT
BRANCH   5  32
HETATM   32  O   UNL     1     -21.894  -5.863  -4.006  1.00  0.00    -0.358 OA
HETATM   33  H   UNL     1     -21.646  -5.264  -3.282  1.00  0.00     0.217 HD
ENDBRANCH   5  32
BRANCH  12  34
HETATM   34  O   UNL     1     -18.569 -13.394   0.930  1.00  0.00    -0.358 OA
HETATM   35  H   UNL     1     -17.645 -13.545   1.200  1.00  0.00     0.217 HD
ENDBRANCH  12  34
TORSDOF 2
BEGIN_RES ARG D 557
REMARK  4 active torsions:
REMARK  status: ('A' for Active; 'I' for Inactive)
REMARK    1  A    between atoms: CA   and  CB  
REMARK    2  A    between atoms: CB   and  CG  
REMARK    3  A    between atoms: CG   and  CD  
REMARK    4  A    between atoms: CD   and  NE  
REMARK       I    between atoms: NE   and  CZ  
REMARK       I    between atoms: CZ   and  NH1 
REMARK       I    between atoms: CZ   and  NH2 
ROOT
ATOM      1  CA  ARG D 557     -26.217   2.705 -17.014  1.00 35.49     0.159 C 
ENDROOT
BRANCH   1   2
ATOM      2  CB  ARG D 557     -26.789   1.319 -17.183  1.00 35.49     0.034 C 
BRANCH   2   3
ATOM      3  CG  ARG D 557     -25.836   0.203 -17.149  1.00 35.49     0.027 C 
BRANCH   3   4
ATOM      4  CD  ARG D 557     -24.755   0.413 -16.160  1.00 35.49     0.116 C 
BRANCH   4   5
ATOM      5  NE  ARG D 557     -24.899  -0.441 -15.010  1.00 35.49    -0.212 N 
ATOM      6  CZ  ARG D 557     -24.077  -1.407 -14.663  1.00 35.49     0.666 C 
ATOM      7  NH1 ARG D 557     -23.004  -1.712 -15.369  1.00 35.49    -0.235 N 
ATOM      8  NH2 ARG D 557     -24.352  -2.067 -13.576  1.00 35.49    -0.235 N 
ATOM      9  HH  ARG D 557     -22.803  -1.290 -16.086  1.00 35.49     0.174 HD
ATOM     10  HH  ARG D 557     -22.503  -2.350 -15.092  1.00 35.49     0.174 HD
ATOM     11  HH  ARG D 557     -25.048  -1.843 -13.137  1.00 35.49     0.174 HD
ATOM     12  HH  ARG D 557     -23.843  -2.694 -13.318  1.00 35.49     0.174 HD
ATOM     13  HE  ARG D 557     -25.602  -0.362 -14.539  1.00 35.49     0.178 HD
ENDBRANCH   4   5
ENDBRANCH   3   4
ENDBRANCH   2   3
ENDBRANCH   1   2
END_RES ARG D 557
BEGIN_RES GLU D 570
REMARK  3 active torsions:
REMARK  status: ('A' for Active; 'I' for Inactive)
REMARK    5  A    between atoms: CA   and  CB  
REMARK    6  A    between atoms: CB   and  CG  
REMARK    7  A    between atoms: CG   and  CD  
ROOT
ATOM     14  CA  GLU D 570     -18.033  -6.348 -13.375  1.00 32.92     0.160 C 
ENDROOT
BRANCH  14  15
ATOM     15  CB  GLU D 570     -19.500  -6.345 -13.794  1.00 32.92     0.043 C 
BRANCH  15  16
ATOM     16  CG  GLU D 570     -20.443  -5.536 -12.979  1.00 32.92     0.100 C 
BRANCH  16  17
ATOM     17  CD  GLU D 570     -21.737  -5.236 -13.699  1.00 32.92     0.185 C 
ATOM     18  OE1 GLU D 570     -22.291  -4.136 -13.515  1.00 32.92    -0.647 OA
ATOM     19  OE2 GLU D 570     -22.210  -6.118 -14.443  1.00 32.92    -0.647 OA
ENDBRANCH  16  17
ENDBRANCH  15  16
ENDBRANCH  14  15
END_RES GLU D 570
ENDMDL
MODEL 3
REMARK VINA RESULT:      -7.4      1.916      4.941
REMARK  2 active torsions:
REMARK  status: ('A' for Active; 'I' for Inactive)
REMARK    1  A    between atoms: C_5  and  O_8 
REMARK    2  A    between atoms: C_13  and  O_32 
ROOT
HETATM    1  C   UNL     1     -19.996  -8.558  -2.731  1.00  0.00     0.036 A 
HETATM    2  C   UNL     1     -20.142  -9.780  -2.042  1.00  0.00     0.023 A 
HETATM    3  C   UNL     1     -21.161  -9.907  -1.092  1.00  0.00     0.106 A 
HETATM    4  C   UNL     1     -22.045  -8.834  -0.870  1.00  0.00     0.080 A 
HETATM    5  C   UNL     1     -21.906  -7.636  -1.586  1.00  0.00     0.103 A 
HETATM    6  C   UNL     1     -20.875  -7.499  -2.512  1.00  0.00     0.046 A 
HETATM    7 BR   UNL     1     -20.637  -5.916  -3.530  1.00  0.00    -0.048 Br
HETATM    8 BR   UNL     1     -23.469  -8.999   0.384  1.00  0.00    -0.045 Br
HETATM    9  O   UNL     1     -21.355 -11.060  -0.366  1.00  0.00    -0.306 OA
HETATM   10  C   UNL     1     -20.499 -12.130  -0.507  1.00  0.00     0.106 A 
HETATM   11  C   UNL     1     -20.714 -13.255   0.310  1.00  0.00     0.080 A 
HETATM   12  C   UNL     1     -19.893 -14.387   0.197  1.00  0.00     0.103 A 
HETATM   13  C   UNL     1     -18.848 -14.393  -0.722  1.00  0.00     0.046 A 
HETATM   14  C   UNL     1     -18.625 -13.276  -1.526  1.00  0.00     0.036 A 
HETATM   15  C   UNL     1     -19.456 -12.139  -1.439  1.00  0.00     0.023 A 
HETATM   16  C   UNL     1     -19.259 -10.963  -2.365  1.00  0.00     0.161 A 
HETATM   17  C   UNL     1     -19.318 -11.341  -3.816  1.00  0.00     0.028 A 
HETATM   18  C   UNL     1     -18.080 -11.106  -4.396  1.00  0.00     0.074 A 
HETATM   19  C   UNL     1     -17.838 -11.332  -5.744  1.00  0.00     0.074 A 
HETATM   20  C   UNL     1     -18.898 -11.824  -6.530  1.00  0.00     0.080 A 
HETATM   21  C   UNL     1     -20.163 -12.081  -5.946  1.00  0.00     0.080 A 
HETATM   22  C   UNL     1     -20.373 -11.835  -4.577  1.00  0.00     0.068 A 
HETATM   23 CL   UNL     1     -21.905 -12.126  -3.829  1.00  0.00    -0.082 Cl
HETATM   24 CL   UNL     1     -21.467 -12.699  -6.918  1.00  0.00    -0.081 Cl
HETATM   25 CL   UNL     1     -18.650 -12.111  -8.227  1.00  0.00    -0.081 Cl
HETATM   26 CL   UNL     1     -16.284 -11.001  -6.425  1.00  0.00    -0.081 Cl
HETATM   27  C   UNL     1     -17.176 -10.603  -3.362  1.00  0.00     0.297 A 
HETATM   28  O   UNL     1     -16.005 -10.309  -3.477  1.00  0.00    -0.259 OA
HETATM   29  O   UNL     1     -17.890 -10.525  -2.206  1.00  0.00    -0.291 OA
HETATM   30 BR   UNL     1     -17.712 -15.895  -0.948  1.00  0.00    -0.048 Br
HETATM   31 BR   UNL     1     -22.139 -13.272   1.576  1.00  0.00    -0.045 Br
ENDROOT
BRANCH   5  32
HETATM   32  O   UNL     1     -22.770  -6.589  -1.399  1.00  0.00    -0.358 OA
HETATM   33  H   UNL     1     -23.413  -6.838  -0.714  1.00  0.00     0.217 HD
ENDBRANCH   5  32
BRANCH  12  34
HETATM   34  O   UNL     1     -20.097 -15.499   0.972  1.00  0.00    -0.358 OA
HETATM   35  H   UNL     1     -19.819 -16.283   0.466  1.00  0.00     0.217 HD
ENDBRANCH  12  34
TORSDOF 2
BEGIN_RES ARG D 557
REMARK  4 active torsions:
REMARK  status: ('A' for Active; 'I' for Inactive)
REMARK    1  A    between atoms: CA   and  CB  
REMARK    2  A    between atoms: CB   and  CG  
REMARK    3  A    between atoms: CG   and  CD  
REMARK    4  A    between atoms: CD   and  NE  
REMARK       I    between atoms: NE   and  CZ  
REMARK       I    between atoms: CZ   and  NH1 
REMARK       I    between atoms: CZ   and  NH2 
ROOT
ATOM      1  CA  ARG D 557     -26.217   2.705 -17.014  1.00 35.49     0.159 C 
ENDROOT
BRANCH   1   2
ATOM      2  CB  ARG D 557     -26.789   1.319 -17.183  1.00 35.49     0.034 C 
BRANCH   2   3
ATOM      3  CG  ARG D 557     -25.837   0.202 -17.144  1.00 35.49     0.027 C 
BRANCH   3   4
ATOM      4  CD  ARG D 557     -24.753   0.419 -16.159  1.00 35.49     0.116 C 
BRANCH   4   5
ATOM      5  NE  ARG D 557     -24.886  -0.434 -15.008  1.00 35.49    -0.212 N 
ATOM      6  CZ  ARG D 557     -24.063  -1.401 -14.669  1.00 35.49     0.666 C 
ATOM      7  NH1 ARG D 557     -22.997  -1.708 -15.385  1.00 35.49    -0.235 N 
ATOM      8  NH2 ARG D 557     -24.327  -2.060 -13.579  1.00 35.49    -0.235 N 
ATOM      9  HH  ARG D 557     -22.802  -1.286 -16.105  1.00 35.49     0.174 HD
ATOM     10  HH  ARG D 557     -22.494  -2.347 -15.114  1.00 35.49     0.174 HD
ATOM     11  HH  ARG D 557     -25.018  -1.835 -13.133  1.00 35.49     0.174 HD
ATOM     12  HH  ARG D 557     -23.817  -2.689 -13.326  1.00 35.49     0.174 HD
ATOM     13  HE  ARG D 557     -25.585  -0.354 -14.530  1.00 35.49     0.178 HD
ENDBRANCH   4   5
ENDBRANCH   3   4
ENDBRANCH   2   3
ENDBRANCH   1   2
END_RES ARG D 557
BEGIN_RES GLU D 570
REMARK  3 active torsions:
REMARK  status: ('A' for Active; 'I' for Inactive)
REMARK    5  A    between atoms: CA   and  CB  
REMARK    6  A    between atoms: CB   and  CG  
REMARK    7  A    between atoms: CG   and  CD  
ROOT
ATOM     14  CA  GLU D 570     -18.033  -6.348 -13.375  1.00 32.92     0.160 C 
ENDROOT
BRANCH  14  15
ATOM     15  CB  GLU D 570     -19.500  -6.345 -13.794  1.00 32.92     0.043 C 
BRANCH  15  16
ATOM     16  CG  GLU D 570     -20.445  -5.544 -12.973  1.00 32.92     0.100 C 
BRANCH  16  17
ATOM     17  CD  GLU D 570     -21.737  -5.238 -13.693  1.00 32.92     0.185 C 
ATOM     18  OE1 GLU D 570     -22.226  -6.097 -14.451  1.00 32.92    -0.647 OA
ATOM     19  OE2 GLU D 570     -22.257  -4.119 -13.510  1.00 32.92    -0.647 OA
ENDBRANCH  16  17
ENDBRANCH  15  16
ENDBRANCH  14  15
END_RES GLU D 570
ENDMDL
MODEL 4
REMARK VINA RESULT:      -7.2      2.819      5.294
REMARK  2 active torsions:
REMARK  status: ('A' for Active; 'I' for Inactive)
REMARK    1  A    between atoms: C_5  and  O_8 
REMARK    2  A    between atoms: C_13  and  O_32 
ROOT
HETATM    1  C   UNL     1     -19.420  -8.376  -5.078  1.00  0.00     0.036 A 
HETATM    2  C   UNL     1     -19.395  -9.235  -3.959  1.00  0.00     0.023 A 
HETATM    3  C   UNL     1     -20.174  -8.919  -2.841  1.00  0.00     0.106 A 
HETATM    4  C   UNL     1     -20.999  -7.778  -2.867  1.00  0.00     0.080 A 
HETATM    5  C   UNL     1     -21.037  -6.951  -3.999  1.00  0.00     0.103 A 
HETATM    6  C   UNL     1     -20.241  -7.250  -5.101  1.00  0.00     0.046 A 
HETATM    7 BR   UNL     1     -20.254  -6.189  -6.673  1.00  0.00    -0.048 Br
HETATM    8 BR   UNL     1     -22.106  -7.352  -1.376  1.00  0.00    -0.045 Br
HETATM    9  O   UNL     1     -20.188  -9.696  -1.705  1.00  0.00    -0.306 OA
HETATM   10  C   UNL     1     -19.373 -10.802  -1.603  1.00  0.00     0.106 A 
HETATM   11  C   UNL     1     -19.388 -11.518  -0.391  1.00  0.00     0.080 A 
HETATM   12  C   UNL     1     -18.599 -12.667  -0.232  1.00  0.00     0.103 A 
HETATM   13  C   UNL     1     -17.786 -13.097  -1.277  1.00  0.00     0.046 A 
HETATM   14  C   UNL     1     -17.760 -12.384  -2.475  1.00  0.00     0.036 A 
HETATM   15  C   UNL     1     -18.564 -11.239  -2.657  1.00  0.00     0.023 A 
HETATM   16  C   UNL     1     -18.592 -10.515  -3.982  1.00  0.00     0.161 A 
HETATM   17  C   UNL     1     -18.969 -11.406  -5.129  1.00  0.00     0.028 A 
HETATM   18  C   UNL     1     -17.894 -11.499  -6.001  1.00  0.00     0.074 A 
HETATM   19  C   UNL     1     -17.957 -12.233  -7.178  1.00  0.00     0.074 A 
HETATM   20  C   UNL     1     -19.159 -12.903  -7.474  1.00  0.00     0.080 A 
HETATM   21  C   UNL     1     -20.259 -12.827  -6.584  1.00  0.00     0.080 A 
HETATM   22  C   UNL     1     -20.162 -12.068  -5.403  1.00  0.00     0.068 A 
HETATM   23 CL   UNL     1     -21.485 -11.941  -4.297  1.00  0.00    -0.082 Cl
HETATM   24 CL   UNL     1     -21.741 -13.664  -6.948  1.00  0.00    -0.081 Cl
HETATM   25 CL   UNL     1     -19.293 -13.825  -8.943  1.00  0.00    -0.081 Cl
HETATM   26 CL   UNL     1     -16.598 -12.300  -8.244  1.00  0.00    -0.081 Cl
HETATM   27  C   UNL     1     -16.789 -10.715  -5.455  1.00  0.00     0.297 A 
HETATM   28  O   UNL     1     -15.676 -10.574  -5.918  1.00  0.00    -0.259 OA
HETATM   29  O   UNL     1     -17.228 -10.154  -4.295  1.00  0.00    -0.291 OA
HETATM   30 BR   UNL     1     -16.711 -14.654  -1.143  1.00  0.00    -0.048 Br
HETATM   31 BR   UNL     1     -20.493 -10.951   1.053  1.00  0.00    -0.045 Br
ENDROOT
BRANCH   5  32
HETATM   32  O   UNL     1     -21.850  -5.849  -4.050  1.00  0.00    -0.358 OA
HETATM   33  H   UNL     1     -21.803  -5.391  -3.194  1.00  0.00     0.217 HD
ENDBRANCH   5  32
BRANCH  12  34
HETATM   34  O   UNL     1     -18.612 -13.388   0.933  1.00  0.00    -0.358 OA
HETATM   35  H   UNL     1     -18.529 -12.769   1.680  1.00  0.00     0.217 HD
ENDBRANCH  12  34
TORSDOF 2
BEGIN_RES ARG D 557
REMARK  4 active torsions:
REMARK  status: ('A' for Active; 'I' for Inactive)
REMARK    1  A    between atoms: CA   and  CB  
REMARK    2  A    between atoms: CB   and  CG  
REMARK    3  A    between atoms: CG   and  CD  
REMARK    4  A    between atoms: CD   and  NE  
REMARK       I    between atoms: NE   and  CZ  
REMARK       I    between atoms: CZ   and  NH1 
REMARK       I    between atoms: CZ   and  NH2 
ROOT
ATOM      1  CA  ARG D 557     -26.217   2.705 -17.014  1.00 35.49     0.159 C 
ENDROOT
BRANCH   1   2
ATOM      2  CB  ARG D 557     -26.789   1.319 -17.183  1.00 35.49     0.034 C 
BRANCH   2   3
ATOM      3  CG  ARG D 557     -28.237   1.224 -17.406  1.00 35.49     0.027 C 
BRANCH   3   4
ATOM      4  CD  ARG D 557     -28.891   0.277 -16.475  1.00 35.49     0.116 C 
BRANCH   4   5
ATOM      5  NE  ARG D 557     -29.277  -0.946 -17.128  1.00 35.49    -0.212 N 
ATOM      6  CZ  ARG D 557     -28.653  -2.099 -17.031  1.00 35.49     0.666 C 
ATOM      7  NH1 ARG D 557     -27.559  -2.254 -16.309  1.00 35.49    -0.235 N 
ATOM      8  NH2 ARG D 557     -29.157  -3.110 -17.676  1.00 35.49    -0.235 N 
ATOM      9  HH  ARG D 557     -27.211  -1.603 -15.874  1.00 35.49     0.174 HD
ATOM     10  HH  ARG D 557     -27.197  -3.030 -16.281  1.00 35.49     0.174 HD
ATOM     11  HH  ARG D 557     -29.868  -2.982 -18.129  1.00 35.49     0.174 HD
ATOM     12  HH  ARG D 557     -28.784  -3.871 -17.635  1.00 35.49     0.174 HD
ATOM     13  HE  ARG D 557     -29.930  -0.919 -17.672  1.00 35.49     0.178 HD
ENDBRANCH   4   5
ENDBRANCH   3   4
ENDBRANCH   2   3
ENDBRANCH   1   2
END_RES ARG D 557
BEGIN_RES GLU D 570
REMARK  3 active torsions:
REMARK  status: ('A' for Active; 'I' for Inactive)
REMARK    5  A    between atoms: CA   and  CB  
REMARK    6  A    between atoms: CB   and  CG  
REMARK    7  A    between atoms: CG   and  CD  
ROOT
ATOM     14  CA  GLU D 570     -18.033  -6.348 -13.375  1.00 32.92     0.160 C 
ENDROOT
BRANCH  14  15
ATOM     15  CB  GLU D 570     -19.500  -6.345 -13.794  1.00 32.92     0.043 C 
BRANCH  15  16
ATOM     16  CG  GLU D 570     -20.449  -5.567 -12.957  1.00 32.92     0.100 C 
BRANCH  16  17
ATOM     17  CD  GLU D 570     -21.696  -5.157 -13.706  1.00 32.92     0.185 C 
ATOM     18  OE1 GLU D 570     -21.633  -4.987 -14.938  1.00 32.92    -0.647 OA
ATOM     19  OE2 GLU D 570     -22.743  -4.989 -13.050  1.00 32.92    -0.647 OA
ENDBRANCH  16  17
ENDBRANCH  15  16
ENDBRANCH  14  15
END_RES GLU D 570
ENDMDL
MODEL 5
REMARK VINA RESULT:      -7.2      3.413      5.257
REMARK  2 active torsions:
REMARK  status: ('A' for Active; 'I' for Inactive)
REMARK    1  A    between atoms: C_5  and  O_8 
REMARK    2  A    between atoms: C_13  and  O_32 
ROOT
HETATM    1  C   UNL     1     -18.069 -12.983  -0.109  1.00  0.00     0.036 A 
HETATM    2  C   UNL     1     -18.069 -12.223  -1.298  1.00  0.00     0.023 A 
HETATM    3  C   UNL     1     -16.938 -12.248  -2.121  1.00  0.00     0.106 A 
HETATM    4  C   UNL     1     -15.841 -13.059  -1.773  1.00  0.00     0.080 A 
HETATM    5  C   UNL     1     -15.869 -13.832  -0.603  1.00  0.00     0.103 A 
HETATM    6  C   UNL     1     -16.983 -13.787   0.230  1.00  0.00     0.046 A 
HETATM    7 BR   UNL     1     -17.099 -14.819   1.817  1.00  0.00    -0.048 Br
HETATM    8 BR   UNL     1     -14.308 -13.147  -2.900  1.00  0.00    -0.045 Br
HETATM    9  O   UNL     1     -16.855 -11.520  -3.286  1.00  0.00    -0.306 OA
HETATM   10  C   UNL     1     -17.878 -10.677  -3.660  1.00  0.00     0.106 A 
HETATM   11  C   UNL     1     -17.704  -9.913  -4.829  1.00  0.00     0.080 A 
HETATM   12  C   UNL     1     -18.719  -9.054  -5.278  1.00  0.00     0.103 A 
HETATM   13  C   UNL     1     -19.903  -8.947  -4.554  1.00  0.00     0.046 A 
HETATM   14  C   UNL     1     -20.074  -9.694  -3.390  1.00  0.00     0.036 A 
HETATM   15  C   UNL     1     -19.071 -10.578  -2.938  1.00  0.00     0.023 A 
HETATM   16  C   UNL     1     -19.292 -11.443  -1.720  1.00  0.00     0.161 A 
HETATM   17  C   UNL     1     -20.513 -12.309  -1.829  1.00  0.00     0.028 A 
HETATM   18  C   UNL     1     -21.426 -11.928  -0.855  1.00  0.00     0.074 A 
HETATM   19  C   UNL     1     -22.643 -12.573  -0.688  1.00  0.00     0.074 A 
HETATM   20  C   UNL     1     -22.946 -13.643  -1.552  1.00  0.00     0.080 A 
HETATM   21  C   UNL     1     -22.029 -14.032  -2.559  1.00  0.00     0.080 A 
HETATM   22  C   UNL     1     -20.801 -13.359  -2.695  1.00  0.00     0.068 A 
HETATM   23 CL   UNL     1     -19.649 -13.810  -3.904  1.00  0.00    -0.082 Cl
HETATM   24 CL   UNL     1     -22.410 -15.349  -3.631  1.00  0.00    -0.081 Cl
HETATM   25 CL   UNL     1     -24.454 -14.493  -1.376  1.00  0.00    -0.081 Cl
HETATM   26 CL   UNL     1     -23.737 -12.077   0.554  1.00  0.00    -0.081 Cl
HETATM   27  C   UNL     1     -20.861 -10.805  -0.109  1.00  0.00     0.297 A 
HETATM   28  O   UNL     1     -21.370 -10.185   0.800  1.00  0.00    -0.259 OA
HETATM   29  O   UNL     1     -19.627 -10.557  -0.628  1.00  0.00    -0.291 OA
HETATM   30 BR   UNL     1     -21.327  -7.826  -5.112  1.00  0.00    -0.048 Br
HETATM   31 BR   UNL     1     -16.093 -10.043  -5.838  1.00  0.00    -0.045 Br
ENDROOT
BRANCH   5  32
HETATM   32  O   UNL     1     -14.819 -14.644  -0.260  1.00  0.00    -0.358 OA
HETATM   33  H   UNL     1     -14.401 -14.969  -1.074  1.00  0.00     0.217 HD
ENDBRANCH   5  32
BRANCH  12  34
HETATM   34  O   UNL     1     -18.576  -8.315  -6.423  1.00  0.00    -0.358 OA
HETATM   35  H   UNL     1     -19.399  -8.380  -6.938  1.00  0.00     0.217 HD
ENDBRANCH  12  34
TORSDOF 2
BEGIN_RES ARG D 557
REMARK  4 active torsions:
REMARK  status: ('A' for Active; 'I' for Inactive)
REMARK    1  A    between atoms: CA   and  CB  
REMARK    2  A    between atoms: CB   and  CG  
REMARK    3  A    between atoms: CG   and  CD  
REMARK    4  A    between atoms: CD   and  NE  
REMARK       I    between atoms: NE   and  CZ  
REMARK       I    between atoms: CZ   and  NH1 
REMARK       I    between atoms: CZ   and  NH2 
ROOT
ATOM      1  CA  ARG D 557     -26.217   2.705 -17.014  1.00 35.49     0.159 C 
ENDROOT
BRANCH   1   2
ATOM      2  CB  ARG D 557     -26.789   1.319 -17.183  1.00 35.49     0.034 C 
BRANCH   2   3
ATOM      3  CG  ARG D 557     -25.837   0.202 -17.143  1.00 35.49     0.027 C 
BRANCH   3   4
ATOM      4  CD  ARG D 557     -24.748   0.423 -16.165  1.00 35.49     0.116 C 
BRANCH   4   5
ATOM      5  NE  ARG D 557     -24.873  -0.431 -15.013  1.00 35.49    -0.212 N 
ATOM      6  CZ  ARG D 557     -24.038  -1.387 -14.672  1.00 35.49     0.666 C 
ATOM      7  NH1 ARG D 557     -22.968  -1.683 -15.387  1.00 35.49    -0.235 N 
ATOM      8  NH2 ARG D 557     -24.296  -2.049 -13.582  1.00 35.49    -0.235 N 
ATOM      9  HH  ARG D 557     -22.777  -1.259 -16.107  1.00 35.49     0.174 HD
ATOM     10  HH  ARG D 557     -22.458  -2.315 -15.114  1.00 35.49     0.174 HD
ATOM     11  HH  ARG D 557     -24.990  -1.832 -13.137  1.00 35.49     0.174 HD
ATOM     12  HH  ARG D 557     -23.779  -2.671 -13.328  1.00 35.49     0.174 HD
ATOM     13  HE  ARG D 557     -25.573  -0.358 -14.536  1.00 35.49     0.178 HD
ENDBRANCH   4   5
ENDBRANCH   3   4
ENDBRANCH   2   3
ENDBRANCH   1   2
END_RES ARG D 557
BEGIN_RES GLU D 570
REMARK  3 active torsions:
REMARK  status: ('A' for Active; 'I' for Inactive)
REMARK    5  A    between atoms: CA   and  CB  
REMARK    6  A    between atoms: CB   and  CG  
REMARK    7  A    between atoms: CG   and  CD  
ROOT
ATOM     14  CA  GLU D 570     -18.033  -6.348 -13.375  1.00 32.92     0.160 C 
ENDROOT
BRANCH  14  15
ATOM     15  CB  GLU D 570     -19.500  -6.345 -13.794  1.00 32.92     0.043 C 
BRANCH  15  16
ATOM     16  CG  GLU D 570     -20.445  -5.544 -12.973  1.00 32.92     0.100 C 
BRANCH  16  17
ATOM     17  CD  GLU D 570     -21.733  -5.228 -13.698  1.00 32.92     0.185 C 
ATOM     18  OE1 GLU D 570     -22.273  -4.120 -13.515  1.00 32.92    -0.647 OA
ATOM     19  OE2 GLU D 570     -22.215  -6.104 -14.442  1.00 32.92    -0.647 OA
ENDBRANCH  16  17
ENDBRANCH  15  16
ENDBRANCH  14  15
END_RES GLU D 570
ENDMDL
MODEL 6
REMARK VINA RESULT:      -6.8      3.824      5.648
REMARK  2 active torsions:
REMARK  status: ('A' for Active; 'I' for Inactive)
REMARK    1  A    between atoms: C_5  and  O_8 
REMARK    2  A    between atoms: C_13  and  O_32 
ROOT
HETATM    1  C   UNL     1     -18.073 -12.984  -0.113  1.00  0.00     0.036 A 
HETATM    2  C   UNL     1     -18.081 -12.218  -1.297  1.00  0.00     0.023 A 
HETATM    3  C   UNL     1     -16.950 -12.226  -2.121  1.00  0.00     0.106 A 
HETATM    4  C   UNL     1     -15.845 -13.029  -1.779  1.00  0.00     0.080 A 
HETATM    5  C   UNL     1     -15.865 -13.810  -0.614  1.00  0.00     0.103 A 
HETATM    6  C   UNL     1     -16.979 -13.781   0.220  1.00  0.00     0.046 A 
HETATM    7 BR   UNL     1     -17.084 -14.824   1.801  1.00  0.00    -0.048 Br
HETATM    8 BR   UNL     1     -14.313 -13.095  -2.908  1.00  0.00    -0.045 Br
HETATM    9  O   UNL     1     -16.875 -11.490  -3.282  1.00  0.00    -0.306 OA
HETATM   10  C   UNL     1     -17.906 -10.654  -3.649  1.00  0.00     0.106 A 
HETATM   11  C   UNL     1     -17.741  -9.881  -4.814  1.00  0.00     0.080 A 
HETATM   12  C   UNL     1     -18.763  -9.029  -5.256  1.00  0.00     0.103 A 
HETATM   13  C   UNL     1     -19.948  -8.938  -4.531  1.00  0.00     0.046 A 
HETATM   14  C   UNL     1     -20.112  -9.694  -3.371  1.00  0.00     0.036 A 
HETATM   15  C   UNL     1     -19.100 -10.572  -2.926  1.00  0.00     0.023 A 
HETATM   16  C   UNL     1     -19.312 -11.446  -1.714  1.00  0.00     0.161 A 
HETATM   17  C   UNL     1     -20.525 -12.323  -1.827  1.00  0.00     0.028 A 
HETATM   18  C   UNL     1     -21.440 -11.957  -0.851  1.00  0.00     0.074 A 
HETATM   19  C   UNL     1     -22.652 -12.615  -0.687  1.00  0.00     0.074 A 
HETATM   20  C   UNL     1     -22.945 -13.682  -1.558  1.00  0.00     0.080 A 
HETATM   21  C   UNL     1     -22.024 -14.056  -2.567  1.00  0.00     0.080 A 
HETATM   22  C   UNL     1     -20.803 -13.370  -2.700  1.00  0.00     0.068 A 
HETATM   23 CL   UNL     1     -19.648 -13.803  -3.913  1.00  0.00    -0.082 Cl
HETATM   24 CL   UNL     1     -22.394 -15.369  -3.648  1.00  0.00    -0.081 Cl
HETATM   25 CL   UNL     1     -24.444 -14.547  -1.386  1.00  0.00    -0.081 Cl
HETATM   26 CL   UNL     1     -23.749 -12.137   0.560  1.00  0.00    -0.081 Cl
HETATM   27  C   UNL     1     -20.885 -10.833  -0.098  1.00  0.00     0.297 A 
HETATM   28  O   UNL     1     -21.400 -10.224   0.816  1.00  0.00    -0.259 OA
HETATM   29  O   UNL     1     -19.654 -10.570  -0.616  1.00  0.00    -0.291 OA
HETATM   30 BR   UNL     1     -21.383  -7.827  -5.080  1.00  0.00    -0.048 Br
HETATM   31 BR   UNL     1     -16.129  -9.989  -5.825  1.00  0.00    -0.045 Br
ENDROOT
BRANCH   5  32
HETATM   32  O   UNL     1     -14.808 -14.613  -0.277  1.00  0.00    -0.358 OA
HETATM   33  H   UNL     1     -14.803 -15.384  -0.869  1.00  0.00     0.217 HD
ENDBRANCH   5  32
BRANCH  12  34
HETATM   34  O   UNL     1     -18.628  -8.281  -6.396  1.00  0.00    -0.358 OA
HETATM   35  H   UNL     1     -18.068  -8.772  -7.024  1.00  0.00     0.217 HD
ENDBRANCH  12  34
TORSDOF 2
BEGIN_RES ARG D 557
REMARK  4 active torsions:
REMARK  status: ('A' for Active; 'I' for Inactive)
REMARK    1  A    between atoms: CA   and  CB  
REMARK    2  A    between atoms: CB   and  CG  
REMARK    3  A    between atoms: CG   and  CD  
REMARK    4  A    between atoms: CD   and  NE  
REMARK       I    between atoms: NE   and  CZ  
REMARK       I    between atoms: CZ   and  NH1 
REMARK       I    between atoms: CZ   and  NH2 
ROOT
ATOM      1  CA  ARG D 557     -26.217   2.705 -17.014  1.00 35.49     0.159 C 
ENDROOT
BRANCH   1   2
ATOM      2  CB  ARG D 557     -26.789   1.319 -17.183  1.00 35.49     0.034 C 
BRANCH   2   3
ATOM      3  CG  ARG D 557     -28.236   1.225 -17.413  1.00 35.49     0.027 C 
BRANCH   3   4
ATOM      4  CD  ARG D 557     -28.896   0.289 -16.474  1.00 35.49     0.116 C 
BRANCH   4   5
ATOM      5  NE  ARG D 557     -29.276  -0.943 -17.114  1.00 35.49    -0.212 N 
ATOM      6  CZ  ARG D 557     -28.635  -2.087 -17.018  1.00 35.49     0.666 C 
ATOM      7  NH1 ARG D 557     -27.529  -2.223 -16.311  1.00 35.49    -0.235 N 
ATOM      8  NH2 ARG D 557     -29.135  -3.109 -17.650  1.00 35.49    -0.235 N 
ATOM      9  HH  ARG D 557     -27.183  -1.564 -15.886  1.00 35.49     0.174 HD
ATOM     10  HH  ARG D 557     -27.156  -2.994 -16.284  1.00 35.49     0.174 HD
ATOM     11  HH  ARG D 557     -29.855  -2.993 -18.093  1.00 35.49     0.174 HD
ATOM     12  HH  ARG D 557     -28.752  -3.864 -17.609  1.00 35.49     0.174 HD
ATOM     13  HE  ARG D 557     -29.937  -0.928 -17.648  1.00 35.49     0.178 HD
ENDBRANCH   4   5
ENDBRANCH   3   4
ENDBRANCH   2   3
ENDBRANCH   1   2
END_RES ARG D 557
BEGIN_RES GLU D 570
REMARK  3 active torsions:
REMARK  status: ('A' for Active; 'I' for Inactive)
REMARK    5  A    between atoms: CA   and  CB  
REMARK    6  A    between atoms: CB   and  CG  
REMARK    7  A    between atoms: CG   and  CD  
ROOT
ATOM     14  CA  GLU D 570     -18.033  -6.348 -13.375  1.00 32.92     0.160 C 
ENDROOT
BRANCH  14  15
ATOM     15  CB  GLU D 570     -19.500  -6.345 -13.794  1.00 32.92     0.043 C 
BRANCH  15  16
ATOM     16  CG  GLU D 570     -20.100  -7.643 -14.197  1.00 32.92     0.100 C 
BRANCH  16  17
ATOM     17  CD  GLU D 570     -20.748  -7.595 -15.561  1.00 32.92     0.185 C 
ATOM     18  OE1 GLU D 570     -20.813  -8.639 -16.237  1.00 32.92    -0.647 OA
ATOM     19  OE2 GLU D 570     -21.181  -6.498 -15.964  1.00 32.92    -0.647 OA
ENDBRANCH  16  17
ENDBRANCH  15  16
ENDBRANCH  14  15
END_RES GLU D 570
ENDMDL
MODEL 7
REMARK VINA RESULT:      -6.8      2.671      5.353
REMARK  2 active torsions:
REMARK  status: ('A' for Active; 'I' for Inactive)
REMARK    1  A    between atoms: C_5  and  O_8 
REMARK    2  A    between atoms: C_13  and  O_32 
ROOT
HETATM    1  C   UNL     1     -19.998  -8.557  -2.731  1.00  0.00     0.036 A 
HETATM    2  C   UNL     1     -20.140  -9.780  -2.043  1.00  0.00     0.023 A 
HETATM    3  C   UNL     1     -21.158  -9.913  -1.093  1.00  0.00     0.106 A 
HETATM    4  C   UNL     1     -22.046  -8.843  -0.869  1.00  0.00     0.080 A 
HETATM    5  C   UNL     1     -21.911  -7.644  -1.583  1.00  0.00     0.103 A 
HETATM    6  C   UNL     1     -20.881  -7.501  -2.510  1.00  0.00     0.046 A 
HETATM    7 BR   UNL     1     -20.649  -5.916  -3.524  1.00  0.00    -0.048 Br
HETATM    8 BR   UNL     1     -23.468  -9.015   0.385  1.00  0.00    -0.045 Br
HETATM    9  O   UNL     1     -21.348 -11.068  -0.369  1.00  0.00    -0.306 OA
HETATM   10  C   UNL     1     -20.488 -12.134  -0.513  1.00  0.00     0.106 A 
HETATM   11  C   UNL     1     -20.699 -13.262   0.302  1.00  0.00     0.080 A 
HETATM   12  C   UNL     1     -19.875 -14.391   0.187  1.00  0.00     0.103 A 
HETATM   13  C   UNL     1     -18.830 -14.392  -0.733  1.00  0.00     0.046 A 
HETATM   14  C   UNL     1     -18.611 -13.273  -1.535  1.00  0.00     0.036 A 
HETATM   15  C   UNL     1     -19.446 -12.139  -1.445  1.00  0.00     0.023 A 
HETATM   16  C   UNL     1     -19.253 -10.960  -2.369  1.00  0.00     0.161 A 
HETATM   17  C   UNL     1     -19.312 -11.336  -3.821  1.00  0.00     0.028 A 
HETATM   18  C   UNL     1     -18.075 -11.096  -4.401  1.00  0.00     0.074 A 
HETATM   19  C   UNL     1     -17.833 -11.318  -5.750  1.00  0.00     0.074 A 
HETATM   20  C   UNL     1     -18.891 -11.813  -6.536  1.00  0.00     0.080 A 
HETATM   21  C   UNL     1     -20.155 -12.075  -5.952  1.00  0.00     0.080 A 
HETATM   22  C   UNL     1     -20.366 -11.831  -4.583  1.00  0.00     0.068 A 
HETATM   23 CL   UNL     1     -21.897 -12.129  -3.834  1.00  0.00    -0.082 Cl
HETATM   24 CL   UNL     1     -21.458 -12.695  -6.925  1.00  0.00    -0.081 Cl
HETATM   25 CL   UNL     1     -18.644 -12.096  -8.234  1.00  0.00    -0.081 Cl
HETATM   26 CL   UNL     1     -16.281 -10.981  -6.431  1.00  0.00    -0.081 Cl
HETATM   27  C   UNL     1     -17.172 -10.592  -3.367  1.00  0.00     0.297 A 
HETATM   28  O   UNL     1     -16.002 -10.294  -3.483  1.00  0.00    -0.259 OA
HETATM   29  O   UNL     1     -17.886 -10.518  -2.210  1.00  0.00    -0.291 OA
HETATM   30 BR   UNL     1     -17.689 -15.889  -0.962  1.00  0.00    -0.048 Br
HETATM   31 BR   UNL     1     -22.123 -13.286   1.569  1.00  0.00    -0.045 Br
ENDROOT
BRANCH   5  32
HETATM   32  O   UNL     1     -22.778  -6.600  -1.394  1.00  0.00    -0.358 OA
HETATM   33  H   UNL     1     -22.931  -6.494  -0.440  1.00  0.00     0.217 HD
ENDBRANCH   5  32
BRANCH  12  34
HETATM   34  O   UNL     1     -20.074 -15.505   0.959  1.00  0.00    -0.358 OA
HETATM   35  H   UNL     1     -20.906 -15.929   0.682  1.00  0.00     0.217 HD
ENDBRANCH  12  34
TORSDOF 2
BEGIN_RES ARG D 557
REMARK  4 active torsions:
REMARK  status: ('A' for Active; 'I' for Inactive)
REMARK    1  A    between atoms: CA   and  CB  
REMARK    2  A    between atoms: CB   and  CG  
REMARK    3  A    between atoms: CG   and  CD  
REMARK    4  A    between atoms: CD   and  NE  
REMARK       I    between atoms: NE   and  CZ  
REMARK       I    between atoms: CZ   and  NH1 
REMARK       I    between atoms: CZ   and  NH2 
ROOT
ATOM      1  CA  ARG D 557     -26.217   2.705 -17.014  1.00 35.49     0.159 C 
ENDROOT
BRANCH   1   2
ATOM      2  CB  ARG D 557     -26.789   1.319 -17.183  1.00 35.49     0.034 C 
BRANCH   2   3
ATOM      3  CG  ARG D 557     -28.148   1.098 -16.674  1.00 35.49     0.027 C 
BRANCH   3   4
ATOM      4  CD  ARG D 557     -28.787  -0.096 -17.270  1.00 35.49     0.116 C 
BRANCH   4   5
ATOM      5  NE  ARG D 557     -28.164  -1.319 -16.836  1.00 35.49    -0.212 N 
ATOM      6  CZ  ARG D 557     -28.639  -2.531 -17.021  1.00 35.49     0.666 C 
ATOM      7  NH1 ARG D 557     -29.785  -2.757 -17.634  1.00 35.49    -0.235 N 
ATOM      8  NH2 ARG D 557     -27.928  -3.527 -16.578  1.00 35.49    -0.235 N 
ATOM      9  HH  ARG D 557     -30.268  -2.116 -17.936  1.00 35.49     0.174 HD
ATOM     10  HH  ARG D 557     -30.043  -3.569 -17.728  1.00 35.49     0.174 HD
ATOM     11  HH  ARG D 557     -27.188  -3.351 -16.192  1.00 35.49     0.174 HD
ATOM     12  HH  ARG D 557     -28.200  -4.324 -16.682  1.00 35.49     0.174 HD
ATOM     13  HE  ARG D 557     -27.457  -1.262 -16.368  1.00 35.49     0.178 HD
ENDBRANCH   4   5
ENDBRANCH   3   4
ENDBRANCH   2   3
ENDBRANCH   1   2
END_RES ARG D 557
BEGIN_RES GLU D 570
REMARK  3 active torsions:
REMARK  status: ('A' for Active; 'I' for Inactive)
REMARK    5  A    between atoms: CA   and  CB  
REMARK    6  A    between atoms: CB   and  CG  
REMARK    7  A    between atoms: CG   and  CD  
ROOT
ATOM     14  CA  GLU D 570     -18.033  -6.348 -13.375  1.00 32.92     0.160 C 
ENDROOT
BRANCH  14  15
ATOM     15  CB  GLU D 570     -19.500  -6.345 -13.794  1.00 32.92     0.043 C 
BRANCH  15  16
ATOM     16  CG  GLU D 570     -20.087  -7.634 -14.242  1.00 32.92     0.100 C 
BRANCH  16  17
ATOM     17  CD  GLU D 570     -20.693  -7.558 -15.624  1.00 32.92     0.185 C 
ATOM     18  OE1 GLU D 570     -21.181  -8.587 -16.129  1.00 32.92    -0.647 OA
ATOM     19  OE2 GLU D 570     -20.664  -6.460 -16.215  1.00 32.92    -0.647 OA
ENDBRANCH  16  17
ENDBRANCH  15  16
ENDBRANCH  14  15
END_RES GLU D 570
ENDMDL
MODEL 8
REMARK VINA RESULT:      -6.8      3.366      6.060
REMARK  2 active torsions:
REMARK  status: ('A' for Active; 'I' for Inactive)
REMARK    1  A    between atoms: C_5  and  O_8 
REMARK    2  A    between atoms: C_13  and  O_32 
ROOT
HETATM    1  C   UNL     1     -20.536 -12.960  -4.525  1.00  0.00     0.036 A 
HETATM    2  C   UNL     1     -19.306 -12.983  -3.834  1.00  0.00     0.023 A 
HETATM    3  C   UNL     1     -18.114 -12.940  -4.564  1.00  0.00     0.106 A 
HETATM    4  C   UNL     1     -18.160 -12.830  -5.967  1.00  0.00     0.080 A 
HETATM    5  C   UNL     1     -19.390 -12.777  -6.638  1.00  0.00     0.103 A 
HETATM    6  C   UNL     1     -20.578 -12.848  -5.914  1.00  0.00     0.046 A 
HETATM    7 BR   UNL     1     -22.277 -12.762  -6.751  1.00  0.00    -0.048 Br
HETATM    8 BR   UNL     1     -16.551 -12.722  -6.981  1.00  0.00    -0.045 Br
HETATM    9  O   UNL     1     -16.877 -12.978  -3.963  1.00  0.00    -0.306 OA
HETATM   10  C   UNL     1     -16.765 -13.125  -2.597  1.00  0.00     0.106 A 
HETATM   11  C   UNL     1     -15.471 -13.220  -2.051  1.00  0.00     0.080 A 
HETATM   12  C   UNL     1     -15.289 -13.346  -0.666  1.00  0.00     0.103 A 
HETATM   13  C   UNL     1     -16.397 -13.389   0.175  1.00  0.00     0.046 A 
HETATM   14  C   UNL     1     -17.681 -13.306  -0.363  1.00  0.00     0.036 A 
HETATM   15  C   UNL     1     -17.879 -13.157  -1.752  1.00  0.00     0.023 A 
HETATM   16  C   UNL     1     -19.267 -12.988  -2.323  1.00  0.00     0.161 A 
HETATM   17  C   UNL     1     -20.009 -11.828  -1.727  1.00  0.00     0.028 A 
HETATM   18  C   UNL     1     -21.114 -12.305  -1.036  1.00  0.00     0.074 A 
HETATM   19  C   UNL     1     -22.014 -11.459  -0.403  1.00  0.00     0.074 A 
HETATM   20  C   UNL     1     -21.774 -10.073  -0.470  1.00  0.00     0.080 A 
HETATM   21  C   UNL     1     -20.642  -9.575  -1.161  1.00  0.00     0.080 A 
HETATM   22  C   UNL     1     -19.755 -10.462  -1.797  1.00  0.00     0.068 A 
HETATM   23 CL   UNL     1     -18.368  -9.893  -2.659  1.00  0.00    -0.082 Cl
HETATM   24 CL   UNL     1     -20.345  -7.862  -1.235  1.00  0.00    -0.081 Cl
HETATM   25 CL   UNL     1     -22.880  -8.970   0.295  1.00  0.00    -0.081 Cl
HETATM   26 CL   UNL     1     -23.388 -12.101   0.426  1.00  0.00    -0.081 Cl
HETATM   27  C   UNL     1     -21.118 -13.765  -1.127  1.00  0.00     0.297 A 
HETATM   28  O   UNL     1     -21.909 -14.538  -0.630  1.00  0.00    -0.259 OA
HETATM   29  O   UNL     1     -20.045 -14.124  -1.882  1.00  0.00    -0.291 OA
HETATM   30 BR   UNL     1     -16.228 -13.534   2.059  1.00  0.00    -0.048 Br
HETATM   31 BR   UNL     1     -13.938 -13.163  -3.181  1.00  0.00    -0.045 Br
ENDROOT
BRANCH   5  32
HETATM   32  O   UNL     1     -19.454 -12.649  -8.000  1.00  0.00    -0.358 OA
HETATM   33  H   UNL     1     -19.167 -11.753  -8.241  1.00  0.00     0.217 HD
ENDBRANCH   5  32
BRANCH  12  34
HETATM   34  O   UNL     1     -14.038 -13.424  -0.114  1.00  0.00    -0.358 OA
HETATM   35  H   UNL     1     -14.129 -13.449   0.856  1.00  0.00     0.217 HD
ENDBRANCH  12  34
TORSDOF 2
BEGIN_RES ARG D 557
REMARK  4 active torsions:
REMARK  status: ('A' for Active; 'I' for Inactive)
REMARK    1  A    between atoms: CA   and  CB  
REMARK    2  A    between atoms: CB   and  CG  
REMARK    3  A    between atoms: CG   and  CD  
REMARK    4  A    between atoms: CD   and  NE  
REMARK       I    between atoms: NE   and  CZ  
REMARK       I    between atoms: CZ   and  NH1 
REMARK       I    between atoms: CZ   and  NH2 
ROOT
ATOM      1  CA  ARG D 557     -26.217   2.705 -17.014  1.00 35.49     0.159 C 
ENDROOT
BRANCH   1   2
ATOM      2  CB  ARG D 557     -26.789   1.319 -17.183  1.00 35.49     0.034 C 
BRANCH   2   3
ATOM      3  CG  ARG D 557     -25.837   0.202 -17.143  1.00 35.49     0.027 C 
BRANCH   3   4
ATOM      4  CD  ARG D 557     -24.759   0.415 -16.150  1.00 35.49     0.116 C 
BRANCH   4   5
ATOM      5  NE  ARG D 557     -24.901  -0.444 -15.004  1.00 35.49    -0.212 N 
ATOM      6  CZ  ARG D 557     -24.079  -1.412 -14.663  1.00 35.49     0.666 C 
ATOM      7  NH1 ARG D 557     -23.008  -1.716 -15.373  1.00 35.49    -0.235 N 
ATOM      8  NH2 ARG D 557     -24.352  -2.077 -13.578  1.00 35.49    -0.235 N 
ATOM      9  HH  ARG D 557     -22.809  -1.290 -16.089  1.00 35.49     0.174 HD
ATOM     10  HH  ARG D 557     -22.508  -2.355 -15.101  1.00 35.49     0.174 HD
ATOM     11  HH  ARG D 557     -25.046  -1.854 -13.136  1.00 35.49     0.174 HD
ATOM     12  HH  ARG D 557     -23.843  -2.706 -13.324  1.00 35.49     0.174 HD
ATOM     13  HE  ARG D 557     -25.603  -0.366 -14.530  1.00 35.49     0.178 HD
ENDBRANCH   4   5
ENDBRANCH   3   4
ENDBRANCH   2   3
ENDBRANCH   1   2
END_RES ARG D 557
BEGIN_RES GLU D 570
REMARK  3 active torsions:
REMARK  status: ('A' for Active; 'I' for Inactive)
REMARK    5  A    between atoms: CA   and  CB  
REMARK    6  A    between atoms: CB   and  CG  
REMARK    7  A    between atoms: CG   and  CD  
ROOT
ATOM     14  CA  GLU D 570     -18.033  -6.348 -13.375  1.00 32.92     0.160 C 
ENDROOT
BRANCH  14  15
ATOM     15  CB  GLU D 570     -19.500  -6.345 -13.794  1.00 32.92     0.043 C 
BRANCH  15  16
ATOM     16  CG  GLU D 570     -20.444  -5.540 -12.976  1.00 32.92     0.100 C 
BRANCH  16  17
ATOM     17  CD  GLU D 570     -21.734  -5.231 -13.699  1.00 32.92     0.185 C 
ATOM     18  OE1 GLU D 570     -22.285  -4.129 -13.509  1.00 32.92    -0.647 OA
ATOM     19  OE2 GLU D 570     -22.208  -6.106 -14.450  1.00 32.92    -0.647 OA
ENDBRANCH  16  17
ENDBRANCH  15  16
ENDBRANCH  14  15
END_RES GLU D 570
ENDMDL
MODEL 9
REMARK VINA RESULT:      -6.4      3.767      5.846
REMARK  2 active torsions:
REMARK  status: ('A' for Active; 'I' for Inactive)
REMARK    1  A    between atoms: C_5  and  O_8 
REMARK    2  A    between atoms: C_13  and  O_32 
ROOT
HETATM    1  C   UNL     1     -15.670 -13.685  -2.898  1.00  0.00     0.036 A 
HETATM    2  C   UNL     1     -16.885 -12.970  -2.913  1.00  0.00     0.023 A 
HETATM    3  C   UNL     1     -17.544 -12.771  -4.131  1.00  0.00     0.106 A 
HETATM    4  C   UNL     1     -17.007 -13.322  -5.310  1.00  0.00     0.080 A 
HETATM    5  C   UNL     1     -15.813 -14.058  -5.275  1.00  0.00     0.103 A 
HETATM    6  C   UNL     1     -15.143 -14.233  -4.066  1.00  0.00     0.046 A 
HETATM    7 BR   UNL     1     -13.536 -15.230  -3.939  1.00  0.00    -0.048 Br
HETATM    8 BR   UNL     1     -17.908 -13.107  -6.974  1.00  0.00    -0.045 Br
HETATM    9  O   UNL     1     -18.723 -12.069  -4.229  1.00  0.00    -0.306 OA
HETATM   10  C   UNL     1     -19.276 -11.471  -3.118  1.00  0.00     0.106 A 
HETATM   11  C   UNL     1     -20.449 -10.714  -3.296  1.00  0.00     0.080 A 
HETATM   12  C   UNL     1     -21.076 -10.100  -2.202  1.00  0.00     0.103 A 
HETATM   13  C   UNL     1     -20.528 -10.232  -0.929  1.00  0.00     0.046 A 
HETATM   14  C   UNL     1     -19.360 -10.972  -0.750  1.00  0.00     0.036 A 
HETATM   15  C   UNL     1     -18.731 -11.613  -1.838  1.00  0.00     0.023 A 
HETATM   16  C   UNL     1     -17.511 -12.478  -1.628  1.00  0.00     0.161 A 
HETATM   17  C   UNL     1     -17.740 -13.586  -0.642  1.00  0.00     0.028 A 
HETATM   18  C   UNL     1     -16.922 -13.386   0.461  1.00  0.00     0.074 A 
HETATM   19  C   UNL     1     -16.889 -14.272   1.529  1.00  0.00     0.074 A 
HETATM   20  C   UNL     1     -17.729 -15.401   1.475  1.00  0.00     0.080 A 
HETATM   21  C   UNL     1     -18.580 -15.608   0.361  1.00  0.00     0.080 A 
HETATM   22  C   UNL     1     -18.581 -14.692  -0.707  1.00  0.00     0.068 A 
HETATM   23 CL   UNL     1     -19.597 -14.914  -2.090  1.00  0.00    -0.082 Cl
HETATM   24 CL   UNL     1     -19.623 -16.999   0.301  1.00  0.00    -0.081 Cl
HETATM   25 CL   UNL     1     -17.716 -16.548   2.782  1.00  0.00    -0.081 Cl
HETATM   26 CL   UNL     1     -15.835 -13.993   2.870  1.00  0.00    -0.081 Cl
HETATM   27  C   UNL     1     -16.165 -12.153   0.255  1.00  0.00     0.297 A 
HETATM   28  O   UNL     1     -15.367 -11.635   1.008  1.00  0.00    -0.259 OA
HETATM   29  O   UNL     1     -16.522 -11.659  -0.962  1.00  0.00    -0.291 OA
HETATM   30 BR   UNL     1     -21.332  -9.452   0.601  1.00  0.00    -0.048 Br
HETATM   31 BR   UNL     1     -21.220 -10.519  -5.028  1.00  0.00    -0.045 Br
ENDROOT
BRANCH   5  32
HETATM   32  O   UNL     1     -15.288 -14.619  -6.409  1.00  0.00    -0.358 OA
HETATM   33  H   UNL     1     -14.607 -14.023  -6.762  1.00  0.00     0.217 HD
ENDBRANCH   5  32
BRANCH  12  34
HETATM   34  O   UNL     1     -22.228  -9.373  -2.352  1.00  0.00    -0.358 OA
HETATM   35  H   UNL     1     -22.260  -8.698  -1.651  1.00  0.00     0.217 HD
ENDBRANCH  12  34
TORSDOF 2
BEGIN_RES ARG D 557
REMARK  4 active torsions:
REMARK  status: ('A' for Active; 'I' for Inactive)
REMARK    1  A    between atoms: CA   and  CB  
REMARK    2  A    between atoms: CB   and  CG  
REMARK    3  A    between atoms: CG   and  CD  
REMARK    4  A    between atoms: CD   and  NE  
REMARK       I    between atoms: NE   and  CZ  
REMARK       I    between atoms: CZ   and  NH1 
REMARK       I    between atoms: CZ   and  NH2 
ROOT
ATOM      1  CA  ARG D 557     -26.217   2.705 -17.014  1.00 35.49     0.159 C 
ENDROOT
BRANCH   1   2
ATOM      2  CB  ARG D 557     -26.789   1.319 -17.183  1.00 35.49     0.034 C 
BRANCH   2   3
ATOM      3  CG  ARG D 557     -25.832   0.206 -17.196  1.00 35.49     0.027 C 
BRANCH   3   4
ATOM      4  CD  ARG D 557     -24.743   0.387 -16.208  1.00 35.49     0.116 C 
BRANCH   4   5
ATOM      5  NE  ARG D 557     -24.918  -0.446 -15.048  1.00 35.49    -0.212 N 
ATOM      6  CZ  ARG D 557     -24.118  -1.419 -14.673  1.00 35.49     0.666 C 
ATOM      7  NH1 ARG D 557     -23.039  -1.752 -15.356  1.00 35.49    -0.235 N 
ATOM      8  NH2 ARG D 557     -24.421  -2.057 -13.580  1.00 35.49    -0.235 N 
ATOM      9  HH  ARG D 557     -22.819  -1.344 -16.077  1.00 35.49     0.174 HD
ATOM     10  HH  ARG D 557     -22.553  -2.394 -15.062  1.00 35.49     0.174 HD
ATOM     11  HH  ARG D 557     -25.120  -1.815 -13.156  1.00 35.49     0.174 HD
ATOM     12  HH  ARG D 557     -23.926  -2.689 -13.304  1.00 35.49     0.174 HD
ATOM     13  HE  ARG D 557     -25.628  -0.348 -14.590  1.00 35.49     0.178 HD
ENDBRANCH   4   5
ENDBRANCH   3   4
ENDBRANCH   2   3
ENDBRANCH   1   2
END_RES ARG D 557
BEGIN_RES GLU D 570
REMARK  3 active torsions:
REMARK  status: ('A' for Active; 'I' for Inactive)
REMARK    5  A    between atoms: CA   and  CB  
REMARK    6  A    between atoms: CB   and  CG  
REMARK    7  A    between atoms: CG   and  CD  
ROOT
ATOM     14  CA  GLU D 570     -18.033  -6.348 -13.375  1.00 32.92     0.160 C 
ENDROOT
BRANCH  14  15
ATOM     15  CB  GLU D 570     -19.500  -6.345 -13.794  1.00 32.92     0.043 C 
BRANCH  15  16
ATOM     16  CG  GLU D 570     -20.439  -5.518 -12.993  1.00 32.92     0.100 C 
BRANCH  16  17
ATOM     17  CD  GLU D 570     -21.754  -5.272 -13.695  1.00 32.92     0.185 C 
ATOM     18  OE1 GLU D 570     -22.245  -6.178 -14.396  1.00 32.92    -0.647 OA
ATOM     19  OE2 GLU D 570     -22.291  -4.156 -13.556  1.00 32.92    -0.647 OA
ENDBRANCH  16  17
ENDBRANCH  15  16
ENDBRANCH  14  15
END_RES GLU D 570
ENDMDL
