MODEL 1
REMARK VINA RESULT:     -10.6      0.000      0.000
REMARK  0 active torsions:
REMARK  status: ('A' for Active; 'I' for Inactive)
ROOT
HETATM    1  C   UNL     1     -21.820  -7.062  -0.834  1.00  0.00     0.078 C 
HETATM    2  C   UNL     1     -22.292  -7.237  -2.307  1.00  0.00    -0.042 C 
HETATM    3  C   UNL     1     -22.347  -6.297  -3.326  1.00  0.00     0.021 C 
HETATM    4  C   UNL     1     -21.937  -6.738  -4.585  1.00  0.00    -0.010 C 
HETATM    5  C   UNL     1     -21.292  -8.001  -4.634  1.00  0.00     0.027 C 
HETATM    6  C   UNL     1     -21.541  -8.996  -3.728  1.00  0.00     0.029 C 
HETATM    7  C   UNL     1     -22.233  -8.623  -2.579  1.00  0.00    -0.018 C 
HETATM    8  C   UNL     1     -22.234  -9.305  -1.318  1.00  0.00    -0.021 C 
HETATM    9  C   UNL     1     -22.767 -10.494  -0.893  1.00  0.00     0.003 C 
HETATM   10  C   UNL     1     -22.284 -10.941   0.320  1.00  0.00     0.118 C 
HETATM   11  C   UNL     1     -20.973 -10.549   0.594  1.00  0.00    -0.031 C 
HETATM   12  C   UNL     1     -20.697  -9.180   0.463  1.00  0.00     0.017 C 
HETATM   13  C   UNL     1     -21.531  -8.507  -0.420  1.00  0.00    -0.043 C 
HETATM   14  C   UNL     1     -20.197 -11.792   0.294  1.00  0.00    -0.015 A 
HETATM   15  C   UNL     1     -19.190 -11.972  -0.658  1.00  0.00     0.013 A 
HETATM   16  C   UNL     1     -19.103 -13.209  -1.355  1.00  0.00     0.001 A 
HETATM   17  C   UNL     1     -19.966 -14.287  -1.084  1.00  0.00     0.001 A 
HETATM   18  C   UNL     1     -20.953 -14.151  -0.124  1.00  0.00     0.016 A 
HETATM   19  C   UNL     1     -21.061 -12.905   0.481  1.00  0.00     0.021 A 
HETATM   20  C   UNL     1     -22.399 -12.350   0.695  1.00  0.00     0.172 C 
HETATM   21  O   UNL     1     -23.412 -12.931   1.014  1.00  0.00    -0.291 OA
HETATM   22  C   UNL     1     -20.062  -7.760  -5.442  1.00  0.00     0.194 C 
HETATM   23  O   UNL     1     -19.116  -8.510  -5.556  1.00  0.00    -0.287 OA
HETATM   24  C   UNL     1     -20.187  -6.399  -6.028  1.00  0.00     0.026 C 
HETATM   25  C   UNL     1     -19.333  -5.661  -6.820  1.00  0.00     0.016 C 
HETATM   26  C   UNL     1     -19.894  -4.582  -7.503  1.00  0.00     0.001 C 
HETATM   27  C   UNL     1     -21.279  -4.337  -7.429  1.00  0.00     0.001 C 
HETATM   28  C   UNL     1     -22.076  -5.008  -6.495  1.00  0.00     0.013 C 
HETATM   29  C   UNL     1     -21.466  -5.948  -5.699  1.00  0.00    -0.011 C 
ENDROOT
TORSDOF 0
BEGIN_RES ARG D 557
REMARK  4 active torsions:
REMARK  status: ('A' for Active; 'I' for Inactive)
REMARK    1  A    between atoms: CA   and  CB  
REMARK    2  A    between atoms: CB   and  CG  
REMARK    3  A    between atoms: CG   and  CD  
REMARK    4  A    between atoms: CD   and  NE  
REMARK       I    between atoms: NE   and  CZ  
REMARK       I    between atoms: CZ   and  NH1 
REMARK       I    between atoms: CZ   and  NH2 
ROOT
ATOM      1  CA  ARG D 557     -26.217   2.705 -17.014  1.00 35.49     0.159 C 
ENDROOT
BRANCH   1   2
ATOM      2  CB  ARG D 557     -26.789   1.319 -17.183  1.00 35.49     0.034 C 
BRANCH   2   3
ATOM      3  CG  ARG D 557     -25.837   0.202 -17.142  1.00 35.49     0.027 C 
BRANCH   3   4
ATOM      4  CD  ARG D 557     -24.756   0.418 -16.153  1.00 35.49     0.116 C 
BRANCH   4   5
ATOM      5  NE  ARG D 557     -24.894  -0.437 -15.004  1.00 35.49    -0.212 N 
ATOM      6  CZ  ARG D 557     -24.075  -1.407 -14.665  1.00 35.49     0.666 C 
ATOM      7  NH1 ARG D 557     -23.010  -1.717 -15.380  1.00 35.49    -0.235 N 
ATOM      8  NH2 ARG D 557     -24.344  -2.067 -13.576  1.00 35.49    -0.235 N 
ATOM      9  HH  ARG D 557     -22.812  -1.295 -16.099  1.00 35.49     0.174 HD
ATOM     10  HH  ARG D 557     -22.510  -2.358 -15.108  1.00 35.49     0.174 HD
ATOM     11  HH  ARG D 557     -25.035  -1.840 -13.130  1.00 35.49     0.174 HD
ATOM     12  HH  ARG D 557     -23.836  -2.697 -13.323  1.00 35.49     0.174 HD
ATOM     13  HE  ARG D 557     -25.593  -0.354 -14.526  1.00 35.49     0.178 HD
ENDBRANCH   4   5
ENDBRANCH   3   4
ENDBRANCH   2   3
ENDBRANCH   1   2
END_RES ARG D 557
BEGIN_RES GLU D 570
REMARK  3 active torsions:
REMARK  status: ('A' for Active; 'I' for Inactive)
REMARK    5  A    between atoms: CA   and  CB  
REMARK    6  A    between atoms: CB   and  CG  
REMARK    7  A    between atoms: CG   and  CD  
ROOT
ATOM     14  CA  GLU D 570     -18.033  -6.348 -13.375  1.00 32.92     0.160 C 
ENDROOT
BRANCH  14  15
ATOM     15  CB  GLU D 570     -19.500  -6.345 -13.794  1.00 32.92     0.043 C 
BRANCH  15  16
ATOM     16  CG  GLU D 570     -20.442  -5.532 -12.982  1.00 32.92     0.100 C 
BRANCH  16  17
ATOM     17  CD  GLU D 570     -21.724  -5.209 -13.714  1.00 32.92     0.185 C 
ATOM     18  OE1 GLU D 570     -22.299  -4.128 -13.480  1.00 32.92    -0.647 OA
ATOM     19  OE2 GLU D 570     -22.166  -6.052 -14.519  1.00 32.92    -0.647 OA
ENDBRANCH  16  17
ENDBRANCH  15  16
ENDBRANCH  14  15
END_RES GLU D 570
ENDMDL
MODEL 2
REMARK VINA RESULT:     -10.0      2.999      6.678
REMARK  0 active torsions:
REMARK  status: ('A' for Active; 'I' for Inactive)
ROOT
HETATM    1  C   UNL     1     -19.917 -11.710  -2.504  1.00  0.00     0.078 C 
HETATM    2  C   UNL     1     -18.458 -11.360  -2.085  1.00  0.00    -0.042 C 
HETATM    3  C   UNL     1     -17.392 -12.211  -1.834  1.00  0.00     0.021 C 
HETATM    4  C   UNL     1     -16.154 -11.803  -2.334  1.00  0.00    -0.010 C 
HETATM    5  C   UNL     1     -16.167 -10.707  -3.235  1.00  0.00     0.027 C 
HETATM    6  C   UNL     1     -17.127  -9.731  -3.203  1.00  0.00     0.029 C 
HETATM    7  C   UNL     1     -18.260 -10.007  -2.442  1.00  0.00    -0.018 C 
HETATM    8  C   UNL     1     -19.554  -9.409  -2.583  1.00  0.00    -0.021 C 
HETATM    9  C   UNL     1     -20.045  -8.157  -2.316  1.00  0.00     0.003 C 
HETATM   10  C   UNL     1     -21.276  -7.889  -2.880  1.00  0.00     0.118 C 
HETATM   11  C   UNL     1     -21.519  -8.568  -4.075  1.00  0.00    -0.031 C 
HETATM   12  C   UNL     1     -21.315  -9.955  -4.050  1.00  0.00     0.017 C 
HETATM   13  C   UNL     1     -20.404 -10.386  -3.094  1.00  0.00    -0.043 C 
HETATM   14  C   UNL     1     -21.279  -7.506  -5.101  1.00  0.00    -0.015 A 
HETATM   15  C   UNL     1     -20.331  -7.497  -6.127  1.00  0.00     0.013 A 
HETATM   16  C   UNL     1     -19.699  -6.273  -6.481  1.00  0.00     0.001 A 
HETATM   17  C   UNL     1     -20.033  -5.050  -5.868  1.00  0.00     0.001 A 
HETATM   18  C   UNL     1     -20.991  -5.021  -4.871  1.00  0.00     0.016 A 
HETATM   19  C   UNL     1     -21.531  -6.244  -4.495  1.00  0.00     0.021 A 
HETATM   20  C   UNL     1     -21.725  -6.510  -3.069  1.00  0.00     0.172 C 
HETATM   21  O   UNL     1     -22.082  -5.742  -2.203  1.00  0.00    -0.291 OA
HETATM   22  C   UNL     1     -15.339 -11.164  -4.389  1.00  0.00     0.194 C 
HETATM   23  O   UNL     1     -15.257 -10.629  -5.474  1.00  0.00    -0.287 OA
HETATM   24  C   UNL     1     -14.682 -12.433  -3.976  1.00  0.00     0.026 C 
HETATM   25  C   UNL     1     -13.847 -13.295  -4.654  1.00  0.00     0.016 C 
HETATM   26  C   UNL     1     -13.112 -14.190  -3.877  1.00  0.00     0.001 C 
HETATM   27  C   UNL     1     -13.184 -14.135  -2.471  1.00  0.00     0.001 C 
HETATM   28  C   UNL     1     -14.157 -13.359  -1.834  1.00  0.00     0.013 C 
HETATM   29  C   UNL     1     -14.998 -12.615  -2.628  1.00  0.00    -0.011 C 
ENDROOT
TORSDOF 0
BEGIN_RES ARG D 557
REMARK  4 active torsions:
REMARK  status: ('A' for Active; 'I' for Inactive)
REMARK    1  A    between atoms: CA   and  CB  
REMARK    2  A    between atoms: CB   and  CG  
REMARK    3  A    between atoms: CG   and  CD  
REMARK    4  A    between atoms: CD   and  NE  
REMARK       I    between atoms: NE   and  CZ  
REMARK       I    between atoms: CZ   and  NH1 
REMARK       I    between atoms: CZ   and  NH2 
ROOT
ATOM      1  CA  ARG D 557     -26.217   2.705 -17.014  1.00 35.49     0.159 C 
ENDROOT
BRANCH   1   2
ATOM      2  CB  ARG D 557     -26.789   1.319 -17.183  1.00 35.49     0.034 C 
BRANCH   2   3
ATOM      3  CG  ARG D 557     -25.836   0.203 -17.151  1.00 35.49     0.027 C 
BRANCH   3   4
ATOM      4  CD  ARG D 557     -24.754   0.413 -16.162  1.00 35.49     0.116 C 
BRANCH   4   5
ATOM      5  NE  ARG D 557     -24.896  -0.441 -15.012  1.00 35.49    -0.212 N 
ATOM      6  CZ  ARG D 557     -24.074  -1.406 -14.666  1.00 35.49     0.666 C 
ATOM      7  NH1 ARG D 557     -23.000  -1.710 -15.371  1.00 35.49    -0.235 N 
ATOM      8  NH2 ARG D 557     -24.348  -2.066 -13.578  1.00 35.49    -0.235 N 
ATOM      9  HH  ARG D 557     -22.800  -1.287 -16.089  1.00 35.49     0.174 HD
ATOM     10  HH  ARG D 557     -22.499  -2.347 -15.095  1.00 35.49     0.174 HD
ATOM     11  HH  ARG D 557     -25.044  -1.843 -13.139  1.00 35.49     0.174 HD
ATOM     12  HH  ARG D 557     -23.838  -2.693 -13.320  1.00 35.49     0.174 HD
ATOM     13  HE  ARG D 557     -25.600  -0.363 -14.541  1.00 35.49     0.178 HD
ENDBRANCH   4   5
ENDBRANCH   3   4
ENDBRANCH   2   3
ENDBRANCH   1   2
END_RES ARG D 557
BEGIN_RES GLU D 570
REMARK  3 active torsions:
REMARK  status: ('A' for Active; 'I' for Inactive)
REMARK    5  A    between atoms: CA   and  CB  
REMARK    6  A    between atoms: CB   and  CG  
REMARK    7  A    between atoms: CG   and  CD  
ROOT
ATOM     14  CA  GLU D 570     -18.033  -6.348 -13.375  1.00 32.92     0.160 C 
ENDROOT
BRANCH  14  15
ATOM     15  CB  GLU D 570     -19.500  -6.345 -13.794  1.00 32.92     0.043 C 
BRANCH  15  16
ATOM     16  CG  GLU D 570     -20.442  -5.533 -12.982  1.00 32.92     0.100 C 
BRANCH  16  17
ATOM     17  CD  GLU D 570     -21.722  -5.206 -13.715  1.00 32.92     0.185 C 
ATOM     18  OE1 GLU D 570     -22.295  -4.125 -13.481  1.00 32.92    -0.647 OA
ATOM     19  OE2 GLU D 570     -22.166  -6.049 -14.520  1.00 32.92    -0.647 OA
ENDBRANCH  16  17
ENDBRANCH  15  16
ENDBRANCH  14  15
END_RES GLU D 570
ENDMDL
MODEL 3
REMARK VINA RESULT:      -9.9      1.732      3.049
REMARK  0 active torsions:
REMARK  status: ('A' for Active; 'I' for Inactive)
ROOT
HETATM    1  C   UNL     1     -19.547 -10.525  -5.572  1.00  0.00     0.078 C 
HETATM    2  C   UNL     1     -19.408  -9.045  -5.110  1.00  0.00    -0.042 C 
HETATM    3  C   UNL     1     -19.212  -7.904  -5.874  1.00  0.00     0.021 C 
HETATM    4  C   UNL     1     -19.947  -6.780  -5.491  1.00  0.00    -0.010 C 
HETATM    5  C   UNL     1     -20.972  -6.991  -4.533  1.00  0.00     0.027 C 
HETATM    6  C   UNL     1     -20.922  -7.992  -3.601  1.00  0.00     0.029 C 
HETATM    7  C   UNL     1     -19.967  -8.983  -3.812  1.00  0.00    -0.018 C 
HETATM    8  C   UNL     1     -19.985 -10.318  -3.292  1.00  0.00    -0.021 C 
HETATM    9  C   UNL     1     -19.814 -10.839  -2.036  1.00  0.00     0.003 C 
HETATM   10  C   UNL     1     -20.213 -12.153  -1.898  1.00  0.00     0.118 C 
HETATM   11  C   UNL     1     -21.255 -12.527  -2.746  1.00  0.00    -0.031 C 
HETATM   12  C   UNL     1     -21.080 -12.238  -4.108  1.00  0.00     0.017 C 
HETATM   13  C   UNL     1     -20.226 -11.173  -4.363  1.00  0.00    -0.043 C 
HETATM   14  C   UNL     1     -22.438 -12.504  -1.830  1.00  0.00    -0.015 A 
HETATM   15  C   UNL     1     -23.589 -11.719  -1.926  1.00  0.00     0.013 A 
HETATM   16  C   UNL     1     -24.195 -11.221  -0.740  1.00  0.00     0.001 A 
HETATM   17  C   UNL     1     -23.705 -11.534   0.542  1.00  0.00     0.001 A 
HETATM   18  C   UNL     1     -22.586 -12.336   0.672  1.00  0.00     0.016 A 
HETATM   19  C   UNL     1     -21.973 -12.740  -0.507  1.00  0.00     0.021 A 
HETATM   20  C   UNL     1     -20.511 -12.707  -0.578  1.00  0.00     0.172 C 
HETATM   21  O   UNL     1     -19.710 -12.979   0.289  1.00  0.00    -0.291 OA
HETATM   22  C   UNL     1     -22.168  -6.315  -5.113  1.00  0.00     0.194 C 
HETATM   23  O   UNL     1     -23.314  -6.425  -4.733  1.00  0.00    -0.287 OA
HETATM   24  C   UNL     1     -21.697  -5.529  -6.285  1.00  0.00     0.026 C 
HETATM   25  C   UNL     1     -22.375  -4.751  -7.200  1.00  0.00     0.016 C 
HETATM   26  C   UNL     1     -21.608  -3.859  -7.948  1.00  0.00     0.001 C 
HETATM   27  C   UNL     1     -20.228  -3.726  -7.700  1.00  0.00     0.001 C 
HETATM   28  C   UNL     1     -19.557  -4.641  -6.881  1.00  0.00     0.013 C 
HETATM   29  C   UNL     1     -20.305  -5.632  -6.290  1.00  0.00    -0.011 C 
ENDROOT
TORSDOF 0
BEGIN_RES ARG D 557
REMARK  4 active torsions:
REMARK  status: ('A' for Active; 'I' for Inactive)
REMARK    1  A    between atoms: CA   and  CB  
REMARK    2  A    between atoms: CB   and  CG  
REMARK    3  A    between atoms: CG   and  CD  
REMARK    4  A    between atoms: CD   and  NE  
REMARK       I    between atoms: NE   and  CZ  
REMARK       I    between atoms: CZ   and  NH1 
REMARK       I    between atoms: CZ   and  NH2 
ROOT
ATOM      1  CA  ARG D 557     -26.217   2.705 -17.014  1.00 35.49     0.159 C 
ENDROOT
BRANCH   1   2
ATOM      2  CB  ARG D 557     -26.789   1.319 -17.183  1.00 35.49     0.034 C 
BRANCH   2   3
ATOM      3  CG  ARG D 557     -25.836   0.203 -17.155  1.00 35.49     0.027 C 
BRANCH   3   4
ATOM      4  CD  ARG D 557     -24.754   0.409 -16.165  1.00 35.49     0.116 C 
BRANCH   4   5
ATOM      5  NE  ARG D 557     -24.902  -0.444 -15.015  1.00 35.49    -0.212 N 
ATOM      6  CZ  ARG D 557     -24.084  -1.411 -14.665  1.00 35.49     0.666 C 
ATOM      7  NH1 ARG D 557     -23.009  -1.718 -15.367  1.00 35.49    -0.235 N 
ATOM      8  NH2 ARG D 557     -24.362  -2.069 -13.578  1.00 35.49    -0.235 N 
ATOM      9  HH  ARG D 557     -22.805  -1.297 -16.085  1.00 35.49     0.174 HD
ATOM     10  HH  ARG D 557     -22.510  -2.357 -15.089  1.00 35.49     0.174 HD
ATOM     11  HH  ARG D 557     -25.059  -1.843 -13.141  1.00 35.49     0.174 HD
ATOM     12  HH  ARG D 557     -23.855  -2.697 -13.318  1.00 35.49     0.174 HD
ATOM     13  HE  ARG D 557     -25.607  -0.363 -14.546  1.00 35.49     0.178 HD
ENDBRANCH   4   5
ENDBRANCH   3   4
ENDBRANCH   2   3
ENDBRANCH   1   2
END_RES ARG D 557
BEGIN_RES GLU D 570
REMARK  3 active torsions:
REMARK  status: ('A' for Active; 'I' for Inactive)
REMARK    5  A    between atoms: CA   and  CB  
REMARK    6  A    between atoms: CB   and  CG  
REMARK    7  A    between atoms: CG   and  CD  
ROOT
ATOM     14  CA  GLU D 570     -18.033  -6.348 -13.375  1.00 32.92     0.160 C 
ENDROOT
BRANCH  14  15
ATOM     15  CB  GLU D 570     -19.500  -6.345 -13.794  1.00 32.92     0.043 C 
BRANCH  15  16
ATOM     16  CG  GLU D 570     -20.441  -5.526 -12.986  1.00 32.92     0.100 C 
BRANCH  16  17
ATOM     17  CD  GLU D 570     -21.724  -5.208 -13.719  1.00 32.92     0.185 C 
ATOM     18  OE1 GLU D 570     -22.308  -4.134 -13.478  1.00 32.92    -0.647 OA
ATOM     19  OE2 GLU D 570     -22.158  -6.050 -14.530  1.00 32.92    -0.647 OA
ENDBRANCH  16  17
ENDBRANCH  15  16
ENDBRANCH  14  15
END_RES GLU D 570
ENDMDL
MODEL 4
REMARK VINA RESULT:      -9.5     15.862     18.289
REMARK  0 active torsions:
REMARK  status: ('A' for Active; 'I' for Inactive)
ROOT
HETATM    1  C   UNL     1     -18.611  10.718   1.437  1.00  0.00     0.078 C 
HETATM    2  C   UNL     1     -18.077   9.606   2.386  1.00  0.00    -0.042 C 
HETATM    3  C   UNL     1     -16.778   9.364   2.808  1.00  0.00     0.021 C 
HETATM    4  C   UNL     1     -16.627   9.023   4.153  1.00  0.00    -0.010 C 
HETATM    5  C   UNL     1     -17.766   9.194   4.981  1.00  0.00     0.027 C 
HETATM    6  C   UNL     1     -19.048   9.112   4.506  1.00  0.00     0.029 C 
HETATM    7  C   UNL     1     -19.194   9.146   3.122  1.00  0.00    -0.018 C 
HETATM    8  C   UNL     1     -20.369   9.522   2.392  1.00  0.00    -0.021 C 
HETATM    9  C   UNL     1     -21.590   8.928   2.207  1.00  0.00     0.003 C 
HETATM   10  C   UNL     1     -22.562   9.758   1.686  1.00  0.00     0.118 C 
HETATM   11  C   UNL     1     -22.408  11.103   2.025  1.00  0.00    -0.031 C 
HETATM   12  C   UNL     1     -21.144  11.661   1.783  1.00  0.00     0.017 C 
HETATM   13  C   UNL     1     -20.101  10.745   1.784  1.00  0.00    -0.043 C 
HETATM   14  C   UNL     1     -23.424  11.278   3.109  1.00  0.00    -0.015 A 
HETATM   15  C   UNL     1     -23.212  11.654   4.438  1.00  0.00     0.013 A 
HETATM   16  C   UNL     1     -24.005  11.068   5.463  1.00  0.00     0.001 A 
HETATM   17  C   UNL     1     -25.040  10.156   5.184  1.00  0.00     0.001 A 
HETATM   18  C   UNL     1     -25.296   9.789   3.875  1.00  0.00     0.016 A 
HETATM   19  C   UNL     1     -24.453  10.317   2.907  1.00  0.00     0.021 A 
HETATM   20  C   UNL     1     -23.979   9.435   1.840  1.00  0.00     0.172 C 
HETATM   21  O   UNL     1     -24.585   8.556   1.266  1.00  0.00    -0.291 OA
HETATM   22  C   UNL     1     -17.256   9.941   6.166  1.00  0.00     0.194 C 
HETATM   23  O   UNL     1     -17.926  10.483   7.020  1.00  0.00    -0.287 OA
HETATM   24  C   UNL     1     -15.772   9.952   6.067  1.00  0.00     0.026 C 
HETATM   25  C   UNL     1     -14.805  10.527   6.864  1.00  0.00     0.016 C 
HETATM   26  C   UNL     1     -13.505  10.046   6.710  1.00  0.00     0.001 C 
HETATM   27  C   UNL     1     -13.243   8.973   5.836  1.00  0.00     0.001 C 
HETATM   28  C   UNL     1     -14.218   8.529   4.936  1.00  0.00     0.013 C 
HETATM   29  C   UNL     1     -15.448   9.142   4.978  1.00  0.00    -0.011 C 
ENDROOT
TORSDOF 0
BEGIN_RES ARG D 557
REMARK  4 active torsions:
REMARK  status: ('A' for Active; 'I' for Inactive)
REMARK    1  A    between atoms: CA   and  CB  
REMARK    2  A    between atoms: CB   and  CG  
REMARK    3  A    between atoms: CG   and  CD  
REMARK    4  A    between atoms: CD   and  NE  
REMARK       I    between atoms: NE   and  CZ  
REMARK       I    between atoms: CZ   and  NH1 
REMARK       I    between atoms: CZ   and  NH2 
ROOT
ATOM      1  CA  ARG D 557     -26.217   2.705 -17.014  1.00 35.49     0.159 C 
ENDROOT
BRANCH   1   2
ATOM      2  CB  ARG D 557     -26.789   1.319 -17.183  1.00 35.49     0.034 C 
BRANCH   2   3
ATOM      3  CG  ARG D 557     -25.836   0.203 -17.156  1.00 35.49     0.027 C 
BRANCH   3   4
ATOM      4  CD  ARG D 557     -24.753   0.409 -16.167  1.00 35.49     0.116 C 
BRANCH   4   5
ATOM      5  NE  ARG D 557     -24.900  -0.443 -15.017  1.00 35.49    -0.212 N 
ATOM      6  CZ  ARG D 557     -24.080  -1.409 -14.667  1.00 35.49     0.666 C 
ATOM      7  NH1 ARG D 557     -23.005  -1.716 -15.369  1.00 35.49    -0.235 N 
ATOM      8  NH2 ARG D 557     -24.358  -2.067 -13.579  1.00 35.49    -0.235 N 
ATOM      9  HH  ARG D 557     -22.802  -1.295 -16.087  1.00 35.49     0.174 HD
ATOM     10  HH  ARG D 557     -22.506  -2.354 -15.091  1.00 35.49     0.174 HD
ATOM     11  HH  ARG D 557     -25.054  -1.841 -13.141  1.00 35.49     0.174 HD
ATOM     12  HH  ARG D 557     -23.850  -2.694 -13.319  1.00 35.49     0.174 HD
ATOM     13  HE  ARG D 557     -25.604  -0.362 -14.547  1.00 35.49     0.178 HD
ENDBRANCH   4   5
ENDBRANCH   3   4
ENDBRANCH   2   3
ENDBRANCH   1   2
END_RES ARG D 557
BEGIN_RES GLU D 570
REMARK  3 active torsions:
REMARK  status: ('A' for Active; 'I' for Inactive)
REMARK    5  A    between atoms: CA   and  CB  
REMARK    6  A    between atoms: CB   and  CG  
REMARK    7  A    between atoms: CG   and  CD  
ROOT
ATOM     14  CA  GLU D 570     -18.033  -6.348 -13.375  1.00 32.92     0.160 C 
ENDROOT
BRANCH  14  15
ATOM     15  CB  GLU D 570     -19.500  -6.345 -13.794  1.00 32.92     0.043 C 
BRANCH  15  16
ATOM     16  CG  GLU D 570     -20.440  -5.524 -12.988  1.00 32.92     0.100 C 
BRANCH  16  17
ATOM     17  CD  GLU D 570     -21.732  -5.225 -13.714  1.00 32.92     0.185 C 
ATOM     18  OE1 GLU D 570     -22.302  -4.136 -13.509  1.00 32.92    -0.647 OA
ATOM     19  OE2 GLU D 570     -22.186  -6.095 -14.481  1.00 32.92    -0.647 OA
ENDBRANCH  16  17
ENDBRANCH  15  16
ENDBRANCH  14  15
END_RES GLU D 570
ENDMDL
MODEL 5
REMARK VINA RESULT:      -9.3      3.458      6.203
REMARK  0 active torsions:
REMARK  status: ('A' for Active; 'I' for Inactive)
ROOT
HETATM    1  C   UNL     1     -18.902  -9.061  -5.153  1.00  0.00     0.078 C 
HETATM    2  C   UNL     1     -18.900  -9.023  -3.596  1.00  0.00    -0.042 C 
HETATM    3  C   UNL     1     -19.802  -8.416  -2.735  1.00  0.00     0.021 C 
HETATM    4  C   UNL     1     -20.149  -9.151  -1.599  1.00  0.00    -0.010 C 
HETATM    5  C   UNL     1     -19.738 -10.509  -1.574  1.00  0.00     0.027 C 
HETATM    6  C   UNL     1     -18.627 -10.959  -2.235  1.00  0.00     0.029 C 
HETATM    7  C   UNL     1     -18.077 -10.094  -3.177  1.00  0.00    -0.018 C 
HETATM    8  C   UNL     1     -17.242 -10.449  -4.286  1.00  0.00    -0.021 C 
HETATM    9  C   UNL     1     -15.951 -10.898  -4.383  1.00  0.00     0.003 C 
HETATM   10  C   UNL     1     -15.614 -11.421  -5.615  1.00  0.00     0.118 C 
HETATM   11  C   UNL     1     -16.680 -12.004  -6.301  1.00  0.00    -0.031 C 
HETATM   12  C   UNL     1     -17.835 -11.218  -6.432  1.00  0.00     0.017 C 
HETATM   13  C   UNL     1     -17.992 -10.257  -5.442  1.00  0.00    -0.043 C 
HETATM   14  C   UNL     1     -16.445 -13.464  -6.077  1.00  0.00    -0.015 A 
HETATM   15  C   UNL     1     -17.279 -14.385  -5.438  1.00  0.00     0.013 A 
HETATM   16  C   UNL     1     -16.703 -15.412  -4.642  1.00  0.00     0.001 A 
HETATM   17  C   UNL     1     -15.310 -15.571  -4.513  1.00  0.00     0.001 A 
HETATM   18  C   UNL     1     -14.457 -14.695  -5.160  1.00  0.00     0.016 A 
HETATM   19  C   UNL     1     -15.052 -13.657  -5.864  1.00  0.00     0.021 A 
HETATM   20  C   UNL     1     -14.469 -12.319  -5.756  1.00  0.00     0.172 C 
HETATM   21  O   UNL     1     -13.299 -12.012  -5.695  1.00  0.00    -0.291 OA
HETATM   22  C   UNL     1     -20.966 -11.263  -1.190  1.00  0.00     0.194 C 
HETATM   23  O   UNL     1     -21.125 -12.463  -1.256  1.00  0.00    -0.287 OA
HETATM   24  C   UNL     1     -21.980 -10.257  -0.773  1.00  0.00     0.026 C 
HETATM   25  C   UNL     1     -23.289 -10.393  -0.361  1.00  0.00     0.016 C 
HETATM   26  C   UNL     1     -23.846  -9.304   0.309  1.00  0.00     0.001 C 
HETATM   27  C   UNL     1     -23.061  -8.172   0.603  1.00  0.00     0.001 C 
HETATM   28  C   UNL     1     -21.794  -8.012   0.031  1.00  0.00     0.013 C 
HETATM   29  C   UNL     1     -21.330  -9.022  -0.778  1.00  0.00    -0.011 C 
ENDROOT
TORSDOF 0
BEGIN_RES ARG D 557
REMARK  4 active torsions:
REMARK  status: ('A' for Active; 'I' for Inactive)
REMARK    1  A    between atoms: CA   and  CB  
REMARK    2  A    between atoms: CB   and  CG  
REMARK    3  A    between atoms: CG   and  CD  
REMARK    4  A    between atoms: CD   and  NE  
REMARK       I    between atoms: NE   and  CZ  
REMARK       I    between atoms: CZ   and  NH1 
REMARK       I    between atoms: CZ   and  NH2 
ROOT
ATOM      1  CA  ARG D 557     -26.217   2.705 -17.014  1.00 35.49     0.159 C 
ENDROOT
BRANCH   1   2
ATOM      2  CB  ARG D 557     -26.789   1.319 -17.183  1.00 35.49     0.034 C 
BRANCH   2   3
ATOM      3  CG  ARG D 557     -25.865   0.195 -16.988  1.00 35.49     0.027 C 
BRANCH   3   4
ATOM      4  CD  ARG D 557     -26.297  -0.707 -15.895  1.00 35.49     0.116 C 
BRANCH   4   5
ATOM      5  NE  ARG D 557     -25.260  -0.909 -14.918  1.00 35.49    -0.212 N 
ATOM      6  CZ  ARG D 557     -24.958  -2.052 -14.344  1.00 35.49     0.666 C 
ATOM      7  NH1 ARG D 557     -25.609  -3.171 -14.605  1.00 35.49    -0.235 N 
ATOM      8  NH2 ARG D 557     -23.972  -2.055 -13.495  1.00 35.49    -0.235 N 
ATOM      9  HH  ARG D 557     -26.260  -3.192 -15.162  1.00 35.49     0.174 HD
ATOM     10  HH  ARG D 557     -25.366  -3.887 -14.202  1.00 35.49     0.174 HD
ATOM     11  HH  ARG D 557     -23.565  -1.320 -13.351  1.00 35.49     0.174 HD
ATOM     12  HH  ARG D 557     -23.745  -2.775 -13.107  1.00 35.49     0.174 HD
ATOM     13  HE  ARG D 557     -24.838  -0.227 -14.636  1.00 35.49     0.178 HD
ENDBRANCH   4   5
ENDBRANCH   3   4
ENDBRANCH   2   3
ENDBRANCH   1   2
END_RES ARG D 557
BEGIN_RES GLU D 570
REMARK  3 active torsions:
REMARK  status: ('A' for Active; 'I' for Inactive)
REMARK    5  A    between atoms: CA   and  CB  
REMARK    6  A    between atoms: CB   and  CG  
REMARK    7  A    between atoms: CG   and  CD  
ROOT
ATOM     14  CA  GLU D 570     -18.033  -6.348 -13.375  1.00 32.92     0.160 C 
ENDROOT
BRANCH  14  15
ATOM     15  CB  GLU D 570     -19.500  -6.345 -13.794  1.00 32.92     0.043 C 
BRANCH  15  16
ATOM     16  CG  GLU D 570     -20.452  -5.579 -12.948  1.00 32.92     0.100 C 
BRANCH  16  17
ATOM     17  CD  GLU D 570     -21.719  -5.202 -13.680  1.00 32.92     0.185 C 
ATOM     18  OE1 GLU D 570     -21.840  -5.514 -14.881  1.00 32.92    -0.647 OA
ATOM     19  OE2 GLU D 570     -22.593  -4.574 -13.051  1.00 32.92    -0.647 OA
ENDBRANCH  16  17
ENDBRANCH  15  16
ENDBRANCH  14  15
END_RES GLU D 570
ENDMDL
MODEL 6
REMARK VINA RESULT:      -9.0     16.091     18.302
REMARK  0 active torsions:
REMARK  status: ('A' for Active; 'I' for Inactive)
ROOT
HETATM    1  C   UNL     1     -19.179  11.772   6.871  1.00  0.00     0.078 C 
HETATM    2  C   UNL     1     -20.154  10.562   6.774  1.00  0.00    -0.042 C 
HETATM    3  C   UNL     1     -21.534  10.537   6.913  1.00  0.00     0.021 C 
HETATM    4  C   UNL     1     -22.224   9.728   6.007  1.00  0.00    -0.010 C 
HETATM    5  C   UNL     1     -21.474   9.222   4.914  1.00  0.00     0.027 C 
HETATM    6  C   UNL     1     -20.126   8.993   4.981  1.00  0.00     0.029 C 
HETATM    7  C   UNL     1     -19.460   9.552   6.069  1.00  0.00    -0.018 C 
HETATM    8  C   UNL     1     -18.062   9.855   6.156  1.00  0.00    -0.021 C 
HETATM    9  C   UNL     1     -16.936   9.079   6.247  1.00  0.00     0.003 C 
HETATM   10  C   UNL     1     -15.754   9.747   6.001  1.00  0.00     0.118 C 
HETATM   11  C   UNL     1     -15.876  10.818   5.115  1.00  0.00    -0.031 C 
HETATM   12  C   UNL     1     -16.882  11.751   5.406  1.00  0.00     0.017 C 
HETATM   13  C   UNL     1     -17.941  11.242   6.145  1.00  0.00    -0.043 C 
HETATM   14  C   UNL     1     -15.337  10.244   3.842  1.00  0.00    -0.015 A 
HETATM   15  C   UNL     1     -15.996  10.082   2.621  1.00  0.00     0.013 A 
HETATM   16  C   UNL     1     -15.723   8.933   1.829  1.00  0.00     0.001 A 
HETATM   17  C   UNL     1     -14.768   7.970   2.205  1.00  0.00     0.001 A 
HETATM   18  C   UNL     1     -14.075   8.119   3.393  1.00  0.00     0.016 A 
HETATM   19  C   UNL     1     -14.422   9.209   4.180  1.00  0.00     0.021 A 
HETATM   20  C   UNL     1     -14.547   9.012   5.625  1.00  0.00     0.172 C 
HETATM   21  O   UNL     1     -13.870   8.318   6.351  1.00  0.00    -0.291 OA
HETATM   22  C   UNL     1     -22.311   9.524   3.717  1.00  0.00     0.194 C 
HETATM   23  O   UNL     1     -21.961   9.459   2.558  1.00  0.00    -0.287 OA
HETATM   24  C   UNL     1     -23.634   9.984   4.217  1.00  0.00     0.026 C 
HETATM   25  C   UNL     1     -24.762  10.421   3.556  1.00  0.00     0.016 C 
HETATM   26  C   UNL     1     -25.950  10.425   4.286  1.00  0.00     0.001 C 
HETATM   27  C   UNL     1     -25.976   9.925   5.603  1.00  0.00     0.001 C 
HETATM   28  C   UNL     1     -24.787   9.641   6.285  1.00  0.00     0.013 C 
HETATM   29  C   UNL     1     -23.606   9.817   5.603  1.00  0.00    -0.011 C 
ENDROOT
TORSDOF 0
BEGIN_RES ARG D 557
REMARK  4 active torsions:
REMARK  status: ('A' for Active; 'I' for Inactive)
REMARK    1  A    between atoms: CA   and  CB  
REMARK    2  A    between atoms: CB   and  CG  
REMARK    3  A    between atoms: CG   and  CD  
REMARK    4  A    between atoms: CD   and  NE  
REMARK       I    between atoms: NE   and  CZ  
REMARK       I    between atoms: CZ   and  NH1 
REMARK       I    between atoms: CZ   and  NH2 
ROOT
ATOM      1  CA  ARG D 557     -26.217   2.705 -17.014  1.00 35.49     0.159 C 
ENDROOT
BRANCH   1   2
ATOM      2  CB  ARG D 557     -26.789   1.319 -17.183  1.00 35.49     0.034 C 
BRANCH   2   3
ATOM      3  CG  ARG D 557     -25.837   0.202 -17.147  1.00 35.49     0.027 C 
BRANCH   3   4
ATOM      4  CD  ARG D 557     -24.762   0.409 -16.149  1.00 35.49     0.116 C 
BRANCH   4   5
ATOM      5  NE  ARG D 557     -24.920  -0.440 -14.998  1.00 35.49    -0.212 N 
ATOM      6  CZ  ARG D 557     -24.128  -1.433 -14.662  1.00 35.49     0.666 C 
ATOM      7  NH1 ARG D 557     -23.075  -1.776 -15.382  1.00 35.49    -0.235 N 
ATOM      8  NH2 ARG D 557     -24.411  -2.084 -13.571  1.00 35.49    -0.235 N 
ATOM      9  HH  ARG D 557     -22.869  -1.360 -16.102  1.00 35.49     0.174 HD
ATOM     10  HH  ARG D 557     -22.594  -2.431 -15.112  1.00 35.49     0.174 HD
ATOM     11  HH  ARG D 557     -25.093  -1.836 -13.123  1.00 35.49     0.174 HD
ATOM     12  HH  ARG D 557     -23.921  -2.729 -13.320  1.00 35.49     0.174 HD
ATOM     13  HE  ARG D 557     -25.614  -0.336 -14.517  1.00 35.49     0.178 HD
ENDBRANCH   4   5
ENDBRANCH   3   4
ENDBRANCH   2   3
ENDBRANCH   1   2
END_RES ARG D 557
BEGIN_RES GLU D 570
REMARK  3 active torsions:
REMARK  status: ('A' for Active; 'I' for Inactive)
REMARK    5  A    between atoms: CA   and  CB  
REMARK    6  A    between atoms: CB   and  CG  
REMARK    7  A    between atoms: CG   and  CD  
ROOT
ATOM     14  CA  GLU D 570     -18.033  -6.348 -13.375  1.00 32.92     0.160 C 
ENDROOT
BRANCH  14  15
ATOM     15  CB  GLU D 570     -19.500  -6.345 -13.794  1.00 32.92     0.043 C 
BRANCH  15  16
ATOM     16  CG  GLU D 570     -20.448  -5.558 -12.963  1.00 32.92     0.100 C 
BRANCH  16  17
ATOM     17  CD  GLU D 570     -21.728  -5.219 -13.691  1.00 32.92     0.185 C 
ATOM     18  OE1 GLU D 570     -22.168  -6.014 -14.543  1.00 32.92    -0.647 OA
ATOM     19  OE2 GLU D 570     -22.288  -4.139 -13.417  1.00 32.92    -0.647 OA
ENDBRANCH  16  17
ENDBRANCH  15  16
ENDBRANCH  14  15
END_RES GLU D 570
ENDMDL
MODEL 7
REMARK VINA RESULT:      -8.9     13.855     16.548
REMARK  0 active torsions:
REMARK  status: ('A' for Active; 'I' for Inactive)
ROOT
HETATM    1  C   UNL     1     -24.876   9.292   1.333  1.00  0.00     0.078 C 
HETATM    2  C   UNL     1     -24.497   8.249   0.241  1.00  0.00    -0.042 C 
HETATM    3  C   UNL     1     -25.275   7.732  -0.784  1.00  0.00     0.021 C 
HETATM    4  C   UNL     1     -24.641   7.589  -2.019  1.00  0.00    -0.010 C 
HETATM    5  C   UNL     1     -23.368   8.202  -2.151  1.00  0.00     0.027 C 
HETATM    6  C   UNL     1     -22.526   8.398  -1.089  1.00  0.00     0.029 C 
HETATM    7  C   UNL     1     -23.084   8.242   0.177  1.00  0.00    -0.018 C 
HETATM    8  C   UNL     1     -22.599   8.801   1.404  1.00  0.00    -0.021 C 
HETATM    9  C   UNL     1     -21.501   8.544   2.184  1.00  0.00     0.003 C 
HETATM   10  C   UNL     1     -21.227   9.511   3.129  1.00  0.00     0.118 C 
HETATM   11  C   UNL     1     -21.621  10.799   2.762  1.00  0.00    -0.031 C 
HETATM   12  C   UNL     1     -22.947  10.940   2.328  1.00  0.00     0.017 C 
HETATM   13  C   UNL     1     -23.503   9.785   1.793  1.00  0.00    -0.043 C 
HETATM   14  C   UNL     1     -20.326  11.423   2.347  1.00  0.00    -0.015 A 
HETATM   15  C   UNL     1     -19.979  11.941   1.096  1.00  0.00     0.013 A 
HETATM   16  C   UNL     1     -18.651  11.774   0.617  1.00  0.00     0.001 A 
HETATM   17  C   UNL     1     -17.649  11.149   1.383  1.00  0.00     0.001 A 
HETATM   18  C   UNL     1     -17.953  10.655   2.639  1.00  0.00     0.016 A 
HETATM   19  C   UNL     1     -19.277  10.763   3.043  1.00  0.00     0.021 A 
HETATM   20  C   UNL     1     -19.894   9.621   3.719  1.00  0.00     0.172 C 
HETATM   21  O   UNL     1     -19.394   8.860   4.519  1.00  0.00    -0.291 OA
HETATM   22  C   UNL     1     -23.452   8.966  -3.429  1.00  0.00     0.194 C 
HETATM   23  O   UNL     1     -22.668   9.804  -3.821  1.00  0.00    -0.287 OA
HETATM   24  C   UNL     1     -24.713   8.551  -4.100  1.00  0.00     0.026 C 
HETATM   25  C   UNL     1     -25.302   8.961  -5.277  1.00  0.00     0.016 C 
HETATM   26  C   UNL     1     -26.281   8.122  -5.808  1.00  0.00     0.001 C 
HETATM   27  C   UNL     1     -26.572   6.889  -5.192  1.00  0.00     0.001 C 
HETATM   28  C   UNL     1     -26.069   6.588  -3.921  1.00  0.00     0.013 C 
HETATM   29  C   UNL     1     -25.242   7.514  -3.329  1.00  0.00    -0.011 C 
ENDROOT
TORSDOF 0
BEGIN_RES ARG D 557
REMARK  4 active torsions:
REMARK  status: ('A' for Active; 'I' for Inactive)
REMARK    1  A    between atoms: CA   and  CB  
REMARK    2  A    between atoms: CB   and  CG  
REMARK    3  A    between atoms: CG   and  CD  
REMARK    4  A    between atoms: CD   and  NE  
REMARK       I    between atoms: NE   and  CZ  
REMARK       I    between atoms: CZ   and  NH1 
REMARK       I    between atoms: CZ   and  NH2 
ROOT
ATOM      1  CA  ARG D 557     -26.217   2.705 -17.014  1.00 35.49     0.159 C 
ENDROOT
BRANCH   1   2
ATOM      2  CB  ARG D 557     -26.789   1.319 -17.183  1.00 35.49     0.034 C 
BRANCH   2   3
ATOM      3  CG  ARG D 557     -25.834   0.204 -17.174  1.00 35.49     0.027 C 
BRANCH   3   4
ATOM      4  CD  ARG D 557     -24.735   0.411 -16.203  1.00 35.49     0.116 C 
BRANCH   4   5
ATOM      5  NE  ARG D 557     -24.879  -0.419 -15.036  1.00 35.49    -0.212 N 
ATOM      6  CZ  ARG D 557     -24.068  -1.390 -14.680  1.00 35.49     0.666 C 
ATOM      7  NH1 ARG D 557     -23.007  -1.725 -15.391  1.00 35.49    -0.235 N 
ATOM      8  NH2 ARG D 557     -24.341  -2.026 -13.577  1.00 35.49    -0.235 N 
ATOM      9  HH  ARG D 557     -22.807  -1.319 -16.118  1.00 35.49     0.174 HD
ATOM     10  HH  ARG D 557     -22.513  -2.366 -15.108  1.00 35.49     0.174 HD
ATOM     11  HH  ARG D 557     -25.029  -1.783 -13.135  1.00 35.49     0.174 HD
ATOM     12  HH  ARG D 557     -23.839  -2.656 -13.313  1.00 35.49     0.174 HD
ATOM     13  HE  ARG D 557     -25.576  -0.321 -14.559  1.00 35.49     0.178 HD
ENDBRANCH   4   5
ENDBRANCH   3   4
ENDBRANCH   2   3
ENDBRANCH   1   2
END_RES ARG D 557
BEGIN_RES GLU D 570
REMARK  3 active torsions:
REMARK  status: ('A' for Active; 'I' for Inactive)
REMARK    5  A    between atoms: CA   and  CB  
REMARK    6  A    between atoms: CB   and  CG  
REMARK    7  A    between atoms: CG   and  CD  
ROOT
ATOM     14  CA  GLU D 570     -18.033  -6.348 -13.375  1.00 32.92     0.160 C 
ENDROOT
BRANCH  14  15
ATOM     15  CB  GLU D 570     -19.500  -6.345 -13.794  1.00 32.92     0.043 C 
BRANCH  15  16
ATOM     16  CG  GLU D 570     -20.434  -5.494 -13.012  1.00 32.92     0.100 C 
BRANCH  16  17
ATOM     17  CD  GLU D 570     -21.757  -5.278 -13.707  1.00 32.92     0.185 C 
ATOM     18  OE1 GLU D 570     -22.233  -6.197 -14.401  1.00 32.92    -0.647 OA
ATOM     19  OE2 GLU D 570     -22.316  -4.172 -13.570  1.00 32.92    -0.647 OA
ENDBRANCH  16  17
ENDBRANCH  15  16
ENDBRANCH  14  15
END_RES GLU D 570
ENDMDL
MODEL 8
REMARK VINA RESULT:      -8.8      4.113      6.466
REMARK  0 active torsions:
REMARK  status: ('A' for Active; 'I' for Inactive)
ROOT
HETATM    1  C   UNL     1     -19.070 -10.782  -6.231  1.00  0.00     0.078 C 
HETATM    2  C   UNL     1     -18.813  -9.754  -5.090  1.00  0.00    -0.042 C 
HETATM    3  C   UNL     1     -19.695  -8.859  -4.503  1.00  0.00     0.021 C 
HETATM    4  C   UNL     1     -19.602  -8.731  -3.116  1.00  0.00    -0.010 C 
HETATM    5  C   UNL     1     -18.797  -9.688  -2.445  1.00  0.00     0.027 C 
HETATM    6  C   UNL     1     -17.732 -10.310  -3.040  1.00  0.00     0.029 C 
HETATM    7  C   UNL     1     -17.643 -10.188  -4.424  1.00  0.00    -0.018 C 
HETATM    8  C   UNL     1     -16.942 -11.061  -5.319  1.00  0.00    -0.021 C 
HETATM    9  C   UNL     1     -15.612 -11.295  -5.554  1.00  0.00     0.003 C 
HETATM   10  C   UNL     1     -15.348 -12.437  -6.282  1.00  0.00     0.118 C 
HETATM   11  C   UNL     1     -16.286 -13.456  -6.109  1.00  0.00    -0.031 C 
HETATM   12  C   UNL     1     -17.630 -13.095  -6.287  1.00  0.00     0.017 C 
HETATM   13  C   UNL     1     -17.901 -11.754  -6.052  1.00  0.00    -0.043 C 
HETATM   14  C   UNL     1     -15.581 -14.386  -5.174  1.00  0.00    -0.015 A 
HETATM   15  C   UNL     1     -15.972 -14.780  -3.891  1.00  0.00     0.013 A 
HETATM   16  C   UNL     1     -14.981 -14.971  -2.889  1.00  0.00     0.001 A 
HETATM   17  C   UNL     1     -13.606 -14.829  -3.154  1.00  0.00     0.001 A 
HETATM   18  C   UNL     1     -13.186 -14.471  -4.422  1.00  0.00     0.016 A 
HETATM   19  C   UNL     1     -14.181 -14.215  -5.356  1.00  0.00     0.021 A 
HETATM   20  C   UNL     1     -14.025 -13.059  -6.240  1.00  0.00     0.172 C 
HETATM   21  O   UNL     1     -13.013 -12.636  -6.753  1.00  0.00    -0.291 OA
HETATM   22  C   UNL     1     -19.651 -10.171  -1.322  1.00  0.00     0.194 C 
HETATM   23  O   UNL     1     -19.445 -11.141  -0.625  1.00  0.00    -0.287 OA
HETATM   24  C   UNL     1     -20.837  -9.274  -1.262  1.00  0.00     0.026 C 
HETATM   25  C   UNL     1     -21.950  -9.282  -0.449  1.00  0.00     0.016 C 
HETATM   26  C   UNL     1     -22.691  -8.101  -0.397  1.00  0.00     0.001 C 
HETATM   27  C   UNL     1     -22.250  -6.955  -1.088  1.00  0.00     0.001 C 
HETATM   28  C   UNL     1     -21.211  -7.037  -2.021  1.00  0.00     0.013 C 
HETATM   29  C   UNL     1     -20.606  -8.260  -2.193  1.00  0.00    -0.011 C 
ENDROOT
TORSDOF 0
BEGIN_RES ARG D 557
REMARK  4 active torsions:
REMARK  status: ('A' for Active; 'I' for Inactive)
REMARK    1  A    between atoms: CA   and  CB  
REMARK    2  A    between atoms: CB   and  CG  
REMARK    3  A    between atoms: CG   and  CD  
REMARK    4  A    between atoms: CD   and  NE  
REMARK       I    between atoms: NE   and  CZ  
REMARK       I    between atoms: CZ   and  NH1 
REMARK       I    between atoms: CZ   and  NH2 
ROOT
ATOM      1  CA  ARG D 557     -26.217   2.705 -17.014  1.00 35.49     0.159 C 
ENDROOT
BRANCH   1   2
ATOM      2  CB  ARG D 557     -26.789   1.319 -17.183  1.00 35.49     0.034 C 
BRANCH   2   3
ATOM      3  CG  ARG D 557     -28.149   1.099 -16.676  1.00 35.49     0.027 C 
BRANCH   3   4
ATOM      4  CD  ARG D 557     -28.787  -0.097 -17.272  1.00 35.49     0.116 C 
BRANCH   4   5
ATOM      5  NE  ARG D 557     -28.167  -1.319 -16.833  1.00 35.49    -0.212 N 
ATOM      6  CZ  ARG D 557     -28.639  -2.531 -17.021  1.00 35.49     0.666 C 
ATOM      7  NH1 ARG D 557     -29.781  -2.758 -17.643  1.00 35.49    -0.235 N 
ATOM      8  NH2 ARG D 557     -27.931  -3.527 -16.572  1.00 35.49    -0.235 N 
ATOM      9  HH  ARG D 557     -30.261  -2.118 -17.949  1.00 35.49     0.174 HD
ATOM     10  HH  ARG D 557     -30.037  -3.570 -17.739  1.00 35.49     0.174 HD
ATOM     11  HH  ARG D 557     -27.194  -3.350 -16.181  1.00 35.49     0.174 HD
ATOM     12  HH  ARG D 557     -28.202  -4.323 -16.678  1.00 35.49     0.174 HD
ATOM     13  HE  ARG D 557     -27.463  -1.261 -16.359  1.00 35.49     0.178 HD
ENDBRANCH   4   5
ENDBRANCH   3   4
ENDBRANCH   2   3
ENDBRANCH   1   2
END_RES ARG D 557
BEGIN_RES GLU D 570
REMARK  3 active torsions:
REMARK  status: ('A' for Active; 'I' for Inactive)
REMARK    5  A    between atoms: CA   and  CB  
REMARK    6  A    between atoms: CB   and  CG  
REMARK    7  A    between atoms: CG   and  CD  
ROOT
ATOM     14  CA  GLU D 570     -18.033  -6.348 -13.375  1.00 32.92     0.160 C 
ENDROOT
BRANCH  14  15
ATOM     15  CB  GLU D 570     -19.500  -6.345 -13.794  1.00 32.92     0.043 C 
BRANCH  15  16
ATOM     16  CG  GLU D 570     -20.445  -5.546 -12.972  1.00 32.92     0.100 C 
BRANCH  16  17
ATOM     17  CD  GLU D 570     -21.726  -5.215 -13.701  1.00 32.92     0.185 C 
ATOM     18  OE1 GLU D 570     -22.321  -4.155 -13.428  1.00 32.92    -0.647 OA
ATOM     19  OE2 GLU D 570     -22.148  -6.032 -14.543  1.00 32.92    -0.647 OA
ENDBRANCH  16  17
ENDBRANCH  15  16
ENDBRANCH  14  15
END_RES GLU D 570
ENDMDL
MODEL 9
REMARK VINA RESULT:      -8.7      2.844      6.613
REMARK  0 active torsions:
REMARK  status: ('A' for Active; 'I' for Inactive)
ROOT
HETATM    1  C   UNL     1     -19.532 -13.806  -0.334  1.00  0.00     0.078 C 
HETATM    2  C   UNL     1     -18.108 -13.257  -0.028  1.00  0.00    -0.042 C 
HETATM    3  C   UNL     1     -16.889 -13.919  -0.060  1.00  0.00     0.021 C 
HETATM    4  C   UNL     1     -15.823 -13.209  -0.615  1.00  0.00    -0.010 C 
HETATM    5  C   UNL     1     -16.149 -12.006  -1.293  1.00  0.00     0.027 C 
HETATM    6  C   UNL     1     -17.244 -11.248  -0.973  1.00  0.00     0.029 C 
HETATM    7  C   UNL     1     -18.192 -11.851  -0.151  1.00  0.00    -0.018 C 
HETATM    8  C   UNL     1     -19.575 -11.495  -0.032  1.00  0.00    -0.021 C 
HETATM    9  C   UNL     1     -20.224 -10.419   0.514  1.00  0.00     0.003 C 
HETATM   10  C   UNL     1     -21.551 -10.303   0.153  1.00  0.00     0.118 C 
HETATM   11  C   UNL     1     -21.849 -10.816  -1.110  1.00  0.00    -0.031 C 
HETATM   12  C   UNL     1     -21.414 -12.125  -1.364  1.00  0.00     0.017 C 
HETATM   13  C   UNL     1     -20.315 -12.522  -0.613  1.00  0.00    -0.043 C 
HETATM   14  C   UNL     1     -21.941  -9.578  -1.945  1.00  0.00    -0.015 A 
HETATM   15  C   UNL     1     -21.167  -9.225  -3.054  1.00  0.00     0.013 A 
HETATM   16  C   UNL     1     -20.807  -7.863  -3.248  1.00  0.00     0.001 A 
HETATM   17  C   UNL     1     -21.248  -6.840  -2.387  1.00  0.00     0.001 A 
HETATM   18  C   UNL     1     -22.042  -7.153  -1.299  1.00  0.00     0.016 A 
HETATM   19  C   UNL     1     -22.309  -8.500  -1.094  1.00  0.00     0.021 A 
HETATM   20  C   UNL     1     -22.247  -9.022   0.272  1.00  0.00     0.172 C 
HETATM   21  O   UNL     1     -22.598  -8.484   1.299  1.00  0.00    -0.291 OA
HETATM   22  C   UNL     1     -15.433 -12.107  -2.597  1.00  0.00     0.194 C 
HETATM   23  O   UNL     1     -15.601 -11.401  -3.568  1.00  0.00    -0.287 OA
HETATM   24  C   UNL     1     -14.521 -13.278  -2.501  1.00  0.00     0.026 C 
HETATM   25  C   UNL     1     -13.660 -13.846  -3.417  1.00  0.00     0.016 C 
HETATM   26  C   UNL     1     -12.682 -14.698  -2.905  1.00  0.00     0.001 C 
HETATM   27  C   UNL     1     -12.556 -14.883  -1.515  1.00  0.00     0.001 C 
HETATM   28  C   UNL     1     -13.543 -14.417  -0.639  1.00  0.00     0.013 C 
HETATM   29  C   UNL     1     -14.602 -13.729  -1.183  1.00  0.00    -0.011 C 
ENDROOT
TORSDOF 0
BEGIN_RES ARG D 557
REMARK  4 active torsions:
REMARK  status: ('A' for Active; 'I' for Inactive)
REMARK    1  A    between atoms: CA   and  CB  
REMARK    2  A    between atoms: CB   and  CG  
REMARK    3  A    between atoms: CG   and  CD  
REMARK    4  A    between atoms: CD   and  NE  
REMARK       I    between atoms: NE   and  CZ  
REMARK       I    between atoms: CZ   and  NH1 
REMARK       I    between atoms: CZ   and  NH2 
ROOT
ATOM      1  CA  ARG D 557     -26.217   2.705 -17.014  1.00 35.49     0.159 C 
ENDROOT
BRANCH   1   2
ATOM      2  CB  ARG D 557     -26.789   1.319 -17.183  1.00 35.49     0.034 C 
BRANCH   2   3
ATOM      3  CG  ARG D 557     -25.837   0.202 -17.146  1.00 35.49     0.027 C 
BRANCH   3   4
ATOM      4  CD  ARG D 557     -24.757   0.414 -16.155  1.00 35.49     0.116 C 
BRANCH   4   5
ATOM      5  NE  ARG D 557     -24.900  -0.441 -15.006  1.00 35.49    -0.212 N 
ATOM      6  CZ  ARG D 557     -24.078  -1.406 -14.660  1.00 35.49     0.666 C 
ATOM      7  NH1 ARG D 557     -23.004  -1.710 -15.365  1.00 35.49    -0.235 N 
ATOM      8  NH2 ARG D 557     -24.353  -2.068 -13.573  1.00 35.49    -0.235 N 
ATOM      9  HH  ARG D 557     -22.803  -1.287 -16.082  1.00 35.49     0.174 HD
ATOM     10  HH  ARG D 557     -22.503  -2.348 -15.089  1.00 35.49     0.174 HD
ATOM     11  HH  ARG D 557     -25.049  -1.844 -13.134  1.00 35.49     0.174 HD
ATOM     12  HH  ARG D 557     -23.844  -2.695 -13.315  1.00 35.49     0.174 HD
ATOM     13  HE  ARG D 557     -25.604  -0.363 -14.535  1.00 35.49     0.178 HD
ENDBRANCH   4   5
ENDBRANCH   3   4
ENDBRANCH   2   3
ENDBRANCH   1   2
END_RES ARG D 557
BEGIN_RES GLU D 570
REMARK  3 active torsions:
REMARK  status: ('A' for Active; 'I' for Inactive)
REMARK    5  A    between atoms: CA   and  CB  
REMARK    6  A    between atoms: CB   and  CG  
REMARK    7  A    between atoms: CG   and  CD  
ROOT
ATOM     14  CA  GLU D 570     -18.033  -6.348 -13.375  1.00 32.92     0.160 C 
ENDROOT
BRANCH  14  15
ATOM     15  CB  GLU D 570     -19.500  -6.345 -13.794  1.00 32.92     0.043 C 
BRANCH  15  16
ATOM     16  CG  GLU D 570     -20.443  -5.534 -12.981  1.00 32.92     0.100 C 
BRANCH  16  17
ATOM     17  CD  GLU D 570     -21.724  -5.209 -13.713  1.00 32.92     0.185 C 
ATOM     18  OE1 GLU D 570     -22.295  -4.126 -13.482  1.00 32.92    -0.647 OA
ATOM     19  OE2 GLU D 570     -22.170  -6.054 -14.513  1.00 32.92    -0.647 OA
ENDBRANCH  16  17
ENDBRANCH  15  16
ENDBRANCH  14  15
END_RES GLU D 570
ENDMDL
