MODEL 1
REMARK VINA RESULT:      -6.8      0.000      0.000
REMARK  13 active torsions:
REMARK  status: ('A' for Active; 'I' for Inactive)
REMARK    1  A    between atoms: C_1  and  C_2 
REMARK    2  A    between atoms: C_1  and  O_12 
REMARK    3  A    between atoms: C_2  and  C_3 
REMARK    4  A    between atoms: C_2  and  O_11 
REMARK    5  A    between atoms: C_3  and  C_4 
REMARK    6  A    between atoms: C_3  and  O_10 
REMARK    7  A    between atoms: C_4  and  C_5 
REMARK    8  A    between atoms: C_4  and  O_9 
REMARK    9  A    between atoms: C_5  and  C_6 
REMARK   10  A    between atoms: C_5  and  O_8 
REMARK   11  A    between atoms: O_12  and  P_13 
REMARK   12  A    between atoms: P_13  and  O_15 
REMARK   13  A    between atoms: P_13  and  O_16 
ROOT
HETATM    1  C   UNL     1     -23.126  -4.184 -12.385  1.00  0.00     0.173 C 
ENDROOT
BRANCH   1   2
HETATM    2  C   UNL     1     -22.947  -4.839 -11.015  1.00  0.00     0.213 C 
BRANCH   2   3
HETATM    3  O   UNL     1     -22.423  -4.002  -9.981  1.00  0.00    -0.308 OA
BRANCH   3   4
HETATM    4  P   UNL     1     -23.053  -4.260  -8.390  1.00  0.00     0.349 P 
HETATM    5  O   UNL     1     -22.045  -3.329  -7.699  1.00  0.00    -0.645 OA
BRANCH   4   6
HETATM    6  O   UNL     1     -24.286  -3.203  -8.667  1.00  0.00     0.000 OA
HETATM    7  H   UNL     1     -23.957  -2.282  -8.551  1.00  0.00     0.000 HD
HETATM    8 NA   UNL     2     -25.849  -4.719  -9.542  1.00  0.00     0.000 Na
ENDBRANCH   4   6
BRANCH   4   9
HETATM    9  O   UNL     1     -23.683  -4.518  -6.800  1.00  0.00    -0.321 OA
HETATM   10  H   UNL     1     -23.471  -5.446  -6.561  1.00  0.00     0.220 HD
ENDBRANCH   4   9
ENDBRANCH   3   4
ENDBRANCH   2   3
ENDBRANCH   1   2
BRANCH   1  11
HETATM   11  C   UNL     1     -24.165  -3.041 -12.387  1.00  0.00     0.180 C 
BRANCH  11  12
HETATM   12  C   UNL     1     -24.926  -2.960 -13.735  1.00  0.00     0.184 C 
BRANCH  12  13
HETATM   13  C   UNL     1     -24.757  -1.605 -14.445  1.00  0.00     0.210 C 
BRANCH  13  14
HETATM   14  C   UNL     1     -23.348  -1.417 -14.979  1.00  0.00     0.265 C 
HETATM   15  O   UNL     1     -22.668  -2.353 -15.412  1.00  0.00    -0.304 OA
ENDBRANCH  13  14
BRANCH  13  16
HETATM   16  O   UNL     1     -25.665  -1.507 -15.536  1.00  0.00    -0.386 OA
HETATM   17  H   UNL     1     -26.547  -1.314 -15.161  1.00  0.00     0.210 HD
ENDBRANCH  13  16
ENDBRANCH  12  13
BRANCH  12  18
HETATM   18  O   UNL     1     -24.547  -4.039 -14.616  1.00  0.00    -0.390 OA
HETATM   19  H   UNL     1     -24.629  -4.876 -14.104  1.00  0.00     0.210 HD
ENDBRANCH  12  18
ENDBRANCH  11  12
BRANCH  11  20
HETATM   20  O   UNL     1     -25.105  -3.168 -11.321  1.00  0.00    -0.390 OA
HETATM   21  H   UNL     1     -25.566  -4.022 -11.422  1.00  0.00     0.210 HD
ENDBRANCH  11  20
ENDBRANCH   1  11
BRANCH   1  22
HETATM   22  O   UNL     1     -21.826  -3.697 -12.744  1.00  0.00    -0.391 OA
HETATM   23  H   UNL     1     -21.878  -2.716 -12.789  1.00  0.00     0.210 HD
ENDBRANCH   1  22
TORSDOF 13
BEGIN_RES ARG D 557
REMARK  4 active torsions:
REMARK  status: ('A' for Active; 'I' for Inactive)
REMARK    1  A    between atoms: CA   and  CB  
REMARK    2  A    between atoms: CB   and  CG  
REMARK    3  A    between atoms: CG   and  CD  
REMARK    4  A    between atoms: CD   and  NE  
REMARK       I    between atoms: NE   and  CZ  
REMARK       I    between atoms: CZ   and  NH1 
REMARK       I    between atoms: CZ   and  NH2 
ROOT
ATOM      1  CA  ARG D 557     -26.217   2.705 -17.014  1.00 35.49     0.159 C 
ENDROOT
BRANCH   1   2
ATOM      2  CB  ARG D 557     -26.789   1.319 -17.183  1.00 35.49     0.034 C 
BRANCH   2   3
ATOM      3  CG  ARG D 557     -28.251   1.196 -17.128  1.00 35.49     0.027 C 
BRANCH   3   4
ATOM      4  CD  ARG D 557     -28.690   0.053 -16.295  1.00 35.49     0.116 C 
BRANCH   4   5
ATOM      5  NE  ARG D 557     -29.378  -0.948 -17.068  1.00 35.49    -0.212 N 
ATOM      6  CZ  ARG D 557     -29.042  -2.215 -17.155  1.00 35.49     0.666 C 
ATOM      7  NH1 ARG D 557     -27.991  -2.715 -16.532  1.00 35.49    -0.235 N 
ATOM      8  NH2 ARG D 557     -29.793  -2.986 -17.886  1.00 35.49    -0.235 N 
ATOM      9  HH  ARG D 557     -27.484  -2.226 -16.044  1.00 35.49     0.174 HD
ATOM     10  HH  ARG D 557     -27.822  -3.550 -16.624  1.00 35.49     0.174 HD
ATOM     11  HH  ARG D 557     -30.469  -2.638 -18.271  1.00 35.49     0.174 HD
ATOM     12  HH  ARG D 557     -29.610  -3.811 -17.964  1.00 35.49     0.174 HD
ATOM     13  HE  ARG D 557     -30.025  -0.698 -17.560  1.00 35.49     0.178 HD
ENDBRANCH   4   5
ENDBRANCH   3   4
ENDBRANCH   2   3
ENDBRANCH   1   2
END_RES ARG D 557
BEGIN_RES GLU D 570
REMARK  3 active torsions:
REMARK  status: ('A' for Active; 'I' for Inactive)
REMARK    5  A    between atoms: CA   and  CB  
REMARK    6  A    between atoms: CB   and  CG  
REMARK    7  A    between atoms: CG   and  CD  
ROOT
ATOM     14  CA  GLU D 570     -18.033  -6.348 -13.375  1.00 32.92     0.160 C 
ENDROOT
BRANCH  14  15
ATOM     15  CB  GLU D 570     -19.500  -6.345 -13.794  1.00 32.92     0.043 C 
BRANCH  15  16
ATOM     16  CG  GLU D 570     -19.798  -6.210 -15.243  1.00 32.92     0.100 C 
BRANCH  16  17
ATOM     17  CD  GLU D 570     -21.226  -5.798 -15.516  1.00 32.92     0.185 C 
ATOM     18  OE1 GLU D 570     -21.488  -5.185 -16.568  1.00 32.92    -0.647 OA
ATOM     19  OE2 GLU D 570     -22.088  -6.077 -14.660  1.00 32.92    -0.647 OA
ENDBRANCH  16  17
ENDBRANCH  15  16
ENDBRANCH  14  15
END_RES GLU D 570
ENDMDL
MODEL 2
REMARK VINA RESULT:      -6.6      3.144      5.234
REMARK  13 active torsions:
REMARK  status: ('A' for Active; 'I' for Inactive)
REMARK    1  A    between atoms: C_1  and  C_2 
REMARK    2  A    between atoms: C_1  and  O_12 
REMARK    3  A    between atoms: C_2  and  C_3 
REMARK    4  A    between atoms: C_2  and  O_11 
REMARK    5  A    between atoms: C_3  and  C_4 
REMARK    6  A    between atoms: C_3  and  O_10 
REMARK    7  A    between atoms: C_4  and  C_5 
REMARK    8  A    between atoms: C_4  and  O_9 
REMARK    9  A    between atoms: C_5  and  C_6 
REMARK   10  A    between atoms: C_5  and  O_8 
REMARK   11  A    between atoms: O_12  and  P_13 
REMARK   12  A    between atoms: P_13  and  O_15 
REMARK   13  A    between atoms: P_13  and  O_16 
ROOT
HETATM    1  C   UNL     1     -23.138  -3.606 -14.366  1.00  0.00     0.173 C 
ENDROOT
BRANCH   1   2
HETATM    2  C   UNL     1     -23.767  -4.997 -14.287  1.00  0.00     0.213 C 
BRANCH   2   3
HETATM    3  O   UNL     1     -24.627  -5.361 -15.369  1.00  0.00    -0.308 OA
BRANCH   3   4
HETATM    4  P   UNL     1     -24.457  -6.971 -15.979  1.00  0.00     0.349 P 
HETATM    5  O   UNL     1     -25.768  -7.483 -15.363  1.00  0.00    -0.645 OA
BRANCH   4   6
HETATM    6  O   UNL     1     -24.995  -6.504 -17.465  1.00  0.00     0.000 OA
HETATM    7  H   UNL     1     -25.391  -5.605 -17.399  1.00  0.00     0.000 HD
HETATM    8 NA   UNL     2     -24.027  -8.223 -18.737  1.00  0.00     0.000 Na
ENDBRANCH   4   6
BRANCH   4   9
HETATM    9  O   UNL     1     -24.286  -8.580 -16.590  1.00  0.00    -0.321 OA
HETATM   10  H   UNL     1     -23.326  -8.784 -16.581  1.00  0.00     0.220 HD
ENDBRANCH   4   9
ENDBRANCH   3   4
ENDBRANCH   2   3
ENDBRANCH   1   2
BRANCH   1  11
HETATM   11  C   UNL     1     -22.851  -2.984 -12.982  1.00  0.00     0.180 C 
BRANCH  11  12
HETATM   12  C   UNL     1     -23.802  -3.544 -11.893  1.00  0.00     0.184 C 
BRANCH  12  13
HETATM   13  C   UNL     1     -23.223  -3.437 -10.471  1.00  0.00     0.210 C 
BRANCH  13  14
HETATM   14  C   UNL     1     -24.308  -3.515  -9.411  1.00  0.00     0.265 C 
HETATM   15  O   UNL     1     -25.328  -4.198  -9.548  1.00  0.00    -0.304 OA
ENDBRANCH  13  14
BRANCH  13  16
HETATM   16  O   UNL     1     -22.296  -4.491 -10.239  1.00  0.00    -0.386 OA
HETATM   17  H   UNL     1     -22.795  -5.233  -9.844  1.00  0.00     0.210 HD
ENDBRANCH  13  16
ENDBRANCH  12  13
BRANCH  12  18
HETATM   18  O   UNL     1     -25.099  -2.913 -11.956  1.00  0.00    -0.390 OA
HETATM   19  H   UNL     1     -24.963  -1.949 -11.803  1.00  0.00     0.210 HD
ENDBRANCH  12  18
ENDBRANCH  11  12
BRANCH  11  20
HETATM   20  O   UNL     1     -21.498  -3.180 -12.574  1.00  0.00    -0.390 OA
HETATM   21  H   UNL     1     -21.175  -2.348 -12.179  1.00  0.00     0.210 HD
ENDBRANCH  11  20
ENDBRANCH   1  11
BRANCH   1  22
HETATM   22  O   UNL     1     -21.926  -3.780 -15.112  1.00  0.00    -0.391 OA
HETATM   23  H   UNL     1     -21.913  -3.100 -15.821  1.00  0.00     0.210 HD
ENDBRANCH   1  22
TORSDOF 13
BEGIN_RES ARG D 557
REMARK  4 active torsions:
REMARK  status: ('A' for Active; 'I' for Inactive)
REMARK    1  A    between atoms: CA   and  CB  
REMARK    2  A    between atoms: CB   and  CG  
REMARK    3  A    between atoms: CG   and  CD  
REMARK    4  A    between atoms: CD   and  NE  
REMARK       I    between atoms: NE   and  CZ  
REMARK       I    between atoms: CZ   and  NH1 
REMARK       I    between atoms: CZ   and  NH2 
ROOT
ATOM      1  CA  ARG D 557     -26.217   2.705 -17.014  1.00 35.49     0.159 C 
ENDROOT
BRANCH   1   2
ATOM      2  CB  ARG D 557     -26.789   1.319 -17.183  1.00 35.49     0.034 C 
BRANCH   2   3
ATOM      3  CG  ARG D 557     -28.196   1.135 -16.809  1.00 35.49     0.027 C 
BRANCH   3   4
ATOM      4  CD  ARG D 557     -28.581  -0.294 -16.745  1.00 35.49     0.116 C 
BRANCH   4   5
ATOM      5  NE  ARG D 557     -27.614  -1.085 -16.031  1.00 35.49    -0.212 N 
ATOM      6  CZ  ARG D 557     -27.470  -2.388 -16.121  1.00 35.49     0.666 C 
ATOM      7  NH1 ARG D 557     -28.237  -3.134 -16.895  1.00 35.49    -0.235 N 
ATOM      8  NH2 ARG D 557     -26.525  -2.938 -15.416  1.00 35.49    -0.235 N 
ATOM      9  HH  ARG D 557     -28.863  -2.793 -17.370  1.00 35.49     0.174 HD
ATOM     10  HH  ARG D 557     -28.095  -3.979 -16.916  1.00 35.49     0.174 HD
ATOM     11  HH  ARG D 557     -26.041  -2.430 -14.930  1.00 35.49     0.174 HD
ATOM     12  HH  ARG D 557     -26.399  -3.775 -15.451  1.00 35.49     0.174 HD
ATOM     13  HE  ARG D 557     -27.126  -0.694 -15.454  1.00 35.49     0.178 HD
ENDBRANCH   4   5
ENDBRANCH   3   4
ENDBRANCH   2   3
ENDBRANCH   1   2
END_RES ARG D 557
BEGIN_RES GLU D 570
REMARK  3 active torsions:
REMARK  status: ('A' for Active; 'I' for Inactive)
REMARK    5  A    between atoms: CA   and  CB  
REMARK    6  A    between atoms: CB   and  CG  
REMARK    7  A    between atoms: CG   and  CD  
ROOT
ATOM     14  CA  GLU D 570     -18.033  -6.348 -13.375  1.00 32.92     0.160 C 
ENDROOT
BRANCH  14  15
ATOM     15  CB  GLU D 570     -19.500  -6.345 -13.794  1.00 32.92     0.043 C 
BRANCH  15  16
ATOM     16  CG  GLU D 570     -20.076  -7.625 -14.280  1.00 32.92     0.100 C 
BRANCH  16  17
ATOM     17  CD  GLU D 570     -20.704  -7.507 -15.649  1.00 32.92     0.185 C 
ATOM     18  OE1 GLU D 570     -20.763  -6.387 -16.193  1.00 32.92    -0.647 OA
ATOM     19  OE2 GLU D 570     -21.156  -8.542 -16.177  1.00 32.92    -0.647 OA
ENDBRANCH  16  17
ENDBRANCH  15  16
ENDBRANCH  14  15
END_RES GLU D 570
ENDMDL
MODEL 3
REMARK VINA RESULT:      -6.5      4.120      6.623
REMARK  13 active torsions:
REMARK  status: ('A' for Active; 'I' for Inactive)
REMARK    1  A    between atoms: C_1  and  C_2 
REMARK    2  A    between atoms: C_1  and  O_12 
REMARK    3  A    between atoms: C_2  and  C_3 
REMARK    4  A    between atoms: C_2  and  O_11 
REMARK    5  A    between atoms: C_3  and  C_4 
REMARK    6  A    between atoms: C_3  and  O_10 
REMARK    7  A    between atoms: C_4  and  C_5 
REMARK    8  A    between atoms: C_4  and  O_9 
REMARK    9  A    between atoms: C_5  and  C_6 
REMARK   10  A    between atoms: C_5  and  O_8 
REMARK   11  A    between atoms: O_12  and  P_13 
REMARK   12  A    between atoms: P_13  and  O_15 
REMARK   13  A    between atoms: P_13  and  O_16 
ROOT
HETATM    1  C   UNL     1     -28.353  -6.371 -16.055  1.00  0.00     0.173 C 
ENDROOT
BRANCH   1   2
HETATM    2  C   UNL     1     -26.982  -6.289 -15.383  1.00  0.00     0.213 C 
BRANCH   2   3
HETATM    3  O   UNL     1     -26.116  -7.408 -15.580  1.00  0.00    -0.308 OA
BRANCH   3   4
HETATM    4  P   UNL     1     -24.580  -7.074 -16.303  1.00  0.00     0.349 P 
HETATM    5  O   UNL     1     -25.169  -6.564 -17.627  1.00  0.00    -0.645 OA
BRANCH   4   6
HETATM    6  O   UNL     1     -24.457  -5.655 -15.473  1.00  0.00     0.000 OA
HETATM    7  H   UNL     1     -24.741  -4.913 -16.054  1.00  0.00     0.000 HD
HETATM    8 NA   UNL     2     -24.061  -6.540 -13.336  1.00  0.00     0.000 Na
ENDBRANCH   4   6
BRANCH   4   9
HETATM    9  O   UNL     1     -23.045  -6.739 -17.025  1.00  0.00    -0.321 OA
HETATM   10  H   UNL     1     -22.452  -6.445 -16.300  1.00  0.00     0.220 HD
ENDBRANCH   4   9
ENDBRANCH   3   4
ENDBRANCH   2   3
ENDBRANCH   1   2
BRANCH   1  11
HETATM   11  C   UNL     1     -28.766  -5.064 -16.766  1.00  0.00     0.180 C 
BRANCH  11  12
HETATM   12  C   UNL     1     -30.286  -4.790 -16.628  1.00  0.00     0.184 C 
BRANCH  12  13
HETATM   13  C   UNL     1     -30.826  -3.821 -17.694  1.00  0.00     0.210 C 
BRANCH  13  14
HETATM   14  C   UNL     1     -32.320  -3.590 -17.543  1.00  0.00     0.265 C 
HETATM   15  O   UNL     1     -32.941  -3.883 -16.517  1.00  0.00    -0.304 OA
ENDBRANCH  13  14
BRANCH  13  16
HETATM   16  O   UNL     1     -30.168  -2.564 -17.591  1.00  0.00    -0.386 OA
HETATM   17  H   UNL     1     -29.409  -2.584 -18.208  1.00  0.00     0.210 HD
ENDBRANCH  13  16
ENDBRANCH  12  13
BRANCH  12  18
HETATM   18  O   UNL     1     -31.042  -6.020 -16.637  1.00  0.00    -0.390 OA
HETATM   19  H   UNL     1     -31.056  -6.347 -17.566  1.00  0.00     0.210 HD
ENDBRANCH  12  18
ENDBRANCH  11  12
BRANCH  11  20
HETATM   20  O   UNL     1     -28.037  -3.936 -16.284  1.00  0.00    -0.390 OA
HETATM   21  H   UNL     1     -27.085  -4.144 -16.338  1.00  0.00     0.210 HD
ENDBRANCH  11  20
ENDBRANCH   1  11
BRANCH   1  22
HETATM   22  O   UNL     1     -28.252  -7.454 -16.989  1.00  0.00    -0.391 OA
HETATM   23  H   UNL     1     -27.300  -7.688 -17.071  1.00  0.00     0.210 HD
ENDBRANCH   1  22
TORSDOF 13
BEGIN_RES ARG D 557
REMARK  4 active torsions:
REMARK  status: ('A' for Active; 'I' for Inactive)
REMARK    1  A    between atoms: CA   and  CB  
REMARK    2  A    between atoms: CB   and  CG  
REMARK    3  A    between atoms: CG   and  CD  
REMARK    4  A    between atoms: CD   and  NE  
REMARK       I    between atoms: NE   and  CZ  
REMARK       I    between atoms: CZ   and  NH1 
REMARK       I    between atoms: CZ   and  NH2 
ROOT
ATOM      1  CA  ARG D 557     -26.217   2.705 -17.014  1.00 35.49     0.159 C 
ENDROOT
BRANCH   1   2
ATOM      2  CB  ARG D 557     -26.789   1.319 -17.183  1.00 35.49     0.034 C 
BRANCH   2   3
ATOM      3  CG  ARG D 557     -25.860   0.195 -17.012  1.00 35.49     0.027 C 
BRANCH   3   4
ATOM      4  CD  ARG D 557     -26.268  -0.712 -15.916  1.00 35.49     0.116 C 
BRANCH   4   5
ATOM      5  NE  ARG D 557     -25.217  -0.904 -14.951  1.00 35.49    -0.212 N 
ATOM      6  CZ  ARG D 557     -24.946  -2.027 -14.324  1.00 35.49     0.666 C 
ATOM      7  NH1 ARG D 557     -25.644  -3.131 -14.512  1.00 35.49    -0.235 N 
ATOM      8  NH2 ARG D 557     -23.941  -2.025 -13.497  1.00 35.49    -0.235 N 
ATOM      9  HH  ARG D 557     -26.308  -3.156 -15.054  1.00 35.49     0.174 HD
ATOM     10  HH  ARG D 557     -25.419  -3.834 -14.078  1.00 35.49     0.174 HD
ATOM     11  HH  ARG D 557     -23.503  -1.299 -13.401  1.00 35.49     0.174 HD
ATOM     12  HH  ARG D 557     -23.733  -2.731 -13.077  1.00 35.49     0.174 HD
ATOM     13  HE  ARG D 557     -24.763  -0.225 -14.715  1.00 35.49     0.178 HD
ENDBRANCH   4   5
ENDBRANCH   3   4
ENDBRANCH   2   3
ENDBRANCH   1   2
END_RES ARG D 557
BEGIN_RES GLU D 570
REMARK  3 active torsions:
REMARK  status: ('A' for Active; 'I' for Inactive)
REMARK    5  A    between atoms: CA   and  CB  
REMARK    6  A    between atoms: CB   and  CG  
REMARK    7  A    between atoms: CG   and  CD  
ROOT
ATOM     14  CA  GLU D 570     -18.033  -6.348 -13.375  1.00 32.92     0.160 C 
ENDROOT
BRANCH  14  15
ATOM     15  CB  GLU D 570     -19.500  -6.345 -13.794  1.00 32.92     0.043 C 
BRANCH  15  16
ATOM     16  CG  GLU D 570     -20.444  -5.542 -12.975  1.00 32.92     0.100 C 
BRANCH  16  17
ATOM     17  CD  GLU D 570     -21.647  -5.068 -13.756  1.00 32.92     0.185 C 
ATOM     18  OE1 GLU D 570     -22.665  -4.702 -13.138  1.00 32.92    -0.647 OA
ATOM     19  OE2 GLU D 570     -21.577  -5.079 -15.001  1.00 32.92    -0.647 OA
ENDBRANCH  16  17
ENDBRANCH  15  16
ENDBRANCH  14  15
END_RES GLU D 570
ENDMDL
MODEL 4
REMARK VINA RESULT:      -6.5      2.881      4.940
REMARK  13 active torsions:
REMARK  status: ('A' for Active; 'I' for Inactive)
REMARK    1  A    between atoms: C_1  and  C_2 
REMARK    2  A    between atoms: C_1  and  O_12 
REMARK    3  A    between atoms: C_2  and  C_3 
REMARK    4  A    between atoms: C_2  and  O_11 
REMARK    5  A    between atoms: C_3  and  C_4 
REMARK    6  A    between atoms: C_3  and  O_10 
REMARK    7  A    between atoms: C_4  and  C_5 
REMARK    8  A    between atoms: C_4  and  O_9 
REMARK    9  A    between atoms: C_5  and  C_6 
REMARK   10  A    between atoms: C_5  and  O_8 
REMARK   11  A    between atoms: O_12  and  P_13 
REMARK   12  A    between atoms: P_13  and  O_15 
REMARK   13  A    between atoms: P_13  and  O_16 
ROOT
HETATM    1  C   UNL     1     -25.732  -3.072 -14.349  1.00  0.00     0.173 C 
ENDROOT
BRANCH   1   2
HETATM    2  C   UNL     1     -25.191  -4.461 -14.687  1.00  0.00     0.213 C 
BRANCH   2   3
HETATM    3  O   UNL     1     -25.827  -5.136 -15.775  1.00  0.00    -0.308 OA
BRANCH   3   4
HETATM    4  P   UNL     1     -25.215  -6.706 -16.168  1.00  0.00     0.349 P 
HETATM    5  O   UNL     1     -24.711  -7.008 -14.749  1.00  0.00    -0.645 OA
BRANCH   4   6
HETATM    6  O   UNL     1     -26.728  -7.356 -16.085  1.00  0.00     0.000 OA
HETATM    7  H   UNL     1     -26.991  -7.446 -15.141  1.00  0.00     0.000 HD
HETATM    8 NA   UNL     2     -27.290  -7.208 -18.359  1.00  0.00     0.000 Na
ENDBRANCH   4   6
BRANCH   4   9
HETATM    9  O   UNL     1     -24.605  -8.276 -16.562  1.00  0.00    -0.321 OA
HETATM   10  H   UNL     1     -24.770  -8.846 -15.781  1.00  0.00     0.220 HD
ENDBRANCH   4   9
ENDBRANCH   3   4
ENDBRANCH   2   3
ENDBRANCH   1   2
BRANCH   1  11
HETATM   11  C   UNL     1     -24.865  -2.310 -13.322  1.00  0.00     0.180 C 
BRANCH  11  12
HETATM   12  C   UNL     1     -24.219  -3.271 -12.291  1.00  0.00     0.184 C 
BRANCH  12  13
HETATM   13  C   UNL     1     -22.704  -3.056 -12.129  1.00  0.00     0.210 C 
BRANCH  13  14
HETATM   14  C   UNL     1     -22.150  -3.808 -10.932  1.00  0.00     0.265 C 
HETATM   15  O   UNL     1     -22.369  -3.463  -9.766  1.00  0.00    -0.304 OA
ENDBRANCH  13  14
BRANCH  13  16
HETATM   16  O   UNL     1     -22.019  -3.504 -13.293  1.00  0.00    -0.386 OA
HETATM   17  H   UNL     1     -21.595  -2.721 -13.698  1.00  0.00     0.210 HD
ENDBRANCH  13  16
ENDBRANCH  12  13
BRANCH  12  18
HETATM   18  O   UNL     1     -24.878  -3.184 -11.010  1.00  0.00    -0.390 OA
HETATM   19  H   UNL     1     -25.725  -3.682 -11.083  1.00  0.00     0.210 HD
ENDBRANCH  12  18
ENDBRANCH  11  12
BRANCH  11  20
HETATM   20  O   UNL     1     -23.844  -1.536 -13.951  1.00  0.00    -0.390 OA
HETATM   21  H   UNL     1     -23.242  -2.147 -14.416  1.00  0.00     0.210 HD
ENDBRANCH  11  20
ENDBRANCH   1  11
BRANCH   1  22
HETATM   22  O   UNL     1     -25.783  -2.371 -15.598  1.00  0.00    -0.391 OA
HETATM   23  H   UNL     1     -26.693  -2.012 -15.700  1.00  0.00     0.210 HD
ENDBRANCH   1  22
TORSDOF 13
BEGIN_RES ARG D 557
REMARK  4 active torsions:
REMARK  status: ('A' for Active; 'I' for Inactive)
REMARK    1  A    between atoms: CA   and  CB  
REMARK    2  A    between atoms: CB   and  CG  
REMARK    3  A    between atoms: CG   and  CD  
REMARK    4  A    between atoms: CD   and  NE  
REMARK       I    between atoms: NE   and  CZ  
REMARK       I    between atoms: CZ   and  NH1 
REMARK       I    between atoms: CZ   and  NH2 
ROOT
ATOM      1  CA  ARG D 557     -26.217   2.705 -17.014  1.00 35.49     0.159 C 
ENDROOT
BRANCH   1   2
ATOM      2  CB  ARG D 557     -26.789   1.319 -17.183  1.00 35.49     0.034 C 
BRANCH   2   3
ATOM      3  CG  ARG D 557     -28.119   1.079 -16.609  1.00 35.49     0.027 C 
BRANCH   3   4
ATOM      4  CD  ARG D 557     -28.835  -0.025 -17.289  1.00 35.49     0.116 C 
BRANCH   4   5
ATOM      5  NE  ARG D 557     -28.296  -1.314 -16.945  1.00 35.49    -0.212 N 
ATOM      6  CZ  ARG D 557     -28.886  -2.472 -17.145  1.00 35.49     0.666 C 
ATOM      7  NH1 ARG D 557     -30.085  -2.572 -17.689  1.00 35.49    -0.235 N 
ATOM      8  NH2 ARG D 557     -28.240  -3.544 -16.790  1.00 35.49    -0.235 N 
ATOM      9  HH  ARG D 557     -30.527  -1.880 -17.932  1.00 35.49     0.174 HD
ATOM     10  HH  ARG D 557     -30.418  -3.354 -17.797  1.00 35.49     0.174 HD
ATOM     11  HH  ARG D 557     -27.464  -3.449 -16.448  1.00 35.49     0.174 HD
ATOM     12  HH  ARG D 557     -28.586  -4.309 -16.906  1.00 35.49     0.174 HD
ATOM     13  HE  ARG D 557     -27.558  -1.339 -16.523  1.00 35.49     0.178 HD
ENDBRANCH   4   5
ENDBRANCH   3   4
ENDBRANCH   2   3
ENDBRANCH   1   2
END_RES ARG D 557
BEGIN_RES GLU D 570
REMARK  3 active torsions:
REMARK  status: ('A' for Active; 'I' for Inactive)
REMARK    5  A    between atoms: CA   and  CB  
REMARK    6  A    between atoms: CB   and  CG  
REMARK    7  A    between atoms: CG   and  CD  
ROOT
ATOM     14  CA  GLU D 570     -18.033  -6.348 -13.375  1.00 32.92     0.160 C 
ENDROOT
BRANCH  14  15
ATOM     15  CB  GLU D 570     -19.500  -6.345 -13.794  1.00 32.92     0.043 C 
BRANCH  15  16
ATOM     16  CG  GLU D 570     -19.800  -6.133 -15.234  1.00 32.92     0.100 C 
BRANCH  16  17
ATOM     17  CD  GLU D 570     -21.266  -6.299 -15.561  1.00 32.92     0.185 C 
ATOM     18  OE1 GLU D 570     -21.717  -7.444 -15.755  1.00 32.92    -0.647 OA
ATOM     19  OE2 GLU D 570     -21.967  -5.271 -15.640  1.00 32.92    -0.647 OA
ENDBRANCH  16  17
ENDBRANCH  15  16
ENDBRANCH  14  15
END_RES GLU D 570
ENDMDL
MODEL 5
REMARK VINA RESULT:      -6.5      2.699      5.395
REMARK  13 active torsions:
REMARK  status: ('A' for Active; 'I' for Inactive)
REMARK    1  A    between atoms: C_1  and  C_2 
REMARK    2  A    between atoms: C_1  and  O_12 
REMARK    3  A    between atoms: C_2  and  C_3 
REMARK    4  A    between atoms: C_2  and  O_11 
REMARK    5  A    between atoms: C_3  and  C_4 
REMARK    6  A    between atoms: C_3  and  O_10 
REMARK    7  A    between atoms: C_4  and  C_5 
REMARK    8  A    between atoms: C_4  and  O_9 
REMARK    9  A    between atoms: C_5  and  C_6 
REMARK   10  A    between atoms: C_5  and  O_8 
REMARK   11  A    between atoms: O_12  and  P_13 
REMARK   12  A    between atoms: P_13  and  O_15 
REMARK   13  A    between atoms: P_13  and  O_16 
ROOT
HETATM    1  C   UNL     1     -24.201  -3.985 -10.431  1.00  0.00     0.173 C 
ENDROOT
BRANCH   1   2
HETATM    2  C   UNL     1     -24.181  -3.896 -11.957  1.00  0.00     0.213 C 
BRANCH   2   3
HETATM    3  O   UNL     1     -23.953  -2.598 -12.509  1.00  0.00    -0.308 OA
BRANCH   3   4
HETATM    4  P   UNL     1     -23.144  -2.544 -14.038  1.00  0.00     0.349 P 
HETATM    5  O   UNL     1     -23.968  -3.682 -14.660  1.00  0.00    -0.645 OA
BRANCH   4   6
HETATM    6  O   UNL     1     -24.042  -1.244 -14.508  1.00  0.00     0.000 OA
HETATM    7  H   UNL     1     -24.685  -1.019 -13.797  1.00  0.00     0.000 HD
HETATM    8 NA   UNL     2     -22.807  -0.644 -16.412  1.00  0.00     0.000 Na
ENDBRANCH   4   6
BRANCH   4   9
HETATM    9  O   UNL     1     -22.336  -2.489 -15.566  1.00  0.00    -0.321 OA
HETATM   10  H   UNL     1     -21.433  -2.844 -15.420  1.00  0.00     0.220 HD
ENDBRANCH   4   9
ENDBRANCH   3   4
ENDBRANCH   2   3
ENDBRANCH   1   2
BRANCH   1  11
HETATM   11  C   UNL     1     -22.895  -3.488  -9.772  1.00  0.00     0.180 C 
BRANCH  11  12
HETATM   12  C   UNL     1     -22.555  -4.295  -8.493  1.00  0.00     0.184 C 
BRANCH  12  13
HETATM   13  C   UNL     1     -21.212  -3.889  -7.860  1.00  0.00     0.210 C 
BRANCH  13  14
HETATM   14  C   UNL     1     -21.062  -4.436  -6.451  1.00  0.00     0.265 C 
HETATM   15  O   UNL     1     -20.148  -5.201  -6.125  1.00  0.00    -0.304 OA
ENDBRANCH  13  14
BRANCH  13  16
HETATM   16  O   UNL     1     -20.132  -4.378  -8.646  1.00  0.00    -0.386 OA
HETATM   17  H   UNL     1     -19.586  -4.944  -8.065  1.00  0.00     0.210 HD
ENDBRANCH  13  16
ENDBRANCH  12  13
BRANCH  12  18
HETATM   18  O   UNL     1     -23.617  -4.205  -7.519  1.00  0.00    -0.390 OA
HETATM   19  H   UNL     1     -23.464  -3.384  -6.997  1.00  0.00     0.210 HD
ENDBRANCH  12  18
ENDBRANCH  11  12
BRANCH  11  20
HETATM   20  O   UNL     1     -21.787  -3.538 -10.671  1.00  0.00    -0.390 OA
HETATM   21  H   UNL     1     -21.919  -2.852 -11.353  1.00  0.00     0.210 HD
ENDBRANCH  11  20
ENDBRANCH   1  11
BRANCH   1  22
HETATM   22  O   UNL     1     -25.319  -3.188 -10.020  1.00  0.00    -0.391 OA
HETATM   23  H   UNL     1     -25.671  -2.735 -10.818  1.00  0.00     0.210 HD
ENDBRANCH   1  22
TORSDOF 13
BEGIN_RES ARG D 557
REMARK  4 active torsions:
REMARK  status: ('A' for Active; 'I' for Inactive)
REMARK    1  A    between atoms: CA   and  CB  
REMARK    2  A    between atoms: CB   and  CG  
REMARK    3  A    between atoms: CG   and  CD  
REMARK    4  A    between atoms: CD   and  NE  
REMARK       I    between atoms: NE   and  CZ  
REMARK       I    between atoms: CZ   and  NH1 
REMARK       I    between atoms: CZ   and  NH2 
ROOT
ATOM      1  CA  ARG D 557     -26.217   2.705 -17.014  1.00 35.49     0.159 C 
ENDROOT
BRANCH   1   2
ATOM      2  CB  ARG D 557     -26.789   1.319 -17.183  1.00 35.49     0.034 C 
BRANCH   2   3
ATOM      3  CG  ARG D 557     -28.232   1.168 -16.961  1.00 35.49     0.027 C 
BRANCH   3   4
ATOM      4  CD  ARG D 557     -28.638  -0.250 -16.828  1.00 35.49     0.116 C 
BRANCH   4   5
ATOM      5  NE  ARG D 557     -27.663  -1.028 -16.110  1.00 35.49    -0.212 N 
ATOM      6  CZ  ARG D 557     -27.522  -2.333 -16.176  1.00 35.49     0.666 C 
ATOM      7  NH1 ARG D 557     -28.298  -3.093 -16.925  1.00 35.49    -0.235 N 
ATOM      8  NH2 ARG D 557     -26.569  -2.870 -15.471  1.00 35.49    -0.235 N 
ATOM      9  HH  ARG D 557     -28.930  -2.761 -17.399  1.00 35.49     0.174 HD
ATOM     10  HH  ARG D 557     -28.158  -3.938 -16.930  1.00 35.49     0.174 HD
ATOM     11  HH  ARG D 557     -26.078  -2.353 -15.002  1.00 35.49     0.174 HD
ATOM     12  HH  ARG D 557     -26.444  -3.708 -15.490  1.00 35.49     0.174 HD
ATOM     13  HE  ARG D 557     -27.167  -0.626 -15.547  1.00 35.49     0.178 HD
ENDBRANCH   4   5
ENDBRANCH   3   4
ENDBRANCH   2   3
ENDBRANCH   1   2
END_RES ARG D 557
BEGIN_RES GLU D 570
REMARK  3 active torsions:
REMARK  status: ('A' for Active; 'I' for Inactive)
REMARK    5  A    between atoms: CA   and  CB  
REMARK    6  A    between atoms: CB   and  CG  
REMARK    7  A    between atoms: CG   and  CD  
ROOT
ATOM     14  CA  GLU D 570     -18.033  -6.348 -13.375  1.00 32.92     0.160 C 
ENDROOT
BRANCH  14  15
ATOM     15  CB  GLU D 570     -19.500  -6.345 -13.794  1.00 32.92     0.043 C 
BRANCH  15  16
ATOM     16  CG  GLU D 570     -19.797  -6.219 -15.244  1.00 32.92     0.100 C 
BRANCH  16  17
ATOM     17  CD  GLU D 570     -21.244  -5.883 -15.522  1.00 32.92     0.185 C 
ATOM     18  OE1 GLU D 570     -21.517  -5.116 -16.465  1.00 32.92    -0.647 OA
ATOM     19  OE2 GLU D 570     -22.113  -6.379 -14.778  1.00 32.92    -0.647 OA
ENDBRANCH  16  17
ENDBRANCH  15  16
ENDBRANCH  14  15
END_RES GLU D 570
ENDMDL
MODEL 6
REMARK VINA RESULT:      -6.5      2.620      5.235
REMARK  13 active torsions:
REMARK  status: ('A' for Active; 'I' for Inactive)
REMARK    1  A    between atoms: C_1  and  C_2 
REMARK    2  A    between atoms: C_1  and  O_12 
REMARK    3  A    between atoms: C_2  and  C_3 
REMARK    4  A    between atoms: C_2  and  O_11 
REMARK    5  A    between atoms: C_3  and  C_4 
REMARK    6  A    between atoms: C_3  and  O_10 
REMARK    7  A    between atoms: C_4  and  C_5 
REMARK    8  A    between atoms: C_4  and  O_9 
REMARK    9  A    between atoms: C_5  and  C_6 
REMARK   10  A    between atoms: C_5  and  O_8 
REMARK   11  A    between atoms: O_12  and  P_13 
REMARK   12  A    between atoms: P_13  and  O_15 
REMARK   13  A    between atoms: P_13  and  O_16 
ROOT
HETATM    1  C   UNL     1     -23.372  -3.567 -11.246  1.00  0.00     0.173 C 
ENDROOT
BRANCH   1   2
HETATM    2  C   UNL     1     -24.610  -3.363 -12.121  1.00  0.00     0.213 C 
BRANCH   2   3
HETATM    3  O   UNL     1     -24.635  -2.169 -12.906  1.00  0.00    -0.308 OA
BRANCH   3   4
HETATM    4  P   UNL     1     -23.628  -2.154 -14.313  1.00  0.00     0.349 P 
HETATM    5  O   UNL     1     -24.377  -3.293 -15.021  1.00  0.00    -0.645 OA
BRANCH   4   6
HETATM    6  O   UNL     1     -24.436  -0.852 -14.922  1.00  0.00     0.000 OA
HETATM    7  H   UNL     1     -25.165  -0.607 -14.308  1.00  0.00     0.000 HD
HETATM    8 NA   UNL     2     -22.947  -0.301 -16.650  1.00  0.00     0.000 Na
ENDBRANCH   4   6
BRANCH   4   9
HETATM    9  O   UNL     1     -22.622  -2.137 -15.720  1.00  0.00    -0.321 OA
HETATM   10  H   UNL     1     -23.116  -2.608 -16.425  1.00  0.00     0.220 HD
ENDBRANCH   4   9
ENDBRANCH   3   4
ENDBRANCH   2   3
ENDBRANCH   1   2
BRANCH   1  11
HETATM   11  C   UNL     1     -23.705  -3.765  -9.750  1.00  0.00     0.180 C 
BRANCH  11  12
HETATM   12  C   UNL     1     -22.445  -3.621  -8.858  1.00  0.00     0.184 C 
BRANCH  12  13
HETATM   13  C   UNL     1     -22.462  -4.552  -7.633  1.00  0.00     0.210 C 
BRANCH  13  14
HETATM   14  C   UNL     1     -21.293  -4.283  -6.702  1.00  0.00     0.265 C 
HETATM   15  O   UNL     1     -20.162  -4.737  -6.900  1.00  0.00    -0.304 OA
ENDBRANCH  13  14
BRANCH  13  16
HETATM   16  O   UNL     1     -23.668  -4.375  -6.899  1.00  0.00    -0.386 OA
HETATM   17  H   UNL     1     -24.126  -5.239  -6.884  1.00  0.00     0.210 HD
ENDBRANCH  13  16
ENDBRANCH  12  13
BRANCH  12  18
HETATM   18  O   UNL     1     -21.237  -3.818  -9.623  1.00  0.00    -0.390 OA
HETATM   19  H   UNL     1     -21.262  -4.739  -9.976  1.00  0.00     0.210 HD
ENDBRANCH  12  18
ENDBRANCH  11  12
BRANCH  11  20
HETATM   20  O   UNL     1     -24.709  -2.857  -9.299  1.00  0.00    -0.390 OA
HETATM   21  H   UNL     1     -24.368  -2.393  -8.512  1.00  0.00     0.210 HD
ENDBRANCH  11  20
ENDBRANCH   1  11
BRANCH   1  22
HETATM   22  O   UNL     1     -22.716  -4.723 -11.783  1.00  0.00    -0.391 OA
HETATM   23  H   UNL     1     -22.562  -4.560 -12.740  1.00  0.00     0.210 HD
ENDBRANCH   1  22
TORSDOF 13
BEGIN_RES ARG D 557
REMARK  4 active torsions:
REMARK  status: ('A' for Active; 'I' for Inactive)
REMARK    1  A    between atoms: CA   and  CB  
REMARK    2  A    between atoms: CB   and  CG  
REMARK    3  A    between atoms: CG   and  CD  
REMARK    4  A    between atoms: CD   and  NE  
REMARK       I    between atoms: NE   and  CZ  
REMARK       I    between atoms: CZ   and  NH1 
REMARK       I    between atoms: CZ   and  NH2 
ROOT
ATOM      1  CA  ARG D 557     -26.217   2.705 -17.014  1.00 35.49     0.159 C 
ENDROOT
BRANCH   1   2
ATOM      2  CB  ARG D 557     -26.789   1.319 -17.183  1.00 35.49     0.034 C 
BRANCH   2   3
ATOM      3  CG  ARG D 557     -28.239   1.224 -17.391  1.00 35.49     0.027 C 
BRANCH   3   4
ATOM      4  CD  ARG D 557     -28.881   0.270 -16.459  1.00 35.49     0.116 C 
BRANCH   4   5
ATOM      5  NE  ARG D 557     -29.118  -1.011 -17.071  1.00 35.49    -0.212 N 
ATOM      6  CZ  ARG D 557     -28.387  -2.090 -16.902  1.00 35.49     0.666 C 
ATOM      7  NH1 ARG D 557     -27.312  -2.106 -16.135  1.00 35.49    -0.235 N 
ATOM      8  NH2 ARG D 557     -28.762  -3.172 -17.519  1.00 35.49    -0.235 N 
ATOM      9  HH  ARG D 557     -27.048  -1.405 -15.718  1.00 35.49     0.174 HD
ATOM     10  HH  ARG D 557     -26.876  -2.839 -16.061  1.00 35.49     0.174 HD
ATOM     11  HH  ARG D 557     -29.465  -3.135 -18.002  1.00 35.49     0.174 HD
ATOM     12  HH  ARG D 557     -28.318  -3.889 -17.432  1.00 35.49     0.174 HD
ATOM     13  HE  ARG D 557     -29.749  -1.072 -17.638  1.00 35.49     0.178 HD
ENDBRANCH   4   5
ENDBRANCH   3   4
ENDBRANCH   2   3
ENDBRANCH   1   2
END_RES ARG D 557
BEGIN_RES GLU D 570
REMARK  3 active torsions:
REMARK  status: ('A' for Active; 'I' for Inactive)
REMARK    5  A    between atoms: CA   and  CB  
REMARK    6  A    between atoms: CB   and  CG  
REMARK    7  A    between atoms: CG   and  CD  
ROOT
ATOM     14  CA  GLU D 570     -18.033  -6.348 -13.375  1.00 32.92     0.160 C 
ENDROOT
BRANCH  14  15
ATOM     15  CB  GLU D 570     -19.500  -6.345 -13.794  1.00 32.92     0.043 C 
BRANCH  15  16
ATOM     16  CG  GLU D 570     -19.813  -5.932 -15.186  1.00 32.92     0.100 C 
BRANCH  16  17
ATOM     17  CD  GLU D 570     -21.227  -5.422 -15.346  1.00 32.92     0.185 C 
ATOM     18  OE1 GLU D 570     -22.053  -5.633 -14.437  1.00 32.92    -0.647 OA
ATOM     19  OE2 GLU D 570     -21.515  -4.819 -16.398  1.00 32.92    -0.647 OA
ENDBRANCH  16  17
ENDBRANCH  15  16
ENDBRANCH  14  15
END_RES GLU D 570
ENDMDL
MODEL 7
REMARK VINA RESULT:      -6.4      1.944      3.109
REMARK  13 active torsions:
REMARK  status: ('A' for Active; 'I' for Inactive)
REMARK    1  A    between atoms: C_1  and  C_2 
REMARK    2  A    between atoms: C_1  and  O_12 
REMARK    3  A    between atoms: C_2  and  C_3 
REMARK    4  A    between atoms: C_2  and  O_11 
REMARK    5  A    between atoms: C_3  and  C_4 
REMARK    6  A    between atoms: C_3  and  O_10 
REMARK    7  A    between atoms: C_4  and  C_5 
REMARK    8  A    between atoms: C_4  and  O_9 
REMARK    9  A    between atoms: C_5  and  C_6 
REMARK   10  A    between atoms: C_5  and  O_8 
REMARK   11  A    between atoms: O_12  and  P_13 
REMARK   12  A    between atoms: P_13  and  O_15 
REMARK   13  A    between atoms: P_13  and  O_16 
ROOT
HETATM    1  C   UNL     1     -23.066  -3.248 -14.380  1.00  0.00     0.173 C 
ENDROOT
BRANCH   1   2
HETATM    2  C   UNL     1     -23.130  -2.566 -13.013  1.00  0.00     0.213 C 
BRANCH   2   3
HETATM    3  O   UNL     1     -22.708  -3.353 -11.897  1.00  0.00    -0.308 OA
BRANCH   3   4
HETATM    4  P   UNL     1     -23.777  -3.392 -10.536  1.00  0.00     0.349 P 
HETATM    5  O   UNL     1     -25.035  -3.055 -11.351  1.00  0.00    -0.645 OA
BRANCH   4   6
HETATM    6  O   UNL     1     -23.833  -5.039 -10.582  1.00  0.00     0.000 OA
HETATM    7  H   UNL     1     -22.966  -5.385 -10.895  1.00  0.00     0.000 HD
HETATM    8 NA   UNL     2     -25.870  -5.344  -9.457  1.00  0.00     0.000 Na
ENDBRANCH   4   6
BRANCH   4   9
HETATM    9  O   UNL     1     -24.845  -3.432  -9.177  1.00  0.00    -0.321 OA
HETATM   10  H   UNL     1     -25.734  -3.189  -9.511  1.00  0.00     0.220 HD
ENDBRANCH   4   9
ENDBRANCH   3   4
ENDBRANCH   2   3
ENDBRANCH   1   2
BRANCH   1  11
HETATM   11  C   UNL     1     -24.332  -4.068 -14.715  1.00  0.00     0.180 C 
BRANCH  11  12
HETATM   12  C   UNL     1     -24.221  -5.529 -14.209  1.00  0.00     0.184 C 
BRANCH  12  13
HETATM   13  C   UNL     1     -24.382  -6.572 -15.329  1.00  0.00     0.210 C 
BRANCH  13  14
HETATM   14  C   UNL     1     -25.815  -6.651 -15.826  1.00  0.00     0.265 C 
HETATM   15  O   UNL     1     -26.638  -7.449 -15.367  1.00  0.00    -0.304 OA
ENDBRANCH  13  14
BRANCH  13  16
HETATM   16  O   UNL     1     -23.545  -6.241 -16.431  1.00  0.00    -0.386 OA
HETATM   17  H   UNL     1     -23.767  -5.326 -16.697  1.00  0.00     0.210 HD
ENDBRANCH  13  16
ENDBRANCH  12  13
BRANCH  12  18
HETATM   18  O   UNL     1     -22.983  -5.744 -13.497  1.00  0.00    -0.390 OA
HETATM   19  H   UNL     1     -22.910  -5.032 -12.819  1.00  0.00     0.210 HD
ENDBRANCH  12  18
ENDBRANCH  11  12
BRANCH  11  20
HETATM   20  O   UNL     1     -25.514  -3.472 -14.184  1.00  0.00    -0.390 OA
HETATM   21  H   UNL     1     -26.212  -4.153 -14.155  1.00  0.00     0.210 HD
ENDBRANCH  11  20
ENDBRANCH   1  11
BRANCH   1  22
HETATM   22  O   UNL     1     -22.876  -2.187 -15.324  1.00  0.00    -0.391 OA
HETATM   23  H   UNL     1     -22.125  -1.637 -15.007  1.00  0.00     0.210 HD
ENDBRANCH   1  22
TORSDOF 13
BEGIN_RES ARG D 557
REMARK  4 active torsions:
REMARK  status: ('A' for Active; 'I' for Inactive)
REMARK    1  A    between atoms: CA   and  CB  
REMARK    2  A    between atoms: CB   and  CG  
REMARK    3  A    between atoms: CG   and  CD  
REMARK    4  A    between atoms: CD   and  NE  
REMARK       I    between atoms: NE   and  CZ  
REMARK       I    between atoms: CZ   and  NH1 
REMARK       I    between atoms: CZ   and  NH2 
ROOT
ATOM      1  CA  ARG D 557     -26.217   2.705 -17.014  1.00 35.49     0.159 C 
ENDROOT
BRANCH   1   2
ATOM      2  CB  ARG D 557     -26.789   1.319 -17.183  1.00 35.49     0.034 C 
BRANCH   2   3
ATOM      3  CG  ARG D 557     -28.231   1.226 -17.440  1.00 35.49     0.027 C 
BRANCH   3   4
ATOM      4  CD  ARG D 557     -28.912   0.301 -16.506  1.00 35.49     0.116 C 
BRANCH   4   5
ATOM      5  NE  ARG D 557     -28.130  -0.878 -16.243  1.00 35.49    -0.212 N 
ATOM      6  CZ  ARG D 557     -28.369  -2.080 -16.716  1.00 35.49     0.666 C 
ATOM      7  NH1 ARG D 557     -29.399  -2.342 -17.498  1.00 35.49    -0.235 N 
ATOM      8  NH2 ARG D 557     -27.540  -3.029 -16.390  1.00 35.49    -0.235 N 
ATOM      9  HH  ARG D 557     -29.956  -1.733 -17.727  1.00 35.49     0.174 HD
ATOM     10  HH  ARG D 557     -29.504  -3.145 -17.778  1.00 35.49     0.174 HD
ATOM     11  HH  ARG D 557     -26.879  -2.829 -15.889  1.00 35.49     0.174 HD
ATOM     12  HH  ARG D 557     -27.660  -3.818 -16.679  1.00 35.49     0.174 HD
ATOM     13  HE  ARG D 557     -27.487  -0.815 -15.689  1.00 35.49     0.178 HD
ENDBRANCH   4   5
ENDBRANCH   3   4
ENDBRANCH   2   3
ENDBRANCH   1   2
END_RES ARG D 557
BEGIN_RES GLU D 570
REMARK  3 active torsions:
REMARK  status: ('A' for Active; 'I' for Inactive)
REMARK    5  A    between atoms: CA   and  CB  
REMARK    6  A    between atoms: CB   and  CG  
REMARK    7  A    between atoms: CG   and  CD  
ROOT
ATOM     14  CA  GLU D 570     -18.033  -6.348 -13.375  1.00 32.92     0.160 C 
ENDROOT
BRANCH  14  15
ATOM     15  CB  GLU D 570     -19.500  -6.345 -13.794  1.00 32.92     0.043 C 
BRANCH  15  16
ATOM     16  CG  GLU D 570     -20.078  -7.627 -14.273  1.00 32.92     0.100 C 
BRANCH  16  17
ATOM     17  CD  GLU D 570     -20.720  -7.512 -15.636  1.00 32.92     0.185 C 
ATOM     18  OE1 GLU D 570     -20.586  -6.454 -16.280  1.00 32.92    -0.647 OA
ATOM     19  OE2 GLU D 570     -21.377  -8.484 -16.057  1.00 32.92    -0.647 OA
ENDBRANCH  16  17
ENDBRANCH  15  16
ENDBRANCH  14  15
END_RES GLU D 570
ENDMDL
MODEL 8
REMARK VINA RESULT:      -6.4      1.965      4.712
REMARK  13 active torsions:
REMARK  status: ('A' for Active; 'I' for Inactive)
REMARK    1  A    between atoms: C_1  and  C_2 
REMARK    2  A    between atoms: C_1  and  O_12 
REMARK    3  A    between atoms: C_2  and  C_3 
REMARK    4  A    between atoms: C_2  and  O_11 
REMARK    5  A    between atoms: C_3  and  C_4 
REMARK    6  A    between atoms: C_3  and  O_10 
REMARK    7  A    between atoms: C_4  and  C_5 
REMARK    8  A    between atoms: C_4  and  O_9 
REMARK    9  A    between atoms: C_5  and  C_6 
REMARK   10  A    between atoms: C_5  and  O_8 
REMARK   11  A    between atoms: O_12  and  P_13 
REMARK   12  A    between atoms: P_13  and  O_15 
REMARK   13  A    between atoms: P_13  and  O_16 
ROOT
HETATM    1  C   UNL     1     -22.744  -4.737 -12.167  1.00  0.00     0.173 C 
ENDROOT
BRANCH   1   2
HETATM    2  C   UNL     1     -22.580  -3.336 -12.757  1.00  0.00     0.213 C 
BRANCH   2   3
HETATM    3  O   UNL     1     -23.710  -2.468 -12.641  1.00  0.00    -0.308 OA
BRANCH   3   4
HETATM    4  P   UNL     1     -24.454  -1.973 -14.122  1.00  0.00     0.349 P 
HETATM    5  O   UNL     1     -23.361  -2.569 -15.022  1.00  0.00    -0.645 OA
BRANCH   4   6
HETATM    6  O   UNL     1     -25.505  -3.242 -14.061  1.00  0.00     0.000 OA
HETATM    7  H   UNL     1     -25.448  -3.752 -14.901  1.00  0.00     0.000 HD
HETATM    8 NA   UNL     2     -26.080  -3.102 -11.790  1.00  0.00     0.000 Na
ENDBRANCH   4   6
BRANCH   4   9
HETATM    9  O   UNL     1     -25.199  -1.479 -15.603  1.00  0.00    -0.321 OA
HETATM   10  H   UNL     1     -24.748  -1.969 -16.322  1.00  0.00     0.220 HD
ENDBRANCH   4   9
ENDBRANCH   3   4
ENDBRANCH   2   3
ENDBRANCH   1   2
BRANCH   1  11
HETATM   11  C   UNL     1     -23.255  -4.732 -10.709  1.00  0.00     0.180 C 
BRANCH  11  12
HETATM   12  C   UNL     1     -22.232  -4.080  -9.745  1.00  0.00     0.184 C 
BRANCH  12  13
HETATM   13  C   UNL     1     -22.500  -4.408  -8.266  1.00  0.00     0.210 C 
BRANCH  13  14
HETATM   14  C   UNL     1     -21.538  -3.683  -7.341  1.00  0.00     0.265 C 
HETATM   15  O   UNL     1     -20.373  -4.056  -7.164  1.00  0.00    -0.304 OA
ENDBRANCH  13  14
BRANCH  13  16
HETATM   16  O   UNL     1     -23.826  -4.032  -7.913  1.00  0.00    -0.386 OA
HETATM   17  H   UNL     1     -24.049  -4.502  -7.085  1.00  0.00     0.210 HD
ENDBRANCH  13  16
ENDBRANCH  12  13
BRANCH  12  18
HETATM   18  O   UNL     1     -20.878  -4.434 -10.100  1.00  0.00    -0.390 OA
HETATM   19  H   UNL     1     -20.917  -5.296 -10.576  1.00  0.00     0.210 HD
ENDBRANCH  12  18
ENDBRANCH  11  12
BRANCH  11  20
HETATM   20  O   UNL     1     -24.513  -4.070 -10.583  1.00  0.00    -0.390 OA
HETATM   21  H   UNL     1     -24.343  -3.117 -10.460  1.00  0.00     0.210 HD
ENDBRANCH  11  20
ENDBRANCH   1  11
BRANCH   1  22
HETATM   22  O   UNL     1     -23.670  -5.407 -13.033  1.00  0.00    -0.391 OA
HETATM   23  H   UNL     1     -23.147  -5.958 -13.658  1.00  0.00     0.210 HD
ENDBRANCH   1  22
TORSDOF 13
BEGIN_RES ARG D 557
REMARK  4 active torsions:
REMARK  status: ('A' for Active; 'I' for Inactive)
REMARK    1  A    between atoms: CA   and  CB  
REMARK    2  A    between atoms: CB   and  CG  
REMARK    3  A    between atoms: CG   and  CD  
REMARK    4  A    between atoms: CD   and  NE  
REMARK       I    between atoms: NE   and  CZ  
REMARK       I    between atoms: CZ   and  NH1 
REMARK       I    between atoms: CZ   and  NH2 
ROOT
ATOM      1  CA  ARG D 557     -26.217   2.705 -17.014  1.00 35.49     0.159 C 
ENDROOT
BRANCH   1   2
ATOM      2  CB  ARG D 557     -26.789   1.319 -17.183  1.00 35.49     0.034 C 
BRANCH   2   3
ATOM      3  CG  ARG D 557     -28.169   1.114 -16.727  1.00 35.49     0.027 C 
BRANCH   3   4
ATOM      4  CD  ARG D 557     -28.724  -0.184 -17.174  1.00 35.49     0.116 C 
BRANCH   4   5
ATOM      5  NE  ARG D 557     -28.014  -1.301 -16.609  1.00 35.49    -0.212 N 
ATOM      6  CZ  ARG D 557     -28.291  -2.570 -16.810  1.00 35.49     0.666 C 
ATOM      7  NH1 ARG D 557     -29.297  -2.964 -17.569  1.00 35.49    -0.235 N 
ATOM      8  NH2 ARG D 557     -27.527  -3.451 -16.234  1.00 35.49    -0.235 N 
ATOM      9  HH  ARG D 557     -29.812  -2.401 -17.960  1.00 35.49     0.174 HD
ATOM     10  HH  ARG D 557     -29.429  -3.805 -17.666  1.00 35.49     0.174 HD
ATOM     11  HH  ARG D 557     -26.880  -3.167 -15.755  1.00 35.49     0.174 HD
ATOM     12  HH  ARG D 557     -27.672  -4.279 -16.343  1.00 35.49     0.174 HD
ATOM     13  HE  ARG D 557     -27.395  -1.139 -16.049  1.00 35.49     0.178 HD
ENDBRANCH   4   5
ENDBRANCH   3   4
ENDBRANCH   2   3
ENDBRANCH   1   2
END_RES ARG D 557
BEGIN_RES GLU D 570
REMARK  3 active torsions:
REMARK  status: ('A' for Active; 'I' for Inactive)
REMARK    5  A    between atoms: CA   and  CB  
REMARK    6  A    between atoms: CB   and  CG  
REMARK    7  A    between atoms: CG   and  CD  
ROOT
ATOM     14  CA  GLU D 570     -18.033  -6.348 -13.375  1.00 32.92     0.160 C 
ENDROOT
BRANCH  14  15
ATOM     15  CB  GLU D 570     -19.500  -6.345 -13.794  1.00 32.92     0.043 C 
BRANCH  15  16
ATOM     16  CG  GLU D 570     -19.798  -6.208 -15.243  1.00 32.92     0.100 C 
BRANCH  16  17
ATOM     17  CD  GLU D 570     -21.264  -5.975 -15.524  1.00 32.92     0.185 C 
ATOM     18  OE1 GLU D 570     -22.106  -6.743 -15.020  1.00 32.92    -0.647 OA
ATOM     19  OE2 GLU D 570     -21.573  -5.025 -16.270  1.00 32.92    -0.647 OA
ENDBRANCH  16  17
ENDBRANCH  15  16
ENDBRANCH  14  15
END_RES GLU D 570
ENDMDL
MODEL 9
REMARK VINA RESULT:      -6.3      2.813      4.249
REMARK  13 active torsions:
REMARK  status: ('A' for Active; 'I' for Inactive)
REMARK    1  A    between atoms: C_1  and  C_2 
REMARK    2  A    between atoms: C_1  and  O_12 
REMARK    3  A    between atoms: C_2  and  C_3 
REMARK    4  A    between atoms: C_2  and  O_11 
REMARK    5  A    between atoms: C_3  and  C_4 
REMARK    6  A    between atoms: C_3  and  O_10 
REMARK    7  A    between atoms: C_4  and  C_5 
REMARK    8  A    between atoms: C_4  and  O_9 
REMARK    9  A    between atoms: C_5  and  C_6 
REMARK   10  A    between atoms: C_5  and  O_8 
REMARK   11  A    between atoms: O_12  and  P_13 
REMARK   12  A    between atoms: P_13  and  O_15 
REMARK   13  A    between atoms: P_13  and  O_16 
ROOT
HETATM    1  C   UNL     1     -22.456  -4.343 -12.822  1.00  0.00     0.173 C 
ENDROOT
BRANCH   1   2
HETATM    2  C   UNL     1     -23.420  -5.405 -13.352  1.00  0.00     0.213 C 
BRANCH   2   3
HETATM    3  O   UNL     1     -23.483  -5.544 -14.773  1.00  0.00    -0.308 OA
BRANCH   3   4
HETATM    4  P   UNL     1     -24.770  -6.520 -15.394  1.00  0.00     0.349 P 
HETATM    5  O   UNL     1     -25.666  -5.331 -15.769  1.00  0.00    -0.645 OA
BRANCH   4   6
HETATM    6  O   UNL     1     -23.966  -6.740 -16.816  1.00  0.00     0.000 OA
HETATM    7  H   UNL     1     -23.987  -5.903 -17.334  1.00  0.00     0.000 HD
HETATM    8 NA   UNL     2     -23.007  -8.831 -16.349  1.00  0.00     0.000 Na
ENDBRANCH   4   6
BRANCH   4   9
HETATM    9  O   UNL     1     -26.055  -7.497 -16.014  1.00  0.00    -0.321 OA
HETATM   10  H   UNL     1     -25.640  -8.179 -16.584  1.00  0.00     0.220 HD
ENDBRANCH   4   9
ENDBRANCH   3   4
ENDBRANCH   2   3
ENDBRANCH   1   2
BRANCH   1  11
HETATM   11  C   UNL     1     -22.963  -2.898 -13.027  1.00  0.00     0.180 C 
BRANCH  11  12
HETATM   12  C   UNL     1     -23.429  -2.654 -14.485  1.00  0.00     0.184 C 
BRANCH  12  13
HETATM   13  C   UNL     1     -24.185  -1.326 -14.666  1.00  0.00     0.210 C 
BRANCH  13  14
HETATM   14  C   UNL     1     -23.442  -0.372 -15.584  1.00  0.00     0.265 C 
HETATM   15  O   UNL     1     -23.837   0.776 -15.816  1.00  0.00    -0.304 OA
ENDBRANCH  13  14
BRANCH  13  16
HETATM   16  O   UNL     1     -25.473  -1.567 -15.220  1.00  0.00    -0.386 OA
HETATM   17  H   UNL     1     -25.813  -2.389 -14.813  1.00  0.00     0.210 HD
ENDBRANCH  13  16
ENDBRANCH  12  13
BRANCH  12  18
HETATM   18  O   UNL     1     -22.321  -2.731 -15.408  1.00  0.00    -0.390 OA
HETATM   19  H   UNL     1     -22.700  -2.876 -16.306  1.00  0.00     0.210 HD
ENDBRANCH  12  18
ENDBRANCH  11  12
BRANCH  11  20
HETATM   20  O   UNL     1     -24.024  -2.569 -12.131  1.00  0.00    -0.390 OA
HETATM   21  H   UNL     1     -23.645  -2.077 -11.378  1.00  0.00     0.210 HD
ENDBRANCH  11  20
ENDBRANCH   1  11
BRANCH   1  22
HETATM   22  O   UNL     1     -22.296  -4.638 -11.429  1.00  0.00    -0.391 OA
HETATM   23  H   UNL     1     -21.940  -5.552 -11.357  1.00  0.00     0.210 HD
ENDBRANCH   1  22
TORSDOF 13
BEGIN_RES ARG D 557
REMARK  4 active torsions:
REMARK  status: ('A' for Active; 'I' for Inactive)
REMARK    1  A    between atoms: CA   and  CB  
REMARK    2  A    between atoms: CB   and  CG  
REMARK    3  A    between atoms: CG   and  CD  
REMARK    4  A    between atoms: CD   and  NE  
REMARK       I    between atoms: NE   and  CZ  
REMARK       I    between atoms: CZ   and  NH1 
REMARK       I    between atoms: CZ   and  NH2 
ROOT
ATOM      1  CA  ARG D 557     -26.217   2.705 -17.014  1.00 35.49     0.159 C 
ENDROOT
BRANCH   1   2
ATOM      2  CB  ARG D 557     -26.789   1.319 -17.183  1.00 35.49     0.034 C 
BRANCH   2   3
ATOM      3  CG  ARG D 557     -28.228   1.227 -17.456  1.00 35.49     0.027 C 
BRANCH   3   4
ATOM      4  CD  ARG D 557     -28.921   0.306 -16.526  1.00 35.49     0.116 C 
BRANCH   4   5
ATOM      5  NE  ARG D 557     -28.173  -0.902 -16.302  1.00 35.49    -0.212 N 
ATOM      6  CZ  ARG D 557     -28.476  -2.092 -16.771  1.00 35.49     0.666 C 
ATOM      7  NH1 ARG D 557     -29.546  -2.310 -17.513  1.00 35.49    -0.235 N 
ATOM      8  NH2 ARG D 557     -27.671  -3.073 -16.485  1.00 35.49    -0.235 N 
ATOM      9  HH  ARG D 557     -30.089  -1.679 -17.715  1.00 35.49     0.174 HD
ATOM     10  HH  ARG D 557     -29.692  -3.107 -17.793  1.00 35.49     0.174 HD
ATOM     11  HH  ARG D 557     -26.983  -2.902 -16.010  1.00 35.49     0.174 HD
ATOM     12  HH  ARG D 557     -27.831  -3.855 -16.773  1.00 35.49     0.174 HD
ATOM     13  HE  ARG D 557     -27.507  -0.868 -15.774  1.00 35.49     0.178 HD
ENDBRANCH   4   5
ENDBRANCH   3   4
ENDBRANCH   2   3
ENDBRANCH   1   2
END_RES ARG D 557
BEGIN_RES GLU D 570
REMARK  3 active torsions:
REMARK  status: ('A' for Active; 'I' for Inactive)
REMARK    5  A    between atoms: CA   and  CB  
REMARK    6  A    between atoms: CB   and  CG  
REMARK    7  A    between atoms: CG   and  CD  
ROOT
ATOM     14  CA  GLU D 570     -18.033  -6.348 -13.375  1.00 32.92     0.160 C 
ENDROOT
BRANCH  14  15
ATOM     15  CB  GLU D 570     -19.500  -6.345 -13.794  1.00 32.92     0.043 C 
BRANCH  15  16
ATOM     16  CG  GLU D 570     -19.799  -6.167 -15.238  1.00 32.92     0.100 C 
BRANCH  16  17
ATOM     17  CD  GLU D 570     -20.633  -7.290 -15.810  1.00 32.92     0.185 C 
ATOM     18  OE1 GLU D 570     -20.672  -8.381 -15.210  1.00 32.92    -0.647 OA
ATOM     19  OE2 GLU D 570     -21.241  -7.081 -16.879  1.00 32.92    -0.647 OA
ENDBRANCH  16  17
ENDBRANCH  15  16
ENDBRANCH  14  15
END_RES GLU D 570
ENDMDL
