MODEL 1
REMARK VINA RESULT:      -8.2      0.000      0.000
REMARK  13 active torsions:
REMARK  status: ('A' for Active; 'I' for Inactive)
REMARK    1  A    between atoms: C_1  and  C_2 
REMARK    2  A    between atoms: C_1  and  O_23 
REMARK    3  A    between atoms: C_3  and  O_22 
REMARK    4  A    between atoms: C_4  and  O_21 
REMARK    5  A    between atoms: C_5  and  O_20 
REMARK    6  A    between atoms: C_6  and  O_8 
REMARK    7  A    between atoms: O_8  and  C_9 
REMARK    8  A    between atoms: C_9  and  C_18 
REMARK    9  A    between atoms: C_10  and  O_17 
REMARK   10  A    between atoms: C_11  and  O_16 
REMARK   11  A    between atoms: C_12  and  C_14 
REMARK   12  A    between atoms: C_14  and  O_15 
REMARK   13  A    between atoms: C_18  and  O_19 
ROOT
HETATM    1  O   UNL     1     -23.646  -4.276 -14.519  1.00  0.00    -0.318 OA
ENDROOT
BRANCH   1   2
HETATM    2  C   UNL     1     -24.691  -5.217 -14.769  1.00  0.00     0.295 C 
HETATM    3  C   UNL     1     -23.954  -6.450 -15.342  1.00  0.00     0.204 C 
HETATM    4  C   UNL     1     -24.945  -7.521 -15.792  1.00  0.00     0.183 C 
HETATM    5  C   UNL     1     -25.963  -6.924 -16.774  1.00  0.00     0.180 C 
HETATM    6  C   UNL     1     -26.596  -5.629 -16.219  1.00  0.00     0.179 C 
HETATM    7  O   UNL     1     -25.607  -4.702 -15.729  1.00  0.00    -0.348 OA
BRANCH   3   8
HETATM    8  O   UNL     1     -23.170  -6.051 -16.499  1.00  0.00    -0.388 OA
HETATM    9  H   UNL     1     -22.360  -6.600 -16.448  1.00  0.00     0.210 HD
ENDBRANCH   3   8
BRANCH   4  10
HETATM   10  O   UNL     1     -24.243  -8.608 -16.407  1.00  0.00    -0.390 OA
HETATM   11  H   UNL     1     -24.187  -8.376 -17.357  1.00  0.00     0.210 HD
ENDBRANCH   4  10
BRANCH   5  12
HETATM   12  O   UNL     1     -25.309  -6.614 -18.023  1.00  0.00    -0.390 OA
HETATM   13  H   UNL     1     -25.969  -6.760 -18.733  1.00  0.00     0.210 HD
ENDBRANCH   5  12
BRANCH   6  14
HETATM   14  C   UNL     1     -27.695  -5.881 -15.175  1.00  0.00     0.198 C 
BRANCH  14  15
HETATM   15  O   UNL     1     -28.893  -5.166 -15.461  1.00  0.00    -0.398 OA
HETATM   16  H   UNL     1     -29.627  -5.622 -15.008  1.00  0.00     0.209 HD
ENDBRANCH  14  15
ENDBRANCH   6  14
ENDBRANCH   1   2
BRANCH   1  17
HETATM   17  C   UNL     1     -23.581  -3.608 -13.256  1.00  0.00     0.217 C 
HETATM   18  C   UNL     1     -22.226  -3.743 -12.505  1.00  0.00     0.214 C 
HETATM   19  C   UNL     1     -22.571  -4.585 -11.285  1.00  0.00     0.183 C 
HETATM   20  C   UNL     1     -24.062  -4.358 -11.077  1.00  0.00     0.180 C 
HETATM   21  O   UNL     1     -24.626  -4.040 -12.363  1.00  0.00    -0.341 OA
BRANCH  18  22
HETATM   22  O   UNL     1     -21.622  -2.522 -12.036  1.00  0.00    -0.387 OA
HETATM   23  H   UNL     1     -21.831  -2.406 -11.085  1.00  0.00     0.210 HD
ENDBRANCH  18  22
BRANCH  19  24
HETATM   24  O   UNL     1     -21.778  -4.254 -10.151  1.00  0.00    -0.390 OA
HETATM   25  H   UNL     1     -20.841  -4.299 -10.458  1.00  0.00     0.210 HD
ENDBRANCH  19  24
BRANCH  20  26
HETATM   26  C   UNL     1     -24.418  -3.265 -10.057  1.00  0.00     0.198 C 
BRANCH  26  27
HETATM   27  O   UNL     1     -25.824  -3.256  -9.791  1.00  0.00    -0.398 OA
HETATM   28  H   UNL     1     -25.974  -2.704  -9.004  1.00  0.00     0.209 HD
ENDBRANCH  26  27
ENDBRANCH  20  26
BRANCH  17  29
HETATM   29  C   UNL     1     -23.914  -2.139 -13.630  1.00  0.00     0.235 C 
BRANCH  29  30
HETATM   30  O   UNL     1     -24.443  -2.010 -14.951  1.00  0.00    -0.395 OA
HETATM   31  H   UNL     1     -24.095  -1.160 -15.296  1.00  0.00     0.209 HD
ENDBRANCH  29  30
ENDBRANCH  17  29
ENDBRANCH   1  17
TORSDOF 13
BEGIN_RES ARG D 557
REMARK  4 active torsions:
REMARK  status: ('A' for Active; 'I' for Inactive)
REMARK    1  A    between atoms: CA   and  CB  
REMARK    2  A    between atoms: CB   and  CG  
REMARK    3  A    between atoms: CG   and  CD  
REMARK    4  A    between atoms: CD   and  NE  
REMARK       I    between atoms: NE   and  CZ  
REMARK       I    between atoms: CZ   and  NH1 
REMARK       I    between atoms: CZ   and  NH2 
ROOT
ATOM      1  CA  ARG D 557     -26.217   2.705 -17.014  1.00 35.49     0.159 C 
ENDROOT
BRANCH   1   2
ATOM      2  CB  ARG D 557     -26.789   1.319 -17.183  1.00 35.49     0.034 C 
BRANCH   2   3
ATOM      3  CG  ARG D 557     -28.240   1.223 -17.383  1.00 35.49     0.027 C 
BRANCH   3   4
ATOM      4  CD  ARG D 557     -28.873   0.249 -16.465  1.00 35.49     0.116 C 
BRANCH   4   5
ATOM      5  NE  ARG D 557     -29.190  -0.990 -17.123  1.00 35.49    -0.212 N 
ATOM      6  CZ  ARG D 557     -28.533  -2.121 -16.990  1.00 35.49     0.666 C 
ATOM      7  NH1 ARG D 557     -27.467  -2.235 -16.221  1.00 35.49    -0.235 N 
ATOM      8  NH2 ARG D 557     -28.976  -3.153 -17.648  1.00 35.49    -0.235 N 
ATOM      9  HH  ARG D 557     -27.160  -1.569 -15.777  1.00 35.49     0.174 HD
ATOM     10  HH  ARG D 557     -27.081  -2.998 -16.171  1.00 35.49     0.174 HD
ATOM     11  HH  ARG D 557     -29.671  -3.052 -18.131  1.00 35.49     0.174 HD
ATOM     12  HH  ARG D 557     -28.580  -3.901 -17.584  1.00 35.49     0.174 HD
ATOM     13  HE  ARG D 557     -29.820  -0.989 -17.695  1.00 35.49     0.178 HD
ENDBRANCH   4   5
ENDBRANCH   3   4
ENDBRANCH   2   3
ENDBRANCH   1   2
END_RES ARG D 557
BEGIN_RES GLU D 570
REMARK  3 active torsions:
REMARK  status: ('A' for Active; 'I' for Inactive)
REMARK    5  A    between atoms: CA   and  CB  
REMARK    6  A    between atoms: CB   and  CG  
REMARK    7  A    between atoms: CG   and  CD  
ROOT
ATOM     14  CA  GLU D 570     -18.033  -6.348 -13.375  1.00 32.92     0.160 C 
ENDROOT
BRANCH  14  15
ATOM     15  CB  GLU D 570     -19.500  -6.345 -13.794  1.00 32.92     0.043 C 
BRANCH  15  16
ATOM     16  CG  GLU D 570     -20.082  -7.631 -14.259  1.00 32.92     0.100 C 
BRANCH  16  17
ATOM     17  CD  GLU D 570     -20.586  -7.569 -15.682  1.00 32.92     0.185 C 
ATOM     18  OE1 GLU D 570     -21.214  -8.541 -16.144  1.00 32.92    -0.647 OA
ATOM     19  OE2 GLU D 570     -20.336  -6.545 -16.347  1.00 32.92    -0.647 OA
ENDBRANCH  16  17
ENDBRANCH  15  16
ENDBRANCH  14  15
END_RES GLU D 570
ENDMDL
MODEL 2
REMARK VINA RESULT:      -7.6      1.466      5.131
REMARK  13 active torsions:
REMARK  status: ('A' for Active; 'I' for Inactive)
REMARK    1  A    between atoms: C_1  and  C_2 
REMARK    2  A    between atoms: C_1  and  O_23 
REMARK    3  A    between atoms: C_3  and  O_22 
REMARK    4  A    between atoms: C_4  and  O_21 
REMARK    5  A    between atoms: C_5  and  O_20 
REMARK    6  A    between atoms: C_6  and  O_8 
REMARK    7  A    between atoms: O_8  and  C_9 
REMARK    8  A    between atoms: C_9  and  C_18 
REMARK    9  A    between atoms: C_10  and  O_17 
REMARK   10  A    between atoms: C_11  and  O_16 
REMARK   11  A    between atoms: C_12  and  C_14 
REMARK   12  A    between atoms: C_14  and  O_15 
REMARK   13  A    between atoms: C_18  and  O_19 
ROOT
HETATM    1  O   UNL     1     -24.839  -6.161 -14.704  1.00  0.00    -0.318 OA
ENDROOT
BRANCH   1   2
HETATM    2  C   UNL     1     -24.336  -4.827 -14.607  1.00  0.00     0.295 C 
HETATM    3  C   UNL     1     -23.097  -4.961 -13.689  1.00  0.00     0.204 C 
HETATM    4  C   UNL     1     -22.503  -3.592 -13.368  1.00  0.00     0.183 C 
HETATM    5  C   UNL     1     -23.581  -2.667 -12.785  1.00  0.00     0.180 C 
HETATM    6  C   UNL     1     -24.849  -2.646 -13.667  1.00  0.00     0.179 C 
HETATM    7  O   UNL     1     -25.303  -3.973 -14.006  1.00  0.00    -0.348 OA
BRANCH   3   8
HETATM    8  O   UNL     1     -23.490  -5.584 -12.436  1.00  0.00    -0.388 OA
HETATM    9  H   UNL     1     -23.594  -4.835 -11.812  1.00  0.00     0.210 HD
ENDBRANCH   3   8
BRANCH   4  10
HETATM   10  O   UNL     1     -21.420  -3.735 -12.441  1.00  0.00    -0.390 OA
HETATM   11  H   UNL     1     -20.694  -4.150 -12.952  1.00  0.00     0.210 HD
ENDBRANCH   4  10
BRANCH   5  12
HETATM   12  O   UNL     1     -23.950  -3.122 -11.466  1.00  0.00    -0.390 OA
HETATM   13  H   UNL     1     -23.495  -3.979 -11.324  1.00  0.00     0.210 HD
ENDBRANCH   5  12
BRANCH   6  14
HETATM   14  C   UNL     1     -24.714  -1.764 -14.917  1.00  0.00     0.198 C 
BRANCH  14  15
HETATM   15  O   UNL     1     -24.869  -0.378 -14.625  1.00  0.00    -0.398 OA
HETATM   16  H   UNL     1     -23.980   0.020 -14.593  1.00  0.00     0.209 HD
ENDBRANCH  14  15
ENDBRANCH   6  14
ENDBRANCH   1   2
BRANCH   1  17
HETATM   17  C   UNL     1     -25.865  -6.464 -15.654  1.00  0.00     0.217 C 
HETATM   18  C   UNL     1     -26.818  -5.285 -15.997  1.00  0.00     0.214 C 
HETATM   19  C   UNL     1     -28.157  -5.721 -15.419  1.00  0.00     0.183 C 
HETATM   20  C   UNL     1     -28.068  -7.241 -15.363  1.00  0.00     0.180 C 
HETATM   21  O   UNL     1     -26.674  -7.579 -15.234  1.00  0.00    -0.341 OA
BRANCH  18  22
HETATM   22  O   UNL     1     -27.018  -5.002 -17.395  1.00  0.00    -0.387 OA
HETATM   23  H   UNL     1     -27.890  -5.356 -17.672  1.00  0.00     0.210 HD
ENDBRANCH  18  22
BRANCH  19  24
HETATM   24  O   UNL     1     -29.262  -5.240 -16.175  1.00  0.00    -0.390 OA
HETATM   25  H   UNL     1     -29.393  -5.895 -16.902  1.00  0.00     0.210 HD
ENDBRANCH  19  24
BRANCH  20  26
HETATM   26  C   UNL     1     -28.682  -7.973 -16.566  1.00  0.00     0.198 C 
BRANCH  26  27
HETATM   27  O   UNL     1     -28.442  -7.252 -17.778  1.00  0.00    -0.398 OA
HETATM   28  H   UNL     1     -27.933  -7.831 -18.372  1.00  0.00     0.209 HD
ENDBRANCH  26  27
ENDBRANCH  20  26
BRANCH  17  29
HETATM   29  C   UNL     1     -25.055  -6.958 -16.882  1.00  0.00     0.235 C 
BRANCH  29  30
HETATM   30  O   UNL     1     -24.350  -8.174 -16.629  1.00  0.00    -0.395 OA
HETATM   31  H   UNL     1     -24.688  -8.505 -15.770  1.00  0.00     0.209 HD
ENDBRANCH  29  30
ENDBRANCH  17  29
ENDBRANCH   1  17
TORSDOF 13
BEGIN_RES ARG D 557
REMARK  4 active torsions:
REMARK  status: ('A' for Active; 'I' for Inactive)
REMARK    1  A    between atoms: CA   and  CB  
REMARK    2  A    between atoms: CB   and  CG  
REMARK    3  A    between atoms: CG   and  CD  
REMARK    4  A    between atoms: CD   and  NE  
REMARK       I    between atoms: NE   and  CZ  
REMARK       I    between atoms: CZ   and  NH1 
REMARK       I    between atoms: CZ   and  NH2 
ROOT
ATOM      1  CA  ARG D 557     -26.217   2.705 -17.014  1.00 35.49     0.159 C 
ENDROOT
BRANCH   1   2
ATOM      2  CB  ARG D 557     -26.789   1.319 -17.183  1.00 35.49     0.034 C 
BRANCH   2   3
ATOM      3  CG  ARG D 557     -28.227   1.227 -17.463  1.00 35.49     0.027 C 
BRANCH   3   4
ATOM      4  CD  ARG D 557     -28.931   0.335 -16.513  1.00 35.49     0.116 C 
BRANCH   4   5
ATOM      5  NE  ARG D 557     -29.474  -0.828 -17.163  1.00 35.49    -0.212 N 
ATOM      6  CZ  ARG D 557     -28.943  -2.031 -17.156  1.00 35.49     0.666 C 
ATOM      7  NH1 ARG D 557     -27.808  -2.301 -16.539  1.00 35.49    -0.235 N 
ATOM      8  NH2 ARG D 557     -29.585  -2.974 -17.782  1.00 35.49    -0.235 N 
ATOM      9  HH  ARG D 557     -27.369  -1.696 -16.119  1.00 35.49     0.174 HD
ATOM     10  HH  ARG D 557     -27.511  -3.104 -16.566  1.00 35.49     0.174 HD
ATOM     11  HH  ARG D 557     -30.320  -2.772 -18.165  1.00 35.49     0.174 HD
ATOM     12  HH  ARG D 557     -29.276  -3.763 -17.795  1.00 35.49     0.174 HD
ATOM     13  HE  ARG D 557     -30.168  -0.729 -17.645  1.00 35.49     0.178 HD
ENDBRANCH   4   5
ENDBRANCH   3   4
ENDBRANCH   2   3
ENDBRANCH   1   2
END_RES ARG D 557
BEGIN_RES GLU D 570
REMARK  3 active torsions:
REMARK  status: ('A' for Active; 'I' for Inactive)
REMARK    5  A    between atoms: CA   and  CB  
REMARK    6  A    between atoms: CB   and  CG  
REMARK    7  A    between atoms: CG   and  CD  
ROOT
ATOM     14  CA  GLU D 570     -18.033  -6.348 -13.375  1.00 32.92     0.160 C 
ENDROOT
BRANCH  14  15
ATOM     15  CB  GLU D 570     -19.500  -6.345 -13.794  1.00 32.92     0.043 C 
BRANCH  15  16
ATOM     16  CG  GLU D 570     -19.798  -6.205 -15.243  1.00 32.92     0.100 C 
BRANCH  16  17
ATOM     17  CD  GLU D 570     -20.764  -7.251 -15.749  1.00 32.92     0.185 C 
ATOM     18  OE1 GLU D 570     -20.675  -8.417 -15.319  1.00 32.92    -0.647 OA
ATOM     19  OE2 GLU D 570     -21.608  -6.904 -16.599  1.00 32.92    -0.647 OA
ENDBRANCH  16  17
ENDBRANCH  15  16
ENDBRANCH  14  15
END_RES GLU D 570
ENDMDL
MODEL 3
REMARK VINA RESULT:      -6.8      2.725      6.159
REMARK  13 active torsions:
REMARK  status: ('A' for Active; 'I' for Inactive)
REMARK    1  A    between atoms: C_1  and  C_2 
REMARK    2  A    between atoms: C_1  and  O_23 
REMARK    3  A    between atoms: C_3  and  O_22 
REMARK    4  A    between atoms: C_4  and  O_21 
REMARK    5  A    between atoms: C_5  and  O_20 
REMARK    6  A    between atoms: C_6  and  O_8 
REMARK    7  A    between atoms: O_8  and  C_9 
REMARK    8  A    between atoms: C_9  and  C_18 
REMARK    9  A    between atoms: C_10  and  O_17 
REMARK   10  A    between atoms: C_11  and  O_16 
REMARK   11  A    between atoms: C_12  and  C_14 
REMARK   12  A    between atoms: C_14  and  O_15 
REMARK   13  A    between atoms: C_18  and  O_19 
ROOT
HETATM    1  O   UNL     1     -26.825  -5.860 -16.880  1.00  0.00    -0.318 OA
ENDROOT
BRANCH   1   2
HETATM    2  C   UNL     1     -25.898  -6.730 -17.530  1.00  0.00     0.295 C 
HETATM    3  C   UNL     1     -24.863  -7.064 -16.430  1.00  0.00     0.204 C 
HETATM    4  C   UNL     1     -23.712  -7.893 -16.994  1.00  0.00     0.183 C 
HETATM    5  C   UNL     1     -23.089  -7.183 -18.206  1.00  0.00     0.180 C 
HETATM    6  C   UNL     1     -24.163  -6.761 -19.231  1.00  0.00     0.179 C 
HETATM    7  O   UNL     1     -25.264  -6.062 -18.616  1.00  0.00    -0.348 OA
BRANCH   3   8
HETATM    8  O   UNL     1     -24.308  -5.830 -15.899  1.00  0.00    -0.388 OA
HETATM    9  H   UNL     1     -23.446  -6.095 -15.514  1.00  0.00     0.210 HD
ENDBRANCH   3   8
BRANCH   4  10
HETATM   10  O   UNL     1     -22.720  -8.105 -15.981  1.00  0.00    -0.390 OA
HETATM   11  H   UNL     1     -22.244  -8.917 -16.251  1.00  0.00     0.210 HD
ENDBRANCH   4  10
BRANCH   5  12
HETATM   12  O   UNL     1     -22.386  -6.002 -17.767  1.00  0.00    -0.390 OA
HETATM   13  H   UNL     1     -22.513  -5.321 -18.462  1.00  0.00     0.210 HD
ENDBRANCH   5  12
BRANCH   6  14
HETATM   14  C   UNL     1     -24.658  -7.917 -20.115  1.00  0.00     0.198 C 
BRANCH  14  15
HETATM   15  O   UNL     1     -23.590  -8.610 -20.753  1.00  0.00    -0.398 OA
HETATM   16  H   UNL     1     -22.761  -8.143 -20.538  1.00  0.00     0.209 HD
ENDBRANCH  14  15
ENDBRANCH   6  14
ENDBRANCH   1   2
BRANCH   1  17
HETATM   17  C   UNL     1     -28.190  -6.260 -16.731  1.00  0.00     0.217 C 
HETATM   18  C   UNL     1     -28.617  -7.487 -17.586  1.00  0.00     0.214 C 
HETATM   19  C   UNL     1     -29.597  -6.903 -18.593  1.00  0.00     0.183 C 
HETATM   20  C   UNL     1     -30.126  -5.644 -17.920  1.00  0.00     0.180 C 
HETATM   21  O   UNL     1     -29.102  -5.182 -17.019  1.00  0.00    -0.341 OA
BRANCH  18  22
HETATM   22  O   UNL     1     -29.288  -8.556 -16.892  1.00  0.00    -0.387 OA
HETATM   23  H   UNL     1     -29.368  -9.327 -17.493  1.00  0.00     0.210 HD
ENDBRANCH  18  22
BRANCH  19  24
HETATM   24  O   UNL     1     -30.616  -7.826 -18.961  1.00  0.00    -0.390 OA
HETATM   25  H   UNL     1     -30.150  -8.674 -19.155  1.00  0.00     0.210 HD
ENDBRANCH  19  24
BRANCH  20  26
HETATM   26  C   UNL     1     -31.455  -5.816 -17.168  1.00  0.00     0.198 C 
BRANCH  26  27
HETATM   27  O   UNL     1     -31.544  -4.896 -16.076  1.00  0.00    -0.398 OA
HETATM   28  H   UNL     1     -32.423  -4.479 -16.110  1.00  0.00     0.209 HD
ENDBRANCH  26  27
ENDBRANCH  20  26
BRANCH  17  29
HETATM   29  C   UNL     1     -28.303  -6.524 -15.206  1.00  0.00     0.235 C 
BRANCH  29  30
HETATM   30  O   UNL     1     -27.740  -7.778 -14.817  1.00  0.00    -0.395 OA
HETATM   31  H   UNL     1     -27.065  -7.990 -15.497  1.00  0.00     0.209 HD
ENDBRANCH  29  30
ENDBRANCH  17  29
ENDBRANCH   1  17
TORSDOF 13
BEGIN_RES ARG D 557
REMARK  4 active torsions:
REMARK  status: ('A' for Active; 'I' for Inactive)
REMARK    1  A    between atoms: CA   and  CB  
REMARK    2  A    between atoms: CB   and  CG  
REMARK    3  A    between atoms: CG   and  CD  
REMARK    4  A    between atoms: CD   and  NE  
REMARK       I    between atoms: NE   and  CZ  
REMARK       I    between atoms: CZ   and  NH1 
REMARK       I    between atoms: CZ   and  NH2 
ROOT
ATOM      1  CA  ARG D 557     -26.217   2.705 -17.014  1.00 35.49     0.159 C 
ENDROOT
BRANCH   1   2
ATOM      2  CB  ARG D 557     -26.789   1.319 -17.183  1.00 35.49     0.034 C 
BRANCH   2   3
ATOM      3  CG  ARG D 557     -25.868   0.195 -16.979  1.00 35.49     0.027 C 
BRANCH   3   4
ATOM      4  CD  ARG D 557     -26.324  -0.722 -15.909  1.00 35.49     0.116 C 
BRANCH   4   5
ATOM      5  NE  ARG D 557     -25.302  -0.958 -14.924  1.00 35.49    -0.212 N 
ATOM      6  CZ  ARG D 557     -25.004  -2.121 -14.390  1.00 35.49     0.666 C 
ATOM      7  NH1 ARG D 557     -25.646  -3.231 -14.704  1.00 35.49    -0.235 N 
ATOM      8  NH2 ARG D 557     -24.031  -2.154 -13.526  1.00 35.49    -0.235 N 
ATOM      9  HH  ARG D 557     -26.288  -3.234 -15.271  1.00 35.49     0.174 HD
ATOM     10  HH  ARG D 557     -25.406  -3.961 -14.325  1.00 35.49     0.174 HD
ATOM     11  HH  ARG D 557     -23.629  -1.423 -13.349  1.00 35.49     0.174 HD
ATOM     12  HH  ARG D 557     -23.807  -2.887 -13.163  1.00 35.49     0.174 HD
ATOM     13  HE  ARG D 557     -24.886  -0.286 -14.611  1.00 35.49     0.178 HD
ENDBRANCH   4   5
ENDBRANCH   3   4
ENDBRANCH   2   3
ENDBRANCH   1   2
END_RES ARG D 557
BEGIN_RES GLU D 570
REMARK  3 active torsions:
REMARK  status: ('A' for Active; 'I' for Inactive)
REMARK    5  A    between atoms: CA   and  CB  
REMARK    6  A    between atoms: CB   and  CG  
REMARK    7  A    between atoms: CG   and  CD  
ROOT
ATOM     14  CA  GLU D 570     -18.033  -6.348 -13.375  1.00 32.92     0.160 C 
ENDROOT
BRANCH  14  15
ATOM     15  CB  GLU D 570     -19.500  -6.345 -13.794  1.00 32.92     0.043 C 
BRANCH  15  16
ATOM     16  CG  GLU D 570     -20.421  -5.443 -13.055  1.00 32.92     0.100 C 
BRANCH  16  17
ATOM     17  CD  GLU D 570     -21.721  -5.201 -13.786  1.00 32.92     0.185 C 
ATOM     18  OE1 GLU D 570     -22.750  -4.958 -13.127  1.00 32.92    -0.647 OA
ATOM     19  OE2 GLU D 570     -21.714  -5.271 -15.031  1.00 32.92    -0.647 OA
ENDBRANCH  16  17
ENDBRANCH  15  16
ENDBRANCH  14  15
END_RES GLU D 570
ENDMDL
MODEL 4
REMARK VINA RESULT:      -6.7      6.827     10.174
REMARK  13 active torsions:
REMARK  status: ('A' for Active; 'I' for Inactive)
REMARK    1  A    between atoms: C_1  and  C_2 
REMARK    2  A    between atoms: C_1  and  O_23 
REMARK    3  A    between atoms: C_3  and  O_22 
REMARK    4  A    between atoms: C_4  and  O_21 
REMARK    5  A    between atoms: C_5  and  O_20 
REMARK    6  A    between atoms: C_6  and  O_8 
REMARK    7  A    between atoms: O_8  and  C_9 
REMARK    8  A    between atoms: C_9  and  C_18 
REMARK    9  A    between atoms: C_10  and  O_17 
REMARK   10  A    between atoms: C_11  and  O_16 
REMARK   11  A    between atoms: C_12  and  C_14 
REMARK   12  A    between atoms: C_14  and  O_15 
REMARK   13  A    between atoms: C_18  and  O_19 
ROOT
HETATM    1  O   UNL     1     -36.159  -1.754 -12.524  1.00  0.00    -0.318 OA
ENDROOT
BRANCH   1   2
HETATM    2  C   UNL     1     -35.594  -1.251 -13.736  1.00  0.00     0.295 C 
HETATM    3  C   UNL     1     -35.547   0.280 -13.520  1.00  0.00     0.204 C 
HETATM    4  C   UNL     1     -35.084   0.998 -14.785  1.00  0.00     0.183 C 
HETATM    5  C   UNL     1     -35.960   0.590 -15.979  1.00  0.00     0.180 C 
HETATM    6  C   UNL     1     -36.080  -0.945 -16.097  1.00  0.00     0.179 C 
HETATM    7  O   UNL     1     -36.431  -1.566 -14.844  1.00  0.00    -0.348 OA
BRANCH   3   8
HETATM    8  O   UNL     1     -36.878   0.763 -13.192  1.00  0.00    -0.388 OA
HETATM    9  H   UNL     1     -36.880   1.697 -13.489  1.00  0.00     0.210 HD
ENDBRANCH   3   8
BRANCH   4  10
HETATM   10  O   UNL     1     -35.143   2.417 -14.590  1.00  0.00    -0.390 OA
HETATM   11  H   UNL     1     -34.637   2.586 -13.768  1.00  0.00     0.210 HD
ENDBRANCH   4  10
BRANCH   5  12
HETATM   12  O   UNL     1     -37.284   1.141 -15.820  1.00  0.00    -0.390 OA
HETATM   13  H   UNL     1     -37.908   0.504 -16.229  1.00  0.00     0.210 HD
ENDBRANCH   5  12
BRANCH   6  14
HETATM   14  C   UNL     1     -34.846  -1.611 -16.726  1.00  0.00     0.198 C 
BRANCH  14  15
HETATM   15  O   UNL     1     -34.781  -3.007 -16.450  1.00  0.00    -0.398 OA
HETATM   16  H   UNL     1     -35.555  -3.429 -16.867  1.00  0.00     0.209 HD
ENDBRANCH  14  15
ENDBRANCH   6  14
ENDBRANCH   1   2
BRANCH   1  17
HETATM   17  C   UNL     1     -35.387  -2.622 -11.689  1.00  0.00     0.217 C 
HETATM   18  C   UNL     1     -33.860  -2.639 -11.983  1.00  0.00     0.214 C 
HETATM   19  C   UNL     1     -33.611  -4.039 -12.524  1.00  0.00     0.183 C 
HETATM   20  C   UNL     1     -34.752  -4.873 -11.956  1.00  0.00     0.180 C 
HETATM   21  O   UNL     1     -35.862  -3.981 -11.740  1.00  0.00    -0.341 OA
BRANCH  18  22
HETATM   22  O   UNL     1     -32.983  -2.443 -10.858  1.00  0.00    -0.387 OA
HETATM   23  H   UNL     1     -32.733  -1.496 -10.808  1.00  0.00     0.210 HD
ENDBRANCH  18  22
BRANCH  19  24
HETATM   24  O   UNL     1     -32.320  -4.533 -12.188  1.00  0.00    -0.390 OA
HETATM   25  H   UNL     1     -32.353  -5.504 -12.359  1.00  0.00     0.210 HD
ENDBRANCH  19  24
BRANCH  20  26
HETATM   26  C   UNL     1     -34.423  -5.633 -10.662  1.00  0.00     0.198 C 
BRANCH  26  27
HETATM   27  O   UNL     1     -33.654  -6.806 -10.943  1.00  0.00    -0.398 OA
HETATM   28  H   UNL     1     -33.363  -7.180 -10.093  1.00  0.00     0.209 HD
ENDBRANCH  26  27
ENDBRANCH  20  26
BRANCH  17  29
HETATM   29  C   UNL     1     -35.717  -2.104 -10.264  1.00  0.00     0.235 C 
BRANCH  29  30
HETATM   30  O   UNL     1     -35.524  -0.695 -10.127  1.00  0.00    -0.395 OA
HETATM   31  H   UNL     1     -34.938  -0.432 -10.869  1.00  0.00     0.209 HD
ENDBRANCH  29  30
ENDBRANCH  17  29
ENDBRANCH   1  17
TORSDOF 13
BEGIN_RES ARG D 557
REMARK  4 active torsions:
REMARK  status: ('A' for Active; 'I' for Inactive)
REMARK    1  A    between atoms: CA   and  CB  
REMARK    2  A    between atoms: CB   and  CG  
REMARK    3  A    between atoms: CG   and  CD  
REMARK    4  A    between atoms: CD   and  NE  
REMARK       I    between atoms: NE   and  CZ  
REMARK       I    between atoms: CZ   and  NH1 
REMARK       I    between atoms: CZ   and  NH2 
ROOT
ATOM      1  CA  ARG D 557     -26.217   2.705 -17.014  1.00 35.49     0.159 C 
ENDROOT
BRANCH   1   2
ATOM      2  CB  ARG D 557     -26.789   1.319 -17.183  1.00 35.49     0.034 C 
BRANCH   2   3
ATOM      3  CG  ARG D 557     -25.835   0.203 -17.158  1.00 35.49     0.027 C 
BRANCH   3   4
ATOM      4  CD  ARG D 557     -24.748   0.412 -16.175  1.00 35.49     0.116 C 
BRANCH   4   5
ATOM      5  NE  ARG D 557     -24.893  -0.434 -15.019  1.00 35.49    -0.212 N 
ATOM      6  CZ  ARG D 557     -24.077  -1.404 -14.671  1.00 35.49     0.666 C 
ATOM      7  NH1 ARG D 557     -23.010  -1.722 -15.380  1.00 35.49    -0.235 N 
ATOM      8  NH2 ARG D 557     -24.352  -2.055 -13.578  1.00 35.49    -0.235 N 
ATOM      9  HH  ARG D 557     -22.809  -1.306 -16.101  1.00 35.49     0.174 HD
ATOM     10  HH  ARG D 557     -22.513  -2.363 -15.102  1.00 35.49     0.174 HD
ATOM     11  HH  ARG D 557     -25.043  -1.823 -13.136  1.00 35.49     0.174 HD
ATOM     12  HH  ARG D 557     -23.847  -2.685 -13.318  1.00 35.49     0.174 HD
ATOM     13  HE  ARG D 557     -25.593  -0.346 -14.545  1.00 35.49     0.178 HD
ENDBRANCH   4   5
ENDBRANCH   3   4
ENDBRANCH   2   3
ENDBRANCH   1   2
END_RES ARG D 557
BEGIN_RES GLU D 570
REMARK  3 active torsions:
REMARK  status: ('A' for Active; 'I' for Inactive)
REMARK    5  A    between atoms: CA   and  CB  
REMARK    6  A    between atoms: CB   and  CG  
REMARK    7  A    between atoms: CG   and  CD  
ROOT
ATOM     14  CA  GLU D 570     -18.033  -6.348 -13.375  1.00 32.92     0.160 C 
ENDROOT
BRANCH  14  15
ATOM     15  CB  GLU D 570     -19.500  -6.345 -13.794  1.00 32.92     0.043 C 
BRANCH  15  16
ATOM     16  CG  GLU D 570     -20.440  -5.524 -12.988  1.00 32.92     0.100 C 
BRANCH  16  17
ATOM     17  CD  GLU D 570     -21.745  -5.253 -13.700  1.00 32.92     0.185 C 
ATOM     18  OE1 GLU D 570     -22.227  -6.135 -14.437  1.00 32.92    -0.647 OA
ATOM     19  OE2 GLU D 570     -22.282  -4.140 -13.533  1.00 32.92    -0.647 OA
ENDBRANCH  16  17
ENDBRANCH  15  16
ENDBRANCH  14  15
END_RES GLU D 570
ENDMDL
MODEL 5
REMARK VINA RESULT:      -6.7      2.616      6.039
REMARK  13 active torsions:
REMARK  status: ('A' for Active; 'I' for Inactive)
REMARK    1  A    between atoms: C_1  and  C_2 
REMARK    2  A    between atoms: C_1  and  O_23 
REMARK    3  A    between atoms: C_3  and  O_22 
REMARK    4  A    between atoms: C_4  and  O_21 
REMARK    5  A    between atoms: C_5  and  O_20 
REMARK    6  A    between atoms: C_6  and  O_8 
REMARK    7  A    between atoms: O_8  and  C_9 
REMARK    8  A    between atoms: C_9  and  C_18 
REMARK    9  A    between atoms: C_10  and  O_17 
REMARK   10  A    between atoms: C_11  and  O_16 
REMARK   11  A    between atoms: C_12  and  C_14 
REMARK   12  A    between atoms: C_14  and  O_15 
REMARK   13  A    between atoms: C_18  and  O_19 
ROOT
HETATM    1  O   UNL     1     -27.044  -5.935 -16.770  1.00  0.00    -0.318 OA
ENDROOT
BRANCH   1   2
HETATM    2  C   UNL     1     -26.106  -6.763 -17.459  1.00  0.00     0.295 C 
HETATM    3  C   UNL     1     -25.055  -7.116 -16.380  1.00  0.00     0.204 C 
HETATM    4  C   UNL     1     -23.893  -7.901 -16.983  1.00  0.00     0.183 C 
HETATM    5  C   UNL     1     -23.294  -7.136 -18.172  1.00  0.00     0.180 C 
HETATM    6  C   UNL     1     -24.385  -6.698 -19.174  1.00  0.00     0.179 C 
HETATM    7  O   UNL     1     -25.494  -6.044 -18.524  1.00  0.00    -0.348 OA
BRANCH   3   8
HETATM    8  O   UNL     1     -24.519  -5.892 -15.808  1.00  0.00    -0.388 OA
HETATM    9  H   UNL     1     -23.981  -5.500 -16.528  1.00  0.00     0.210 HD
ENDBRANCH   3   8
BRANCH   4  10
HETATM   10  O   UNL     1     -22.889  -8.130 -15.986  1.00  0.00    -0.390 OA
HETATM   11  H   UNL     1     -23.196  -7.643 -15.194  1.00  0.00     0.210 HD
ENDBRANCH   4  10
BRANCH   5  12
HETATM   12  O   UNL     1     -22.611  -5.957 -17.697  1.00  0.00    -0.390 OA
HETATM   13  H   UNL     1     -22.599  -5.316 -18.439  1.00  0.00     0.210 HD
ENDBRANCH   5  12
BRANCH   6  14
HETATM   14  C   UNL     1     -24.865  -7.830 -20.095  1.00  0.00     0.198 C 
BRANCH  14  15
HETATM   15  O   UNL     1     -23.784  -8.550 -20.680  1.00  0.00    -0.398 OA
HETATM   16  H   UNL     1     -23.661  -9.371 -20.167  1.00  0.00     0.209 HD
ENDBRANCH  14  15
ENDBRANCH   6  14
ENDBRANCH   1   2
BRANCH   1  17
HETATM   17  C   UNL     1     -28.378  -5.809 -17.268  1.00  0.00     0.217 C 
HETATM   18  C   UNL     1     -28.716  -4.436 -17.916  1.00  0.00     0.214 C 
HETATM   19  C   UNL     1     -29.731  -3.824 -16.961  1.00  0.00     0.183 C 
HETATM   20  C   UNL     1     -30.348  -5.020 -16.248  1.00  0.00     0.180 C 
HETATM   21  O   UNL     1     -29.361  -6.069 -16.248  1.00  0.00    -0.341 OA
BRANCH  18  22
HETATM   22  O   UNL     1     -29.314  -4.470 -19.226  1.00  0.00    -0.387 OA
HETATM   23  H   UNL     1     -30.143  -3.946 -19.213  1.00  0.00     0.210 HD
ENDBRANCH  18  22
BRANCH  19  24
HETATM   24  O   UNL     1     -30.682  -3.003 -17.628  1.00  0.00    -0.390 OA
HETATM   25  H   UNL     1     -30.634  -2.124 -17.182  1.00  0.00     0.210 HD
ENDBRANCH  19  24
BRANCH  20  26
HETATM   26  C   UNL     1     -31.665  -5.531 -16.853  1.00  0.00     0.198 C 
BRANCH  26  27
HETATM   27  O   UNL     1     -32.774  -4.757 -16.385  1.00  0.00    -0.398 OA
HETATM   28  H   UNL     1     -33.583  -5.133 -16.774  1.00  0.00     0.209 HD
ENDBRANCH  26  27
ENDBRANCH  20  26
BRANCH  17  29
HETATM   29  C   UNL     1     -28.479  -6.987 -18.273  1.00  0.00     0.235 C 
BRANCH  29  30
HETATM   30  O   UNL     1     -29.329  -8.038 -17.812  1.00  0.00    -0.395 OA
HETATM   31  H   UNL     1     -29.079  -8.831 -18.331  1.00  0.00     0.209 HD
ENDBRANCH  29  30
ENDBRANCH  17  29
ENDBRANCH   1  17
TORSDOF 13
BEGIN_RES ARG D 557
REMARK  4 active torsions:
REMARK  status: ('A' for Active; 'I' for Inactive)
REMARK    1  A    between atoms: CA   and  CB  
REMARK    2  A    between atoms: CB   and  CG  
REMARK    3  A    between atoms: CG   and  CD  
REMARK    4  A    between atoms: CD   and  NE  
REMARK       I    between atoms: NE   and  CZ  
REMARK       I    between atoms: CZ   and  NH1 
REMARK       I    between atoms: CZ   and  NH2 
ROOT
ATOM      1  CA  ARG D 557     -26.217   2.705 -17.014  1.00 35.49     0.159 C 
ENDROOT
BRANCH   1   2
ATOM      2  CB  ARG D 557     -26.789   1.319 -17.183  1.00 35.49     0.034 C 
BRANCH   2   3
ATOM      3  CG  ARG D 557     -25.904   0.195 -16.856  1.00 35.49     0.027 C 
BRANCH   3   4
ATOM      4  CD  ARG D 557     -26.604  -0.875 -16.109  1.00 35.49     0.116 C 
BRANCH   4   5
ATOM      5  NE  ARG D 557     -25.815  -1.377 -15.014  1.00 35.49    -0.212 N 
ATOM      6  CZ  ARG D 557     -25.783  -2.623 -14.598  1.00 35.49     0.666 C 
ATOM      7  NH1 ARG D 557     -26.509  -3.575 -15.155  1.00 35.49    -0.235 N 
ATOM      8  NH2 ARG D 557     -24.993  -2.904 -13.603  1.00 35.49    -0.235 N 
ATOM      9  HH  ARG D 557     -27.034  -3.414 -15.812  1.00 35.49     0.174 HD
ATOM     10  HH  ARG D 557     -26.445  -4.371 -14.843  1.00 35.49     0.174 HD
ATOM     11  HH  ARG D 557     -24.530  -2.270 -13.268  1.00 35.49     0.174 HD
ATOM     12  HH  ARG D 557     -24.942  -3.698 -13.310  1.00 35.49     0.174 HD
ATOM     13  HE  ARG D 557     -25.372  -0.817 -14.552  1.00 35.49     0.178 HD
ENDBRANCH   4   5
ENDBRANCH   3   4
ENDBRANCH   2   3
ENDBRANCH   1   2
END_RES ARG D 557
BEGIN_RES GLU D 570
REMARK  3 active torsions:
REMARK  status: ('A' for Active; 'I' for Inactive)
REMARK    5  A    between atoms: CA   and  CB  
REMARK    6  A    between atoms: CB   and  CG  
REMARK    7  A    between atoms: CG   and  CD  
ROOT
ATOM     14  CA  GLU D 570     -18.033  -6.348 -13.375  1.00 32.92     0.160 C 
ENDROOT
BRANCH  14  15
ATOM     15  CB  GLU D 570     -19.500  -6.345 -13.794  1.00 32.92     0.043 C 
BRANCH  15  16
ATOM     16  CG  GLU D 570     -20.446  -5.550 -12.969  1.00 32.92     0.100 C 
BRANCH  16  17
ATOM     17  CD  GLU D 570     -21.715  -5.192 -13.707  1.00 32.92     0.185 C 
ATOM     18  OE1 GLU D 570     -22.580  -4.508 -13.127  1.00 32.92    -0.647 OA
ATOM     19  OE2 GLU D 570     -21.852  -5.613 -14.872  1.00 32.92    -0.647 OA
ENDBRANCH  16  17
ENDBRANCH  15  16
ENDBRANCH  14  15
END_RES GLU D 570
ENDMDL
MODEL 6
REMARK VINA RESULT:      -5.7      6.640      9.933
REMARK  13 active torsions:
REMARK  status: ('A' for Active; 'I' for Inactive)
REMARK    1  A    between atoms: C_1  and  C_2 
REMARK    2  A    between atoms: C_1  and  O_23 
REMARK    3  A    between atoms: C_3  and  O_22 
REMARK    4  A    between atoms: C_4  and  O_21 
REMARK    5  A    between atoms: C_5  and  O_20 
REMARK    6  A    between atoms: C_6  and  O_8 
REMARK    7  A    between atoms: O_8  and  C_9 
REMARK    8  A    between atoms: C_9  and  C_18 
REMARK    9  A    between atoms: C_10  and  O_17 
REMARK   10  A    between atoms: C_11  and  O_16 
REMARK   11  A    between atoms: C_12  and  C_14 
REMARK   12  A    between atoms: C_14  and  O_15 
REMARK   13  A    between atoms: C_18  and  O_19 
ROOT
HETATM    1  O   UNL     1     -36.035  -1.482 -12.614  1.00  0.00    -0.318 OA
ENDROOT
BRANCH   1   2
HETATM    2  C   UNL     1     -35.488  -1.128 -13.886  1.00  0.00     0.295 C 
HETATM    3  C   UNL     1     -36.098   0.263 -14.181  1.00  0.00     0.204 C 
HETATM    4  C   UNL     1     -35.717   0.742 -15.580  1.00  0.00     0.183 C 
HETATM    5  C   UNL     1     -36.102  -0.314 -16.627  1.00  0.00     0.180 C 
HETATM    6  C   UNL     1     -35.575  -1.714 -16.242  1.00  0.00     0.179 C 
HETATM    7  O   UNL     1     -35.893  -2.063 -14.880  1.00  0.00    -0.348 OA
BRANCH   3   8
HETATM    8  O   UNL     1     -37.547   0.179 -14.116  1.00  0.00    -0.388 OA
HETATM    9  H   UNL     1     -37.733  -0.778 -14.009  1.00  0.00     0.210 HD
ENDBRANCH   3   8
BRANCH   4  10
HETATM   10  O   UNL     1     -36.372   1.984 -15.866  1.00  0.00    -0.390 OA
HETATM   11  H   UNL     1     -37.291   1.743 -16.104  1.00  0.00     0.210 HD
ENDBRANCH   4  10
BRANCH   5  12
HETATM   12  O   UNL     1     -37.538  -0.382 -16.743  1.00  0.00    -0.390 OA
HETATM   13  H   UNL     1     -37.817   0.389 -17.282  1.00  0.00     0.210 HD
ENDBRANCH   5  12
BRANCH   6  14
HETATM   14  C   UNL     1     -34.081  -1.911 -16.537  1.00  0.00     0.198 C 
BRANCH  14  15
HETATM   15  O   UNL     1     -33.853  -2.783 -17.640  1.00  0.00    -0.398 OA
HETATM   16  H   UNL     1     -32.895  -2.959 -17.688  1.00  0.00     0.209 HD
ENDBRANCH  14  15
ENDBRANCH   6  14
ENDBRANCH   1   2
BRANCH   1  17
HETATM   17  C   UNL     1     -35.326  -2.387 -11.764  1.00  0.00     0.217 C 
HETATM   18  C   UNL     1     -33.805  -2.519 -12.060  1.00  0.00     0.214 C 
HETATM   19  C   UNL     1     -33.659  -3.944 -12.574  1.00  0.00     0.183 C 
HETATM   20  C   UNL     1     -34.855  -4.682 -11.990  1.00  0.00     0.180 C 
HETATM   21  O   UNL     1     -35.897  -3.709 -11.789  1.00  0.00    -0.341 OA
BRANCH  18  22
HETATM   22  O   UNL     1     -32.913  -2.365 -10.939  1.00  0.00    -0.387 OA
HETATM   23  H   UNL     1     -33.392  -2.594 -10.115  1.00  0.00     0.210 HD
ENDBRANCH  18  22
BRANCH  19  24
HETATM   24  O   UNL     1     -32.405  -4.522 -12.231  1.00  0.00    -0.390 OA
HETATM   25  H   UNL     1     -31.820  -3.766 -11.987  1.00  0.00     0.210 HD
ENDBRANCH  19  24
BRANCH  20  26
HETATM   26  C   UNL     1     -34.577  -5.439 -10.682  1.00  0.00     0.198 C 
BRANCH  26  27
HETATM   27  O   UNL     1     -33.949  -6.698 -10.946  1.00  0.00    -0.398 OA
HETATM   28  H   UNL     1     -34.000  -7.231 -10.133  1.00  0.00     0.209 HD
ENDBRANCH  26  27
ENDBRANCH  20  26
BRANCH  17  29
HETATM   29  C   UNL     1     -35.614  -1.820 -10.348  1.00  0.00     0.235 C 
BRANCH  29  30
HETATM   30  O   UNL     1     -36.623  -0.809 -10.351  1.00  0.00    -0.395 OA
HETATM   31  H   UNL     1     -37.318  -1.124  -9.734  1.00  0.00     0.209 HD
ENDBRANCH  29  30
ENDBRANCH  17  29
ENDBRANCH   1  17
TORSDOF 13
BEGIN_RES ARG D 557
REMARK  4 active torsions:
REMARK  status: ('A' for Active; 'I' for Inactive)
REMARK    1  A    between atoms: CA   and  CB  
REMARK    2  A    between atoms: CB   and  CG  
REMARK    3  A    between atoms: CG   and  CD  
REMARK    4  A    between atoms: CD   and  NE  
REMARK       I    between atoms: NE   and  CZ  
REMARK       I    between atoms: CZ   and  NH1 
REMARK       I    between atoms: CZ   and  NH2 
ROOT
ATOM      1  CA  ARG D 557     -26.217   2.705 -17.014  1.00 35.49     0.159 C 
ENDROOT
BRANCH   1   2
ATOM      2  CB  ARG D 557     -26.789   1.319 -17.183  1.00 35.49     0.034 C 
BRANCH   2   3
ATOM      3  CG  ARG D 557     -28.249   1.191 -17.092  1.00 35.49     0.027 C 
BRANCH   3   4
ATOM      4  CD  ARG D 557     -28.671  -0.164 -16.668  1.00 35.49     0.116 C 
BRANCH   4   5
ATOM      5  NE  ARG D 557     -27.618  -0.873 -15.990  1.00 35.49    -0.212 N 
ATOM      6  CZ  ARG D 557     -27.391  -2.165 -16.063  1.00 35.49     0.666 C 
ATOM      7  NH1 ARG D 557     -28.144  -2.978 -16.782  1.00 35.49    -0.235 N 
ATOM      8  NH2 ARG D 557     -26.376  -2.636 -15.398  1.00 35.49    -0.235 N 
ATOM      9  HH  ARG D 557     -28.815  -2.690 -17.230  1.00 35.49     0.174 HD
ATOM     10  HH  ARG D 557     -27.946  -3.811 -16.794  1.00 35.49     0.174 HD
ATOM     11  HH  ARG D 557     -25.903  -2.086 -14.948  1.00 35.49     0.174 HD
ATOM     12  HH  ARG D 557     -26.196  -3.464 -15.423  1.00 35.49     0.174 HD
ATOM     13  HE  ARG D 557     -27.128  -0.438 -15.447  1.00 35.49     0.178 HD
ENDBRANCH   4   5
ENDBRANCH   3   4
ENDBRANCH   2   3
ENDBRANCH   1   2
END_RES ARG D 557
BEGIN_RES GLU D 570
REMARK  3 active torsions:
REMARK  status: ('A' for Active; 'I' for Inactive)
REMARK    5  A    between atoms: CA   and  CB  
REMARK    6  A    between atoms: CB   and  CG  
REMARK    7  A    between atoms: CG   and  CD  
ROOT
ATOM     14  CA  GLU D 570     -18.033  -6.348 -13.375  1.00 32.92     0.160 C 
ENDROOT
BRANCH  14  15
ATOM     15  CB  GLU D 570     -19.500  -6.345 -13.794  1.00 32.92     0.043 C 
BRANCH  15  16
ATOM     16  CG  GLU D 570     -19.797  -6.404 -15.249  1.00 32.92     0.100 C 
BRANCH  16  17
ATOM     17  CD  GLU D 570     -21.146  -7.013 -15.551  1.00 32.92     0.185 C 
ATOM     18  OE1 GLU D 570     -21.229  -7.894 -16.428  1.00 32.92    -0.647 OA
ATOM     19  OE2 GLU D 570     -22.133  -6.593 -14.916  1.00 32.92    -0.647 OA
ENDBRANCH  16  17
ENDBRANCH  15  16
ENDBRANCH  14  15
END_RES GLU D 570
ENDMDL
MODEL 7
REMARK VINA RESULT:      -5.6      2.584      5.786
REMARK  13 active torsions:
REMARK  status: ('A' for Active; 'I' for Inactive)
REMARK    1  A    between atoms: C_1  and  C_2 
REMARK    2  A    between atoms: C_1  and  O_23 
REMARK    3  A    between atoms: C_3  and  O_22 
REMARK    4  A    between atoms: C_4  and  O_21 
REMARK    5  A    between atoms: C_5  and  O_20 
REMARK    6  A    between atoms: C_6  and  O_8 
REMARK    7  A    between atoms: O_8  and  C_9 
REMARK    8  A    between atoms: C_9  and  C_18 
REMARK    9  A    between atoms: C_10  and  O_17 
REMARK   10  A    between atoms: C_11  and  O_16 
REMARK   11  A    between atoms: C_12  and  C_14 
REMARK   12  A    between atoms: C_14  and  O_15 
REMARK   13  A    between atoms: C_18  and  O_19 
ROOT
HETATM    1  O   UNL     1     -26.477  -7.001 -15.751  1.00  0.00    -0.318 OA
ENDROOT
BRANCH   1   2
HETATM    2  C   UNL     1     -25.203  -6.378 -15.919  1.00  0.00     0.295 C 
HETATM    3  C   UNL     1     -24.576  -7.124 -17.120  1.00  0.00     0.204 C 
HETATM    4  C   UNL     1     -23.140  -6.668 -17.361  1.00  0.00     0.183 C 
HETATM    5  C   UNL     1     -22.314  -6.809 -16.073  1.00  0.00     0.180 C 
HETATM    6  C   UNL     1     -23.023  -6.152 -14.869  1.00  0.00     0.179 C 
HETATM    7  O   UNL     1     -24.402  -6.558 -14.756  1.00  0.00    -0.348 OA
BRANCH   3   8
HETATM    8  O   UNL     1     -24.553  -8.551 -16.843  1.00  0.00    -0.388 OA
HETATM    9  H   UNL     1     -25.233  -8.928 -17.440  1.00  0.00     0.210 HD
ENDBRANCH   3   8
BRANCH   4  10
HETATM   10  O   UNL     1     -22.551  -7.442 -18.413  1.00  0.00    -0.390 OA
HETATM   11  H   UNL     1     -23.264  -8.035 -18.728  1.00  0.00     0.210 HD
ENDBRANCH   4  10
BRANCH   5  12
HETATM   12  O   UNL     1     -22.111  -8.206 -15.777  1.00  0.00    -0.390 OA
HETATM   13  H   UNL     1     -22.975  -8.561 -15.477  1.00  0.00     0.210 HD
ENDBRANCH   5  12
BRANCH   6  14
HETATM   14  C   UNL     1     -22.886  -4.622 -14.835  1.00  0.00     0.198 C 
BRANCH  14  15
HETATM   15  O   UNL     1     -21.674  -4.170 -15.430  1.00  0.00    -0.398 OA
HETATM   16  H   UNL     1     -21.732  -3.201 -15.527  1.00  0.00     0.209 HD
ENDBRANCH  14  15
ENDBRANCH   6  14
ENDBRANCH   1   2
BRANCH   1  17
HETATM   17  C   UNL     1     -27.669  -6.269 -16.047  1.00  0.00     0.217 C 
HETATM   18  C   UNL     1     -28.298  -6.562 -17.439  1.00  0.00     0.214 C 
HETATM   19  C   UNL     1     -28.110  -5.259 -18.203  1.00  0.00     0.183 C 
HETATM   20  C   UNL     1     -27.993  -4.197 -17.117  1.00  0.00     0.180 C 
HETATM   21  O   UNL     1     -27.467  -4.846 -15.944  1.00  0.00    -0.341 OA
BRANCH  18  22
HETATM   22  O   UNL     1     -29.702  -6.881 -17.459  1.00  0.00    -0.387 OA
HETATM   23  H   UNL     1     -30.202  -6.156 -17.027  1.00  0.00     0.210 HD
ENDBRANCH  18  22
BRANCH  19  24
HETATM   24  O   UNL     1     -29.159  -5.014 -19.132  1.00  0.00    -0.390 OA
HETATM   25  H   UNL     1     -28.794  -4.367 -19.782  1.00  0.00     0.210 HD
ENDBRANCH  19  24
BRANCH  20  26
HETATM   26  C   UNL     1     -29.301  -3.466 -16.777  1.00  0.00     0.198 C 
BRANCH  26  27
HETATM   27  O   UNL     1     -29.453  -2.293 -17.583  1.00  0.00    -0.398 OA
HETATM   28  H   UNL     1     -29.525  -2.578 -18.510  1.00  0.00     0.209 HD
ENDBRANCH  26  27
ENDBRANCH  20  26
BRANCH  17  29
HETATM   29  C   UNL     1     -28.607  -6.656 -14.873  1.00  0.00     0.235 C 
BRANCH  29  30
HETATM   30  O   UNL     1     -29.724  -5.776 -14.742  1.00  0.00    -0.395 OA
HETATM   31  H   UNL     1     -30.459  -6.327 -14.397  1.00  0.00     0.209 HD
ENDBRANCH  29  30
ENDBRANCH  17  29
ENDBRANCH   1  17
TORSDOF 13
BEGIN_RES ARG D 557
REMARK  4 active torsions:
REMARK  status: ('A' for Active; 'I' for Inactive)
REMARK    1  A    between atoms: CA   and  CB  
REMARK    2  A    between atoms: CB   and  CG  
REMARK    3  A    between atoms: CG   and  CD  
REMARK    4  A    between atoms: CD   and  NE  
REMARK       I    between atoms: NE   and  CZ  
REMARK       I    between atoms: CZ   and  NH1 
REMARK       I    between atoms: CZ   and  NH2 
ROOT
ATOM      1  CA  ARG D 557     -26.217   2.705 -17.014  1.00 35.49     0.159 C 
ENDROOT
BRANCH   1   2
ATOM      2  CB  ARG D 557     -26.789   1.319 -17.183  1.00 35.49     0.034 C 
BRANCH   2   3
ATOM      3  CG  ARG D 557     -25.861   0.195 -17.006  1.00 35.49     0.027 C 
BRANCH   3   4
ATOM      4  CD  ARG D 557     -26.306  -0.743 -15.951  1.00 35.49     0.116 C 
BRANCH   4   5
ATOM      5  NE  ARG D 557     -25.297  -0.945 -14.944  1.00 35.49    -0.212 N 
ATOM      6  CZ  ARG D 557     -25.172  -2.010 -14.184  1.00 35.49     0.666 C 
ATOM      7  NH1 ARG D 557     -25.999  -3.036 -14.260  1.00 35.49    -0.235 N 
ATOM      8  NH2 ARG D 557     -24.183  -2.031 -13.338  1.00 35.49    -0.235 N 
ATOM      9  HH  ARG D 557     -26.655  -3.044 -14.811  1.00 35.49     0.174 HD
ATOM     10  HH  ARG D 557     -25.867  -3.704 -13.741  1.00 35.49     0.174 HD
ATOM     11  HH  ARG D 557     -23.661  -1.357 -13.317  1.00 35.49     0.174 HD
ATOM     12  HH  ARG D 557     -24.068  -2.702 -12.834  1.00 35.49     0.174 HD
ATOM     13  HE  ARG D 557     -24.765  -0.302 -14.778  1.00 35.49     0.178 HD
ENDBRANCH   4   5
ENDBRANCH   3   4
ENDBRANCH   2   3
ENDBRANCH   1   2
END_RES ARG D 557
BEGIN_RES GLU D 570
REMARK  3 active torsions:
REMARK  status: ('A' for Active; 'I' for Inactive)
REMARK    5  A    between atoms: CA   and  CB  
REMARK    6  A    between atoms: CB   and  CG  
REMARK    7  A    between atoms: CG   and  CD  
ROOT
ATOM     14  CA  GLU D 570     -18.033  -6.348 -13.375  1.00 32.92     0.160 C 
ENDROOT
BRANCH  14  15
ATOM     15  CB  GLU D 570     -19.500  -6.345 -13.794  1.00 32.92     0.043 C 
BRANCH  15  16
ATOM     16  CG  GLU D 570     -20.519  -6.230 -12.719  1.00 32.92     0.100 C 
BRANCH  16  17
ATOM     17  CD  GLU D 570     -20.414  -4.937 -11.944  1.00 32.92     0.185 C 
ATOM     18  OE1 GLU D 570     -19.622  -4.868 -10.985  1.00 32.92    -0.647 OA
ATOM     19  OE2 GLU D 570     -21.145  -3.987 -12.290  1.00 32.92    -0.647 OA
ENDBRANCH  16  17
ENDBRANCH  15  16
ENDBRANCH  14  15
END_RES GLU D 570
ENDMDL
MODEL 8
REMARK VINA RESULT:      -5.4      3.150      6.116
REMARK  13 active torsions:
REMARK  status: ('A' for Active; 'I' for Inactive)
REMARK    1  A    between atoms: C_1  and  C_2 
REMARK    2  A    between atoms: C_1  and  O_23 
REMARK    3  A    between atoms: C_3  and  O_22 
REMARK    4  A    between atoms: C_4  and  O_21 
REMARK    5  A    between atoms: C_5  and  O_20 
REMARK    6  A    between atoms: C_6  and  O_8 
REMARK    7  A    between atoms: O_8  and  C_9 
REMARK    8  A    between atoms: C_9  and  C_18 
REMARK    9  A    between atoms: C_10  and  O_17 
REMARK   10  A    between atoms: C_11  and  O_16 
REMARK   11  A    between atoms: C_12  and  C_14 
REMARK   12  A    between atoms: C_14  and  O_15 
REMARK   13  A    between atoms: C_18  and  O_19 
ROOT
HETATM    1  O   UNL     1     -26.277  -5.911 -18.141  1.00  0.00    -0.318 OA
ENDROOT
BRANCH   1   2
HETATM    2  C   UNL     1     -26.145  -7.011 -19.042  1.00  0.00     0.295 C 
HETATM    3  C   UNL     1     -24.617  -7.153 -19.237  1.00  0.00     0.204 C 
HETATM    4  C   UNL     1     -24.294  -8.215 -20.286  1.00  0.00     0.183 C 
HETATM    5  C   UNL     1     -25.038  -7.911 -21.596  1.00  0.00     0.180 C 
HETATM    6  C   UNL     1     -26.542  -7.660 -21.350  1.00  0.00     0.179 C 
HETATM    7  O   UNL     1     -26.773  -6.716 -20.285  1.00  0.00    -0.348 OA
BRANCH   3   8
HETATM    8  O   UNL     1     -24.068  -5.888 -19.696  1.00  0.00    -0.388 OA
HETATM    9  H   UNL     1     -24.806  -5.250 -19.595  1.00  0.00     0.210 HD
ENDBRANCH   3   8
BRANCH   4  10
HETATM   10  O   UNL     1     -22.881  -8.258 -20.518  1.00  0.00    -0.390 OA
HETATM   11  H   UNL     1     -22.479  -8.424 -19.640  1.00  0.00     0.210 HD
ENDBRANCH   4  10
BRANCH   5  12
HETATM   12  O   UNL     1     -24.473  -6.735 -22.213  1.00  0.00    -0.390 OA
HETATM   13  H   UNL     1     -25.058  -5.983 -21.979  1.00  0.00     0.210 HD
ENDBRANCH   5  12
BRANCH   6  14
HETATM   14  C   UNL     1     -27.354  -8.948 -21.143  1.00  0.00     0.198 C 
BRANCH  14  15
HETATM   15  O   UNL     1     -28.656  -8.869 -21.713  1.00  0.00    -0.398 OA
HETATM   16  H   UNL     1     -28.685  -9.475 -22.477  1.00  0.00     0.209 HD
ENDBRANCH  14  15
ENDBRANCH   6  14
ENDBRANCH   1   2
BRANCH   1  17
HETATM   17  C   UNL     1     -27.499  -5.728 -17.420  1.00  0.00     0.217 C 
HETATM   18  C   UNL     1     -28.343  -7.017 -17.209  1.00  0.00     0.214 C 
HETATM   19  C   UNL     1     -29.587  -6.776 -18.052  1.00  0.00     0.183 C 
HETATM   20  C   UNL     1     -29.684  -5.260 -18.160  1.00  0.00     0.180 C 
HETATM   21  O   UNL     1     -28.346  -4.740 -18.037  1.00  0.00    -0.341 OA
BRANCH  18  22
HETATM   22  O   UNL     1     -28.774  -7.295 -15.863  1.00  0.00    -0.387 OA
HETATM   23  H   UNL     1     -28.974  -8.251 -15.782  1.00  0.00     0.210 HD
ENDBRANCH  18  22
BRANCH  19  24
HETATM   24  O   UNL     1     -30.748  -7.386 -17.498  1.00  0.00    -0.390 OA
HETATM   25  H   UNL     1     -31.077  -6.757 -16.812  1.00  0.00     0.210 HD
ENDBRANCH  19  24
BRANCH  20  26
HETATM   26  C   UNL     1     -30.609  -4.592 -17.132  1.00  0.00     0.198 C 
BRANCH  26  27
HETATM   27  O   UNL     1     -30.513  -5.243 -15.861  1.00  0.00    -0.398 OA
HETATM   28  H   UNL     1     -29.644  -5.679 -15.817  1.00  0.00     0.209 HD
ENDBRANCH  26  27
ENDBRANCH  20  26
BRANCH  17  29
HETATM   29  C   UNL     1     -27.014  -5.104 -16.084  1.00  0.00     0.235 C 
BRANCH  29  30
HETATM   30  O   UNL     1     -27.593  -3.824 -15.827  1.00  0.00    -0.395 OA
HETATM   31  H   UNL     1     -27.018  -3.174 -16.284  1.00  0.00     0.209 HD
ENDBRANCH  29  30
ENDBRANCH  17  29
ENDBRANCH   1  17
TORSDOF 13
BEGIN_RES ARG D 557
REMARK  4 active torsions:
REMARK  status: ('A' for Active; 'I' for Inactive)
REMARK    1  A    between atoms: CA   and  CB  
REMARK    2  A    between atoms: CB   and  CG  
REMARK    3  A    between atoms: CG   and  CD  
REMARK    4  A    between atoms: CD   and  NE  
REMARK       I    between atoms: NE   and  CZ  
REMARK       I    between atoms: CZ   and  NH1 
REMARK       I    between atoms: CZ   and  NH2 
ROOT
ATOM      1  CA  ARG D 557     -26.217   2.705 -17.014  1.00 35.49     0.159 C 
ENDROOT
BRANCH   1   2
ATOM      2  CB  ARG D 557     -26.789   1.319 -17.183  1.00 35.49     0.034 C 
BRANCH   2   3
ATOM      3  CG  ARG D 557     -25.857   0.196 -17.024  1.00 35.49     0.027 C 
BRANCH   3   4
ATOM      4  CD  ARG D 557     -26.146  -0.611 -15.816  1.00 35.49     0.116 C 
BRANCH   4   5
ATOM      5  NE  ARG D 557     -24.963  -0.864 -15.037  1.00 35.49    -0.212 N 
ATOM      6  CZ  ARG D 557     -24.791  -1.866 -14.205  1.00 35.49     0.666 C 
ATOM      7  NH1 ARG D 557     -25.728  -2.769 -13.979  1.00 35.49    -0.235 N 
ATOM      8  NH2 ARG D 557     -23.643  -1.952 -13.597  1.00 35.49    -0.235 N 
ATOM      9  HH  ARG D 557     -26.490  -2.733 -14.369  1.00 35.49     0.174 HD
ATOM     10  HH  ARG D 557     -25.558  -3.402 -13.427  1.00 35.49     0.174 HD
ATOM     11  HH  ARG D 557     -23.055  -1.359 -13.768  1.00 35.49     0.174 HD
ATOM     12  HH  ARG D 557     -23.494  -2.587 -13.056  1.00 35.49     0.174 HD
ATOM     13  HE  ARG D 557     -24.336  -0.290 -15.066  1.00 35.49     0.178 HD
ENDBRANCH   4   5
ENDBRANCH   3   4
ENDBRANCH   2   3
ENDBRANCH   1   2
END_RES ARG D 557
BEGIN_RES GLU D 570
REMARK  3 active torsions:
REMARK  status: ('A' for Active; 'I' for Inactive)
REMARK    5  A    between atoms: CA   and  CB  
REMARK    6  A    between atoms: CB   and  CG  
REMARK    7  A    between atoms: CG   and  CD  
ROOT
ATOM     14  CA  GLU D 570     -18.033  -6.348 -13.375  1.00 32.92     0.160 C 
ENDROOT
BRANCH  14  15
ATOM     15  CB  GLU D 570     -19.500  -6.345 -13.794  1.00 32.92     0.043 C 
BRANCH  15  16
ATOM     16  CG  GLU D 570     -20.450  -5.570 -12.954  1.00 32.92     0.100 C 
BRANCH  16  17
ATOM     17  CD  GLU D 570     -21.677  -5.121 -13.714  1.00 32.92     0.185 C 
ATOM     18  OE1 GLU D 570     -22.699  -4.801 -13.078  1.00 32.92    -0.647 OA
ATOM     19  OE2 GLU D 570     -21.620  -5.106 -14.959  1.00 32.92    -0.647 OA
ENDBRANCH  16  17
ENDBRANCH  15  16
ENDBRANCH  14  15
END_RES GLU D 570
ENDMDL
