MODEL 1
REMARK VINA RESULT:      -7.6      0.000      0.000
REMARK  22 active torsions:
REMARK  status: ('A' for Active; 'I' for Inactive)
REMARK    1  A    between atoms: C_2  and  C_3 
REMARK    2  A    between atoms: C_3  and  C_4 
REMARK    3  A    between atoms: C_4  and  C_5 
REMARK    4  A    between atoms: C_5  and  C_6 
REMARK    5  A    between atoms: C_6  and  C_7 
REMARK    6  A    between atoms: C_7  and  C_8 
REMARK    7  A    between atoms: C_8  and  C_9 
REMARK    8  A    between atoms: C_10  and  C_11 
REMARK    9  A    between atoms: C_11  and  C_12 
REMARK   10  A    between atoms: C_12  and  C_13 
REMARK   11  A    between atoms: C_13  and  C_14 
REMARK   12  A    between atoms: C_14  and  C_15 
REMARK   13  A    between atoms: C_15  and  C_16 
REMARK   14  A    between atoms: C_16  and  C_17 
REMARK   15  A    between atoms: C_17  and  C_18 
REMARK   16  A    between atoms: C_18  and  O_20 
REMARK   17  A    between atoms: O_20  and  C_21 
REMARK   18  A    between atoms: C_21  and  C_22 
REMARK   19  A    between atoms: C_22  and  C_23 
REMARK   20  A    between atoms: C_22  and  C_25 
REMARK   21  A    between atoms: C_25  and  C_26 
REMARK   22  A    between atoms: C_26  and  C_27 
ROOT
HETATM    1  C   UNL     1     -23.319  -5.034 -12.430  1.00  0.00     0.000 C 
ENDROOT
BRANCH   1   2
HETATM    2  C   UNL     1     -22.852  -4.148 -11.277  1.00  0.00     0.000 C 
BRANCH   2   3
HETATM    3  C   UNL     1     -21.766  -3.177 -11.727  1.00  0.00     0.004 C 
BRANCH   3   4
HETATM    4  C   UNL     1     -20.446  -3.466 -11.019  1.00  0.00     0.027 C 
BRANCH   4   5
HETATM    5  C   UNL     1     -20.644  -4.400  -9.878  1.00  0.00    -0.031 C 
HETATM    6  C   UNL     1     -20.055  -4.213  -8.691  1.00  0.00    -0.031 C 
BRANCH   6   7
HETATM    7  C   UNL     1     -20.255  -5.143  -7.546  1.00  0.00     0.027 C 
BRANCH   7   8
HETATM    8  C   UNL     1     -20.634  -4.369  -6.294  1.00  0.00     0.004 C 
BRANCH   8   9
HETATM    9  C   UNL     1     -20.337  -5.204  -5.058  1.00  0.00     0.000 C 
BRANCH   9  10
HETATM   10  C   UNL     1     -20.998  -6.567  -5.172  1.00  0.00     0.000 C 
BRANCH  10  11
HETATM   11  C   UNL     1     -22.063  -6.726  -4.100  1.00  0.00     0.000 C 
BRANCH  11  12
HETATM   12  C   UNL     1     -21.543  -6.222  -2.762  1.00  0.00    -0.000 C 
BRANCH  12  13
HETATM   13  C   UNL     1     -20.883  -7.351  -1.982  1.00  0.00    -0.005 C 
HETATM   14  C   UNL     1     -21.932  -8.242  -1.346  1.00  0.00     0.005 C 
ENDBRANCH  12  13
ENDBRANCH  11  12
ENDBRANCH  10  11
ENDBRANCH   9  10
ENDBRANCH   8   9
ENDBRANCH   7   8
ENDBRANCH   6   7
ENDBRANCH   4   5
ENDBRANCH   3   4
ENDBRANCH   2   3
ENDBRANCH   1   2
BRANCH   1  15
HETATM   15  C   UNL     1     -22.507  -4.775 -13.686  1.00  0.00     0.000 C 
BRANCH  15  16
HETATM   16  C   UNL     1     -23.300  -5.218 -14.910  1.00  0.00     0.010 C 
BRANCH  16  17
HETATM   17  C   UNL     1     -24.110  -6.479 -14.646  1.00  0.00     0.111 C 
BRANCH  17  18
HETATM   18  C   UNL     1     -24.748  -6.964 -15.933  1.00  0.00     0.258 C 
HETATM   19  O   UNL     1     -24.244  -6.931 -17.040  1.00  0.00    -0.265 OA
BRANCH  18  20
HETATM   20  O   UNL     1     -26.042  -7.334 -15.680  1.00  0.00    -0.321 OA
BRANCH  20  21
HETATM   21  C   UNL     1     -26.972  -6.271 -15.895  1.00  0.00     0.183 C 
BRANCH  21  22
HETATM   22  C   UNL     1     -27.861  -6.462 -17.137  1.00  0.00     0.010 C 
BRANCH  22  23
HETATM   23  C   UNL     1     -29.198  -7.156 -16.797  1.00  0.00     0.002 C 
HETATM   24  C   UNL     1     -30.056  -7.485 -18.012  1.00  0.00     0.005 C 
ENDBRANCH  22  23
BRANCH  22  25
HETATM   25  C   UNL     1     -28.118  -5.109 -17.843  1.00  0.00     0.007 C 
BRANCH  25  26
HETATM   26  C   UNL     1     -28.242  -3.945 -16.861  1.00  0.00     0.000 C 
BRANCH  26  27
HETATM   27  C   UNL     1     -29.326  -2.960 -17.279  1.00  0.00    -0.005 C 
HETATM   28  C   UNL     1     -30.605  -3.711 -17.608  1.00  0.00     0.005 C 
ENDBRANCH  26  27
ENDBRANCH  25  26
ENDBRANCH  22  25
ENDBRANCH  21  22
ENDBRANCH  20  21
ENDBRANCH  18  20
ENDBRANCH  17  18
ENDBRANCH  16  17
ENDBRANCH  15  16
ENDBRANCH   1  15
TORSDOF 22
BEGIN_RES ARG D 557
REMARK  4 active torsions:
REMARK  status: ('A' for Active; 'I' for Inactive)
REMARK    1  A    between atoms: CA   and  CB  
REMARK    2  A    between atoms: CB   and  CG  
REMARK    3  A    between atoms: CG   and  CD  
REMARK    4  A    between atoms: CD   and  NE  
REMARK       I    between atoms: NE   and  CZ  
REMARK       I    between atoms: CZ   and  NH1 
REMARK       I    between atoms: CZ   and  NH2 
ROOT
ATOM      1  CA  ARG D 557     -26.217   2.705 -17.014  1.00 35.49     0.159 C 
ENDROOT
BRANCH   1   2
ATOM      2  CB  ARG D 557     -26.789   1.319 -17.183  1.00 35.49     0.034 C 
BRANCH   2   3
ATOM      3  CG  ARG D 557     -25.833   0.205 -17.181  1.00 35.49     0.027 C 
BRANCH   3   4
ATOM      4  CD  ARG D 557     -25.331  -0.105 -15.823  1.00 35.49     0.116 C 
BRANCH   4   5
ATOM      5  NE  ARG D 557     -25.878  -1.333 -15.310  1.00 35.49    -0.212 N 
ATOM      6  CZ  ARG D 557     -25.354  -2.067 -14.354  1.00 35.49     0.666 C 
ATOM      7  NH1 ARG D 557     -24.222  -1.748 -13.754  1.00 35.49    -0.235 N 
ATOM      8  NH2 ARG D 557     -25.999  -3.141 -14.000  1.00 35.49    -0.235 N 
ATOM      9  HH  ARG D 557     -23.782  -1.045 -13.970  1.00 35.49     0.174 HD
ATOM     10  HH  ARG D 557     -23.930  -2.264 -13.136  1.00 35.49     0.174 HD
ATOM     11  HH  ARG D 557     -26.732  -3.318 -14.399  1.00 35.49     0.174 HD
ATOM     12  HH  ARG D 557     -25.695  -3.638 -13.384  1.00 35.49     0.174 HD
ATOM     13  HE  ARG D 557     -26.570  -1.652 -15.689  1.00 35.49     0.178 HD
ENDBRANCH   4   5
ENDBRANCH   3   4
ENDBRANCH   2   3
ENDBRANCH   1   2
END_RES ARG D 557
BEGIN_RES GLU D 570
REMARK  3 active torsions:
REMARK  status: ('A' for Active; 'I' for Inactive)
REMARK    5  A    between atoms: CA   and  CB  
REMARK    6  A    between atoms: CB   and  CG  
REMARK    7  A    between atoms: CG   and  CD  
ROOT
ATOM     14  CA  GLU D 570     -18.033  -6.348 -13.375  1.00 32.92     0.160 C 
ENDROOT
BRANCH  14  15
ATOM     15  CB  GLU D 570     -19.500  -6.345 -13.794  1.00 32.92     0.043 C 
BRANCH  15  16
ATOM     16  CG  GLU D 570     -20.084  -7.633 -14.249  1.00 32.92     0.100 C 
BRANCH  16  17
ATOM     17  CD  GLU D 570     -20.637  -7.565 -15.654  1.00 32.92     0.185 C 
ATOM     18  OE1 GLU D 570     -20.477  -6.523 -16.318  1.00 32.92    -0.647 OA
ATOM     19  OE2 GLU D 570     -21.249  -8.560 -16.090  1.00 32.92    -0.647 OA
ENDBRANCH  16  17
ENDBRANCH  15  16
ENDBRANCH  14  15
END_RES GLU D 570
ENDMDL
MODEL 2
REMARK VINA RESULT:      -7.4      4.397     11.512
REMARK  22 active torsions:
REMARK  status: ('A' for Active; 'I' for Inactive)
REMARK    1  A    between atoms: C_2  and  C_3 
REMARK    2  A    between atoms: C_3  and  C_4 
REMARK    3  A    between atoms: C_4  and  C_5 
REMARK    4  A    between atoms: C_5  and  C_6 
REMARK    5  A    between atoms: C_6  and  C_7 
REMARK    6  A    between atoms: C_7  and  C_8 
REMARK    7  A    between atoms: C_8  and  C_9 
REMARK    8  A    between atoms: C_10  and  C_11 
REMARK    9  A    between atoms: C_11  and  C_12 
REMARK   10  A    between atoms: C_12  and  C_13 
REMARK   11  A    between atoms: C_13  and  C_14 
REMARK   12  A    between atoms: C_14  and  C_15 
REMARK   13  A    between atoms: C_15  and  C_16 
REMARK   14  A    between atoms: C_16  and  C_17 
REMARK   15  A    between atoms: C_17  and  C_18 
REMARK   16  A    between atoms: C_18  and  O_20 
REMARK   17  A    between atoms: O_20  and  C_21 
REMARK   18  A    between atoms: C_21  and  C_22 
REMARK   19  A    between atoms: C_22  and  C_23 
REMARK   20  A    between atoms: C_22  and  C_25 
REMARK   21  A    between atoms: C_25  and  C_26 
REMARK   22  A    between atoms: C_26  and  C_27 
ROOT
HETATM    1  C   UNL     1     -22.444  -8.975   0.429  1.00  0.00     0.000 C 
ENDROOT
BRANCH   1   2
HETATM    2  C   UNL     1     -22.593  -7.553  -0.105  1.00  0.00     0.000 C 
BRANCH   2   3
HETATM    3  C   UNL     1     -21.612  -7.279  -1.241  1.00  0.00     0.004 C 
BRANCH   3   4
HETATM    4  C   UNL     1     -22.197  -6.285  -2.241  1.00  0.00     0.027 C 
BRANCH   4   5
HETATM    5  C   UNL     1     -21.741  -6.586  -3.624  1.00  0.00    -0.031 C 
HETATM    6  C   UNL     1     -20.872  -5.806  -4.276  1.00  0.00    -0.031 C 
BRANCH   6   7
HETATM    7  C   UNL     1     -20.410  -6.107  -5.658  1.00  0.00     0.027 C 
BRANCH   7   8
HETATM    8  C   UNL     1     -19.746  -4.886  -6.274  1.00  0.00     0.004 C 
BRANCH   8   9
HETATM    9  C   UNL     1     -20.795  -3.998  -6.925  1.00  0.00     0.000 C 
BRANCH   9  10
HETATM   10  C   UNL     1     -21.636  -4.804  -7.899  1.00  0.00     0.000 C 
BRANCH  10  11
HETATM   11  C   UNL     1     -21.292  -4.424  -9.330  1.00  0.00     0.000 C 
BRANCH  11  12
HETATM   12  C   UNL     1     -22.458  -3.691  -9.975  1.00  0.00    -0.000 C 
BRANCH  12  13
HETATM   13  C   UNL     1     -23.721  -3.851  -9.139  1.00  0.00    -0.005 C 
HETATM   14  C   UNL     1     -24.933  -3.360  -9.908  1.00  0.00     0.005 C 
ENDBRANCH  12  13
ENDBRANCH  11  12
ENDBRANCH  10  11
ENDBRANCH   9  10
ENDBRANCH   8   9
ENDBRANCH   7   8
ENDBRANCH   6   7
ENDBRANCH   4   5
ENDBRANCH   3   4
ENDBRANCH   2   3
ENDBRANCH   1   2
BRANCH   1  15
HETATM   15  C   UNL     1     -23.522  -9.888  -0.128  1.00  0.00     0.000 C 
BRANCH  15  16
HETATM   16  C   UNL     1     -23.076 -11.340  -0.008  1.00  0.00     0.010 C 
BRANCH  16  17
HETATM   17  C   UNL     1     -21.582 -11.465   0.252  1.00  0.00     0.111 C 
BRANCH  17  18
HETATM   18  C   UNL     1     -20.976 -12.486  -0.692  1.00  0.00     0.258 C 
HETATM   19  O   UNL     1     -21.355 -13.630  -0.849  1.00  0.00    -0.265 OA
BRANCH  18  20
HETATM   20  O   UNL     1     -19.845 -11.958  -1.255  1.00  0.00    -0.321 OA
BRANCH  20  21
HETATM   21  C   UNL     1     -20.042 -10.633  -1.751  1.00  0.00     0.183 C 
BRANCH  21  22
HETATM   22  C   UNL     1     -20.407 -10.574  -3.246  1.00  0.00     0.010 C 
BRANCH  22  23
HETATM   23  C   UNL     1     -21.901 -10.253  -3.469  1.00  0.00     0.002 C 
HETATM   24  C   UNL     1     -22.763 -11.474  -3.766  1.00  0.00     0.005 C 
ENDBRANCH  22  23
BRANCH  22  25
HETATM   25  C   UNL     1     -19.517  -9.549  -3.989  1.00  0.00     0.007 C 
BRANCH  25  26
HETATM   26  C   UNL     1     -18.281  -9.148  -3.186  1.00  0.00     0.000 C 
BRANCH  26  27
HETATM   27  C   UNL     1     -16.999  -9.697  -3.800  1.00  0.00    -0.005 C 
HETATM   28  C   UNL     1     -15.909  -9.762  -2.745  1.00  0.00     0.005 C 
ENDBRANCH  26  27
ENDBRANCH  25  26
ENDBRANCH  22  25
ENDBRANCH  21  22
ENDBRANCH  20  21
ENDBRANCH  18  20
ENDBRANCH  17  18
ENDBRANCH  16  17
ENDBRANCH  15  16
ENDBRANCH   1  15
TORSDOF 22
BEGIN_RES ARG D 557
REMARK  4 active torsions:
REMARK  status: ('A' for Active; 'I' for Inactive)
REMARK    1  A    between atoms: CA   and  CB  
REMARK    2  A    between atoms: CB   and  CG  
REMARK    3  A    between atoms: CG   and  CD  
REMARK    4  A    between atoms: CD   and  NE  
REMARK       I    between atoms: NE   and  CZ  
REMARK       I    between atoms: CZ   and  NH1 
REMARK       I    between atoms: CZ   and  NH2 
ROOT
ATOM      1  CA  ARG D 557     -26.217   2.705 -17.014  1.00 35.49     0.159 C 
ENDROOT
BRANCH   1   2
ATOM      2  CB  ARG D 557     -26.789   1.319 -17.183  1.00 35.49     0.034 C 
BRANCH   2   3
ATOM      3  CG  ARG D 557     -25.832   0.206 -17.188  1.00 35.49     0.027 C 
BRANCH   3   4
ATOM      4  CD  ARG D 557     -24.728   0.406 -16.222  1.00 35.49     0.116 C 
BRANCH   4   5
ATOM      5  NE  ARG D 557     -24.882  -0.411 -15.046  1.00 35.49    -0.212 N 
ATOM      6  CZ  ARG D 557     -24.079  -1.382 -14.676  1.00 35.49     0.666 C 
ATOM      7  NH1 ARG D 557     -23.017  -1.731 -15.378  1.00 35.49    -0.235 N 
ATOM      8  NH2 ARG D 557     -24.360  -2.004 -13.567  1.00 35.49    -0.235 N 
ATOM      9  HH  ARG D 557     -22.811  -1.335 -16.109  1.00 35.49     0.174 HD
ATOM     10  HH  ARG D 557     -22.528  -2.371 -15.085  1.00 35.49     0.174 HD
ATOM     11  HH  ARG D 557     -25.048  -1.752 -13.131  1.00 35.49     0.174 HD
ATOM     12  HH  ARG D 557     -23.863  -2.634 -13.294  1.00 35.49     0.174 HD
ATOM     13  HE  ARG D 557     -25.581  -0.302 -14.573  1.00 35.49     0.178 HD
ENDBRANCH   4   5
ENDBRANCH   3   4
ENDBRANCH   2   3
ENDBRANCH   1   2
END_RES ARG D 557
BEGIN_RES GLU D 570
REMARK  3 active torsions:
REMARK  status: ('A' for Active; 'I' for Inactive)
REMARK    5  A    between atoms: CA   and  CB  
REMARK    6  A    between atoms: CB   and  CG  
REMARK    7  A    between atoms: CG   and  CD  
ROOT
ATOM     14  CA  GLU D 570     -18.033  -6.348 -13.375  1.00 32.92     0.160 C 
ENDROOT
BRANCH  14  15
ATOM     15  CB  GLU D 570     -19.500  -6.345 -13.794  1.00 32.92     0.043 C 
BRANCH  15  16
ATOM     16  CG  GLU D 570     -20.433  -5.492 -13.014  1.00 32.92     0.100 C 
BRANCH  16  17
ATOM     17  CD  GLU D 570     -21.728  -5.217 -13.741  1.00 32.92     0.185 C 
ATOM     18  OE1 GLU D 570     -22.107  -6.011 -14.624  1.00 32.92    -0.647 OA
ATOM     19  OE2 GLU D 570     -22.362  -4.187 -13.437  1.00 32.92    -0.647 OA
ENDBRANCH  16  17
ENDBRANCH  15  16
ENDBRANCH  14  15
END_RES GLU D 570
ENDMDL
MODEL 3
REMARK VINA RESULT:      -7.3      4.933     12.276
REMARK  22 active torsions:
REMARK  status: ('A' for Active; 'I' for Inactive)
REMARK    1  A    between atoms: C_2  and  C_3 
REMARK    2  A    between atoms: C_3  and  C_4 
REMARK    3  A    between atoms: C_4  and  C_5 
REMARK    4  A    between atoms: C_5  and  C_6 
REMARK    5  A    between atoms: C_6  and  C_7 
REMARK    6  A    between atoms: C_7  and  C_8 
REMARK    7  A    between atoms: C_8  and  C_9 
REMARK    8  A    between atoms: C_10  and  C_11 
REMARK    9  A    between atoms: C_11  and  C_12 
REMARK   10  A    between atoms: C_12  and  C_13 
REMARK   11  A    between atoms: C_13  and  C_14 
REMARK   12  A    between atoms: C_14  and  C_15 
REMARK   13  A    between atoms: C_15  and  C_16 
REMARK   14  A    between atoms: C_16  and  C_17 
REMARK   15  A    between atoms: C_17  and  C_18 
REMARK   16  A    between atoms: C_18  and  O_20 
REMARK   17  A    between atoms: O_20  and  C_21 
REMARK   18  A    between atoms: C_21  and  C_22 
REMARK   19  A    between atoms: C_22  and  C_23 
REMARK   20  A    between atoms: C_22  and  C_25 
REMARK   21  A    between atoms: C_25  and  C_26 
REMARK   22  A    between atoms: C_26  and  C_27 
ROOT
HETATM    1  C   UNL     1     -21.419  -6.051  -2.884  1.00  0.00     0.000 C 
ENDROOT
BRANCH   1   2
HETATM    2  C   UNL     1     -21.810  -7.002  -4.012  1.00  0.00     0.000 C 
BRANCH   2   3
HETATM    3  C   UNL     1     -21.297  -6.506  -5.360  1.00  0.00     0.004 C 
BRANCH   3   4
HETATM    4  C   UNL     1     -20.448  -5.248  -5.193  1.00  0.00     0.027 C 
BRANCH   4   5
HETATM    5  C   UNL     1     -20.366  -4.485  -6.468  1.00  0.00    -0.031 C 
HETATM    6  C   UNL     1     -21.107  -4.797  -7.536  1.00  0.00    -0.031 C 
BRANCH   6   7
HETATM    7  C   UNL     1     -21.031  -4.032  -8.811  1.00  0.00     0.027 C 
BRANCH   7   8
HETATM    8  C   UNL     1     -20.140  -4.753  -9.810  1.00  0.00     0.004 C 
BRANCH   8   9
HETATM    9  C   UNL     1     -20.548  -4.388 -11.228  1.00  0.00     0.000 C 
BRANCH   9  10
HETATM   10  C   UNL     1     -21.109  -2.977 -11.267  1.00  0.00     0.000 C 
BRANCH  10  11
HETATM   11  C   UNL     1     -22.267  -2.898 -12.249  1.00  0.00     0.000 C 
BRANCH  11  12
HETATM   12  C   UNL     1     -23.310  -3.955 -11.918  1.00  0.00    -0.000 C 
BRANCH  12  13
HETATM   13  C   UNL     1     -24.407  -3.370 -11.039  1.00  0.00    -0.005 C 
HETATM   14  C   UNL     1     -24.464  -4.093  -9.707  1.00  0.00     0.005 C 
ENDBRANCH  12  13
ENDBRANCH  11  12
ENDBRANCH  10  11
ENDBRANCH   9  10
ENDBRANCH   8   9
ENDBRANCH   7   8
ENDBRANCH   6   7
ENDBRANCH   4   5
ENDBRANCH   3   4
ENDBRANCH   2   3
ENDBRANCH   1   2
BRANCH   1  15
HETATM   15  C   UNL     1     -22.199  -6.352  -1.616  1.00  0.00     0.000 C 
BRANCH  15  16
HETATM   16  C   UNL     1     -21.847  -7.749  -1.118  1.00  0.00     0.010 C 
BRANCH  16  17
HETATM   17  C   UNL     1     -22.168  -7.933   0.357  1.00  0.00     0.111 C 
BRANCH  17  18
HETATM   18  C   UNL     1     -21.237  -8.964   0.965  1.00  0.00     0.258 C 
HETATM   19  O   UNL     1     -20.666  -8.873   2.035  1.00  0.00    -0.265 OA
BRANCH  18  20
HETATM   20  O   UNL     1     -21.033  -9.972   0.060  1.00  0.00    -0.321 OA
BRANCH  20  21
HETATM   21  C   UNL     1     -21.596 -11.215   0.480  1.00  0.00     0.183 C 
BRANCH  21  22
HETATM   22  C   UNL     1     -23.056 -11.420   0.036  1.00  0.00     0.010 C 
BRANCH  22  23
HETATM   23  C   UNL     1     -23.230 -11.256  -1.490  1.00  0.00     0.002 C 
HETATM   24  C   UNL     1     -22.843 -12.489  -2.297  1.00  0.00     0.005 C 
ENDBRANCH  22  23
BRANCH  22  25
HETATM   25  C   UNL     1     -23.581 -12.802   0.494  1.00  0.00     0.007 C 
BRANCH  25  26
HETATM   26  C   UNL     1     -22.727 -13.421   1.599  1.00  0.00     0.000 C 
BRANCH  26  27
HETATM   27  C   UNL     1     -23.566 -14.221   2.588  1.00  0.00    -0.005 C 
HETATM   28  C   UNL     1     -22.697 -15.257   3.281  1.00  0.00     0.005 C 
ENDBRANCH  26  27
ENDBRANCH  25  26
ENDBRANCH  22  25
ENDBRANCH  21  22
ENDBRANCH  20  21
ENDBRANCH  18  20
ENDBRANCH  17  18
ENDBRANCH  16  17
ENDBRANCH  15  16
ENDBRANCH   1  15
TORSDOF 22
BEGIN_RES ARG D 557
REMARK  4 active torsions:
REMARK  status: ('A' for Active; 'I' for Inactive)
REMARK    1  A    between atoms: CA   and  CB  
REMARK    2  A    between atoms: CB   and  CG  
REMARK    3  A    between atoms: CG   and  CD  
REMARK    4  A    between atoms: CD   and  NE  
REMARK       I    between atoms: NE   and  CZ  
REMARK       I    between atoms: CZ   and  NH1 
REMARK       I    between atoms: CZ   and  NH2 
ROOT
ATOM      1  CA  ARG D 557     -26.217   2.705 -17.014  1.00 35.49     0.159 C 
ENDROOT
BRANCH   1   2
ATOM      2  CB  ARG D 557     -26.789   1.319 -17.183  1.00 35.49     0.034 C 
BRANCH   2   3
ATOM      3  CG  ARG D 557     -28.231   1.227 -17.444  1.00 35.49     0.027 C 
BRANCH   3   4
ATOM      4  CD  ARG D 557     -28.917   0.309 -16.506  1.00 35.49     0.116 C 
BRANCH   4   5
ATOM      5  NE  ARG D 557     -28.135  -0.866 -16.228  1.00 35.49    -0.212 N 
ATOM      6  CZ  ARG D 557     -28.357  -2.068 -16.711  1.00 35.49     0.666 C 
ATOM      7  NH1 ARG D 557     -29.366  -2.332 -17.519  1.00 35.49    -0.235 N 
ATOM      8  NH2 ARG D 557     -27.532  -3.015 -16.368  1.00 35.49    -0.235 N 
ATOM      9  HH  ARG D 557     -29.920  -1.724 -17.759  1.00 35.49     0.174 HD
ATOM     10  HH  ARG D 557     -29.460  -3.135 -17.805  1.00 35.49     0.174 HD
ATOM     11  HH  ARG D 557     -26.884  -2.814 -15.850  1.00 35.49     0.174 HD
ATOM     12  HH  ARG D 557     -27.640  -3.803 -16.662  1.00 35.49     0.174 HD
ATOM     13  HE  ARG D 557     -27.507  -0.803 -15.658  1.00 35.49     0.178 HD
ENDBRANCH   4   5
ENDBRANCH   3   4
ENDBRANCH   2   3
ENDBRANCH   1   2
END_RES ARG D 557
BEGIN_RES GLU D 570
REMARK  3 active torsions:
REMARK  status: ('A' for Active; 'I' for Inactive)
REMARK    5  A    between atoms: CA   and  CB  
REMARK    6  A    between atoms: CB   and  CG  
REMARK    7  A    between atoms: CG   and  CD  
ROOT
ATOM     14  CA  GLU D 570     -18.033  -6.348 -13.375  1.00 32.92     0.160 C 
ENDROOT
BRANCH  14  15
ATOM     15  CB  GLU D 570     -19.500  -6.345 -13.794  1.00 32.92     0.043 C 
BRANCH  15  16
ATOM     16  CG  GLU D 570     -19.798  -6.211 -15.243  1.00 32.92     0.100 C 
BRANCH  16  17
ATOM     17  CD  GLU D 570     -21.258  -5.942 -15.523  1.00 32.92     0.185 C 
ATOM     18  OE1 GLU D 570     -21.583  -4.866 -16.062  1.00 32.92    -0.647 OA
ATOM     19  OE2 GLU D 570     -22.087  -6.809 -15.184  1.00 32.92    -0.647 OA
ENDBRANCH  16  17
ENDBRANCH  15  16
ENDBRANCH  14  15
END_RES GLU D 570
ENDMDL
MODEL 4
REMARK VINA RESULT:      -7.3      4.917     12.449
REMARK  22 active torsions:
REMARK  status: ('A' for Active; 'I' for Inactive)
REMARK    1  A    between atoms: C_2  and  C_3 
REMARK    2  A    between atoms: C_3  and  C_4 
REMARK    3  A    between atoms: C_4  and  C_5 
REMARK    4  A    between atoms: C_5  and  C_6 
REMARK    5  A    between atoms: C_6  and  C_7 
REMARK    6  A    between atoms: C_7  and  C_8 
REMARK    7  A    between atoms: C_8  and  C_9 
REMARK    8  A    between atoms: C_10  and  C_11 
REMARK    9  A    between atoms: C_11  and  C_12 
REMARK   10  A    between atoms: C_12  and  C_13 
REMARK   11  A    between atoms: C_13  and  C_14 
REMARK   12  A    between atoms: C_14  and  C_15 
REMARK   13  A    between atoms: C_15  and  C_16 
REMARK   14  A    between atoms: C_16  and  C_17 
REMARK   15  A    between atoms: C_17  and  C_18 
REMARK   16  A    between atoms: C_18  and  O_20 
REMARK   17  A    between atoms: O_20  and  C_21 
REMARK   18  A    between atoms: C_21  and  C_22 
REMARK   19  A    between atoms: C_22  and  C_23 
REMARK   20  A    between atoms: C_22  and  C_25 
REMARK   21  A    between atoms: C_25  and  C_26 
REMARK   22  A    between atoms: C_26  and  C_27 
ROOT
HETATM    1  C   UNL     1     -21.340  -8.176  -0.404  1.00  0.00     0.000 C 
ENDROOT
BRANCH   1   2
HETATM    2  C   UNL     1     -22.428  -7.127  -0.617  1.00  0.00     0.000 C 
BRANCH   2   3
HETATM    3  C   UNL     1     -22.192  -6.335  -1.899  1.00  0.00     0.004 C 
BRANCH   3   4
HETATM    4  C   UNL     1     -21.312  -7.116  -2.871  1.00  0.00     0.027 C 
BRANCH   4   5
HETATM    5  C   UNL     1     -21.077  -6.344  -4.120  1.00  0.00    -0.031 C 
HETATM    6  C   UNL     1     -21.995  -6.255  -5.089  1.00  0.00    -0.031 C 
BRANCH   6   7
HETATM    7  C   UNL     1     -21.765  -5.479  -6.338  1.00  0.00     0.027 C 
BRANCH   7   8
HETATM    8  C   UNL     1     -20.278  -5.392  -6.643  1.00  0.00     0.004 C 
BRANCH   8   9
HETATM    9  C   UNL     1     -20.009  -4.231  -7.588  1.00  0.00     0.000 C 
BRANCH   9  10
HETATM   10  C   UNL     1     -20.041  -4.708  -9.029  1.00  0.00     0.000 C 
BRANCH  10  11
HETATM   11  C   UNL     1     -21.239  -4.116  -9.753  1.00  0.00     0.000 C 
BRANCH  11  12
HETATM   12  C   UNL     1     -20.797  -3.453 -11.049  1.00  0.00    -0.000 C 
BRANCH  12  13
HETATM   13  C   UNL     1     -22.004  -2.990 -11.854  1.00  0.00    -0.005 C 
HETATM   14  C   UNL     1     -23.286  -3.249 -11.086  1.00  0.00     0.005 C 
ENDBRANCH  12  13
ENDBRANCH  11  12
ENDBRANCH  10  11
ENDBRANCH   9  10
ENDBRANCH   8   9
ENDBRANCH   7   8
ENDBRANCH   6   7
ENDBRANCH   4   5
ENDBRANCH   3   4
ENDBRANCH   2   3
ENDBRANCH   1   2
BRANCH   1  15
HETATM   15  C   UNL     1     -21.306  -8.647   1.040  1.00  0.00     0.000 C 
BRANCH  15  16
HETATM   16  C   UNL     1     -20.785 -10.078   1.100  1.00  0.00     0.010 C 
BRANCH  16  17
HETATM   17  C   UNL     1     -20.215 -10.540  -0.233  1.00  0.00     0.111 C 
BRANCH  17  18
HETATM   18  C   UNL     1     -20.259 -12.054  -0.317  1.00  0.00     0.258 C 
HETATM   19  O   UNL     1     -19.915 -12.729  -1.268  1.00  0.00    -0.265 OA
BRANCH  18  20
HETATM   20  O   UNL     1     -20.871 -12.547   0.804  1.00  0.00    -0.321 OA
BRANCH  20  21
HETATM   21  C   UNL     1     -21.597 -13.751   0.553  1.00  0.00     0.183 C 
BRANCH  21  22
HETATM   22  C   UNL     1     -23.100 -13.650   0.869  1.00  0.00     0.010 C 
BRANCH  22  23
HETATM   23  C   UNL     1     -23.410 -13.986   2.344  1.00  0.00     0.002 C 
HETATM   24  C   UNL     1     -22.323 -14.796   3.040  1.00  0.00     0.005 C 
ENDBRANCH  22  23
BRANCH  22  25
HETATM   25  C   UNL     1     -23.645 -12.247   0.508  1.00  0.00     0.007 C 
BRANCH  25  26
HETATM   26  C   UNL     1     -24.096 -12.146  -0.949  1.00  0.00     0.000 C 
BRANCH  26  27
HETATM   27  C   UNL     1     -23.560 -10.890  -1.625  1.00  0.00    -0.005 C 
HETATM   28  C   UNL     1     -22.764 -11.271  -2.862  1.00  0.00     0.005 C 
ENDBRANCH  26  27
ENDBRANCH  25  26
ENDBRANCH  22  25
ENDBRANCH  21  22
ENDBRANCH  20  21
ENDBRANCH  18  20
ENDBRANCH  17  18
ENDBRANCH  16  17
ENDBRANCH  15  16
ENDBRANCH   1  15
TORSDOF 22
BEGIN_RES ARG D 557
REMARK  4 active torsions:
REMARK  status: ('A' for Active; 'I' for Inactive)
REMARK    1  A    between atoms: CA   and  CB  
REMARK    2  A    between atoms: CB   and  CG  
REMARK    3  A    between atoms: CG   and  CD  
REMARK    4  A    between atoms: CD   and  NE  
REMARK       I    between atoms: NE   and  CZ  
REMARK       I    between atoms: CZ   and  NH1 
REMARK       I    between atoms: CZ   and  NH2 
ROOT
ATOM      1  CA  ARG D 557     -26.217   2.705 -17.014  1.00 35.49     0.159 C 
ENDROOT
BRANCH   1   2
ATOM      2  CB  ARG D 557     -26.789   1.319 -17.183  1.00 35.49     0.034 C 
BRANCH   2   3
ATOM      3  CG  ARG D 557     -28.236   1.225 -17.409  1.00 35.49     0.027 C 
BRANCH   3   4
ATOM      4  CD  ARG D 557     -28.893   0.284 -16.473  1.00 35.49     0.116 C 
BRANCH   4   5
ATOM      5  NE  ARG D 557     -29.289  -0.939 -17.121  1.00 35.49    -0.212 N 
ATOM      6  CZ  ARG D 557     -28.662  -2.091 -17.035  1.00 35.49     0.666 C 
ATOM      7  NH1 ARG D 557     -27.555  -2.245 -16.331  1.00 35.49    -0.235 N 
ATOM      8  NH2 ARG D 557     -29.175  -3.102 -17.673  1.00 35.49    -0.235 N 
ATOM      9  HH  ARG D 557     -27.201  -1.594 -15.902  1.00 35.49     0.174 HD
ATOM     10  HH  ARG D 557     -27.192  -3.021 -16.310  1.00 35.49     0.174 HD
ATOM     11  HH  ARG D 557     -29.894  -2.974 -18.114  1.00 35.49     0.174 HD
ATOM     12  HH  ARG D 557     -28.801  -3.862 -17.639  1.00 35.49     0.174 HD
ATOM     13  HE  ARG D 557     -29.951  -0.912 -17.653  1.00 35.49     0.178 HD
ENDBRANCH   4   5
ENDBRANCH   3   4
ENDBRANCH   2   3
ENDBRANCH   1   2
END_RES ARG D 557
BEGIN_RES GLU D 570
REMARK  3 active torsions:
REMARK  status: ('A' for Active; 'I' for Inactive)
REMARK    5  A    between atoms: CA   and  CB  
REMARK    6  A    between atoms: CB   and  CG  
REMARK    7  A    between atoms: CG   and  CD  
ROOT
ATOM     14  CA  GLU D 570     -18.033  -6.348 -13.375  1.00 32.92     0.160 C 
ENDROOT
BRANCH  14  15
ATOM     15  CB  GLU D 570     -19.500  -6.345 -13.794  1.00 32.92     0.043 C 
BRANCH  15  16
ATOM     16  CG  GLU D 570     -19.799  -6.168 -15.239  1.00 32.92     0.100 C 
BRANCH  16  17
ATOM     17  CD  GLU D 570     -21.099  -5.439 -15.486  1.00 32.92     0.185 C 
ATOM     18  OE1 GLU D 570     -21.423  -5.160 -16.656  1.00 32.92    -0.647 OA
ATOM     19  OE2 GLU D 570     -21.793  -5.128 -14.498  1.00 32.92    -0.647 OA
ENDBRANCH  16  17
ENDBRANCH  15  16
ENDBRANCH  14  15
END_RES GLU D 570
ENDMDL
MODEL 5
REMARK VINA RESULT:      -7.2      2.627      6.682
REMARK  22 active torsions:
REMARK  status: ('A' for Active; 'I' for Inactive)
REMARK    1  A    between atoms: C_2  and  C_3 
REMARK    2  A    between atoms: C_3  and  C_4 
REMARK    3  A    between atoms: C_4  and  C_5 
REMARK    4  A    between atoms: C_5  and  C_6 
REMARK    5  A    between atoms: C_6  and  C_7 
REMARK    6  A    between atoms: C_7  and  C_8 
REMARK    7  A    between atoms: C_8  and  C_9 
REMARK    8  A    between atoms: C_10  and  C_11 
REMARK    9  A    between atoms: C_11  and  C_12 
REMARK   10  A    between atoms: C_12  and  C_13 
REMARK   11  A    between atoms: C_13  and  C_14 
REMARK   12  A    between atoms: C_14  and  C_15 
REMARK   13  A    between atoms: C_15  and  C_16 
REMARK   14  A    between atoms: C_16  and  C_17 
REMARK   15  A    between atoms: C_17  and  C_18 
REMARK   16  A    between atoms: C_18  and  O_20 
REMARK   17  A    between atoms: O_20  and  C_21 
REMARK   18  A    between atoms: C_21  and  C_22 
REMARK   19  A    between atoms: C_22  and  C_23 
REMARK   20  A    between atoms: C_22  and  C_25 
REMARK   21  A    between atoms: C_25  and  C_26 
REMARK   22  A    between atoms: C_26  and  C_27 
ROOT
HETATM    1  C   UNL     1     -21.128  -5.856  -7.067  1.00  0.00     0.000 C 
ENDROOT
BRANCH   1   2
HETATM    2  C   UNL     1     -20.577  -6.277  -5.707  1.00  0.00     0.000 C 
BRANCH   2   3
HETATM    3  C   UNL     1     -21.693  -6.434  -4.679  1.00  0.00     0.004 C 
BRANCH   3   4
HETATM    4  C   UNL     1     -21.188  -6.120  -3.273  1.00  0.00     0.027 C 
BRANCH   4   5
HETATM    5  C   UNL     1     -22.234  -6.404  -2.253  1.00  0.00    -0.031 C 
HETATM    6  C   UNL     1     -21.979  -7.111  -1.147  1.00  0.00    -0.031 C 
BRANCH   6   7
HETATM    7  C   UNL     1     -23.022  -7.393  -0.123  1.00  0.00     0.027 C 
BRANCH   7   8
HETATM    8  C   UNL     1     -22.481  -8.336   0.940  1.00  0.00     0.004 C 
BRANCH   8   9
HETATM    9  C   UNL     1     -21.037  -8.696   0.627  1.00  0.00     0.000 C 
BRANCH   9  10
HETATM   10  C   UNL     1     -20.767 -10.147   0.985  1.00  0.00     0.000 C 
BRANCH  10  11
HETATM   11  C   UNL     1     -20.954 -11.033  -0.236  1.00  0.00     0.000 C 
BRANCH  11  12
HETATM   12  C   UNL     1     -20.426 -10.334  -1.480  1.00  0.00    -0.000 C 
BRANCH  12  13
HETATM   13  C   UNL     1     -21.006 -10.967  -2.738  1.00  0.00    -0.005 C 
HETATM   14  C   UNL     1     -21.896  -9.979  -3.468  1.00  0.00     0.005 C 
ENDBRANCH  12  13
ENDBRANCH  11  12
ENDBRANCH  10  11
ENDBRANCH   9  10
ENDBRANCH   8   9
ENDBRANCH   7   8
ENDBRANCH   6   7
ENDBRANCH   4   5
ENDBRANCH   3   4
ENDBRANCH   2   3
ENDBRANCH   1   2
BRANCH   1  15
HETATM   15  C   UNL     1     -21.731  -4.463  -7.008  1.00  0.00     0.000 C 
BRANCH  15  16
HETATM   16  C   UNL     1     -23.095  -4.466  -7.688  1.00  0.00     0.010 C 
BRANCH  16  17
HETATM   17  C   UNL     1     -23.204  -3.399  -8.766  1.00  0.00     0.111 C 
BRANCH  17  18
HETATM   18  C   UNL     1     -24.257  -3.795  -9.783  1.00  0.00     0.258 C 
HETATM   19  O   UNL     1     -24.950  -4.794  -9.745  1.00  0.00    -0.265 OA
BRANCH  18  20
HETATM   20  O   UNL     1     -24.223  -2.913 -10.830  1.00  0.00    -0.321 OA
BRANCH  20  21
HETATM   21  C   UNL     1     -24.588  -3.516 -12.073  1.00  0.00     0.183 C 
BRANCH  21  22
HETATM   22  C   UNL     1     -23.399  -3.764 -13.019  1.00  0.00     0.010 C 
BRANCH  22  23
HETATM   23  C   UNL     1     -23.113  -2.547 -13.926  1.00  0.00     0.002 C 
HETATM   24  C   UNL     1     -24.360  -1.910 -14.526  1.00  0.00     0.005 C 
ENDBRANCH  22  23
BRANCH  22  25
HETATM   25  C   UNL     1     -22.132  -4.153 -12.220  1.00  0.00     0.007 C 
BRANCH  25  26
HETATM   26  C   UNL     1     -21.296  -2.941 -11.812  1.00  0.00     0.000 C 
BRANCH  26  27
HETATM   27  C   UNL     1     -20.150  -3.326 -10.885  1.00  0.00    -0.005 C 
HETATM   28  C   UNL     1     -20.258  -4.796 -10.514  1.00  0.00     0.005 C 
ENDBRANCH  26  27
ENDBRANCH  25  26
ENDBRANCH  22  25
ENDBRANCH  21  22
ENDBRANCH  20  21
ENDBRANCH  18  20
ENDBRANCH  17  18
ENDBRANCH  16  17
ENDBRANCH  15  16
ENDBRANCH   1  15
TORSDOF 22
BEGIN_RES ARG D 557
REMARK  4 active torsions:
REMARK  status: ('A' for Active; 'I' for Inactive)
REMARK    1  A    between atoms: CA   and  CB  
REMARK    2  A    between atoms: CB   and  CG  
REMARK    3  A    between atoms: CG   and  CD  
REMARK    4  A    between atoms: CD   and  NE  
REMARK       I    between atoms: NE   and  CZ  
REMARK       I    between atoms: CZ   and  NH1 
REMARK       I    between atoms: CZ   and  NH2 
ROOT
ATOM      1  CA  ARG D 557     -26.217   2.705 -17.014  1.00 35.49     0.159 C 
ENDROOT
BRANCH   1   2
ATOM      2  CB  ARG D 557     -26.789   1.319 -17.183  1.00 35.49     0.034 C 
BRANCH   2   3
ATOM      3  CG  ARG D 557     -28.241   1.222 -17.373  1.00 35.49     0.027 C 
BRANCH   3   4
ATOM      4  CD  ARG D 557     -28.869   0.253 -16.446  1.00 35.49     0.116 C 
BRANCH   4   5
ATOM      5  NE  ARG D 557     -29.270  -0.956 -17.116  1.00 35.49    -0.212 N 
ATOM      6  CZ  ARG D 557     -28.658  -2.116 -17.039  1.00 35.49     0.666 C 
ATOM      7  NH1 ARG D 557     -27.563  -2.294 -16.323  1.00 35.49    -0.235 N 
ATOM      8  NH2 ARG D 557     -29.175  -3.113 -17.697  1.00 35.49    -0.235 N 
ATOM      9  HH  ARG D 557     -27.206  -1.653 -15.881  1.00 35.49     0.174 HD
ATOM     10  HH  ARG D 557     -27.208  -3.074 -16.309  1.00 35.49     0.174 HD
ATOM     11  HH  ARG D 557     -29.887  -2.970 -18.144  1.00 35.49     0.174 HD
ATOM     12  HH  ARG D 557     -28.811  -3.878 -17.668  1.00 35.49     0.174 HD
ATOM     13  HE  ARG D 557     -29.926  -0.914 -17.656  1.00 35.49     0.178 HD
ENDBRANCH   4   5
ENDBRANCH   3   4
ENDBRANCH   2   3
ENDBRANCH   1   2
END_RES ARG D 557
BEGIN_RES GLU D 570
REMARK  3 active torsions:
REMARK  status: ('A' for Active; 'I' for Inactive)
REMARK    5  A    between atoms: CA   and  CB  
REMARK    6  A    between atoms: CB   and  CG  
REMARK    7  A    between atoms: CG   and  CD  
ROOT
ATOM     14  CA  GLU D 570     -18.033  -6.348 -13.375  1.00 32.92     0.160 C 
ENDROOT
BRANCH  14  15
ATOM     15  CB  GLU D 570     -19.500  -6.345 -13.794  1.00 32.92     0.043 C 
BRANCH  15  16
ATOM     16  CG  GLU D 570     -19.812  -5.950 -15.192  1.00 32.92     0.100 C 
BRANCH  16  17
ATOM     17  CD  GLU D 570     -21.292  -5.771 -15.438  1.00 32.92     0.185 C 
ATOM     18  OE1 GLU D 570     -21.676  -4.843 -16.174  1.00 32.92    -0.647 OA
ATOM     19  OE2 GLU D 570     -22.077  -6.559 -14.874  1.00 32.92    -0.647 OA
ENDBRANCH  16  17
ENDBRANCH  15  16
ENDBRANCH  14  15
END_RES GLU D 570
ENDMDL
MODEL 6
REMARK VINA RESULT:      -7.2      1.345      2.094
REMARK  22 active torsions:
REMARK  status: ('A' for Active; 'I' for Inactive)
REMARK    1  A    between atoms: C_2  and  C_3 
REMARK    2  A    between atoms: C_3  and  C_4 
REMARK    3  A    between atoms: C_4  and  C_5 
REMARK    4  A    between atoms: C_5  and  C_6 
REMARK    5  A    between atoms: C_6  and  C_7 
REMARK    6  A    between atoms: C_7  and  C_8 
REMARK    7  A    between atoms: C_8  and  C_9 
REMARK    8  A    between atoms: C_10  and  C_11 
REMARK    9  A    between atoms: C_11  and  C_12 
REMARK   10  A    between atoms: C_12  and  C_13 
REMARK   11  A    between atoms: C_13  and  C_14 
REMARK   12  A    between atoms: C_14  and  C_15 
REMARK   13  A    between atoms: C_15  and  C_16 
REMARK   14  A    between atoms: C_16  and  C_17 
REMARK   15  A    between atoms: C_17  and  C_18 
REMARK   16  A    between atoms: C_18  and  O_20 
REMARK   17  A    between atoms: O_20  and  C_21 
REMARK   18  A    between atoms: C_21  and  C_22 
REMARK   19  A    between atoms: C_22  and  C_23 
REMARK   20  A    between atoms: C_22  and  C_25 
REMARK   21  A    between atoms: C_25  and  C_26 
REMARK   22  A    between atoms: C_26  and  C_27 
ROOT
HETATM    1  C   UNL     1     -22.773  -4.410 -11.773  1.00  0.00     0.000 C 
ENDROOT
BRANCH   1   2
HETATM    2  C   UNL     1     -21.475  -4.065 -11.048  1.00  0.00     0.000 C 
BRANCH   2   3
HETATM    3  C   UNL     1     -21.576  -4.360  -9.556  1.00  0.00     0.004 C 
BRANCH   3   4
HETATM    4  C   UNL     1     -20.219  -4.205  -8.874  1.00  0.00     0.027 C 
BRANCH   4   5
HETATM    5  C   UNL     1     -20.175  -4.958  -7.592  1.00  0.00    -0.031 C 
HETATM    6  C   UNL     1     -20.574  -4.421  -6.434  1.00  0.00    -0.031 C 
BRANCH   6   7
HETATM    7  C   UNL     1     -20.536  -5.173  -5.150  1.00  0.00     0.027 C 
BRANCH   7   8
HETATM    8  C   UNL     1     -21.593  -6.265  -5.142  1.00  0.00     0.004 C 
BRANCH   8   9
HETATM    9  C   UNL     1     -21.527  -7.043  -3.837  1.00  0.00     0.000 C 
BRANCH   9  10
HETATM   10  C   UNL     1     -21.584  -6.091  -2.655  1.00  0.00     0.000 C 
BRANCH  10  11
HETATM   11  C   UNL     1     -22.155  -6.799  -1.437  1.00  0.00     0.000 C 
BRANCH  11  12
HETATM   12  C   UNL     1     -21.183  -7.858  -0.939  1.00  0.00    -0.000 C 
BRANCH  12  13
HETATM   13  C   UNL     1     -21.784  -8.633   0.227  1.00  0.00    -0.005 C 
HETATM   14  C   UNL     1     -23.128  -8.047   0.617  1.00  0.00     0.005 C 
ENDBRANCH  12  13
ENDBRANCH  11  12
ENDBRANCH  10  11
ENDBRANCH   9  10
ENDBRANCH   8   9
ENDBRANCH   7   8
ENDBRANCH   6   7
ENDBRANCH   4   5
ENDBRANCH   3   4
ENDBRANCH   2   3
ENDBRANCH   1   2
BRANCH   1  15
HETATM   15  C   UNL     1     -22.497  -4.986 -13.151  1.00  0.00     0.000 C 
BRANCH  15  16
HETATM   16  C   UNL     1     -23.684  -5.830 -13.601  1.00  0.00     0.010 C 
BRANCH  16  17
HETATM   17  C   UNL     1     -24.053  -5.577 -15.055  1.00  0.00     0.111 C 
BRANCH  17  18
HETATM   18  C   UNL     1     -24.656  -6.830 -15.661  1.00  0.00     0.258 C 
HETATM   19  O   UNL     1     -24.111  -7.913 -15.759  1.00  0.00    -0.265 OA
BRANCH  18  20
HETATM   20  O   UNL     1     -25.875  -6.522 -16.204  1.00  0.00    -0.321 OA
BRANCH  20  21
HETATM   21  C   UNL     1     -25.854  -6.498 -17.632  1.00  0.00     0.183 C 
BRANCH  21  22
HETATM   22  C   UNL     1     -27.116  -5.883 -18.264  1.00  0.00     0.010 C 
BRANCH  22  23
HETATM   23  C   UNL     1     -27.342  -6.373 -19.711  1.00  0.00     0.002 C 
HETATM   24  C   UNL     1     -26.091  -6.927 -20.383  1.00  0.00     0.005 C 
ENDBRANCH  22  23
BRANCH  22  25
HETATM   25  C   UNL     1     -28.364  -6.173 -17.394  1.00  0.00     0.007 C 
BRANCH  25  26
HETATM   26  C   UNL     1     -29.440  -5.097 -17.530  1.00  0.00     0.000 C 
BRANCH  26  27
HETATM   27  C   UNL     1     -30.770  -5.543 -16.935  1.00  0.00    -0.005 C 
HETATM   28  C   UNL     1     -31.130  -6.924 -17.457  1.00  0.00     0.005 C 
ENDBRANCH  26  27
ENDBRANCH  25  26
ENDBRANCH  22  25
ENDBRANCH  21  22
ENDBRANCH  20  21
ENDBRANCH  18  20
ENDBRANCH  17  18
ENDBRANCH  16  17
ENDBRANCH  15  16
ENDBRANCH   1  15
TORSDOF 22
BEGIN_RES ARG D 557
REMARK  4 active torsions:
REMARK  status: ('A' for Active; 'I' for Inactive)
REMARK    1  A    between atoms: CA   and  CB  
REMARK    2  A    between atoms: CB   and  CG  
REMARK    3  A    between atoms: CG   and  CD  
REMARK    4  A    between atoms: CD   and  NE  
REMARK       I    between atoms: NE   and  CZ  
REMARK       I    between atoms: CZ   and  NH1 
REMARK       I    between atoms: CZ   and  NH2 
ROOT
ATOM      1  CA  ARG D 557     -26.217   2.705 -17.014  1.00 35.49     0.159 C 
ENDROOT
BRANCH   1   2
ATOM      2  CB  ARG D 557     -26.789   1.319 -17.183  1.00 35.49     0.034 C 
BRANCH   2   3
ATOM      3  CG  ARG D 557     -25.832   0.206 -17.191  1.00 35.49     0.027 C 
BRANCH   3   4
ATOM      4  CD  ARG D 557     -24.741   0.392 -16.207  1.00 35.49     0.116 C 
BRANCH   4   5
ATOM      5  NE  ARG D 557     -24.914  -0.435 -15.042  1.00 35.49    -0.212 N 
ATOM      6  CZ  ARG D 557     -24.119  -1.413 -14.670  1.00 35.49     0.666 C 
ATOM      7  NH1 ARG D 557     -23.049  -1.759 -15.361  1.00 35.49    -0.235 N 
ATOM      8  NH2 ARG D 557     -24.418  -2.045 -13.572  1.00 35.49    -0.235 N 
ATOM      9  HH  ARG D 557     -22.832  -1.356 -16.086  1.00 35.49     0.174 HD
ATOM     10  HH  ARG D 557     -22.566  -2.404 -15.069  1.00 35.49     0.174 HD
ATOM     11  HH  ARG D 557     -25.111  -1.795 -13.143  1.00 35.49     0.174 HD
ATOM     12  HH  ARG D 557     -23.927  -2.680 -13.298  1.00 35.49     0.174 HD
ATOM     13  HE  ARG D 557     -25.619  -0.329 -14.578  1.00 35.49     0.178 HD
ENDBRANCH   4   5
ENDBRANCH   3   4
ENDBRANCH   2   3
ENDBRANCH   1   2
END_RES ARG D 557
BEGIN_RES GLU D 570
REMARK  3 active torsions:
REMARK  status: ('A' for Active; 'I' for Inactive)
REMARK    5  A    between atoms: CA   and  CB  
REMARK    6  A    between atoms: CB   and  CG  
REMARK    7  A    between atoms: CG   and  CD  
ROOT
ATOM     14  CA  GLU D 570     -18.033  -6.348 -13.375  1.00 32.92     0.160 C 
ENDROOT
BRANCH  14  15
ATOM     15  CB  GLU D 570     -19.500  -6.345 -13.794  1.00 32.92     0.043 C 
BRANCH  15  16
ATOM     16  CG  GLU D 570     -19.802  -6.091 -15.226  1.00 32.92     0.100 C 
BRANCH  16  17
ATOM     17  CD  GLU D 570     -20.657  -7.171 -15.849  1.00 32.92     0.185 C 
ATOM     18  OE1 GLU D 570     -21.247  -6.934 -16.920  1.00 32.92    -0.647 OA
ATOM     19  OE2 GLU D 570     -20.751  -8.260 -15.249  1.00 32.92    -0.647 OA
ENDBRANCH  16  17
ENDBRANCH  15  16
ENDBRANCH  14  15
END_RES GLU D 570
ENDMDL
MODEL 7
REMARK VINA RESULT:      -7.2      4.329     11.504
REMARK  22 active torsions:
REMARK  status: ('A' for Active; 'I' for Inactive)
REMARK    1  A    between atoms: C_2  and  C_3 
REMARK    2  A    between atoms: C_3  and  C_4 
REMARK    3  A    between atoms: C_4  and  C_5 
REMARK    4  A    between atoms: C_5  and  C_6 
REMARK    5  A    between atoms: C_6  and  C_7 
REMARK    6  A    between atoms: C_7  and  C_8 
REMARK    7  A    between atoms: C_8  and  C_9 
REMARK    8  A    between atoms: C_10  and  C_11 
REMARK    9  A    between atoms: C_11  and  C_12 
REMARK   10  A    between atoms: C_12  and  C_13 
REMARK   11  A    between atoms: C_13  and  C_14 
REMARK   12  A    between atoms: C_14  and  C_15 
REMARK   13  A    between atoms: C_15  and  C_16 
REMARK   14  A    between atoms: C_16  and  C_17 
REMARK   15  A    between atoms: C_17  and  C_18 
REMARK   16  A    between atoms: C_18  and  O_20 
REMARK   17  A    between atoms: O_20  and  C_21 
REMARK   18  A    between atoms: C_21  and  C_22 
REMARK   19  A    between atoms: C_22  and  C_23 
REMARK   20  A    between atoms: C_22  and  C_25 
REMARK   21  A    between atoms: C_25  and  C_26 
REMARK   22  A    between atoms: C_26  and  C_27 
ROOT
HETATM    1  C   UNL     1     -21.398  -6.122  -3.081  1.00  0.00     0.000 C 
ENDROOT
BRANCH   1   2
HETATM    2  C   UNL     1     -21.945  -6.840  -4.311  1.00  0.00     0.000 C 
BRANCH   2   3
HETATM    3  C   UNL     1     -21.093  -6.560  -5.544  1.00  0.00     0.004 C 
BRANCH   3   4
HETATM    4  C   UNL     1     -20.426  -5.190  -5.448  1.00  0.00     0.027 C 
BRANCH   4   5
HETATM    5  C   UNL     1     -20.763  -4.347  -6.627  1.00  0.00    -0.031 C 
HETATM    6  C   UNL     1     -21.060  -4.874  -7.820  1.00  0.00    -0.031 C 
BRANCH   6   7
HETATM    7  C   UNL     1     -21.403  -4.033  -9.000  1.00  0.00     0.027 C 
BRANCH   7   8
HETATM    8  C   UNL     1     -20.499  -4.373 -10.174  1.00  0.00     0.004 C 
BRANCH   8   9
HETATM    9  C   UNL     1     -21.273  -4.255 -11.477  1.00  0.00     0.000 C 
BRANCH   9  10
HETATM   10  C   UNL     1     -21.841  -2.854 -11.626  1.00  0.00     0.000 C 
BRANCH  10  11
HETATM   11  C   UNL     1     -23.309  -2.920 -12.015  1.00  0.00     0.000 C 
BRANCH  11  12
HETATM   12  C   UNL     1     -23.465  -2.732 -13.516  1.00  0.00    -0.000 C 
BRANCH  12  13
HETATM   13  C   UNL     1     -24.933  -2.567 -13.887  1.00  0.00    -0.005 C 
HETATM   14  C   UNL     1     -25.107  -1.431 -14.877  1.00  0.00     0.005 C 
ENDBRANCH  12  13
ENDBRANCH  11  12
ENDBRANCH  10  11
ENDBRANCH   9  10
ENDBRANCH   8   9
ENDBRANCH   7   8
ENDBRANCH   6   7
ENDBRANCH   4   5
ENDBRANCH   3   4
ENDBRANCH   2   3
ENDBRANCH   1   2
BRANCH   1  15
HETATM   15  C   UNL     1     -22.308  -6.316  -1.880  1.00  0.00     0.000 C 
BRANCH  15  16
HETATM   16  C   UNL     1     -21.729  -7.391  -0.968  1.00  0.00     0.010 C 
BRANCH  16  17
HETATM   17  C   UNL     1     -22.755  -7.917   0.025  1.00  0.00     0.111 C 
BRANCH  17  18
HETATM   18  C   UNL     1     -22.857  -9.426  -0.086  1.00  0.00     0.258 C 
HETATM   19  O   UNL     1     -23.880 -10.082  -0.034  1.00  0.00    -0.265 OA
BRANCH  18  20
HETATM   20  O   UNL     1     -21.595  -9.958  -0.130  1.00  0.00    -0.321 OA
BRANCH  20  21
HETATM   21  C   UNL     1     -21.509 -11.106  -0.976  1.00  0.00     0.183 C 
BRANCH  21  22
HETATM   22  C   UNL     1     -20.707 -10.868  -2.269  1.00  0.00     0.010 C 
BRANCH  22  23
HETATM   23  C   UNL     1     -21.582 -10.285  -3.400  1.00  0.00     0.002 C 
HETATM   24  C   UNL     1     -22.045 -11.315  -4.423  1.00  0.00     0.005 C 
ENDBRANCH  22  23
BRANCH  22  25
HETATM   25  C   UNL     1     -19.489  -9.952  -2.000  1.00  0.00     0.007 C 
BRANCH  25  26
HETATM   26  C   UNL     1     -19.118  -9.093  -3.207  1.00  0.00     0.000 C 
BRANCH  26  27
HETATM   27  C   UNL     1     -17.934  -9.669  -3.974  1.00  0.00    -0.005 C 
HETATM   28  C   UNL     1     -16.677  -9.577  -3.126  1.00  0.00     0.005 C 
ENDBRANCH  26  27
ENDBRANCH  25  26
ENDBRANCH  22  25
ENDBRANCH  21  22
ENDBRANCH  20  21
ENDBRANCH  18  20
ENDBRANCH  17  18
ENDBRANCH  16  17
ENDBRANCH  15  16
ENDBRANCH   1  15
TORSDOF 22
BEGIN_RES ARG D 557
REMARK  4 active torsions:
REMARK  status: ('A' for Active; 'I' for Inactive)
REMARK    1  A    between atoms: CA   and  CB  
REMARK    2  A    between atoms: CB   and  CG  
REMARK    3  A    between atoms: CG   and  CD  
REMARK    4  A    between atoms: CD   and  NE  
REMARK       I    between atoms: NE   and  CZ  
REMARK       I    between atoms: CZ   and  NH1 
REMARK       I    between atoms: CZ   and  NH2 
ROOT
ATOM      1  CA  ARG D 557     -26.217   2.705 -17.014  1.00 35.49     0.159 C 
ENDROOT
BRANCH   1   2
ATOM      2  CB  ARG D 557     -26.789   1.319 -17.183  1.00 35.49     0.034 C 
BRANCH   2   3
ATOM      3  CG  ARG D 557     -28.131   1.225 -17.771  1.00 35.49     0.027 C 
BRANCH   3   4
ATOM      4  CD  ARG D 557     -28.975   0.215 -17.093  1.00 35.49     0.116 C 
BRANCH   4   5
ATOM      5  NE  ARG D 557     -28.233  -0.971 -16.753  1.00 35.49    -0.212 N 
ATOM      6  CZ  ARG D 557     -28.618  -2.208 -16.977  1.00 35.49     0.666 C 
ATOM      7  NH1 ARG D 557     -29.774  -2.499 -17.544  1.00 35.49    -0.235 N 
ATOM      8  NH2 ARG D 557     -27.808  -3.162 -16.622  1.00 35.49    -0.235 N 
ATOM      9  HH  ARG D 557     -30.322  -1.887 -17.788  1.00 35.49     0.174 HD
ATOM     10  HH  ARG D 557     -29.971  -3.324 -17.668  1.00 35.49     0.174 HD
ATOM     11  HH  ARG D 557     -27.065  -2.944 -16.265  1.00 35.49     0.174 HD
ATOM     12  HH  ARG D 557     -28.020  -3.973 -16.754  1.00 35.49     0.174 HD
ATOM     13  HE  ARG D 557     -27.509  -0.879 -16.319  1.00 35.49     0.178 HD
ENDBRANCH   4   5
ENDBRANCH   3   4
ENDBRANCH   2   3
ENDBRANCH   1   2
END_RES ARG D 557
BEGIN_RES GLU D 570
REMARK  3 active torsions:
REMARK  status: ('A' for Active; 'I' for Inactive)
REMARK    5  A    between atoms: CA   and  CB  
REMARK    6  A    between atoms: CB   and  CG  
REMARK    7  A    between atoms: CG   and  CD  
ROOT
ATOM     14  CA  GLU D 570     -18.033  -6.348 -13.375  1.00 32.92     0.160 C 
ENDROOT
BRANCH  14  15
ATOM     15  CB  GLU D 570     -19.500  -6.345 -13.794  1.00 32.92     0.043 C 
BRANCH  15  16
ATOM     16  CG  GLU D 570     -19.812  -5.943 -15.190  1.00 32.92     0.100 C 
BRANCH  16  17
ATOM     17  CD  GLU D 570     -21.278  -5.640 -15.402  1.00 32.92     0.185 C 
ATOM     18  OE1 GLU D 570     -22.090  -5.916 -14.498  1.00 32.92    -0.647 OA
ATOM     19  OE2 GLU D 570     -21.619  -5.137 -16.491  1.00 32.92    -0.647 OA
ENDBRANCH  16  17
ENDBRANCH  15  16
ENDBRANCH  14  15
END_RES GLU D 570
ENDMDL
MODEL 8
REMARK VINA RESULT:      -7.2      3.300      8.491
REMARK  22 active torsions:
REMARK  status: ('A' for Active; 'I' for Inactive)
REMARK    1  A    between atoms: C_2  and  C_3 
REMARK    2  A    between atoms: C_3  and  C_4 
REMARK    3  A    between atoms: C_4  and  C_5 
REMARK    4  A    between atoms: C_5  and  C_6 
REMARK    5  A    between atoms: C_6  and  C_7 
REMARK    6  A    between atoms: C_7  and  C_8 
REMARK    7  A    between atoms: C_8  and  C_9 
REMARK    8  A    between atoms: C_10  and  C_11 
REMARK    9  A    between atoms: C_11  and  C_12 
REMARK   10  A    between atoms: C_12  and  C_13 
REMARK   11  A    between atoms: C_13  and  C_14 
REMARK   12  A    between atoms: C_14  and  C_15 
REMARK   13  A    between atoms: C_15  and  C_16 
REMARK   14  A    between atoms: C_16  and  C_17 
REMARK   15  A    between atoms: C_17  and  C_18 
REMARK   16  A    between atoms: C_18  and  O_20 
REMARK   17  A    between atoms: O_20  and  C_21 
REMARK   18  A    between atoms: C_21  and  C_22 
REMARK   19  A    between atoms: C_22  and  C_23 
REMARK   20  A    between atoms: C_22  and  C_25 
REMARK   21  A    between atoms: C_25  and  C_26 
REMARK   22  A    between atoms: C_26  and  C_27 
ROOT
HETATM    1  C   UNL     1     -21.656  -7.275  -2.058  1.00  0.00     0.000 C 
ENDROOT
BRANCH   1   2
HETATM    2  C   UNL     1     -22.336  -6.716  -0.811  1.00  0.00     0.000 C 
BRANCH   2   3
HETATM    3  C   UNL     1     -22.698  -7.826   0.170  1.00  0.00     0.004 C 
BRANCH   3   4
HETATM    4  C   UNL     1     -21.496  -8.728   0.443  1.00  0.00     0.027 C 
BRANCH   4   5
HETATM    5  C   UNL     1     -21.859 -10.163   0.296  1.00  0.00    -0.031 C 
HETATM    6  C   UNL     1     -23.017 -10.555  -0.247  1.00  0.00    -0.031 C 
BRANCH   6   7
HETATM    7  C   UNL     1     -23.381 -11.990  -0.400  1.00  0.00     0.027 C 
BRANCH   7   8
HETATM    8  C   UNL     1     -23.291 -12.408  -1.858  1.00  0.00     0.004 C 
BRANCH   8   9
HETATM    9  C   UNL     1     -22.965 -11.202  -2.725  1.00  0.00     0.000 C 
BRANCH   9  10
HETATM   10  C   UNL     1     -22.077 -11.614  -3.887  1.00  0.00     0.000 C 
BRANCH  10  11
HETATM   11  C   UNL     1     -21.107 -10.494  -4.230  1.00  0.00     0.000 C 
BRANCH  11  12
HETATM   12  C   UNL     1     -20.112 -10.295  -3.097  1.00  0.00    -0.000 C 
BRANCH  12  13
HETATM   13  C   UNL     1     -18.989  -9.360  -3.527  1.00  0.00    -0.005 C 
HETATM   14  C   UNL     1     -17.710  -9.687  -2.780  1.00  0.00     0.005 C 
ENDBRANCH  12  13
ENDBRANCH  11  12
ENDBRANCH  10  11
ENDBRANCH   9  10
ENDBRANCH   8   9
ENDBRANCH   7   8
ENDBRANCH   6   7
ENDBRANCH   4   5
ENDBRANCH   3   4
ENDBRANCH   2   3
ENDBRANCH   1   2
BRANCH   1  15
HETATM   15  C   UNL     1     -21.597  -6.236  -3.165  1.00  0.00     0.000 C 
BRANCH  15  16
HETATM   16  C   UNL     1     -21.641  -6.930  -4.521  1.00  0.00     0.010 C 
BRANCH  16  17
HETATM   17  C   UNL     1     -21.919  -5.957  -5.657  1.00  0.00     0.111 C 
BRANCH  17  18
HETATM   18  C   UNL     1     -20.614  -5.509  -6.287  1.00  0.00     0.258 C 
HETATM   19  O   UNL     1     -19.810  -4.737  -5.800  1.00  0.00    -0.265 OA
BRANCH  18  20
HETATM   20  O   UNL     1     -20.534  -6.013  -7.558  1.00  0.00    -0.321 OA
BRANCH  20  21
HETATM   21  C   UNL     1     -20.095  -5.043  -8.510  1.00  0.00     0.183 C 
BRANCH  21  22
HETATM   22  C   UNL     1     -21.186  -4.605  -9.503  1.00  0.00     0.010 C 
BRANCH  22  23
HETATM   23  C   UNL     1     -22.172  -3.594  -8.877  1.00  0.00     0.002 C 
HETATM   24  C   UNL     1     -23.580  -4.142  -8.673  1.00  0.00     0.005 C 
ENDBRANCH  22  23
BRANCH  22  25
HETATM   25  C   UNL     1     -20.556  -4.020 -10.790  1.00  0.00     0.007 C 
BRANCH  25  26
HETATM   26  C   UNL     1     -21.465  -3.008 -11.485  1.00  0.00     0.000 C 
BRANCH  26  27
HETATM   27  C   UNL     1     -22.446  -3.681 -12.436  1.00  0.00    -0.005 C 
HETATM   28  C   UNL     1     -23.806  -3.012 -12.333  1.00  0.00     0.005 C 
ENDBRANCH  26  27
ENDBRANCH  25  26
ENDBRANCH  22  25
ENDBRANCH  21  22
ENDBRANCH  20  21
ENDBRANCH  18  20
ENDBRANCH  17  18
ENDBRANCH  16  17
ENDBRANCH  15  16
ENDBRANCH   1  15
TORSDOF 22
BEGIN_RES ARG D 557
REMARK  4 active torsions:
REMARK  status: ('A' for Active; 'I' for Inactive)
REMARK    1  A    between atoms: CA   and  CB  
REMARK    2  A    between atoms: CB   and  CG  
REMARK    3  A    between atoms: CG   and  CD  
REMARK    4  A    between atoms: CD   and  NE  
REMARK       I    between atoms: NE   and  CZ  
REMARK       I    between atoms: CZ   and  NH1 
REMARK       I    between atoms: CZ   and  NH2 
ROOT
ATOM      1  CA  ARG D 557     -26.217   2.705 -17.014  1.00 35.49     0.159 C 
ENDROOT
BRANCH   1   2
ATOM      2  CB  ARG D 557     -26.789   1.319 -17.183  1.00 35.49     0.034 C 
BRANCH   2   3
ATOM      3  CG  ARG D 557     -28.238   1.224 -17.396  1.00 35.49     0.027 C 
BRANCH   3   4
ATOM      4  CD  ARG D 557     -28.886   0.278 -16.458  1.00 35.49     0.116 C 
BRANCH   4   5
ATOM      5  NE  ARG D 557     -29.282  -0.943 -17.108  1.00 35.49    -0.212 N 
ATOM      6  CZ  ARG D 557     -28.651  -2.094 -17.032  1.00 35.49     0.666 C 
ATOM      7  NH1 ARG D 557     -27.539  -2.248 -16.338  1.00 35.49    -0.235 N 
ATOM      8  NH2 ARG D 557     -29.166  -3.104 -17.670  1.00 35.49    -0.235 N 
ATOM      9  HH  ARG D 557     -27.183  -1.597 -15.909  1.00 35.49     0.174 HD
ATOM     10  HH  ARG D 557     -27.172  -3.022 -16.323  1.00 35.49     0.174 HD
ATOM     11  HH  ARG D 557     -29.889  -2.977 -18.104  1.00 35.49     0.174 HD
ATOM     12  HH  ARG D 557     -28.790  -3.863 -17.641  1.00 35.49     0.174 HD
ATOM     13  HE  ARG D 557     -29.949  -0.917 -17.635  1.00 35.49     0.178 HD
ENDBRANCH   4   5
ENDBRANCH   3   4
ENDBRANCH   2   3
ENDBRANCH   1   2
END_RES ARG D 557
BEGIN_RES GLU D 570
REMARK  3 active torsions:
REMARK  status: ('A' for Active; 'I' for Inactive)
REMARK    5  A    between atoms: CA   and  CB  
REMARK    6  A    between atoms: CB   and  CG  
REMARK    7  A    between atoms: CG   and  CD  
ROOT
ATOM     14  CA  GLU D 570     -18.033  -6.348 -13.375  1.00 32.92     0.160 C 
ENDROOT
BRANCH  14  15
ATOM     15  CB  GLU D 570     -19.500  -6.345 -13.794  1.00 32.92     0.043 C 
BRANCH  15  16
ATOM     16  CG  GLU D 570     -20.052  -7.601 -14.364  1.00 32.92     0.100 C 
BRANCH  16  17
ATOM     17  CD  GLU D 570     -21.186  -7.360 -15.333  1.00 32.92     0.185 C 
ATOM     18  OE1 GLU D 570     -21.474  -8.246 -16.160  1.00 32.92    -0.647 OA
ATOM     19  OE2 GLU D 570     -21.783  -6.267 -15.274  1.00 32.92    -0.647 OA
ENDBRANCH  16  17
ENDBRANCH  15  16
ENDBRANCH  14  15
END_RES GLU D 570
ENDMDL
MODEL 9
REMARK VINA RESULT:      -7.2      1.743      3.229
REMARK  22 active torsions:
REMARK  status: ('A' for Active; 'I' for Inactive)
REMARK    1  A    between atoms: C_2  and  C_3 
REMARK    2  A    between atoms: C_3  and  C_4 
REMARK    3  A    between atoms: C_4  and  C_5 
REMARK    4  A    between atoms: C_5  and  C_6 
REMARK    5  A    between atoms: C_6  and  C_7 
REMARK    6  A    between atoms: C_7  and  C_8 
REMARK    7  A    between atoms: C_8  and  C_9 
REMARK    8  A    between atoms: C_10  and  C_11 
REMARK    9  A    between atoms: C_11  and  C_12 
REMARK   10  A    between atoms: C_12  and  C_13 
REMARK   11  A    between atoms: C_13  and  C_14 
REMARK   12  A    between atoms: C_14  and  C_15 
REMARK   13  A    between atoms: C_15  and  C_16 
REMARK   14  A    between atoms: C_16  and  C_17 
REMARK   15  A    between atoms: C_17  and  C_18 
REMARK   16  A    between atoms: C_18  and  O_20 
REMARK   17  A    between atoms: O_20  and  C_21 
REMARK   18  A    between atoms: C_21  and  C_22 
REMARK   19  A    between atoms: C_22  and  C_23 
REMARK   20  A    between atoms: C_22  and  C_25 
REMARK   21  A    between atoms: C_25  and  C_26 
REMARK   22  A    between atoms: C_26  and  C_27 
ROOT
HETATM    1  C   UNL     1     -21.723  -4.094 -11.245  1.00  0.00     0.000 C 
ENDROOT
BRANCH   1   2
HETATM    2  C   UNL     1     -20.719  -4.290 -10.112  1.00  0.00     0.000 C 
BRANCH   2   3
HETATM    3  C   UNL     1     -21.358  -4.033  -8.752  1.00  0.00     0.004 C 
BRANCH   3   4
HETATM    4  C   UNL     1     -20.317  -4.095  -7.638  1.00  0.00     0.027 C 
BRANCH   4   5
HETATM    5  C   UNL     1     -20.767  -4.984  -6.533  1.00  0.00    -0.031 C 
HETATM    6  C   UNL     1     -20.219  -6.184  -6.313  1.00  0.00    -0.031 C 
BRANCH   6   7
HETATM    7  C   UNL     1     -20.664  -7.074  -5.206  1.00  0.00     0.027 C 
BRANCH   7   8
HETATM    8  C   UNL     1     -21.948  -6.548  -4.585  1.00  0.00     0.004 C 
BRANCH   8   9
HETATM    9  C   UNL     1     -21.726  -6.247  -3.111  1.00  0.00     0.000 C 
BRANCH   9  10
HETATM   10  C   UNL     1     -20.817  -7.294  -2.491  1.00  0.00     0.000 C 
BRANCH  10  11
HETATM   11  C   UNL     1     -21.606  -8.178  -1.539  1.00  0.00     0.000 C 
BRANCH  11  12
HETATM   12  C   UNL     1     -22.488  -7.326  -0.638  1.00  0.00    -0.000 C 
BRANCH  12  13
HETATM   13  C   UNL     1     -22.554  -7.919   0.763  1.00  0.00    -0.005 C 
HETATM   14  C   UNL     1     -21.241  -8.587   1.121  1.00  0.00     0.005 C 
ENDBRANCH  12  13
ENDBRANCH  11  12
ENDBRANCH  10  11
ENDBRANCH   9  10
ENDBRANCH   8   9
ENDBRANCH   7   8
ENDBRANCH   6   7
ENDBRANCH   4   5
ENDBRANCH   3   4
ENDBRANCH   2   3
ENDBRANCH   1   2
BRANCH   1  15
HETATM   15  C   UNL     1     -22.909  -3.261 -10.791  1.00  0.00     0.000 C 
BRANCH  15  16
HETATM   16  C   UNL     1     -23.927  -3.161 -11.921  1.00  0.00     0.010 C 
BRANCH  16  17
HETATM   17  C   UNL     1     -23.666  -4.175 -13.024  1.00  0.00     0.111 C 
BRANCH  17  18
HETATM   18  C   UNL     1     -23.997  -3.569 -14.374  1.00  0.00     0.258 C 
HETATM   19  O   UNL     1     -23.452  -2.608 -14.882  1.00  0.00    -0.265 OA
BRANCH  18  20
HETATM   20  O   UNL     1     -25.101  -4.197 -14.888  1.00  0.00    -0.321 OA
BRANCH  20  21
HETATM   21  C   UNL     1     -24.988  -5.621 -14.862  1.00  0.00     0.183 C 
BRANCH  21  22
HETATM   22  C   UNL     1     -25.510  -6.311 -16.136  1.00  0.00     0.010 C 
BRANCH  22  23
HETATM   23  C   UNL     1     -24.549  -7.410 -16.639  1.00  0.00     0.002 C 
HETATM   24  C   UNL     1     -24.054  -7.199 -18.065  1.00  0.00     0.005 C 
ENDBRANCH  22  23
BRANCH  22  25
HETATM   25  C   UNL     1     -26.925  -6.894 -15.905  1.00  0.00     0.007 C 
BRANCH  25  26
HETATM   26  C   UNL     1     -27.915  -6.488 -16.996  1.00  0.00     0.000 C 
BRANCH  26  27
HETATM   27  C   UNL     1     -29.312  -7.032 -16.728  1.00  0.00    -0.005 C 
HETATM   28  C   UNL     1     -29.892  -7.616 -18.005  1.00  0.00     0.005 C 
ENDBRANCH  26  27
ENDBRANCH  25  26
ENDBRANCH  22  25
ENDBRANCH  21  22
ENDBRANCH  20  21
ENDBRANCH  18  20
ENDBRANCH  17  18
ENDBRANCH  16  17
ENDBRANCH  15  16
ENDBRANCH   1  15
TORSDOF 22
BEGIN_RES ARG D 557
REMARK  4 active torsions:
REMARK  status: ('A' for Active; 'I' for Inactive)
REMARK    1  A    between atoms: CA   and  CB  
REMARK    2  A    between atoms: CB   and  CG  
REMARK    3  A    between atoms: CG   and  CD  
REMARK    4  A    between atoms: CD   and  NE  
REMARK       I    between atoms: NE   and  CZ  
REMARK       I    between atoms: CZ   and  NH1 
REMARK       I    between atoms: CZ   and  NH2 
ROOT
ATOM      1  CA  ARG D 557     -26.217   2.705 -17.014  1.00 35.49     0.159 C 
ENDROOT
BRANCH   1   2
ATOM      2  CB  ARG D 557     -26.789   1.319 -17.183  1.00 35.49     0.034 C 
BRANCH   2   3
ATOM      3  CG  ARG D 557     -25.961   0.201 -16.715  1.00 35.49     0.027 C 
BRANCH   3   4
ATOM      4  CD  ARG D 557     -26.754  -0.832 -16.010  1.00 35.49     0.116 C 
BRANCH   4   5
ATOM      5  NE  ARG D 557     -27.979  -1.141 -16.700  1.00 35.49    -0.212 N 
ATOM      6  CZ  ARG D 557     -28.455  -2.346 -16.918  1.00 35.49     0.666 C 
ATOM      7  NH1 ARG D 557     -27.828  -3.438 -16.523  1.00 35.49    -0.235 N 
ATOM      8  NH2 ARG D 557     -29.593  -2.438 -17.543  1.00 35.49    -0.235 N 
ATOM      9  HH  ARG D 557     -27.079  -3.401 -16.108  1.00 35.49     0.174 HD
ATOM     10  HH  ARG D 557     -28.188  -4.198 -16.690  1.00 35.49     0.174 HD
ATOM     11  HH  ARG D 557     -29.979  -1.715 -17.780  1.00 35.49     0.174 HD
ATOM     12  HH  ARG D 557     -29.934  -3.199 -17.698  1.00 35.49     0.174 HD
ATOM     13  HE  ARG D 557     -28.411  -0.499 -17.053  1.00 35.49     0.178 HD
ENDBRANCH   4   5
ENDBRANCH   3   4
ENDBRANCH   2   3
ENDBRANCH   1   2
END_RES ARG D 557
BEGIN_RES GLU D 570
REMARK  3 active torsions:
REMARK  status: ('A' for Active; 'I' for Inactive)
REMARK    5  A    between atoms: CA   and  CB  
REMARK    6  A    between atoms: CB   and  CG  
REMARK    7  A    between atoms: CG   and  CD  
ROOT
ATOM     14  CA  GLU D 570     -18.033  -6.348 -13.375  1.00 32.92     0.160 C 
ENDROOT
BRANCH  14  15
ATOM     15  CB  GLU D 570     -19.500  -6.345 -13.794  1.00 32.92     0.043 C 
BRANCH  15  16
ATOM     16  CG  GLU D 570     -20.087  -7.634 -14.242  1.00 32.92     0.100 C 
BRANCH  16  17
ATOM     17  CD  GLU D 570     -20.988  -7.486 -15.445  1.00 32.92     0.185 C 
ATOM     18  OE1 GLU D 570     -21.519  -6.381 -15.671  1.00 32.92    -0.647 OA
ATOM     19  OE2 GLU D 570     -21.179  -8.489 -16.160  1.00 32.92    -0.647 OA
ENDBRANCH  16  17
ENDBRANCH  15  16
ENDBRANCH  14  15
END_RES GLU D 570
ENDMDL
