MODEL 1
REMARK VINA RESULT:      -3.6      0.000      0.000
REMARK  0 active torsions:
REMARK  status: ('A' for Active; 'I' for Inactive)
ROOT
HETATM    1  C   UNL     1     -25.097  -6.977 -15.795  1.00  0.00     0.347 C 
HETATM    2  O   UNL     1     -24.728  -5.831 -15.635  1.00  0.00    -0.616 OA
HETATM    3  O   UNL     1     -26.186  -7.403 -15.405  1.00  0.00    -0.616 OA
HETATM    4  O   UNL     1     -24.420  -7.941 -16.117  1.00  0.00    -0.616 OA
ENDROOT
TORSDOF 0
BEGIN_RES ARG D 557
REMARK  4 active torsions:
REMARK  status: ('A' for Active; 'I' for Inactive)
REMARK    1  A    between atoms: CA   and  CB  
REMARK    2  A    between atoms: CB   and  CG  
REMARK    3  A    between atoms: CG   and  CD  
REMARK    4  A    between atoms: CD   and  NE  
REMARK       I    between atoms: NE   and  CZ  
REMARK       I    between atoms: CZ   and  NH1 
REMARK       I    between atoms: CZ   and  NH2 
ROOT
ATOM      1  CA  ARG D 557     -26.217   2.705 -17.014  1.00 35.49     0.159 C 
ENDROOT
BRANCH   1   2
ATOM      2  CB  ARG D 557     -26.789   1.319 -17.183  1.00 35.49     0.034 C 
BRANCH   2   3
ATOM      3  CG  ARG D 557     -25.928   0.197 -16.790  1.00 35.49     0.027 C 
BRANCH   3   4
ATOM      4  CD  ARG D 557     -26.674  -0.862 -16.073  1.00 35.49     0.116 C 
BRANCH   4   5
ATOM      5  NE  ARG D 557     -25.858  -1.534 -15.096  1.00 35.49    -0.212 N 
ATOM      6  CZ  ARG D 557     -25.919  -2.811 -14.792  1.00 35.49     0.666 C 
ATOM      7  NH1 ARG D 557     -26.776  -3.637 -15.364  1.00 35.49    -0.235 N 
ATOM      8  NH2 ARG D 557     -25.086  -3.255 -13.896  1.00 35.49    -0.235 N 
ATOM      9  HH  ARG D 557     -27.331  -3.367 -15.958  1.00 35.49     0.174 HD
ATOM     10  HH  ARG D 557     -26.768  -4.460 -15.128  1.00 35.49     0.174 HD
ATOM     11  HH  ARG D 557     -24.539  -2.701 -13.549  1.00 35.49     0.174 HD
ATOM     12  HH  ARG D 557     -25.092  -4.074 -13.676  1.00 35.49     0.174 HD
ATOM     13  HE  ARG D 557     -25.327  -1.063 -14.627  1.00 35.49     0.178 HD
ENDBRANCH   4   5
ENDBRANCH   3   4
ENDBRANCH   2   3
ENDBRANCH   1   2
END_RES ARG D 557
BEGIN_RES GLU D 570
REMARK  3 active torsions:
REMARK  status: ('A' for Active; 'I' for Inactive)
REMARK    5  A    between atoms: CA   and  CB  
REMARK    6  A    between atoms: CB   and  CG  
REMARK    7  A    between atoms: CG   and  CD  
ROOT
ATOM     14  CA  GLU D 570     -18.033  -6.348 -13.375  1.00 32.92     0.160 C 
ENDROOT
BRANCH  14  15
ATOM     15  CB  GLU D 570     -19.500  -6.345 -13.794  1.00 32.92     0.043 C 
BRANCH  15  16
ATOM     16  CG  GLU D 570     -20.449  -5.564 -12.959  1.00 32.92     0.100 C 
BRANCH  16  17
ATOM     17  CD  GLU D 570     -21.693  -5.150 -13.710  1.00 32.92     0.185 C 
ATOM     18  OE1 GLU D 570     -21.624  -4.972 -14.942  1.00 32.92    -0.647 OA
ATOM     19  OE2 GLU D 570     -22.742  -4.986 -13.058  1.00 32.92    -0.647 OA
ENDBRANCH  16  17
ENDBRANCH  15  16
ENDBRANCH  14  15
END_RES GLU D 570
ENDMDL
MODEL 2
REMARK VINA RESULT:      -3.4      8.642      9.183
REMARK  0 active torsions:
REMARK  status: ('A' for Active; 'I' for Inactive)
ROOT
HETATM    1  C   UNL     1     -34.367  -5.995  -1.751  1.00  0.00     0.347 C 
HETATM    2  O   UNL     1     -34.297  -6.626  -2.786  1.00  0.00    -0.616 OA
HETATM    3  O   UNL     1     -34.358  -4.763  -1.702  1.00  0.00    -0.616 OA
HETATM    4  O   UNL     1     -34.209  -6.408  -0.612  1.00  0.00    -0.616 OA
ENDROOT
TORSDOF 0
BEGIN_RES ARG D 557
REMARK  4 active torsions:
REMARK  status: ('A' for Active; 'I' for Inactive)
REMARK    1  A    between atoms: CA   and  CB  
REMARK    2  A    between atoms: CB   and  CG  
REMARK    3  A    between atoms: CG   and  CD  
REMARK    4  A    between atoms: CD   and  NE  
REMARK       I    between atoms: NE   and  CZ  
REMARK       I    between atoms: CZ   and  NH1 
REMARK       I    between atoms: CZ   and  NH2 
ROOT
ATOM      1  CA  ARG D 557     -26.217   2.705 -17.014  1.00 35.49     0.159 C 
ENDROOT
BRANCH   1   2
ATOM      2  CB  ARG D 557     -26.789   1.319 -17.183  1.00 35.49     0.034 C 
BRANCH   2   3
ATOM      3  CG  ARG D 557     -25.835   0.203 -17.160  1.00 35.49     0.027 C 
BRANCH   3   4
ATOM      4  CD  ARG D 557     -24.752   0.407 -16.171  1.00 35.49     0.116 C 
BRANCH   4   5
ATOM      5  NE  ARG D 557     -24.905  -0.439 -15.017  1.00 35.49    -0.212 N 
ATOM      6  CZ  ARG D 557     -24.097  -1.416 -14.669  1.00 35.49     0.666 C 
ATOM      7  NH1 ARG D 557     -23.031  -1.742 -15.377  1.00 35.49    -0.235 N 
ATOM      8  NH2 ARG D 557     -24.378  -2.067 -13.578  1.00 35.49    -0.235 N 
ATOM      9  HH  ARG D 557     -22.826  -1.325 -16.098  1.00 35.49     0.174 HD
ATOM     10  HH  ARG D 557     -22.540  -2.386 -15.100  1.00 35.49     0.174 HD
ATOM     11  HH  ARG D 557     -25.068  -1.830 -13.137  1.00 35.49     0.174 HD
ATOM     12  HH  ARG D 557     -23.878  -2.702 -13.319  1.00 35.49     0.174 HD
ATOM     13  HE  ARG D 557     -25.605  -0.347 -14.544  1.00 35.49     0.178 HD
ENDBRANCH   4   5
ENDBRANCH   3   4
ENDBRANCH   2   3
ENDBRANCH   1   2
END_RES ARG D 557
BEGIN_RES GLU D 570
REMARK  3 active torsions:
REMARK  status: ('A' for Active; 'I' for Inactive)
REMARK    5  A    between atoms: CA   and  CB  
REMARK    6  A    between atoms: CB   and  CG  
REMARK    7  A    between atoms: CG   and  CD  
ROOT
ATOM     14  CA  GLU D 570     -18.033  -6.348 -13.375  1.00 32.92     0.160 C 
ENDROOT
BRANCH  14  15
ATOM     15  CB  GLU D 570     -19.500  -6.345 -13.794  1.00 32.92     0.043 C 
BRANCH  15  16
ATOM     16  CG  GLU D 570     -20.443  -5.536 -12.979  1.00 32.92     0.100 C 
BRANCH  16  17
ATOM     17  CD  GLU D 570     -21.746  -5.256 -13.691  1.00 32.92     0.185 C 
ATOM     18  OE1 GLU D 570     -22.299  -4.151 -13.528  1.00 32.92    -0.647 OA
ATOM     19  OE2 GLU D 570     -22.227  -6.157 -14.406  1.00 32.92    -0.647 OA
ENDBRANCH  16  17
ENDBRANCH  15  16
ENDBRANCH  14  15
END_RES GLU D 570
ENDMDL
MODEL 3
REMARK VINA RESULT:      -3.3      2.368      3.815
REMARK  0 active torsions:
REMARK  status: ('A' for Active; 'I' for Inactive)
ROOT
HETATM    1  C   UNL     1     -24.504  -3.375 -10.289  1.00  0.00     0.347 C 
HETATM    2  O   UNL     1     -23.601  -4.139 -10.013  1.00  0.00    -0.616 OA
HETATM    3  O   UNL     1     -25.198  -2.807  -9.444  1.00  0.00    -0.616 OA
HETATM    4  O   UNL     1     -25.045  -3.219 -11.373  1.00  0.00    -0.616 OA
ENDROOT
TORSDOF 0
BEGIN_RES ARG D 557
REMARK  4 active torsions:
REMARK  status: ('A' for Active; 'I' for Inactive)
REMARK    1  A    between atoms: CA   and  CB  
REMARK    2  A    between atoms: CB   and  CG  
REMARK    3  A    between atoms: CG   and  CD  
REMARK    4  A    between atoms: CD   and  NE  
REMARK       I    between atoms: NE   and  CZ  
REMARK       I    between atoms: CZ   and  NH1 
REMARK       I    between atoms: CZ   and  NH2 
ROOT
ATOM      1  CA  ARG D 557     -26.217   2.705 -17.014  1.00 35.49     0.159 C 
ENDROOT
BRANCH   1   2
ATOM      2  CB  ARG D 557     -26.789   1.319 -17.183  1.00 35.49     0.034 C 
BRANCH   2   3
ATOM      3  CG  ARG D 557     -25.856   0.196 -17.028  1.00 35.49     0.027 C 
BRANCH   3   4
ATOM      4  CD  ARG D 557     -26.173  -0.642 -15.850  1.00 35.49     0.116 C 
BRANCH   4   5
ATOM      5  NE  ARG D 557     -25.056  -0.757 -14.949  1.00 35.49    -0.212 N 
ATOM      6  CZ  ARG D 557     -24.650  -1.862 -14.366  1.00 35.49     0.666 C 
ATOM      7  NH1 ARG D 557     -25.256  -3.021 -14.543  1.00 35.49    -0.235 N 
ATOM      8  NH2 ARG D 557     -23.604  -1.785 -13.596  1.00 35.49    -0.235 N 
ATOM      9  HH  ARG D 557     -25.945  -3.096 -15.047  1.00 35.49     0.174 HD
ATOM     10  HH  ARG D 557     -24.944  -3.710 -14.138  1.00 35.49     0.174 HD
ATOM     11  HH  ARG D 557     -23.228  -1.024 -13.506  1.00 35.49     0.174 HD
ATOM     12  HH  ARG D 557     -23.309  -2.477 -13.205  1.00 35.49     0.174 HD
ATOM     13  HE  ARG D 557     -24.652  -0.044 -14.722  1.00 35.49     0.178 HD
ENDBRANCH   4   5
ENDBRANCH   3   4
ENDBRANCH   2   3
ENDBRANCH   1   2
END_RES ARG D 557
BEGIN_RES GLU D 570
REMARK  3 active torsions:
REMARK  status: ('A' for Active; 'I' for Inactive)
REMARK    5  A    between atoms: CA   and  CB  
REMARK    6  A    between atoms: CB   and  CG  
REMARK    7  A    between atoms: CG   and  CD  
ROOT
ATOM     14  CA  GLU D 570     -18.033  -6.348 -13.375  1.00 32.92     0.160 C 
ENDROOT
BRANCH  14  15
ATOM     15  CB  GLU D 570     -19.500  -6.345 -13.794  1.00 32.92     0.043 C 
BRANCH  15  16
ATOM     16  CG  GLU D 570     -20.436  -5.505 -13.003  1.00 32.92     0.100 C 
BRANCH  16  17
ATOM     17  CD  GLU D 570     -21.662  -5.092 -13.784  1.00 32.92     0.185 C 
ATOM     18  OE1 GLU D 570     -22.616  -4.566 -13.180  1.00 32.92    -0.647 OA
ATOM     19  OE2 GLU D 570     -21.674  -5.313 -15.012  1.00 32.92    -0.647 OA
ENDBRANCH  16  17
ENDBRANCH  15  16
ENDBRANCH  14  15
END_RES GLU D 570
ENDMDL
MODEL 4
REMARK VINA RESULT:      -3.3      1.741      2.146
REMARK  0 active torsions:
REMARK  status: ('A' for Active; 'I' for Inactive)
ROOT
HETATM    1  C   UNL     1     -25.666  -6.255 -15.840  1.00  0.00     0.347 C 
HETATM    2  O   UNL     1     -25.802  -7.398 -15.454  1.00  0.00    -0.616 OA
HETATM    3  O   UNL     1     -24.985  -5.413 -15.252  1.00  0.00    -0.616 OA
HETATM    4  O   UNL     1     -26.329  -5.667 -16.681  1.00  0.00    -0.616 OA
ENDROOT
TORSDOF 0
BEGIN_RES ARG D 557
REMARK  4 active torsions:
REMARK  status: ('A' for Active; 'I' for Inactive)
REMARK    1  A    between atoms: CA   and  CB  
REMARK    2  A    between atoms: CB   and  CG  
REMARK    3  A    between atoms: CG   and  CD  
REMARK    4  A    between atoms: CD   and  NE  
REMARK       I    between atoms: NE   and  CZ  
REMARK       I    between atoms: CZ   and  NH1 
REMARK       I    between atoms: CZ   and  NH2 
ROOT
ATOM      1  CA  ARG D 557     -26.217   2.705 -17.014  1.00 35.49     0.159 C 
ENDROOT
BRANCH   1   2
ATOM      2  CB  ARG D 557     -26.789   1.319 -17.183  1.00 35.49     0.034 C 
BRANCH   2   3
ATOM      3  CG  ARG D 557     -28.209   1.146 -16.855  1.00 35.49     0.027 C 
BRANCH   3   4
ATOM      4  CD  ARG D 557     -28.577  -0.277 -16.672  1.00 35.49     0.116 C 
BRANCH   4   5
ATOM      5  NE  ARG D 557     -27.568  -1.009 -15.953  1.00 35.49    -0.212 N 
ATOM      6  CZ  ARG D 557     -27.340  -2.300 -16.050  1.00 35.49     0.666 C 
ATOM      7  NH1 ARG D 557     -28.050  -3.088 -16.836  1.00 35.49    -0.235 N 
ATOM      8  NH2 ARG D 557     -26.369  -2.793 -15.338  1.00 35.49    -0.235 N 
ATOM      9  HH  ARG D 557     -28.692  -2.785 -17.315  1.00 35.49     0.174 HD
ATOM     10  HH  ARG D 557     -27.854  -3.922 -16.861  1.00 35.49     0.174 HD
ATOM     11  HH  ARG D 557     -25.923  -2.259 -14.845  1.00 35.49     0.174 HD
ATOM     12  HH  ARG D 557     -26.190  -3.621 -15.377  1.00 35.49     0.174 HD
ATOM     13  HE  ARG D 557     -27.112  -0.592 -15.369  1.00 35.49     0.178 HD
ENDBRANCH   4   5
ENDBRANCH   3   4
ENDBRANCH   2   3
ENDBRANCH   1   2
END_RES ARG D 557
BEGIN_RES GLU D 570
REMARK  3 active torsions:
REMARK  status: ('A' for Active; 'I' for Inactive)
REMARK    5  A    between atoms: CA   and  CB  
REMARK    6  A    between atoms: CB   and  CG  
REMARK    7  A    between atoms: CG   and  CD  
ROOT
ATOM     14  CA  GLU D 570     -18.033  -6.348 -13.375  1.00 32.92     0.160 C 
ENDROOT
BRANCH  14  15
ATOM     15  CB  GLU D 570     -19.500  -6.345 -13.794  1.00 32.92     0.043 C 
BRANCH  15  16
ATOM     16  CG  GLU D 570     -19.806  -6.033 -15.214  1.00 32.92     0.100 C 
BRANCH  16  17
ATOM     17  CD  GLU D 570     -21.284  -5.860 -15.474  1.00 32.92     0.185 C 
ATOM     18  OE1 GLU D 570     -21.703  -4.757 -15.876  1.00 32.92    -0.647 OA
ATOM     19  OE2 GLU D 570     -22.033  -6.832 -15.258  1.00 32.92    -0.647 OA
ENDBRANCH  16  17
ENDBRANCH  15  16
ENDBRANCH  14  15
END_RES GLU D 570
ENDMDL
MODEL 5
REMARK VINA RESULT:      -3.2      4.842      5.201
REMARK  0 active torsions:
REMARK  status: ('A' for Active; 'I' for Inactive)
ROOT
HETATM    1  C   UNL     1     -30.016 -14.224 -19.376  1.00  0.00     0.347 C 
HETATM    2  O   UNL     1     -30.845 -14.200 -20.263  1.00  0.00    -0.616 OA
HETATM    3  O   UNL     1     -29.401 -13.228 -18.990  1.00  0.00    -0.616 OA
HETATM    4  O   UNL     1     -29.467 -15.204 -18.894  1.00  0.00    -0.616 OA
ENDROOT
TORSDOF 0
BEGIN_RES ARG D 557
REMARK  4 active torsions:
REMARK  status: ('A' for Active; 'I' for Inactive)
REMARK    1  A    between atoms: CA   and  CB  
REMARK    2  A    between atoms: CB   and  CG  
REMARK    3  A    between atoms: CG   and  CD  
REMARK    4  A    between atoms: CD   and  NE  
REMARK       I    between atoms: NE   and  CZ  
REMARK       I    between atoms: CZ   and  NH1 
REMARK       I    between atoms: CZ   and  NH2 
ROOT
ATOM      1  CA  ARG D 557     -26.217   2.705 -17.014  1.00 35.49     0.159 C 
ENDROOT
BRANCH   1   2
ATOM      2  CB  ARG D 557     -26.789   1.319 -17.183  1.00 35.49     0.034 C 
BRANCH   2   3
ATOM      3  CG  ARG D 557     -25.865   0.195 -16.991  1.00 35.49     0.027 C 
BRANCH   3   4
ATOM      4  CD  ARG D 557     -26.290  -0.704 -15.894  1.00 35.49     0.116 C 
BRANCH   4   5
ATOM      5  NE  ARG D 557     -25.240  -0.924 -14.935  1.00 35.49    -0.212 N 
ATOM      6  CZ  ARG D 557     -24.952  -2.070 -14.359  1.00 35.49     0.666 C 
ATOM      7  NH1 ARG D 557     -25.632  -3.175 -14.602  1.00 35.49    -0.235 N 
ATOM      8  NH2 ARG D 557     -23.951  -2.090 -13.528  1.00 35.49    -0.235 N 
ATOM      9  HH  ARG D 557     -26.293  -3.186 -15.147  1.00 35.49     0.174 HD
ATOM     10  HH  ARG D 557     -25.397  -3.894 -14.199  1.00 35.49     0.174 HD
ATOM     11  HH  ARG D 557     -23.526  -1.362 -13.397  1.00 35.49     0.174 HD
ATOM     12  HH  ARG D 557     -23.733  -2.811 -13.141  1.00 35.49     0.174 HD
ATOM     13  HE  ARG D 557     -24.798  -0.249 -14.665  1.00 35.49     0.178 HD
ENDBRANCH   4   5
ENDBRANCH   3   4
ENDBRANCH   2   3
ENDBRANCH   1   2
END_RES ARG D 557
BEGIN_RES GLU D 570
REMARK  3 active torsions:
REMARK  status: ('A' for Active; 'I' for Inactive)
REMARK    5  A    between atoms: CA   and  CB  
REMARK    6  A    between atoms: CB   and  CG  
REMARK    7  A    between atoms: CG   and  CD  
ROOT
ATOM     14  CA  GLU D 570     -18.033  -6.348 -13.375  1.00 32.92     0.160 C 
ENDROOT
BRANCH  14  15
ATOM     15  CB  GLU D 570     -19.500  -6.345 -13.794  1.00 32.92     0.043 C 
BRANCH  15  16
ATOM     16  CG  GLU D 570     -20.449  -5.565 -12.959  1.00 32.92     0.100 C 
BRANCH  16  17
ATOM     17  CD  GLU D 570     -21.679  -5.125 -13.718  1.00 32.92     0.185 C 
ATOM     18  OE1 GLU D 570     -22.724  -4.878 -13.086  1.00 32.92    -0.647 OA
ATOM     19  OE2 GLU D 570     -21.601  -5.044 -14.960  1.00 32.92    -0.647 OA
ENDBRANCH  16  17
ENDBRANCH  15  16
ENDBRANCH  14  15
END_RES GLU D 570
ENDMDL
MODEL 6
REMARK VINA RESULT:      -3.1      8.767      9.339
REMARK  0 active torsions:
REMARK  status: ('A' for Active; 'I' for Inactive)
ROOT
HETATM    1  C   UNL     1     -34.361  -6.000  -1.756  1.00  0.00     0.347 C 
HETATM    2  O   UNL     1     -34.286  -6.627  -2.794  1.00  0.00    -0.616 OA
HETATM    3  O   UNL     1     -34.351  -4.769  -1.701  1.00  0.00    -0.616 OA
HETATM    4  O   UNL     1     -34.212  -6.419  -0.618  1.00  0.00    -0.616 OA
ENDROOT
TORSDOF 0
BEGIN_RES ARG D 557
REMARK  4 active torsions:
REMARK  status: ('A' for Active; 'I' for Inactive)
REMARK    1  A    between atoms: CA   and  CB  
REMARK    2  A    between atoms: CB   and  CG  
REMARK    3  A    between atoms: CG   and  CD  
REMARK    4  A    between atoms: CD   and  NE  
REMARK       I    between atoms: NE   and  CZ  
REMARK       I    between atoms: CZ   and  NH1 
REMARK       I    between atoms: CZ   and  NH2 
ROOT
ATOM      1  CA  ARG D 557     -26.217   2.705 -17.014  1.00 35.49     0.159 C 
ENDROOT
BRANCH   1   2
ATOM      2  CB  ARG D 557     -26.789   1.319 -17.183  1.00 35.49     0.034 C 
BRANCH   2   3
ATOM      3  CG  ARG D 557     -28.230   1.227 -17.447  1.00 35.49     0.027 C 
BRANCH   3   4
ATOM      4  CD  ARG D 557     -28.919   0.312 -16.508  1.00 35.49     0.116 C 
BRANCH   4   5
ATOM      5  NE  ARG D 557     -29.302  -0.924 -17.137  1.00 35.49    -0.212 N 
ATOM      6  CZ  ARG D 557     -28.671  -2.071 -17.025  1.00 35.49     0.666 C 
ATOM      7  NH1 ARG D 557     -27.571  -2.208 -16.308  1.00 35.49    -0.235 N 
ATOM      8  NH2 ARG D 557     -29.174  -3.096 -17.650  1.00 35.49    -0.235 N 
ATOM      9  HH  ARG D 557     -27.224  -1.548 -15.887  1.00 35.49     0.174 HD
ATOM     10  HH  ARG D 557     -27.205  -2.982 -16.269  1.00 35.49     0.174 HD
ATOM     11  HH  ARG D 557     -29.890  -2.980 -18.099  1.00 35.49     0.174 HD
ATOM     12  HH  ARG D 557     -28.797  -3.854 -17.598  1.00 35.49     0.174 HD
ATOM     13  HE  ARG D 557     -29.960  -0.910 -17.677  1.00 35.49     0.178 HD
ENDBRANCH   4   5
ENDBRANCH   3   4
ENDBRANCH   2   3
ENDBRANCH   1   2
END_RES ARG D 557
BEGIN_RES GLU D 570
REMARK  3 active torsions:
REMARK  status: ('A' for Active; 'I' for Inactive)
REMARK    5  A    between atoms: CA   and  CB  
REMARK    6  A    between atoms: CB   and  CG  
REMARK    7  A    between atoms: CG   and  CD  
ROOT
ATOM     14  CA  GLU D 570     -18.033  -6.348 -13.375  1.00 32.92     0.160 C 
ENDROOT
BRANCH  14  15
ATOM     15  CB  GLU D 570     -19.500  -6.345 -13.794  1.00 32.92     0.043 C 
BRANCH  15  16
ATOM     16  CG  GLU D 570     -20.440  -5.523 -12.989  1.00 32.92     0.100 C 
BRANCH  16  17
ATOM     17  CD  GLU D 570     -21.746  -5.255 -13.700  1.00 32.92     0.185 C 
ATOM     18  OE1 GLU D 570     -22.210  -6.125 -14.462  1.00 32.92    -0.647 OA
ATOM     19  OE2 GLU D 570     -22.303  -4.157 -13.506  1.00 32.92    -0.647 OA
ENDBRANCH  16  17
ENDBRANCH  15  16
ENDBRANCH  14  15
END_RES GLU D 570
ENDMDL
MODEL 7
REMARK VINA RESULT:      -2.8      2.540      3.802
REMARK  0 active torsions:
REMARK  status: ('A' for Active; 'I' for Inactive)
ROOT
HETATM    1  C   UNL     1     -24.556  -3.381 -10.395  1.00  0.00     0.347 C 
HETATM    2  O   UNL     1     -23.723  -4.119  -9.910  1.00  0.00    -0.616 OA
HETATM    3  O   UNL     1     -25.643  -3.139  -9.866  1.00  0.00    -0.616 OA
HETATM    4  O   UNL     1     -24.604  -2.958 -11.540  1.00  0.00    -0.616 OA
ENDROOT
TORSDOF 0
BEGIN_RES ARG D 557
REMARK  4 active torsions:
REMARK  status: ('A' for Active; 'I' for Inactive)
REMARK    1  A    between atoms: CA   and  CB  
REMARK    2  A    between atoms: CB   and  CG  
REMARK    3  A    between atoms: CG   and  CD  
REMARK    4  A    between atoms: CD   and  NE  
REMARK       I    between atoms: NE   and  CZ  
REMARK       I    between atoms: CZ   and  NH1 
REMARK       I    between atoms: CZ   and  NH2 
ROOT
ATOM      1  CA  ARG D 557     -26.217   2.705 -17.014  1.00 35.49     0.159 C 
ENDROOT
BRANCH   1   2
ATOM      2  CB  ARG D 557     -26.789   1.319 -17.183  1.00 35.49     0.034 C 
BRANCH   2   3
ATOM      3  CG  ARG D 557     -28.224   1.160 -16.920  1.00 35.49     0.027 C 
BRANCH   3   4
ATOM      4  CD  ARG D 557     -28.613  -0.259 -16.750  1.00 35.49     0.116 C 
BRANCH   4   5
ATOM      5  NE  ARG D 557     -27.615  -1.013 -16.040  1.00 35.49    -0.212 N 
ATOM      6  CZ  ARG D 557     -27.443  -2.315 -16.107  1.00 35.49     0.666 C 
ATOM      7  NH1 ARG D 557     -28.207  -3.093 -16.851  1.00 35.49    -0.235 N 
ATOM      8  NH2 ARG D 557     -26.472  -2.829 -15.410  1.00 35.49    -0.235 N 
ATOM      9  HH  ARG D 557     -28.851  -2.776 -17.319  1.00 35.49     0.174 HD
ATOM     10  HH  ARG D 557     -28.047  -3.935 -16.857  1.00 35.49     0.174 HD
ATOM     11  HH  ARG D 557     -25.990  -2.301 -14.945  1.00 35.49     0.174 HD
ATOM     12  HH  ARG D 557     -26.328  -3.664 -15.431  1.00 35.49     0.174 HD
ATOM     13  HE  ARG D 557     -27.124  -0.600 -15.481  1.00 35.49     0.178 HD
ENDBRANCH   4   5
ENDBRANCH   3   4
ENDBRANCH   2   3
ENDBRANCH   1   2
END_RES ARG D 557
BEGIN_RES GLU D 570
REMARK  3 active torsions:
REMARK  status: ('A' for Active; 'I' for Inactive)
REMARK    5  A    between atoms: CA   and  CB  
REMARK    6  A    between atoms: CB   and  CG  
REMARK    7  A    between atoms: CG   and  CD  
ROOT
ATOM     14  CA  GLU D 570     -18.033  -6.348 -13.375  1.00 32.92     0.160 C 
ENDROOT
BRANCH  14  15
ATOM     15  CB  GLU D 570     -19.500  -6.345 -13.794  1.00 32.92     0.043 C 
BRANCH  15  16
ATOM     16  CG  GLU D 570     -20.441  -5.529 -12.985  1.00 32.92     0.100 C 
BRANCH  16  17
ATOM     17  CD  GLU D 570     -21.714  -5.189 -13.726  1.00 32.92     0.185 C 
ATOM     18  OE1 GLU D 570     -21.655  -4.931 -14.943  1.00 32.92    -0.647 OA
ATOM     19  OE2 GLU D 570     -22.779  -5.164 -13.077  1.00 32.92    -0.647 OA
ENDBRANCH  16  17
ENDBRANCH  15  16
ENDBRANCH  14  15
END_RES GLU D 570
ENDMDL
MODEL 8
REMARK VINA RESULT:      -2.7      4.845      5.127
REMARK  0 active torsions:
REMARK  status: ('A' for Active; 'I' for Inactive)
ROOT
HETATM    1  C   UNL     1     -29.372 -14.350 -18.683  1.00  0.00     0.347 C 
HETATM    2  O   UNL     1     -29.394 -13.179 -19.006  1.00  0.00    -0.616 OA
HETATM    3  O   UNL     1     -28.769 -14.773 -17.695  1.00  0.00    -0.616 OA
HETATM    4  O   UNL     1     -29.699 -15.317 -19.354  1.00  0.00    -0.616 OA
ENDROOT
TORSDOF 0
BEGIN_RES ARG D 557
REMARK  4 active torsions:
REMARK  status: ('A' for Active; 'I' for Inactive)
REMARK    1  A    between atoms: CA   and  CB  
REMARK    2  A    between atoms: CB   and  CG  
REMARK    3  A    between atoms: CG   and  CD  
REMARK    4  A    between atoms: CD   and  NE  
REMARK       I    between atoms: NE   and  CZ  
REMARK       I    between atoms: CZ   and  NH1 
REMARK       I    between atoms: CZ   and  NH2 
ROOT
ATOM      1  CA  ARG D 557     -26.217   2.705 -17.014  1.00 35.49     0.159 C 
ENDROOT
BRANCH   1   2
ATOM      2  CB  ARG D 557     -26.789   1.319 -17.183  1.00 35.49     0.034 C 
BRANCH   2   3
ATOM      3  CG  ARG D 557     -28.227   1.163 -16.932  1.00 35.49     0.027 C 
BRANCH   3   4
ATOM      4  CD  ARG D 557     -28.609  -0.250 -16.703  1.00 35.49     0.116 C 
BRANCH   4   5
ATOM      5  NE  ARG D 557     -27.598  -0.975 -15.981  1.00 35.49    -0.212 N 
ATOM      6  CZ  ARG D 557     -27.393  -2.272 -16.040  1.00 35.49     0.666 C 
ATOM      7  NH1 ARG D 557     -28.131  -3.073 -16.785  1.00 35.49    -0.235 N 
ATOM      8  NH2 ARG D 557     -26.415  -2.758 -15.332  1.00 35.49    -0.235 N 
ATOM      9  HH  ARG D 557     -28.779  -2.775 -17.261  1.00 35.49     0.174 HD
ATOM     10  HH  ARG D 557     -27.949  -3.910 -16.786  1.00 35.49     0.174 HD
ATOM     11  HH  ARG D 557     -25.950  -2.215 -14.866  1.00 35.49     0.174 HD
ATOM     12  HH  ARG D 557     -26.250  -3.589 -15.347  1.00 35.49     0.174 HD
ATOM     13  HE  ARG D 557     -27.123  -0.547 -15.420  1.00 35.49     0.178 HD
ENDBRANCH   4   5
ENDBRANCH   3   4
ENDBRANCH   2   3
ENDBRANCH   1   2
END_RES ARG D 557
BEGIN_RES GLU D 570
REMARK  3 active torsions:
REMARK  status: ('A' for Active; 'I' for Inactive)
REMARK    5  A    between atoms: CA   and  CB  
REMARK    6  A    between atoms: CB   and  CG  
REMARK    7  A    between atoms: CG   and  CD  
ROOT
ATOM     14  CA  GLU D 570     -18.033  -6.348 -13.375  1.00 32.92     0.160 C 
ENDROOT
BRANCH  14  15
ATOM     15  CB  GLU D 570     -19.500  -6.345 -13.794  1.00 32.92     0.043 C 
BRANCH  15  16
ATOM     16  CG  GLU D 570     -19.807  -6.014 -15.210  1.00 32.92     0.100 C 
BRANCH  16  17
ATOM     17  CD  GLU D 570     -21.164  -5.374 -15.384  1.00 32.92     0.185 C 
ATOM     18  OE1 GLU D 570     -21.509  -4.984 -16.516  1.00 32.92    -0.647 OA
ATOM     19  OE2 GLU D 570     -21.884  -5.245 -14.374  1.00 32.92    -0.647 OA
ENDBRANCH  16  17
ENDBRANCH  15  16
ENDBRANCH  14  15
END_RES GLU D 570
ENDMDL
MODEL 9
REMARK VINA RESULT:      -2.7      1.550      2.187
REMARK  0 active torsions:
REMARK  status: ('A' for Active; 'I' for Inactive)
ROOT
HETATM    1  C   UNL     1     -25.212  -7.117 -15.996  1.00  0.00     0.347 C 
HETATM    2  O   UNL     1     -24.294  -7.897 -16.151  1.00  0.00    -0.616 OA
HETATM    3  O   UNL     1     -26.235  -7.386 -15.364  1.00  0.00    -0.616 OA
HETATM    4  O   UNL     1     -25.419  -6.077 -16.603  1.00  0.00    -0.616 OA
ENDROOT
TORSDOF 0
BEGIN_RES ARG D 557
REMARK  4 active torsions:
REMARK  status: ('A' for Active; 'I' for Inactive)
REMARK    1  A    between atoms: CA   and  CB  
REMARK    2  A    between atoms: CB   and  CG  
REMARK    3  A    between atoms: CG   and  CD  
REMARK    4  A    between atoms: CD   and  NE  
REMARK       I    between atoms: NE   and  CZ  
REMARK       I    between atoms: CZ   and  NH1 
REMARK       I    between atoms: CZ   and  NH2 
ROOT
ATOM      1  CA  ARG D 557     -26.217   2.705 -17.014  1.00 35.49     0.159 C 
ENDROOT
BRANCH   1   2
ATOM      2  CB  ARG D 557     -26.789   1.319 -17.183  1.00 35.49     0.034 C 
BRANCH   2   3
ATOM      3  CG  ARG D 557     -25.960   0.201 -16.717  1.00 35.49     0.027 C 
BRANCH   3   4
ATOM      4  CD  ARG D 557     -26.755  -0.845 -16.034  1.00 35.49     0.116 C 
BRANCH   4   5
ATOM      5  NE  ARG D 557     -27.997  -1.111 -16.711  1.00 35.49    -0.212 N 
ATOM      6  CZ  ARG D 557     -28.502  -2.300 -16.950  1.00 35.49     0.666 C 
ATOM      7  NH1 ARG D 557     -27.892  -3.415 -16.592  1.00 35.49    -0.235 N 
ATOM      8  NH2 ARG D 557     -29.652  -2.353 -17.558  1.00 35.49    -0.235 N 
ATOM      9  HH  ARG D 557     -27.136  -3.404 -16.189  1.00 35.49     0.174 HD
ATOM     10  HH  ARG D 557     -28.271  -4.162 -16.772  1.00 35.49     0.174 HD
ATOM     11  HH  ARG D 557     -30.026  -1.617 -17.770  1.00 35.49     0.174 HD
ATOM     12  HH  ARG D 557     -30.011  -3.102 -17.726  1.00 35.49     0.174 HD
ATOM     13  HE  ARG D 557     -28.421  -0.451 -17.040  1.00 35.49     0.178 HD
ENDBRANCH   4   5
ENDBRANCH   3   4
ENDBRANCH   2   3
ENDBRANCH   1   2
END_RES ARG D 557
BEGIN_RES GLU D 570
REMARK  3 active torsions:
REMARK  status: ('A' for Active; 'I' for Inactive)
REMARK    5  A    between atoms: CA   and  CB  
REMARK    6  A    between atoms: CB   and  CG  
REMARK    7  A    between atoms: CG   and  CD  
ROOT
ATOM     14  CA  GLU D 570     -18.033  -6.348 -13.375  1.00 32.92     0.160 C 
ENDROOT
BRANCH  14  15
ATOM     15  CB  GLU D 570     -19.500  -6.345 -13.794  1.00 32.92     0.043 C 
BRANCH  15  16
ATOM     16  CG  GLU D 570     -20.446  -5.548 -12.970  1.00 32.92     0.100 C 
BRANCH  16  17
ATOM     17  CD  GLU D 570     -21.728  -5.219 -13.698  1.00 32.92     0.185 C 
ATOM     18  OE1 GLU D 570     -21.856  -5.569 -14.887  1.00 32.92    -0.647 OA
ATOM     19  OE2 GLU D 570     -22.608  -4.591 -13.077  1.00 32.92    -0.647 OA
ENDBRANCH  16  17
ENDBRANCH  15  16
ENDBRANCH  14  15
END_RES GLU D 570
ENDMDL
