MODEL 1
REMARK VINA RESULT:      -7.0      0.000      0.000
REMARK  16 active torsions:
REMARK  status: ('A' for Active; 'I' for Inactive)
REMARK    1  A    between atoms: C_2  and  C_3 
REMARK    2  A    between atoms: C_3  and  C_4 
REMARK    3  A    between atoms: C_4  and  C_5 
REMARK    4  A    between atoms: C_5  and  C_6 
REMARK    5  A    between atoms: C_6  and  C_7 
REMARK    6  A    between atoms: C_7  and  C_8 
REMARK    7  A    between atoms: C_8  and  C_9 
REMARK    8  A    between atoms: C_9  and  C_10 
REMARK    9  A    between atoms: C_10  and  C_11 
REMARK   10  A    between atoms: C_11  and  C_12 
REMARK   11  A    between atoms: C_12  and  C_13 
REMARK   12  A    between atoms: C_13  and  C_14 
REMARK   13  A    between atoms: C_14  and  C_15 
REMARK   14  A    between atoms: C_15  and  C_16 
REMARK   15  A    between atoms: C_16  and  O_17 
REMARK   16  A    between atoms: O_17  and  C_18 
ROOT
HETATM    1  C   UNL     1     -21.287  -4.006 -10.771  1.00  0.00     0.000 C 
ENDROOT
BRANCH   1   2
HETATM    2  C   UNL     1     -20.385  -4.418  -9.623  1.00  0.00     0.000 C 
BRANCH   2   3
HETATM    3  C   UNL     1     -21.204  -4.583  -8.358  1.00  0.00     0.000 C 
BRANCH   3   4
HETATM    4  C   UNL     1     -20.486  -3.931  -7.191  1.00  0.00     0.000 C 
BRANCH   4   5
HETATM    5  C   UNL     1     -20.441  -4.888  -6.016  1.00  0.00     0.000 C 
BRANCH   5   6
HETATM    6  C   UNL     1     -21.374  -6.058  -6.267  1.00  0.00     0.000 C 
BRANCH   6   7
HETATM    7  C   UNL     1     -22.158  -6.371  -5.007  1.00  0.00     0.000 C 
BRANCH   7   8
HETATM    8  C   UNL     1     -21.276  -7.114  -4.021  1.00  0.00    -0.000 C 
BRANCH   8   9
HETATM    9  C   UNL     1     -21.082  -6.284  -2.763  1.00  0.00    -0.005 C 
HETATM   10  C   UNL     1     -22.355  -6.277  -1.945  1.00  0.00     0.005 C 
ENDBRANCH   8   9
ENDBRANCH   7   8
ENDBRANCH   6   7
ENDBRANCH   5   6
ENDBRANCH   4   5
ENDBRANCH   3   4
ENDBRANCH   2   3
ENDBRANCH   1   2
BRANCH   1  11
HETATM   11  C   UNL     1     -22.669  -4.597 -10.572  1.00  0.00     0.000 C 
BRANCH  11  12
HETATM   12  C   UNL     1     -23.390  -4.664 -11.899  1.00  0.00     0.000 C 
BRANCH  12  13
HETATM   13  C   UNL     1     -22.515  -4.100 -13.008  1.00  0.00     0.000 C 
BRANCH  13  14
HETATM   14  C   UNL     1     -22.799  -4.806 -14.325  1.00  0.00     0.002 C 
BRANCH  14  15
HETATM   15  C   UNL     1     -23.724  -6.000 -14.110  1.00  0.00     0.027 C 
BRANCH  15  16
HETATM   16  C   UNL     1     -24.201  -6.577 -15.427  1.00  0.00     0.178 C 
BRANCH  16  17
HETATM   17  O   UNL     1     -25.508  -7.206 -15.274  1.00  0.00    -0.322 OA
BRANCH  17  18
HETATM   18  C   UNL     1     -26.540  -6.577 -15.907  1.00  0.00     0.254 C 
HETATM   19  O   UNL     1     -26.392  -5.631 -16.691  1.00  0.00    -0.266 OA
HETATM   20  C   UNL     1     -27.880  -7.147 -15.575  1.00  0.00     0.126 C 
ENDBRANCH  17  18
ENDBRANCH  16  17
ENDBRANCH  15  16
ENDBRANCH  14  15
ENDBRANCH  13  14
ENDBRANCH  12  13
ENDBRANCH  11  12
ENDBRANCH   1  11
TORSDOF 16
BEGIN_RES ARG D 557
REMARK  4 active torsions:
REMARK  status: ('A' for Active; 'I' for Inactive)
REMARK    1  A    between atoms: CA   and  CB  
REMARK    2  A    between atoms: CB   and  CG  
REMARK    3  A    between atoms: CG   and  CD  
REMARK    4  A    between atoms: CD   and  NE  
REMARK       I    between atoms: NE   and  CZ  
REMARK       I    between atoms: CZ   and  NH1 
REMARK       I    between atoms: CZ   and  NH2 
ROOT
ATOM      1  CA  ARG D 557     -26.217   2.705 -17.014  1.00 35.49     0.159 C 
ENDROOT
BRANCH   1   2
ATOM      2  CB  ARG D 557     -26.789   1.319 -17.183  1.00 35.49     0.034 C 
BRANCH   2   3
ATOM      3  CG  ARG D 557     -28.209   1.146 -16.853  1.00 35.49     0.027 C 
BRANCH   3   4
ATOM      4  CD  ARG D 557     -28.584  -0.279 -16.707  1.00 35.49     0.116 C 
BRANCH   4   5
ATOM      5  NE  ARG D 557     -27.578  -1.037 -16.010  1.00 35.49    -0.212 N 
ATOM      6  CZ  ARG D 557     -27.417  -2.339 -16.073  1.00 35.49     0.666 C 
ATOM      7  NH1 ARG D 557     -28.200  -3.117 -16.797  1.00 35.49    -0.235 N 
ATOM      8  NH2 ARG D 557     -26.437  -2.856 -15.390  1.00 35.49    -0.235 N 
ATOM      9  HH  ARG D 557     -28.849  -2.798 -17.256  1.00 35.49     0.174 HD
ATOM     10  HH  ARG D 557     -28.045  -3.960 -16.801  1.00 35.49     0.174 HD
ATOM     11  HH  ARG D 557     -25.943  -2.329 -14.937  1.00 35.49     0.174 HD
ATOM     12  HH  ARG D 557     -26.299  -3.693 -15.408  1.00 35.49     0.174 HD
ATOM     13  HE  ARG D 557     -27.075  -0.624 -15.463  1.00 35.49     0.178 HD
ENDBRANCH   4   5
ENDBRANCH   3   4
ENDBRANCH   2   3
ENDBRANCH   1   2
END_RES ARG D 557
BEGIN_RES GLU D 570
REMARK  3 active torsions:
REMARK  status: ('A' for Active; 'I' for Inactive)
REMARK    5  A    between atoms: CA   and  CB  
REMARK    6  A    between atoms: CB   and  CG  
REMARK    7  A    between atoms: CG   and  CD  
ROOT
ATOM     14  CA  GLU D 570     -18.033  -6.348 -13.375  1.00 32.92     0.160 C 
ENDROOT
BRANCH  14  15
ATOM     15  CB  GLU D 570     -19.500  -6.345 -13.794  1.00 32.92     0.043 C 
BRANCH  15  16
ATOM     16  CG  GLU D 570     -20.074  -7.624 -14.286  1.00 32.92     0.100 C 
BRANCH  16  17
ATOM     17  CD  GLU D 570     -20.664  -7.510 -15.672  1.00 32.92     0.185 C 
ATOM     18  OE1 GLU D 570     -21.366  -8.442 -16.110  1.00 32.92    -0.647 OA
ATOM     19  OE2 GLU D 570     -20.409  -6.485 -16.334  1.00 32.92    -0.647 OA
ENDBRANCH  16  17
ENDBRANCH  15  16
ENDBRANCH  14  15
END_RES GLU D 570
ENDMDL
MODEL 2
REMARK VINA RESULT:      -6.9      2.378      4.285
REMARK  16 active torsions:
REMARK  status: ('A' for Active; 'I' for Inactive)
REMARK    1  A    between atoms: C_2  and  C_3 
REMARK    2  A    between atoms: C_3  and  C_4 
REMARK    3  A    between atoms: C_4  and  C_5 
REMARK    4  A    between atoms: C_5  and  C_6 
REMARK    5  A    between atoms: C_6  and  C_7 
REMARK    6  A    between atoms: C_7  and  C_8 
REMARK    7  A    between atoms: C_8  and  C_9 
REMARK    8  A    between atoms: C_9  and  C_10 
REMARK    9  A    between atoms: C_10  and  C_11 
REMARK   10  A    between atoms: C_11  and  C_12 
REMARK   11  A    between atoms: C_12  and  C_13 
REMARK   12  A    between atoms: C_13  and  C_14 
REMARK   13  A    between atoms: C_14  and  C_15 
REMARK   14  A    between atoms: C_15  and  C_16 
REMARK   15  A    between atoms: C_16  and  O_17 
REMARK   16  A    between atoms: O_17  and  C_18 
ROOT
HETATM    1  C   UNL     1     -20.424  -5.365  -5.887  1.00  0.00     0.000 C 
ENDROOT
BRANCH   1   2
HETATM    2  C   UNL     1     -21.883  -5.754  -6.033  1.00  0.00     0.000 C 
BRANCH   2   3
HETATM    3  C   UNL     1     -22.297  -6.643  -4.877  1.00  0.00     0.000 C 
BRANCH   3   4
HETATM    4  C   UNL     1     -21.087  -7.380  -4.334  1.00  0.00     0.000 C 
BRANCH   4   5
HETATM    5  C   UNL     1     -21.279  -7.666  -2.857  1.00  0.00     0.000 C 
BRANCH   5   6
HETATM    6  C   UNL     1     -21.836  -6.438  -2.163  1.00  0.00     0.000 C 
BRANCH   6   7
HETATM    7  C   UNL     1     -22.374  -6.818  -0.796  1.00  0.00     0.000 C 
BRANCH   7   8
HETATM    8  C   UNL     1     -22.080  -8.280  -0.513  1.00  0.00    -0.000 C 
BRANCH   8   9
HETATM    9  C   UNL     1     -23.215  -8.897   0.288  1.00  0.00    -0.005 C 
HETATM   10  C   UNL     1     -23.539 -10.274  -0.249  1.00  0.00     0.005 C 
ENDBRANCH   8   9
ENDBRANCH   7   8
ENDBRANCH   6   7
ENDBRANCH   5   6
ENDBRANCH   4   5
ENDBRANCH   3   4
ENDBRANCH   2   3
ENDBRANCH   1   2
BRANCH   1  11
HETATM   11  C   UNL     1     -19.695  -5.623  -7.191  1.00  0.00     0.000 C 
BRANCH  11  12
HETATM   12  C   UNL     1     -19.456  -4.313  -7.908  1.00  0.00     0.000 C 
BRANCH  12  13
HETATM   13  C   UNL     1     -20.587  -4.029  -8.885  1.00  0.00     0.000 C 
BRANCH  13  14
HETATM   14  C   UNL     1     -20.211  -4.487 -10.287  1.00  0.00     0.002 C 
BRANCH  14  15
HETATM   15  C   UNL     1     -20.780  -3.536 -11.336  1.00  0.00     0.027 C 
BRANCH  15  16
HETATM   16  C   UNL     1     -22.155  -3.977 -11.797  1.00  0.00     0.178 C 
BRANCH  16  17
HETATM   17  O   UNL     1     -23.184  -3.079 -11.288  1.00  0.00    -0.322 OA
BRANCH  17  18
HETATM   18  C   UNL     1     -24.211  -3.681 -10.621  1.00  0.00     0.254 C 
HETATM   19  O   UNL     1     -25.284  -3.123 -10.360  1.00  0.00    -0.266 OA
HETATM   20  C   UNL     1     -23.926  -5.097 -10.239  1.00  0.00     0.126 C 
ENDBRANCH  17  18
ENDBRANCH  16  17
ENDBRANCH  15  16
ENDBRANCH  14  15
ENDBRANCH  13  14
ENDBRANCH  12  13
ENDBRANCH  11  12
ENDBRANCH   1  11
TORSDOF 16
BEGIN_RES ARG D 557
REMARK  4 active torsions:
REMARK  status: ('A' for Active; 'I' for Inactive)
REMARK    1  A    between atoms: CA   and  CB  
REMARK    2  A    between atoms: CB   and  CG  
REMARK    3  A    between atoms: CG   and  CD  
REMARK    4  A    between atoms: CD   and  NE  
REMARK       I    between atoms: NE   and  CZ  
REMARK       I    between atoms: CZ   and  NH1 
REMARK       I    between atoms: CZ   and  NH2 
ROOT
ATOM      1  CA  ARG D 557     -26.217   2.705 -17.014  1.00 35.49     0.159 C 
ENDROOT
BRANCH   1   2
ATOM      2  CB  ARG D 557     -26.789   1.319 -17.183  1.00 35.49     0.034 C 
BRANCH   2   3
ATOM      3  CG  ARG D 557     -25.939   0.198 -16.764  1.00 35.49     0.027 C 
BRANCH   3   4
ATOM      4  CD  ARG D 557     -26.711  -0.878 -16.100  1.00 35.49     0.116 C 
BRANCH   4   5
ATOM      5  NE  ARG D 557     -26.004  -1.439 -14.979  1.00 35.49    -0.212 N 
ATOM      6  CZ  ARG D 557     -25.970  -2.711 -14.651  1.00 35.49     0.666 C 
ATOM      7  NH1 ARG D 557     -26.616  -3.637 -15.335  1.00 35.49    -0.235 N 
ATOM      8  NH2 ARG D 557     -25.260  -3.044 -13.612  1.00 35.49    -0.235 N 
ATOM      9  HH  ARG D 557     -27.087  -3.441 -16.023  1.00 35.49     0.174 HD
ATOM     10  HH  ARG D 557     -26.555  -4.452 -15.076  1.00 35.49     0.174 HD
ATOM     11  HH  ARG D 557     -24.848  -2.426 -13.194  1.00 35.49     0.174 HD
ATOM     12  HH  ARG D 557     -25.211  -3.856 -13.372  1.00 35.49     0.174 HD
ATOM     13  HE  ARG D 557     -25.620  -0.904 -14.441  1.00 35.49     0.178 HD
ENDBRANCH   4   5
ENDBRANCH   3   4
ENDBRANCH   2   3
ENDBRANCH   1   2
END_RES ARG D 557
BEGIN_RES GLU D 570
REMARK  3 active torsions:
REMARK  status: ('A' for Active; 'I' for Inactive)
REMARK    5  A    between atoms: CA   and  CB  
REMARK    6  A    between atoms: CB   and  CG  
REMARK    7  A    between atoms: CG   and  CD  
ROOT
ATOM     14  CA  GLU D 570     -18.033  -6.348 -13.375  1.00 32.92     0.160 C 
ENDROOT
BRANCH  14  15
ATOM     15  CB  GLU D 570     -19.500  -6.345 -13.794  1.00 32.92     0.043 C 
BRANCH  15  16
ATOM     16  CG  GLU D 570     -19.796  -6.283 -15.249  1.00 32.92     0.100 C 
BRANCH  16  17
ATOM     17  CD  GLU D 570     -21.234  -5.922 -15.542  1.00 32.92     0.185 C 
ATOM     18  OE1 GLU D 570     -22.075  -6.834 -15.659  1.00 32.92    -0.647 OA
ATOM     19  OE2 GLU D 570     -21.518  -4.716 -15.675  1.00 32.92    -0.647 OA
ENDBRANCH  16  17
ENDBRANCH  15  16
ENDBRANCH  14  15
END_RES GLU D 570
ENDMDL
MODEL 3
REMARK VINA RESULT:      -6.9      3.269      5.987
REMARK  16 active torsions:
REMARK  status: ('A' for Active; 'I' for Inactive)
REMARK    1  A    between atoms: C_2  and  C_3 
REMARK    2  A    between atoms: C_3  and  C_4 
REMARK    3  A    between atoms: C_4  and  C_5 
REMARK    4  A    between atoms: C_5  and  C_6 
REMARK    5  A    between atoms: C_6  and  C_7 
REMARK    6  A    between atoms: C_7  and  C_8 
REMARK    7  A    between atoms: C_8  and  C_9 
REMARK    8  A    between atoms: C_9  and  C_10 
REMARK    9  A    between atoms: C_10  and  C_11 
REMARK   10  A    between atoms: C_11  and  C_12 
REMARK   11  A    between atoms: C_12  and  C_13 
REMARK   12  A    between atoms: C_13  and  C_14 
REMARK   13  A    between atoms: C_14  and  C_15 
REMARK   14  A    between atoms: C_15  and  C_16 
REMARK   15  A    between atoms: C_16  and  O_17 
REMARK   16  A    between atoms: O_17  and  C_18 
ROOT
HETATM    1  C   UNL     1     -21.220  -6.086  -4.162  1.00  0.00     0.000 C 
ENDROOT
BRANCH   1   2
HETATM    2  C   UNL     1     -21.536  -7.000  -2.994  1.00  0.00     0.000 C 
BRANCH   2   3
HETATM    3  C   UNL     1     -22.236  -6.215  -1.901  1.00  0.00     0.000 C 
BRANCH   3   4
HETATM    4  C   UNL     1     -22.386  -7.079  -0.663  1.00  0.00     0.000 C 
BRANCH   4   5
HETATM    5  C   UNL     1     -21.241  -8.070  -0.585  1.00  0.00     0.000 C 
BRANCH   5   6
HETATM    6  C   UNL     1     -21.757  -9.419  -0.122  1.00  0.00     0.000 C 
BRANCH   6   7
HETATM    7  C   UNL     1     -23.267  -9.372   0.018  1.00  0.00     0.000 C 
BRANCH   7   8
HETATM    8  C   UNL     1     -23.849 -10.757  -0.191  1.00  0.00    -0.000 C 
BRANCH   8   9
HETATM    9  C   UNL     1     -22.784 -11.815   0.045  1.00  0.00    -0.005 C 
HETATM   10  C   UNL     1     -23.299 -12.864   1.005  1.00  0.00     0.005 C 
ENDBRANCH   8   9
ENDBRANCH   7   8
ENDBRANCH   6   7
ENDBRANCH   5   6
ENDBRANCH   4   5
ENDBRANCH   3   4
ENDBRANCH   2   3
ENDBRANCH   1   2
BRANCH   1  11
HETATM   11  C   UNL     1     -20.752  -6.913  -5.344  1.00  0.00     0.000 C 
BRANCH  11  12
HETATM   12  C   UNL     1     -20.987  -6.147  -6.627  1.00  0.00     0.000 C 
BRANCH  12  13
HETATM   13  C   UNL     1     -20.351  -4.767  -6.545  1.00  0.00     0.000 C 
BRANCH  13  14
HETATM   14  C   UNL     1     -21.266  -3.718  -7.157  1.00  0.00     0.002 C 
BRANCH  14  15
HETATM   15  C   UNL     1     -22.557  -4.356  -7.664  1.00  0.00     0.027 C 
BRANCH  15  16
HETATM   16  C   UNL     1     -23.036  -3.700  -8.943  1.00  0.00     0.178 C 
BRANCH  16  17
HETATM   17  O   UNL     1     -22.597  -4.456 -10.109  1.00  0.00    -0.322 OA
BRANCH  17  18
HETATM   18  C   UNL     1     -21.733  -3.804 -10.940  1.00  0.00     0.254 C 
HETATM   19  O   UNL     1     -22.074  -2.904 -11.718  1.00  0.00    -0.266 OA
HETATM   20  C   UNL     1     -20.319  -4.268 -10.816  1.00  0.00     0.126 C 
ENDBRANCH  17  18
ENDBRANCH  16  17
ENDBRANCH  15  16
ENDBRANCH  14  15
ENDBRANCH  13  14
ENDBRANCH  12  13
ENDBRANCH  11  12
ENDBRANCH   1  11
TORSDOF 16
BEGIN_RES ARG D 557
REMARK  4 active torsions:
REMARK  status: ('A' for Active; 'I' for Inactive)
REMARK    1  A    between atoms: CA   and  CB  
REMARK    2  A    between atoms: CB   and  CG  
REMARK    3  A    between atoms: CG   and  CD  
REMARK    4  A    between atoms: CD   and  NE  
REMARK       I    between atoms: NE   and  CZ  
REMARK       I    between atoms: CZ   and  NH1 
REMARK       I    between atoms: CZ   and  NH2 
ROOT
ATOM      1  CA  ARG D 557     -26.217   2.705 -17.014  1.00 35.49     0.159 C 
ENDROOT
BRANCH   1   2
ATOM      2  CB  ARG D 557     -26.789   1.319 -17.183  1.00 35.49     0.034 C 
BRANCH   2   3
ATOM      3  CG  ARG D 557     -25.838   0.202 -17.138  1.00 35.49     0.027 C 
BRANCH   3   4
ATOM      4  CD  ARG D 557     -24.753   0.424 -16.154  1.00 35.49     0.116 C 
BRANCH   4   5
ATOM      5  NE  ARG D 557     -24.870  -0.444 -15.013  1.00 35.49    -0.212 N 
ATOM      6  CZ  ARG D 557     -24.038  -1.412 -14.695  1.00 35.49     0.666 C 
ATOM      7  NH1 ARG D 557     -22.980  -1.706 -15.427  1.00 35.49    -0.235 N 
ATOM      8  NH2 ARG D 557     -24.288  -2.086 -13.610  1.00 35.49    -0.235 N 
ATOM      9  HH  ARG D 557     -22.795  -1.274 -16.144  1.00 35.49     0.174 HD
ATOM     10  HH  ARG D 557     -22.471  -2.345 -15.169  1.00 35.49     0.174 HD
ATOM     11  HH  ARG D 557     -24.975  -1.869 -13.154  1.00 35.49     0.174 HD
ATOM     12  HH  ARG D 557     -23.772  -2.715 -13.371  1.00 35.49     0.174 HD
ATOM     13  HE  ARG D 557     -25.563  -0.373 -14.526  1.00 35.49     0.178 HD
ENDBRANCH   4   5
ENDBRANCH   3   4
ENDBRANCH   2   3
ENDBRANCH   1   2
END_RES ARG D 557
BEGIN_RES GLU D 570
REMARK  3 active torsions:
REMARK  status: ('A' for Active; 'I' for Inactive)
REMARK    5  A    between atoms: CA   and  CB  
REMARK    6  A    between atoms: CB   and  CG  
REMARK    7  A    between atoms: CG   and  CD  
ROOT
ATOM     14  CA  GLU D 570     -18.033  -6.348 -13.375  1.00 32.92     0.160 C 
ENDROOT
BRANCH  14  15
ATOM     15  CB  GLU D 570     -19.500  -6.345 -13.794  1.00 32.92     0.043 C 
BRANCH  15  16
ATOM     16  CG  GLU D 570     -19.814  -5.925 -15.184  1.00 32.92     0.100 C 
BRANCH  16  17
ATOM     17  CD  GLU D 570     -21.286  -5.666 -15.403  1.00 32.92     0.185 C 
ATOM     18  OE1 GLU D 570     -21.651  -4.539 -15.791  1.00 32.92    -0.647 OA
ATOM     19  OE2 GLU D 570     -22.085  -6.594 -15.168  1.00 32.92    -0.647 OA
ENDBRANCH  16  17
ENDBRANCH  15  16
ENDBRANCH  14  15
END_RES GLU D 570
ENDMDL
MODEL 4
REMARK VINA RESULT:      -6.8      2.232      3.728
REMARK  16 active torsions:
REMARK  status: ('A' for Active; 'I' for Inactive)
REMARK    1  A    between atoms: C_2  and  C_3 
REMARK    2  A    between atoms: C_3  and  C_4 
REMARK    3  A    between atoms: C_4  and  C_5 
REMARK    4  A    between atoms: C_5  and  C_6 
REMARK    5  A    between atoms: C_6  and  C_7 
REMARK    6  A    between atoms: C_7  and  C_8 
REMARK    7  A    between atoms: C_8  and  C_9 
REMARK    8  A    between atoms: C_9  and  C_10 
REMARK    9  A    between atoms: C_10  and  C_11 
REMARK   10  A    between atoms: C_11  and  C_12 
REMARK   11  A    between atoms: C_12  and  C_13 
REMARK   12  A    between atoms: C_13  and  C_14 
REMARK   13  A    between atoms: C_14  and  C_15 
REMARK   14  A    between atoms: C_15  and  C_16 
REMARK   15  A    between atoms: C_16  and  O_17 
REMARK   16  A    between atoms: O_17  and  C_18 
ROOT
HETATM    1  C   UNL     1     -19.485  -4.855  -6.789  1.00  0.00     0.000 C 
ENDROOT
BRANCH   1   2
HETATM    2  C   UNL     1     -20.346  -6.075  -6.527  1.00  0.00     0.000 C 
BRANCH   2   3
HETATM    3  C   UNL     1     -21.627  -5.661  -5.829  1.00  0.00     0.000 C 
BRANCH   3   4
HETATM    4  C   UNL     1     -22.093  -6.772  -4.907  1.00  0.00     0.000 C 
BRANCH   4   5
HETATM    5  C   UNL     1     -20.929  -7.271  -4.073  1.00  0.00     0.000 C 
BRANCH   5   6
HETATM    6  C   UNL     1     -21.430  -8.230  -3.010  1.00  0.00     0.000 C 
BRANCH   6   7
HETATM    7  C   UNL     1     -21.107  -7.685  -1.631  1.00  0.00     0.000 C 
BRANCH   7   8
HETATM    8  C   UNL     1     -22.329  -7.004  -1.044  1.00  0.00    -0.000 C 
BRANCH   8   9
HETATM    9  C   UNL     1     -22.825  -7.773   0.169  1.00  0.00    -0.005 C 
HETATM   10  C   UNL     1     -21.651  -8.279   0.978  1.00  0.00     0.005 C 
ENDBRANCH   8   9
ENDBRANCH   7   8
ENDBRANCH   6   7
ENDBRANCH   5   6
ENDBRANCH   4   5
ENDBRANCH   3   4
ENDBRANCH   2   3
ENDBRANCH   1   2
BRANCH   1  11
HETATM   11  C   UNL     1     -20.168  -3.956  -7.802  1.00  0.00     0.000 C 
BRANCH  11  12
HETATM   12  C   UNL     1     -20.378  -4.713  -9.094  1.00  0.00     0.000 C 
BRANCH  12  13
HETATM   13  C   UNL     1     -21.492  -4.073  -9.910  1.00  0.00     0.000 C 
BRANCH  13  14
HETATM   14  C   UNL     1     -22.629  -3.625  -9.004  1.00  0.00     0.002 C 
BRANCH  14  15
HETATM   15  C   UNL     1     -23.958  -4.204  -9.479  1.00  0.00     0.027 C 
BRANCH  15  16
HETATM   16  C   UNL     1     -24.010  -4.310 -10.989  1.00  0.00     0.178 C 
BRANCH  16  17
HETATM   17  O   UNL     1     -24.826  -3.243 -11.556  1.00  0.00    -0.322 OA
BRANCH  17  18
HETATM   18  C   UNL     1     -24.536  -2.906 -12.846  1.00  0.00     0.254 C 
HETATM   19  O   UNL     1     -25.395  -2.695 -13.712  1.00  0.00    -0.266 OA
HETATM   20  C   UNL     1     -23.072  -2.800 -13.122  1.00  0.00     0.126 C 
ENDBRANCH  17  18
ENDBRANCH  16  17
ENDBRANCH  15  16
ENDBRANCH  14  15
ENDBRANCH  13  14
ENDBRANCH  12  13
ENDBRANCH  11  12
ENDBRANCH   1  11
TORSDOF 16
BEGIN_RES ARG D 557
REMARK  4 active torsions:
REMARK  status: ('A' for Active; 'I' for Inactive)
REMARK    1  A    between atoms: CA   and  CB  
REMARK    2  A    between atoms: CB   and  CG  
REMARK    3  A    between atoms: CG   and  CD  
REMARK    4  A    between atoms: CD   and  NE  
REMARK       I    between atoms: NE   and  CZ  
REMARK       I    between atoms: CZ   and  NH1 
REMARK       I    between atoms: CZ   and  NH2 
ROOT
ATOM      1  CA  ARG D 557     -26.217   2.705 -17.014  1.00 35.49     0.159 C 
ENDROOT
BRANCH   1   2
ATOM      2  CB  ARG D 557     -26.789   1.319 -17.183  1.00 35.49     0.034 C 
BRANCH   2   3
ATOM      3  CG  ARG D 557     -28.233   1.226 -17.432  1.00 35.49     0.027 C 
BRANCH   3   4
ATOM      4  CD  ARG D 557     -28.910   0.307 -16.490  1.00 35.49     0.116 C 
BRANCH   4   5
ATOM      5  NE  ARG D 557     -29.269  -0.940 -17.112  1.00 35.49    -0.212 N 
ATOM      6  CZ  ARG D 557     -28.616  -2.075 -16.993  1.00 35.49     0.666 C 
ATOM      7  NH1 ARG D 557     -27.514  -2.186 -16.274  1.00 35.49    -0.235 N 
ATOM      8  NH2 ARG D 557     -29.099  -3.113 -17.611  1.00 35.49    -0.235 N 
ATOM      9  HH  ARG D 557     -27.180  -1.516 -15.857  1.00 35.49     0.174 HD
ATOM     10  HH  ARG D 557     -27.133  -2.952 -16.231  1.00 35.49     0.174 HD
ATOM     11  HH  ARG D 557     -29.816  -3.013 -18.062  1.00 35.49     0.174 HD
ATOM     12  HH  ARG D 557     -28.707  -3.863 -17.555  1.00 35.49     0.174 HD
ATOM     13  HE  ARG D 557     -29.926  -0.942 -17.652  1.00 35.49     0.178 HD
ENDBRANCH   4   5
ENDBRANCH   3   4
ENDBRANCH   2   3
ENDBRANCH   1   2
END_RES ARG D 557
BEGIN_RES GLU D 570
REMARK  3 active torsions:
REMARK  status: ('A' for Active; 'I' for Inactive)
REMARK    5  A    between atoms: CA   and  CB  
REMARK    6  A    between atoms: CB   and  CG  
REMARK    7  A    between atoms: CG   and  CD  
ROOT
ATOM     14  CA  GLU D 570     -18.033  -6.348 -13.375  1.00 32.92     0.160 C 
ENDROOT
BRANCH  14  15
ATOM     15  CB  GLU D 570     -19.500  -6.345 -13.794  1.00 32.92     0.043 C 
BRANCH  15  16
ATOM     16  CG  GLU D 570     -19.807  -6.017 -15.210  1.00 32.92     0.100 C 
BRANCH  16  17
ATOM     17  CD  GLU D 570     -21.257  -5.653 -15.430  1.00 32.92     0.185 C 
ATOM     18  OE1 GLU D 570     -22.111  -6.051 -14.615  1.00 32.92    -0.647 OA
ATOM     19  OE2 GLU D 570     -21.543  -4.976 -16.437  1.00 32.92    -0.647 OA
ENDBRANCH  16  17
ENDBRANCH  15  16
ENDBRANCH  14  15
END_RES GLU D 570
ENDMDL
MODEL 5
REMARK VINA RESULT:      -6.8      2.410      4.477
REMARK  16 active torsions:
REMARK  status: ('A' for Active; 'I' for Inactive)
REMARK    1  A    between atoms: C_2  and  C_3 
REMARK    2  A    between atoms: C_3  and  C_4 
REMARK    3  A    between atoms: C_4  and  C_5 
REMARK    4  A    between atoms: C_5  and  C_6 
REMARK    5  A    between atoms: C_6  and  C_7 
REMARK    6  A    between atoms: C_7  and  C_8 
REMARK    7  A    between atoms: C_8  and  C_9 
REMARK    8  A    between atoms: C_9  and  C_10 
REMARK    9  A    between atoms: C_10  and  C_11 
REMARK   10  A    between atoms: C_11  and  C_12 
REMARK   11  A    between atoms: C_12  and  C_13 
REMARK   12  A    between atoms: C_13  and  C_14 
REMARK   13  A    between atoms: C_14  and  C_15 
REMARK   14  A    between atoms: C_15  and  C_16 
REMARK   15  A    between atoms: C_16  and  O_17 
REMARK   16  A    between atoms: O_17  and  C_18 
ROOT
HETATM    1  C   UNL     1     -20.822  -6.262  -6.517  1.00  0.00     0.000 C 
ENDROOT
BRANCH   1   2
HETATM    2  C   UNL     1     -20.847  -7.023  -5.206  1.00  0.00     0.000 C 
BRANCH   2   3
HETATM    3  C   UNL     1     -21.570  -6.208  -4.151  1.00  0.00     0.000 C 
BRANCH   3   4
HETATM    4  C   UNL     1     -21.230  -6.736  -2.770  1.00  0.00     0.000 C 
BRANCH   4   5
HETATM    5  C   UNL     1     -22.234  -6.217  -1.759  1.00  0.00     0.000 C 
BRANCH   5   6
HETATM    6  C   UNL     1     -22.333  -7.178  -0.590  1.00  0.00     0.000 C 
BRANCH   6   7
HETATM    7  C   UNL     1     -21.226  -8.212  -0.679  1.00  0.00     0.000 C 
BRANCH   7   8
HETATM    8  C   UNL     1     -21.763  -9.579  -0.298  1.00  0.00    -0.000 C 
BRANCH   8   9
HETATM    9  C   UNL     1     -23.235  -9.480   0.067  1.00  0.00    -0.005 C 
HETATM   10  C   UNL     1     -23.940 -10.776  -0.270  1.00  0.00     0.005 C 
ENDBRANCH   8   9
ENDBRANCH   7   8
ENDBRANCH   6   7
ENDBRANCH   5   6
ENDBRANCH   4   5
ENDBRANCH   3   4
ENDBRANCH   2   3
ENDBRANCH   1   2
BRANCH   1  11
HETATM   11  C   UNL     1     -20.391  -4.830  -6.268  1.00  0.00     0.000 C 
BRANCH  11  12
HETATM   12  C   UNL     1     -20.894  -3.945  -7.386  1.00  0.00     0.000 C 
BRANCH  12  13
HETATM   13  C   UNL     1     -19.928  -3.973  -8.561  1.00  0.00     0.000 C 
BRANCH  13  14
HETATM   14  C   UNL     1     -20.626  -4.474  -9.816  1.00  0.00     0.002 C 
BRANCH  14  15
HETATM   15  C   UNL     1     -20.630  -3.399 -10.899  1.00  0.00     0.027 C 
BRANCH  15  16
HETATM   16  C   UNL     1     -22.004  -3.239 -11.517  1.00  0.00     0.178 C 
BRANCH  16  17
HETATM   17  O   UNL     1     -23.048  -3.559 -10.550  1.00  0.00    -0.322 OA
BRANCH  17  18
HETATM   18  C   UNL     1     -24.322  -3.273 -10.947  1.00  0.00     0.254 C 
HETATM   19  O   UNL     1     -25.279  -3.177 -10.169  1.00  0.00    -0.266 OA
HETATM   20  C   UNL     1     -24.457  -3.071 -12.421  1.00  0.00     0.126 C 
ENDBRANCH  17  18
ENDBRANCH  16  17
ENDBRANCH  15  16
ENDBRANCH  14  15
ENDBRANCH  13  14
ENDBRANCH  12  13
ENDBRANCH  11  12
ENDBRANCH   1  11
TORSDOF 16
BEGIN_RES ARG D 557
REMARK  4 active torsions:
REMARK  status: ('A' for Active; 'I' for Inactive)
REMARK    1  A    between atoms: CA   and  CB  
REMARK    2  A    between atoms: CB   and  CG  
REMARK    3  A    between atoms: CG   and  CD  
REMARK    4  A    between atoms: CD   and  NE  
REMARK       I    between atoms: NE   and  CZ  
REMARK       I    between atoms: CZ   and  NH1 
REMARK       I    between atoms: CZ   and  NH2 
ROOT
ATOM      1  CA  ARG D 557     -26.217   2.705 -17.014  1.00 35.49     0.159 C 
ENDROOT
BRANCH   1   2
ATOM      2  CB  ARG D 557     -26.789   1.319 -17.183  1.00 35.49     0.034 C 
BRANCH   2   3
ATOM      3  CG  ARG D 557     -28.249   1.217 -17.301  1.00 35.49     0.027 C 
BRANCH   3   4
ATOM      4  CD  ARG D 557     -28.820   0.211 -16.377  1.00 35.49     0.116 C 
BRANCH   4   5
ATOM      5  NE  ARG D 557     -29.329  -0.940 -17.076  1.00 35.49    -0.212 N 
ATOM      6  CZ  ARG D 557     -28.799  -2.143 -17.062  1.00 35.49     0.666 C 
ATOM      7  NH1 ARG D 557     -27.696  -2.425 -16.393  1.00 35.49    -0.235 N 
ATOM      8  NH2 ARG D 557     -29.407  -3.075 -17.738  1.00 35.49    -0.235 N 
ATOM      9  HH  ARG D 557     -27.281  -1.828 -15.940  1.00 35.49     0.174 HD
ATOM     10  HH  ARG D 557     -27.398  -3.228 -16.418  1.00 35.49     0.174 HD
ATOM     11  HH  ARG D 557     -30.121  -2.865 -18.154  1.00 35.49     0.174 HD
ATOM     12  HH  ARG D 557     -29.097  -3.864 -17.750  1.00 35.49     0.174 HD
ATOM     13  HE  ARG D 557     -29.996  -0.832 -17.591  1.00 35.49     0.178 HD
ENDBRANCH   4   5
ENDBRANCH   3   4
ENDBRANCH   2   3
ENDBRANCH   1   2
END_RES ARG D 557
BEGIN_RES GLU D 570
REMARK  3 active torsions:
REMARK  status: ('A' for Active; 'I' for Inactive)
REMARK    5  A    between atoms: CA   and  CB  
REMARK    6  A    between atoms: CB   and  CG  
REMARK    7  A    between atoms: CG   and  CD  
ROOT
ATOM     14  CA  GLU D 570     -18.033  -6.348 -13.375  1.00 32.92     0.160 C 
ENDROOT
BRANCH  14  15
ATOM     15  CB  GLU D 570     -19.500  -6.345 -13.794  1.00 32.92     0.043 C 
BRANCH  15  16
ATOM     16  CG  GLU D 570     -20.049  -7.599 -14.372  1.00 32.92     0.100 C 
BRANCH  16  17
ATOM     17  CD  GLU D 570     -20.744  -7.382 -15.696  1.00 32.92     0.185 C 
ATOM     18  OE1 GLU D 570     -21.520  -8.259 -16.122  1.00 32.92    -0.647 OA
ATOM     19  OE2 GLU D 570     -20.497  -6.333 -16.322  1.00 32.92    -0.647 OA
ENDBRANCH  16  17
ENDBRANCH  15  16
ENDBRANCH  14  15
END_RES GLU D 570
ENDMDL
MODEL 6
REMARK VINA RESULT:      -6.8      3.145      5.536
REMARK  16 active torsions:
REMARK  status: ('A' for Active; 'I' for Inactive)
REMARK    1  A    between atoms: C_2  and  C_3 
REMARK    2  A    between atoms: C_3  and  C_4 
REMARK    3  A    between atoms: C_4  and  C_5 
REMARK    4  A    between atoms: C_5  and  C_6 
REMARK    5  A    between atoms: C_6  and  C_7 
REMARK    6  A    between atoms: C_7  and  C_8 
REMARK    7  A    between atoms: C_8  and  C_9 
REMARK    8  A    between atoms: C_9  and  C_10 
REMARK    9  A    between atoms: C_10  and  C_11 
REMARK   10  A    between atoms: C_11  and  C_12 
REMARK   11  A    between atoms: C_12  and  C_13 
REMARK   12  A    between atoms: C_13  and  C_14 
REMARK   13  A    between atoms: C_14  and  C_15 
REMARK   14  A    between atoms: C_15  and  C_16 
REMARK   15  A    between atoms: C_16  and  O_17 
REMARK   16  A    between atoms: O_17  and  C_18 
ROOT
HETATM    1  C   UNL     1     -21.348  -6.712  -5.686  1.00  0.00     0.000 C 
ENDROOT
BRANCH   1   2
HETATM    2  C   UNL     1     -21.748  -7.511  -4.461  1.00  0.00     0.000 C 
BRANCH   2   3
HETATM    3  C   UNL     1     -21.780  -6.606  -3.244  1.00  0.00     0.000 C 
BRANCH   3   4
HETATM    4  C   UNL     1     -21.486  -7.415  -1.994  1.00  0.00     0.000 C 
BRANCH   4   5
HETATM    5  C   UNL     1     -22.394  -6.966  -0.866  1.00  0.00     0.000 C 
BRANCH   5   6
HETATM    6  C   UNL     1     -22.285  -7.932   0.299  1.00  0.00     0.000 C 
BRANCH   6   7
HETATM    7  C   UNL     1     -22.278  -9.359  -0.216  1.00  0.00     0.000 C 
BRANCH   7   8
HETATM    8  C   UNL     1     -23.637  -9.995   0.006  1.00  0.00    -0.000 C 
BRANCH   8   9
HETATM    9  C   UNL     1     -23.756 -11.274  -0.806  1.00  0.00    -0.005 C 
HETATM   10  C   UNL     1     -23.030 -11.120  -2.125  1.00  0.00     0.005 C 
ENDBRANCH   8   9
ENDBRANCH   7   8
ENDBRANCH   6   7
ENDBRANCH   5   6
ENDBRANCH   4   5
ENDBRANCH   3   4
ENDBRANCH   2   3
ENDBRANCH   1   2
BRANCH   1  11
HETATM   11  C   UNL     1     -20.693  -5.413  -5.257  1.00  0.00     0.000 C 
BRANCH  11  12
HETATM   12  C   UNL     1     -20.566  -4.489  -6.447  1.00  0.00     0.000 C 
BRANCH  12  13
HETATM   13  C   UNL     1     -20.540  -5.290  -7.741  1.00  0.00     0.000 C 
BRANCH  13  14
HETATM   14  C   UNL     1     -19.788  -4.532  -8.824  1.00  0.00     0.002 C 
BRANCH  14  15
HETATM   15  C   UNL     1     -20.760  -3.851  -9.782  1.00  0.00     0.027 C 
BRANCH  15  16
HETATM   16  C   UNL     1     -22.052  -4.632  -9.911  1.00  0.00     0.178 C 
BRANCH  16  17
HETATM   17  O   UNL     1     -23.128  -3.778 -10.400  1.00  0.00    -0.322 OA
BRANCH  17  18
HETATM   18  C   UNL     1     -24.130  -3.528  -9.507  1.00  0.00     0.254 C 
HETATM   19  O   UNL     1     -25.135  -2.857  -9.771  1.00  0.00    -0.266 OA
HETATM   20  C   UNL     1     -23.908  -4.157  -8.170  1.00  0.00     0.126 C 
ENDBRANCH  17  18
ENDBRANCH  16  17
ENDBRANCH  15  16
ENDBRANCH  14  15
ENDBRANCH  13  14
ENDBRANCH  12  13
ENDBRANCH  11  12
ENDBRANCH   1  11
TORSDOF 16
BEGIN_RES ARG D 557
REMARK  4 active torsions:
REMARK  status: ('A' for Active; 'I' for Inactive)
REMARK    1  A    between atoms: CA   and  CB  
REMARK    2  A    between atoms: CB   and  CG  
REMARK    3  A    between atoms: CG   and  CD  
REMARK    4  A    between atoms: CD   and  NE  
REMARK       I    between atoms: NE   and  CZ  
REMARK       I    between atoms: CZ   and  NH1 
REMARK       I    between atoms: CZ   and  NH2 
ROOT
ATOM      1  CA  ARG D 557     -26.217   2.705 -17.014  1.00 35.49     0.159 C 
ENDROOT
BRANCH   1   2
ATOM      2  CB  ARG D 557     -26.789   1.319 -17.183  1.00 35.49     0.034 C 
BRANCH   2   3
ATOM      3  CG  ARG D 557     -25.843   0.199 -17.101  1.00 35.49     0.027 C 
BRANCH   3   4
ATOM      4  CD  ARG D 557     -24.776   0.434 -16.101  1.00 35.49     0.116 C 
BRANCH   4   5
ATOM      5  NE  ARG D 557     -24.900  -0.437 -14.962  1.00 35.49    -0.212 N 
ATOM      6  CZ  ARG D 557     -24.082  -1.418 -14.653  1.00 35.49     0.666 C 
ATOM      7  NH1 ARG D 557     -23.032  -1.726 -15.392  1.00 35.49    -0.235 N 
ATOM      8  NH2 ARG D 557     -24.336  -2.092 -13.569  1.00 35.49    -0.235 N 
ATOM      9  HH  ARG D 557     -22.845  -1.294 -16.108  1.00 35.49     0.174 HD
ATOM     10  HH  ARG D 557     -22.533  -2.374 -15.140  1.00 35.49     0.174 HD
ATOM     11  HH  ARG D 557     -25.016  -1.866 -13.107  1.00 35.49     0.174 HD
ATOM     12  HH  ARG D 557     -23.828  -2.730 -13.335  1.00 35.49     0.174 HD
ATOM     13  HE  ARG D 557     -25.589  -0.356 -14.470  1.00 35.49     0.178 HD
ENDBRANCH   4   5
ENDBRANCH   3   4
ENDBRANCH   2   3
ENDBRANCH   1   2
END_RES ARG D 557
BEGIN_RES GLU D 570
REMARK  3 active torsions:
REMARK  status: ('A' for Active; 'I' for Inactive)
REMARK    5  A    between atoms: CA   and  CB  
REMARK    6  A    between atoms: CB   and  CG  
REMARK    7  A    between atoms: CG   and  CD  
ROOT
ATOM     14  CA  GLU D 570     -18.033  -6.348 -13.375  1.00 32.92     0.160 C 
ENDROOT
BRANCH  14  15
ATOM     15  CB  GLU D 570     -19.500  -6.345 -13.794  1.00 32.92     0.043 C 
BRANCH  15  16
ATOM     16  CG  GLU D 570     -20.441  -5.528 -12.986  1.00 32.92     0.100 C 
BRANCH  16  17
ATOM     17  CD  GLU D 570     -21.740  -5.243 -13.702  1.00 32.92     0.185 C 
ATOM     18  OE1 GLU D 570     -22.258  -6.140 -14.395  1.00 32.92    -0.647 OA
ATOM     19  OE2 GLU D 570     -22.237  -4.106 -13.583  1.00 32.92    -0.647 OA
ENDBRANCH  16  17
ENDBRANCH  15  16
ENDBRANCH  14  15
END_RES GLU D 570
ENDMDL
MODEL 7
REMARK VINA RESULT:      -6.1      4.137      8.756
REMARK  16 active torsions:
REMARK  status: ('A' for Active; 'I' for Inactive)
REMARK    1  A    between atoms: C_2  and  C_3 
REMARK    2  A    between atoms: C_3  and  C_4 
REMARK    3  A    between atoms: C_4  and  C_5 
REMARK    4  A    between atoms: C_5  and  C_6 
REMARK    5  A    between atoms: C_6  and  C_7 
REMARK    6  A    between atoms: C_7  and  C_8 
REMARK    7  A    between atoms: C_8  and  C_9 
REMARK    8  A    between atoms: C_9  and  C_10 
REMARK    9  A    between atoms: C_10  and  C_11 
REMARK   10  A    between atoms: C_11  and  C_12 
REMARK   11  A    between atoms: C_12  and  C_13 
REMARK   12  A    between atoms: C_13  and  C_14 
REMARK   13  A    between atoms: C_14  and  C_15 
REMARK   14  A    between atoms: C_15  and  C_16 
REMARK   15  A    between atoms: C_16  and  O_17 
REMARK   16  A    between atoms: O_17  and  C_18 
ROOT
HETATM    1  C   UNL     1     -21.953  -6.826  -3.839  1.00  0.00     0.000 C 
ENDROOT
BRANCH   1   2
HETATM    2  C   UNL     1     -20.878  -7.500  -4.670  1.00  0.00     0.000 C 
BRANCH   2   3
HETATM    3  C   UNL     1     -20.641  -6.711  -5.943  1.00  0.00     0.000 C 
BRANCH   3   4
HETATM    4  C   UNL     1     -21.683  -5.617  -6.073  1.00  0.00     0.000 C 
BRANCH   4   5
HETATM    5  C   UNL     1     -21.028  -4.336  -6.551  1.00  0.00     0.000 C 
BRANCH   5   6
HETATM    6  C   UNL     1     -19.679  -4.648  -7.172  1.00  0.00     0.000 C 
BRANCH   6   7
HETATM    7  C   UNL     1     -19.576  -3.993  -8.536  1.00  0.00     0.000 C 
BRANCH   7   8
HETATM    8  C   UNL     1     -20.758  -4.401  -9.396  1.00  0.00    -0.000 C 
BRANCH   8   9
HETATM    9  C   UNL     1     -20.438  -4.179 -10.865  1.00  0.00    -0.005 C 
HETATM   10  C   UNL     1     -21.566  -3.422 -11.532  1.00  0.00     0.005 C 
ENDBRANCH   8   9
ENDBRANCH   7   8
ENDBRANCH   6   7
ENDBRANCH   5   6
ENDBRANCH   4   5
ENDBRANCH   3   4
ENDBRANCH   2   3
ENDBRANCH   1   2
BRANCH   1  11
HETATM   11  C   UNL     1     -21.355  -6.332  -2.536  1.00  0.00     0.000 C 
BRANCH  11  12
HETATM   12  C   UNL     1     -22.356  -6.509  -1.417  1.00  0.00     0.000 C 
BRANCH  12  13
HETATM   13  C   UNL     1     -21.909  -7.617  -0.474  1.00  0.00     0.000 C 
BRANCH  13  14
HETATM   14  C   UNL     1     -23.065  -8.075   0.401  1.00  0.00     0.002 C 
BRANCH  14  15
HETATM   15  C   UNL     1     -23.395  -9.541   0.137  1.00  0.00     0.027 C 
BRANCH  15  16
HETATM   16  C   UNL     1     -22.150 -10.341  -0.188  1.00  0.00     0.178 C 
BRANCH  16  17
HETATM   17  O   UNL     1     -22.329 -11.100  -1.420  1.00  0.00    -0.322 OA
BRANCH  17  18
HETATM   18  C   UNL     1     -21.619 -10.649  -2.495  1.00  0.00     0.254 C 
HETATM   19  O   UNL     1     -20.463 -10.214  -2.422  1.00  0.00    -0.266 OA
HETATM   20  C   UNL     1     -22.366 -10.741  -3.785  1.00  0.00     0.126 C 
ENDBRANCH  17  18
ENDBRANCH  16  17
ENDBRANCH  15  16
ENDBRANCH  14  15
ENDBRANCH  13  14
ENDBRANCH  12  13
ENDBRANCH  11  12
ENDBRANCH   1  11
TORSDOF 16
BEGIN_RES ARG D 557
REMARK  4 active torsions:
REMARK  status: ('A' for Active; 'I' for Inactive)
REMARK    1  A    between atoms: CA   and  CB  
REMARK    2  A    between atoms: CB   and  CG  
REMARK    3  A    between atoms: CG   and  CD  
REMARK    4  A    between atoms: CD   and  NE  
REMARK       I    between atoms: NE   and  CZ  
REMARK       I    between atoms: CZ   and  NH1 
REMARK       I    between atoms: CZ   and  NH2 
ROOT
ATOM      1  CA  ARG D 557     -26.217   2.705 -17.014  1.00 35.49     0.159 C 
ENDROOT
BRANCH   1   2
ATOM      2  CB  ARG D 557     -26.789   1.319 -17.183  1.00 35.49     0.034 C 
BRANCH   2   3
ATOM      3  CG  ARG D 557     -28.226   1.162 -16.928  1.00 35.49     0.027 C 
BRANCH   3   4
ATOM      4  CD  ARG D 557     -28.603  -0.247 -16.671  1.00 35.49     0.116 C 
BRANCH   4   5
ATOM      5  NE  ARG D 557     -27.579  -0.960 -15.953  1.00 35.49    -0.212 N 
ATOM      6  CZ  ARG D 557     -27.353  -2.253 -16.019  1.00 35.49     0.666 C 
ATOM      7  NH1 ARG D 557     -28.079  -3.062 -16.768  1.00 35.49    -0.235 N 
ATOM      8  NH2 ARG D 557     -26.367  -2.727 -15.313  1.00 35.49    -0.235 N 
ATOM      9  HH  ARG D 557     -28.731  -2.772 -17.242  1.00 35.49     0.174 HD
ATOM     10  HH  ARG D 557     -27.883  -3.897 -16.773  1.00 35.49     0.174 HD
ATOM     11  HH  ARG D 557     -25.911  -2.179 -14.845  1.00 35.49     0.174 HD
ATOM     12  HH  ARG D 557     -26.189  -3.555 -15.333  1.00 35.49     0.174 HD
ATOM     13  HE  ARG D 557     -27.111  -0.527 -15.390  1.00 35.49     0.178 HD
ENDBRANCH   4   5
ENDBRANCH   3   4
ENDBRANCH   2   3
ENDBRANCH   1   2
END_RES ARG D 557
BEGIN_RES GLU D 570
REMARK  3 active torsions:
REMARK  status: ('A' for Active; 'I' for Inactive)
REMARK    5  A    between atoms: CA   and  CB  
REMARK    6  A    between atoms: CB   and  CG  
REMARK    7  A    between atoms: CG   and  CD  
ROOT
ATOM     14  CA  GLU D 570     -18.033  -6.348 -13.375  1.00 32.92     0.160 C 
ENDROOT
BRANCH  14  15
ATOM     15  CB  GLU D 570     -19.500  -6.345 -13.794  1.00 32.92     0.043 C 
BRANCH  15  16
ATOM     16  CG  GLU D 570     -19.800  -6.134 -15.234  1.00 32.92     0.100 C 
BRANCH  16  17
ATOM     17  CD  GLU D 570     -21.138  -5.470 -15.466  1.00 32.92     0.185 C 
ATOM     18  OE1 GLU D 570     -21.398  -5.012 -16.594  1.00 32.92    -0.647 OA
ATOM     19  OE2 GLU D 570     -21.927  -5.394 -14.503  1.00 32.92    -0.647 OA
ENDBRANCH  16  17
ENDBRANCH  15  16
ENDBRANCH  14  15
END_RES GLU D 570
ENDMDL
MODEL 8
REMARK VINA RESULT:      -6.1      4.061      8.568
REMARK  16 active torsions:
REMARK  status: ('A' for Active; 'I' for Inactive)
REMARK    1  A    between atoms: C_2  and  C_3 
REMARK    2  A    between atoms: C_3  and  C_4 
REMARK    3  A    between atoms: C_4  and  C_5 
REMARK    4  A    between atoms: C_5  and  C_6 
REMARK    5  A    between atoms: C_6  and  C_7 
REMARK    6  A    between atoms: C_7  and  C_8 
REMARK    7  A    between atoms: C_8  and  C_9 
REMARK    8  A    between atoms: C_9  and  C_10 
REMARK    9  A    between atoms: C_10  and  C_11 
REMARK   10  A    between atoms: C_11  and  C_12 
REMARK   11  A    between atoms: C_12  and  C_13 
REMARK   12  A    between atoms: C_13  and  C_14 
REMARK   13  A    between atoms: C_14  and  C_15 
REMARK   14  A    between atoms: C_15  and  C_16 
REMARK   15  A    between atoms: C_16  and  O_17 
REMARK   16  A    between atoms: O_17  and  C_18 
ROOT
HETATM    1  C   UNL     1     -20.395  -4.696  -8.275  1.00  0.00     0.000 C 
ENDROOT
BRANCH   1   2
HETATM    2  C   UNL     1     -21.086  -4.016  -9.441  1.00  0.00     0.000 C 
BRANCH   2   3
HETATM    3  C   UNL     1     -22.427  -4.674  -9.700  1.00  0.00     0.000 C 
BRANCH   3   4
HETATM    4  C   UNL     1     -23.525  -3.628  -9.685  1.00  0.00     0.000 C 
BRANCH   4   5
HETATM    5  C   UNL     1     -24.022  -3.382 -11.097  1.00  0.00     0.000 C 
BRANCH   5   6
HETATM    6  C   UNL     1     -22.981  -2.606 -11.881  1.00  0.00     0.000 C 
BRANCH   6   7
HETATM    7  C   UNL     1     -22.583  -3.385 -13.120  1.00  0.00     0.000 C 
BRANCH   7   8
HETATM    8  C   UNL     1     -23.708  -3.349 -14.137  1.00  0.00    -0.000 C 
BRANCH   8   9
HETATM    9  C   UNL     1     -23.947  -1.922 -14.603  1.00  0.00    -0.005 C 
HETATM   10  C   UNL     1     -25.427  -1.688 -14.816  1.00  0.00     0.005 C 
ENDBRANCH   8   9
ENDBRANCH   7   8
ENDBRANCH   6   7
ENDBRANCH   5   6
ENDBRANCH   4   5
ENDBRANCH   3   4
ENDBRANCH   2   3
ENDBRANCH   1   2
BRANCH   1  11
HETATM   11  C   UNL     1     -20.853  -4.068  -6.973  1.00  0.00     0.000 C 
BRANCH  11  12
HETATM   12  C   UNL     1     -20.054  -4.637  -5.823  1.00  0.00     0.000 C 
BRANCH  12  13
HETATM   13  C   UNL     1     -20.897  -5.620  -5.025  1.00  0.00     0.000 C 
BRANCH  13  14
HETATM   14  C   UNL     1     -20.466  -7.050  -5.310  1.00  0.00     0.002 C 
BRANCH  14  15
HETATM   15  C   UNL     1     -20.983  -7.996  -4.229  1.00  0.00     0.027 C 
BRANCH  15  16
HETATM   16  C   UNL     1     -21.255  -7.262  -2.932  1.00  0.00     0.178 C 
BRANCH  16  17
HETATM   17  O   UNL     1     -21.333  -8.196  -1.815  1.00  0.00    -0.322 OA
BRANCH  17  18
HETATM   18  C   UNL     1     -22.231  -7.871  -0.840  1.00  0.00     0.254 C 
HETATM   19  O   UNL     1     -22.715  -6.741  -0.700  1.00  0.00    -0.266 OA
HETATM   20  C   UNL     1     -22.592  -9.019   0.045  1.00  0.00     0.126 C 
ENDBRANCH  17  18
ENDBRANCH  16  17
ENDBRANCH  15  16
ENDBRANCH  14  15
ENDBRANCH  13  14
ENDBRANCH  12  13
ENDBRANCH  11  12
ENDBRANCH   1  11
TORSDOF 16
BEGIN_RES ARG D 557
REMARK  4 active torsions:
REMARK  status: ('A' for Active; 'I' for Inactive)
REMARK    1  A    between atoms: CA   and  CB  
REMARK    2  A    between atoms: CB   and  CG  
REMARK    3  A    between atoms: CG   and  CD  
REMARK    4  A    between atoms: CD   and  NE  
REMARK       I    between atoms: NE   and  CZ  
REMARK       I    between atoms: CZ   and  NH1 
REMARK       I    between atoms: CZ   and  NH2 
ROOT
ATOM      1  CA  ARG D 557     -26.217   2.705 -17.014  1.00 35.49     0.159 C 
ENDROOT
BRANCH   1   2
ATOM      2  CB  ARG D 557     -26.789   1.319 -17.183  1.00 35.49     0.034 C 
BRANCH   2   3
ATOM      3  CG  ARG D 557     -28.155   1.104 -16.691  1.00 35.49     0.027 C 
BRANCH   3   4
ATOM      4  CD  ARG D 557     -28.798  -0.078 -17.310  1.00 35.49     0.116 C 
BRANCH   4   5
ATOM      5  NE  ARG D 557     -28.202  -1.312 -16.870  1.00 35.49    -0.212 N 
ATOM      6  CZ  ARG D 557     -28.699  -2.515 -17.058  1.00 35.49     0.666 C 
ATOM      7  NH1 ARG D 557     -29.845  -2.719 -17.681  1.00 35.49    -0.235 N 
ATOM      8  NH2 ARG D 557     -28.011  -3.525 -16.609  1.00 35.49    -0.235 N 
ATOM      9  HH  ARG D 557     -30.312  -2.070 -17.986  1.00 35.49     0.174 HD
ATOM     10  HH  ARG D 557     -30.117  -3.526 -17.776  1.00 35.49     0.174 HD
ATOM     11  HH  ARG D 557     -27.271  -3.363 -16.217  1.00 35.49     0.174 HD
ATOM     12  HH  ARG D 557     -28.298  -4.316 -16.715  1.00 35.49     0.174 HD
ATOM     13  HE  ARG D 557     -27.497  -1.269 -16.396  1.00 35.49     0.178 HD
ENDBRANCH   4   5
ENDBRANCH   3   4
ENDBRANCH   2   3
ENDBRANCH   1   2
END_RES ARG D 557
BEGIN_RES GLU D 570
REMARK  3 active torsions:
REMARK  status: ('A' for Active; 'I' for Inactive)
REMARK    5  A    between atoms: CA   and  CB  
REMARK    6  A    between atoms: CB   and  CG  
REMARK    7  A    between atoms: CG   and  CD  
ROOT
ATOM     14  CA  GLU D 570     -18.033  -6.348 -13.375  1.00 32.92     0.160 C 
ENDROOT
BRANCH  14  15
ATOM     15  CB  GLU D 570     -19.500  -6.345 -13.794  1.00 32.92     0.043 C 
BRANCH  15  16
ATOM     16  CG  GLU D 570     -19.809  -5.979 -15.200  1.00 32.92     0.100 C 
BRANCH  16  17
ATOM     17  CD  GLU D 570     -21.293  -5.894 -15.474  1.00 32.92     0.185 C 
ATOM     18  OE1 GLU D 570     -21.703  -5.104 -16.346  1.00 32.92    -0.647 OA
ATOM     19  OE2 GLU D 570     -22.055  -6.613 -14.798  1.00 32.92    -0.647 OA
ENDBRANCH  16  17
ENDBRANCH  15  16
ENDBRANCH  14  15
END_RES GLU D 570
ENDMDL
MODEL 9
REMARK VINA RESULT:      -6.0      4.837      9.354
REMARK  16 active torsions:
REMARK  status: ('A' for Active; 'I' for Inactive)
REMARK    1  A    between atoms: C_2  and  C_3 
REMARK    2  A    between atoms: C_3  and  C_4 
REMARK    3  A    between atoms: C_4  and  C_5 
REMARK    4  A    between atoms: C_5  and  C_6 
REMARK    5  A    between atoms: C_6  and  C_7 
REMARK    6  A    between atoms: C_7  and  C_8 
REMARK    7  A    between atoms: C_8  and  C_9 
REMARK    8  A    between atoms: C_9  and  C_10 
REMARK    9  A    between atoms: C_10  and  C_11 
REMARK   10  A    between atoms: C_11  and  C_12 
REMARK   11  A    between atoms: C_12  and  C_13 
REMARK   12  A    between atoms: C_13  and  C_14 
REMARK   13  A    between atoms: C_14  and  C_15 
REMARK   14  A    between atoms: C_15  and  C_16 
REMARK   15  A    between atoms: C_16  and  O_17 
REMARK   16  A    between atoms: O_17  and  C_18 
ROOT
HETATM    1  C   UNL     1     -21.782  -6.090  -5.240  1.00  0.00     0.000 C 
ENDROOT
BRANCH   1   2
HETATM    2  C   UNL     1     -20.452  -5.364  -5.193  1.00  0.00     0.000 C 
BRANCH   2   3
HETATM    3  C   UNL     1     -20.281  -4.520  -6.441  1.00  0.00     0.000 C 
BRANCH   3   4
HETATM    4  C   UNL     1     -21.078  -5.122  -7.583  1.00  0.00     0.000 C 
BRANCH   4   5
HETATM    5  C   UNL     1     -21.287  -4.083  -8.667  1.00  0.00     0.000 C 
BRANCH   5   6
HETATM    6  C   UNL     1     -20.446  -4.429  -9.881  1.00  0.00     0.000 C 
BRANCH   6   7
HETATM    7  C   UNL     1     -21.263  -4.238 -11.145  1.00  0.00     0.000 C 
BRANCH   7   8
HETATM    8  C   UNL     1     -22.708  -3.949 -10.788  1.00  0.00    -0.000 C 
BRANCH   8   9
HETATM    9  C   UNL     1     -23.634  -4.879 -11.556  1.00  0.00    -0.005 C 
HETATM   10  C   UNL     1     -23.009  -5.252 -12.883  1.00  0.00     0.005 C 
ENDBRANCH   8   9
ENDBRANCH   7   8
ENDBRANCH   6   7
ENDBRANCH   5   6
ENDBRANCH   4   5
ENDBRANCH   3   4
ENDBRANCH   2   3
ENDBRANCH   1   2
BRANCH   1  11
HETATM   11  C   UNL     1     -21.848  -7.107  -4.117  1.00  0.00     0.000 C 
BRANCH  11  12
HETATM   12  C   UNL     1     -21.726  -6.404  -2.785  1.00  0.00     0.000 C 
BRANCH  12  13
HETATM   13  C   UNL     1     -21.534  -7.417  -1.665  1.00  0.00     0.000 C 
BRANCH  13  14
HETATM   14  C   UNL     1     -22.375  -7.043  -0.455  1.00  0.00     0.002 C 
BRANCH  14  15
HETATM   15  C   UNL     1     -23.075  -8.272   0.118  1.00  0.00     0.027 C 
BRANCH  15  16
HETATM   16  C   UNL     1     -22.656  -9.537  -0.604  1.00  0.00     0.178 C 
BRANCH  16  17
HETATM   17  O   UNL     1     -22.115 -10.513   0.334  1.00  0.00    -0.322 OA
BRANCH  17  18
HETATM   18  C   UNL     1     -20.756 -10.636   0.333  1.00  0.00     0.254 C 
HETATM   19  O   UNL     1     -20.061 -10.604   1.356  1.00  0.00    -0.266 OA
HETATM   20  C   UNL     1     -20.175 -10.829  -1.030  1.00  0.00     0.126 C 
ENDBRANCH  17  18
ENDBRANCH  16  17
ENDBRANCH  15  16
ENDBRANCH  14  15
ENDBRANCH  13  14
ENDBRANCH  12  13
ENDBRANCH  11  12
ENDBRANCH   1  11
TORSDOF 16
BEGIN_RES ARG D 557
REMARK  4 active torsions:
REMARK  status: ('A' for Active; 'I' for Inactive)
REMARK    1  A    between atoms: CA   and  CB  
REMARK    2  A    between atoms: CB   and  CG  
REMARK    3  A    between atoms: CG   and  CD  
REMARK    4  A    between atoms: CD   and  NE  
REMARK       I    between atoms: NE   and  CZ  
REMARK       I    between atoms: CZ   and  NH1 
REMARK       I    between atoms: CZ   and  NH2 
ROOT
ATOM      1  CA  ARG D 557     -26.217   2.705 -17.014  1.00 35.49     0.159 C 
ENDROOT
BRANCH   1   2
ATOM      2  CB  ARG D 557     -26.789   1.319 -17.183  1.00 35.49     0.034 C 
BRANCH   2   3
ATOM      3  CG  ARG D 557     -25.857   0.196 -17.023  1.00 35.49     0.027 C 
BRANCH   3   4
ATOM      4  CD  ARG D 557     -26.247  -0.707 -15.916  1.00 35.49     0.116 C 
BRANCH   4   5
ATOM      5  NE  ARG D 557     -25.195  -0.859 -14.945  1.00 35.49    -0.212 N 
ATOM      6  CZ  ARG D 557     -24.869  -1.976 -14.334  1.00 35.49     0.666 C 
ATOM      7  NH1 ARG D 557     -25.506  -3.113 -14.548  1.00 35.49    -0.235 N 
ATOM      8  NH2 ARG D 557     -23.873  -1.934 -13.498  1.00 35.49    -0.235 N 
ATOM      9  HH  ARG D 557     -26.163  -3.164 -15.096  1.00 35.49     0.174 HD
ATOM     10  HH  ARG D 557     -25.247  -3.810 -14.123  1.00 35.49     0.174 HD
ATOM     11  HH  ARG D 557     -23.476  -1.188 -13.386  1.00 35.49     0.174 HD
ATOM     12  HH  ARG D 557     -23.630  -2.636 -13.088  1.00 35.49     0.174 HD
ATOM     13  HE  ARG D 557     -24.780  -0.161 -14.693  1.00 35.49     0.178 HD
ENDBRANCH   4   5
ENDBRANCH   3   4
ENDBRANCH   2   3
ENDBRANCH   1   2
END_RES ARG D 557
BEGIN_RES GLU D 570
REMARK  3 active torsions:
REMARK  status: ('A' for Active; 'I' for Inactive)
REMARK    5  A    between atoms: CA   and  CB  
REMARK    6  A    between atoms: CB   and  CG  
REMARK    7  A    between atoms: CG   and  CD  
ROOT
ATOM     14  CA  GLU D 570     -18.033  -6.348 -13.375  1.00 32.92     0.160 C 
ENDROOT
BRANCH  14  15
ATOM     15  CB  GLU D 570     -19.500  -6.345 -13.794  1.00 32.92     0.043 C 
BRANCH  15  16
ATOM     16  CG  GLU D 570     -20.147  -7.661 -14.031  1.00 32.92     0.100 C 
BRANCH  16  17
ATOM     17  CD  GLU D 570     -20.805  -7.759 -15.387  1.00 32.92     0.185 C 
ATOM     18  OE1 GLU D 570     -21.630  -6.889 -15.724  1.00 32.92    -0.647 OA
ATOM     19  OE2 GLU D 570     -20.504  -8.726 -16.114  1.00 32.92    -0.647 OA
ENDBRANCH  16  17
ENDBRANCH  15  16
ENDBRANCH  14  15
END_RES GLU D 570
ENDMDL
