MODEL 1
REMARK VINA RESULT:      -7.3      0.000      0.000
REMARK  23 active torsions:
REMARK  status: ('A' for Active; 'I' for Inactive)
REMARK    1  A    between atoms: C_2  and  C_3 
REMARK    2  A    between atoms: C_3  and  C_4 
REMARK    3  A    between atoms: C_4  and  C_5 
REMARK    4  A    between atoms: C_5  and  C_6 
REMARK    5  A    between atoms: C_6  and  C_7 
REMARK    6  A    between atoms: C_7  and  C_8 
REMARK    7  A    between atoms: C_8  and  C_9 
REMARK    8  A    between atoms: C_9  and  C_10 
REMARK    9  A    between atoms: C_10  and  C_11 
REMARK   10  A    between atoms: C_11  and  C_12 
REMARK   11  A    between atoms: C_12  and  C_13 
REMARK   12  A    between atoms: C_13  and  C_14 
REMARK   13  A    between atoms: C_14  and  C_15 
REMARK   14  A    between atoms: C_15  and  C_16 
REMARK   15  A    between atoms: C_16  and  C_17 
REMARK   16  A    between atoms: C_17  and  C_18 
REMARK   17  A    between atoms: C_18  and  O_20 
REMARK   18  A    between atoms: O_20  and  C_21 
REMARK   19  A    between atoms: C_21  and  C_22 
REMARK   20  A    between atoms: C_22  and  O_23 
REMARK   21  A    between atoms: O_23  and  C_24 
REMARK   22  A    between atoms: C_24  and  C_25 
REMARK   23  A    between atoms: C_25  and  O_26 
ROOT
HETATM    1  C   UNL     1     -19.929  -4.056  -8.514  1.00  0.00     0.000 C 
ENDROOT
BRANCH   1   2
HETATM    2  C   UNL     1     -20.637  -4.296  -7.193  1.00  0.00     0.000 C 
BRANCH   2   3
HETATM    3  C   UNL     1     -20.065  -5.525  -6.510  1.00  0.00     0.000 C 
BRANCH   3   4
HETATM    4  C   UNL     1     -20.898  -5.874  -5.291  1.00  0.00     0.000 C 
BRANCH   4   5
HETATM    5  C   UNL     1     -20.529  -7.258  -4.794  1.00  0.00     0.000 C 
BRANCH   5   6
HETATM    6  C   UNL     1     -21.223  -7.533  -3.473  1.00  0.00     0.000 C 
BRANCH   6   7
HETATM    7  C   UNL     1     -22.063  -6.335  -3.073  1.00  0.00     0.000 C 
BRANCH   7   8
HETATM    8  C   UNL     1     -22.118  -6.226  -1.561  1.00  0.00     0.000 C 
BRANCH   8   9
HETATM    9  C   UNL     1     -21.987  -7.604  -0.941  1.00  0.00     0.000 C 
BRANCH   9  10
HETATM   10  C   UNL     1     -23.041  -7.788   0.135  1.00  0.00     0.000 C 
BRANCH  10  11
HETATM   11  C   UNL     1     -23.286  -9.266   0.370  1.00  0.00     0.000 C 
BRANCH  11  12
HETATM   12  C   UNL     1     -22.531 -10.087  -0.659  1.00  0.00    -0.000 C 
BRANCH  12  13
HETATM   13  C   UNL     1     -21.775 -11.216   0.023  1.00  0.00    -0.005 C 
HETATM   14  C   UNL     1     -20.690 -10.651   0.915  1.00  0.00     0.005 C 
ENDBRANCH  12  13
ENDBRANCH  11  12
ENDBRANCH  10  11
ENDBRANCH   9  10
ENDBRANCH   8   9
ENDBRANCH   7   8
ENDBRANCH   6   7
ENDBRANCH   5   6
ENDBRANCH   4   5
ENDBRANCH   3   4
ENDBRANCH   2   3
ENDBRANCH   1   2
BRANCH   1  15
HETATM   15  C   UNL     1     -20.902  -4.245  -9.670  1.00  0.00     0.000 C 
BRANCH  15  16
HETATM   16  C   UNL     1     -22.336  -4.176  -9.169  1.00  0.00     0.010 C 
BRANCH  16  17
HETATM   17  C   UNL     1     -23.341  -4.654 -10.220  1.00  0.00     0.111 C 
BRANCH  17  18
HETATM   18  C   UNL     1     -24.214  -3.510 -10.668  1.00  0.00     0.258 C 
HETATM   19  O   UNL     1     -25.364  -3.317 -10.252  1.00  0.00    -0.265 OA
BRANCH  18  20
HETATM   20  O   UNL     1     -23.608  -2.739 -11.612  1.00  0.00    -0.319 OA
BRANCH  20  21
HETATM   21  C   UNL     1     -22.990  -3.465 -12.692  1.00  0.00     0.205 C 
BRANCH  21  22
HETATM   22  C   UNL     1     -24.012  -4.025 -13.675  1.00  0.00     0.194 C 
BRANCH  22  23
HETATM   23  O   UNL     1     -24.171  -3.132 -14.778  1.00  0.00    -0.387 OA
BRANCH  23  24
HETATM   24  C   UNL     1     -23.206  -2.066 -14.700  1.00  0.00     0.193 C 
BRANCH  24  25
HETATM   25  C   UNL     1     -23.758  -0.796 -15.331  1.00  0.00     0.190 C 
BRANCH  25  26
HETATM   26  O   UNL     1     -24.978  -0.413 -14.700  1.00  0.00    -0.399 OA
HETATM   27  H   UNL     1     -25.295   0.387 -15.154  1.00  0.00     0.209 HD
ENDBRANCH  25  26
ENDBRANCH  24  25
ENDBRANCH  23  24
ENDBRANCH  22  23
ENDBRANCH  21  22
ENDBRANCH  20  21
ENDBRANCH  18  20
ENDBRANCH  17  18
ENDBRANCH  16  17
ENDBRANCH  15  16
ENDBRANCH   1  15
TORSDOF 23
BEGIN_RES ARG D 557
REMARK  4 active torsions:
REMARK  status: ('A' for Active; 'I' for Inactive)
REMARK    1  A    between atoms: CA   and  CB  
REMARK    2  A    between atoms: CB   and  CG  
REMARK    3  A    between atoms: CG   and  CD  
REMARK    4  A    between atoms: CD   and  NE  
REMARK       I    between atoms: NE   and  CZ  
REMARK       I    between atoms: CZ   and  NH1 
REMARK       I    between atoms: CZ   and  NH2 
ROOT
ATOM      1  CA  ARG D 557     -26.217   2.705 -17.014  1.00 35.49     0.159 C 
ENDROOT
BRANCH   1   2
ATOM      2  CB  ARG D 557     -26.789   1.319 -17.183  1.00 35.49     0.034 C 
BRANCH   2   3
ATOM      3  CG  ARG D 557     -28.239   1.224 -17.392  1.00 35.49     0.027 C 
BRANCH   3   4
ATOM      4  CD  ARG D 557     -28.833   0.056 -16.702  1.00 35.49     0.116 C 
BRANCH   4   5
ATOM      5  NE  ARG D 557     -27.830  -0.813 -16.145  1.00 35.49    -0.212 N 
ATOM      6  CZ  ARG D 557     -27.743  -2.110 -16.340  1.00 35.49     0.666 C 
ATOM      7  NH1 ARG D 557     -28.609  -2.775 -17.083  1.00 35.49    -0.235 N 
ATOM      8  NH2 ARG D 557     -26.754  -2.737 -15.773  1.00 35.49    -0.235 N 
ATOM      9  HH  ARG D 557     -29.266  -2.382 -17.467  1.00 35.49     0.174 HD
ATOM     10  HH  ARG D 557     -28.500  -3.620 -17.176  1.00 35.49     0.174 HD
ATOM     11  HH  ARG D 557     -26.206  -2.281 -15.305  1.00 35.49     0.174 HD
ATOM     12  HH  ARG D 557     -26.663  -3.574 -15.878  1.00 35.49     0.174 HD
ATOM     13  HE  ARG D 557     -27.274  -0.480 -15.595  1.00 35.49     0.178 HD
ENDBRANCH   4   5
ENDBRANCH   3   4
ENDBRANCH   2   3
ENDBRANCH   1   2
END_RES ARG D 557
BEGIN_RES GLU D 570
REMARK  3 active torsions:
REMARK  status: ('A' for Active; 'I' for Inactive)
REMARK    5  A    between atoms: CA   and  CB  
REMARK    6  A    between atoms: CB   and  CG  
REMARK    7  A    between atoms: CG   and  CD  
ROOT
ATOM     14  CA  GLU D 570     -18.033  -6.348 -13.375  1.00 32.92     0.160 C 
ENDROOT
BRANCH  14  15
ATOM     15  CB  GLU D 570     -19.500  -6.345 -13.794  1.00 32.92     0.043 C 
BRANCH  15  16
ATOM     16  CG  GLU D 570     -19.800  -6.134 -15.234  1.00 32.92     0.100 C 
BRANCH  16  17
ATOM     17  CD  GLU D 570     -21.261  -5.849 -15.496  1.00 32.92     0.185 C 
ATOM     18  OE1 GLU D 570     -22.114  -6.684 -15.140  1.00 32.92    -0.647 OA
ATOM     19  OE2 GLU D 570     -21.553  -4.786 -16.078  1.00 32.92    -0.647 OA
ENDBRANCH  16  17
ENDBRANCH  15  16
ENDBRANCH  14  15
END_RES GLU D 570
ENDMDL
MODEL 2
REMARK VINA RESULT:      -7.0      1.744      2.687
REMARK  23 active torsions:
REMARK  status: ('A' for Active; 'I' for Inactive)
REMARK    1  A    between atoms: C_2  and  C_3 
REMARK    2  A    between atoms: C_3  and  C_4 
REMARK    3  A    between atoms: C_4  and  C_5 
REMARK    4  A    between atoms: C_5  and  C_6 
REMARK    5  A    between atoms: C_6  and  C_7 
REMARK    6  A    between atoms: C_7  and  C_8 
REMARK    7  A    between atoms: C_8  and  C_9 
REMARK    8  A    between atoms: C_9  and  C_10 
REMARK    9  A    between atoms: C_10  and  C_11 
REMARK   10  A    between atoms: C_11  and  C_12 
REMARK   11  A    between atoms: C_12  and  C_13 
REMARK   12  A    between atoms: C_13  and  C_14 
REMARK   13  A    between atoms: C_14  and  C_15 
REMARK   14  A    between atoms: C_15  and  C_16 
REMARK   15  A    between atoms: C_16  and  C_17 
REMARK   16  A    between atoms: C_17  and  C_18 
REMARK   17  A    between atoms: C_18  and  O_20 
REMARK   18  A    between atoms: O_20  and  C_21 
REMARK   19  A    between atoms: C_21  and  C_22 
REMARK   20  A    between atoms: C_22  and  O_23 
REMARK   21  A    between atoms: O_23  and  C_24 
REMARK   22  A    between atoms: C_24  and  C_25 
REMARK   23  A    between atoms: C_25  and  O_26 
ROOT
HETATM    1  C   UNL     1     -20.097  -4.360  -8.806  1.00  0.00     0.000 C 
ENDROOT
BRANCH   1   2
HETATM    2  C   UNL     1     -20.565  -4.168  -7.375  1.00  0.00     0.000 C 
BRANCH   2   3
HETATM    3  C   UNL     1     -19.710  -4.992  -6.430  1.00  0.00     0.000 C 
BRANCH   3   4
HETATM    4  C   UNL     1     -20.459  -5.237  -5.135  1.00  0.00     0.000 C 
BRANCH   4   5
HETATM    5  C   UNL     1     -21.740  -5.998  -5.416  1.00  0.00     0.000 C 
BRANCH   5   6
HETATM    6  C   UNL     1     -21.454  -7.486  -5.472  1.00  0.00     0.000 C 
BRANCH   6   7
HETATM    7  C   UNL     1     -20.563  -7.883  -4.311  1.00  0.00     0.000 C 
BRANCH   7   8
HETATM    8  C   UNL     1     -21.411  -8.191  -3.092  1.00  0.00     0.000 C 
BRANCH   8   9
HETATM    9  C   UNL     1     -20.996  -7.300  -1.937  1.00  0.00     0.000 C 
BRANCH   9  10
HETATM   10  C   UNL     1     -22.204  -6.969  -1.081  1.00  0.00     0.000 C 
BRANCH  10  11
HETATM   11  C   UNL     1     -22.168  -7.783   0.199  1.00  0.00     0.000 C 
BRANCH  11  12
HETATM   12  C   UNL     1     -23.306  -8.785   0.208  1.00  0.00    -0.000 C 
BRANCH  12  13
HETATM   13  C   UNL     1     -22.782 -10.179  -0.097  1.00  0.00    -0.005 C 
HETATM   14  C   UNL     1     -23.860 -11.005  -0.767  1.00  0.00     0.005 C 
ENDBRANCH  12  13
ENDBRANCH  11  12
ENDBRANCH  10  11
ENDBRANCH   9  10
ENDBRANCH   8   9
ENDBRANCH   7   8
ENDBRANCH   6   7
ENDBRANCH   5   6
ENDBRANCH   4   5
ENDBRANCH   3   4
ENDBRANCH   2   3
ENDBRANCH   1   2
BRANCH   1  15
HETATM   15  C   UNL     1     -21.246  -4.099  -9.771  1.00  0.00     0.000 C 
BRANCH  15  16
HETATM   16  C   UNL     1     -22.532  -3.842  -9.002  1.00  0.00     0.010 C 
BRANCH  16  17
HETATM   17  C   UNL     1     -23.735  -4.550  -9.630  1.00  0.00     0.111 C 
BRANCH  17  18
HETATM   18  C   UNL     1     -23.941  -4.076 -11.046  1.00  0.00     0.258 C 
HETATM   19  O   UNL     1     -24.378  -2.956 -11.340  1.00  0.00    -0.265 OA
BRANCH  18  20
HETATM   20  O   UNL     1     -23.632  -5.036 -11.961  1.00  0.00    -0.319 OA
BRANCH  20  21
HETATM   21  C   UNL     1     -22.633  -4.661 -12.930  1.00  0.00     0.205 C 
BRANCH  21  22
HETATM   22  C   UNL     1     -22.938  -5.209 -14.319  1.00  0.00     0.194 C 
BRANCH  22  23
HETATM   23  O   UNL     1     -24.020  -6.139 -14.252  1.00  0.00    -0.387 OA
BRANCH  23  24
HETATM   24  C   UNL     1     -24.778  -6.113 -15.475  1.00  0.00     0.193 C 
BRANCH  24  25
HETATM   25  C   UNL     1     -25.207  -7.518 -15.870  1.00  0.00     0.190 C 
BRANCH  25  26
HETATM   26  O   UNL     1     -24.082  -8.286 -16.290  1.00  0.00    -0.399 OA
HETATM   27  H   UNL     1     -23.809  -7.941 -17.158  1.00  0.00     0.209 HD
ENDBRANCH  25  26
ENDBRANCH  24  25
ENDBRANCH  23  24
ENDBRANCH  22  23
ENDBRANCH  21  22
ENDBRANCH  20  21
ENDBRANCH  18  20
ENDBRANCH  17  18
ENDBRANCH  16  17
ENDBRANCH  15  16
ENDBRANCH   1  15
TORSDOF 23
BEGIN_RES ARG D 557
REMARK  4 active torsions:
REMARK  status: ('A' for Active; 'I' for Inactive)
REMARK    1  A    between atoms: CA   and  CB  
REMARK    2  A    between atoms: CB   and  CG  
REMARK    3  A    between atoms: CG   and  CD  
REMARK    4  A    between atoms: CD   and  NE  
REMARK       I    between atoms: NE   and  CZ  
REMARK       I    between atoms: CZ   and  NH1 
REMARK       I    between atoms: CZ   and  NH2 
ROOT
ATOM      1  CA  ARG D 557     -26.217   2.705 -17.014  1.00 35.49     0.159 C 
ENDROOT
BRANCH   1   2
ATOM      2  CB  ARG D 557     -26.789   1.319 -17.183  1.00 35.49     0.034 C 
BRANCH   2   3
ATOM      3  CG  ARG D 557     -26.007   0.209 -16.625  1.00 35.49     0.027 C 
BRANCH   3   4
ATOM      4  CD  ARG D 557     -26.859  -0.929 -16.211  1.00 35.49     0.116 C 
BRANCH   4   5
ATOM      5  NE  ARG D 557     -26.320  -1.623 -15.071  1.00 35.49    -0.212 N 
ATOM      6  CZ  ARG D 557     -26.448  -2.907 -14.822  1.00 35.49     0.666 C 
ATOM      7  NH1 ARG D 557     -27.122  -3.719 -15.615  1.00 35.49    -0.235 N 
ATOM      8  NH2 ARG D 557     -25.875  -3.371 -13.750  1.00 35.49    -0.235 N 
ATOM      9  HH  ARG D 557     -27.505  -3.436 -16.327  1.00 35.49     0.174 HD
ATOM     10  HH  ARG D 557     -27.169  -4.548 -15.404  1.00 35.49     0.174 HD
ATOM     11  HH  ARG D 557     -25.440  -2.824 -13.260  1.00 35.49     0.174 HD
ATOM     12  HH  ARG D 557     -25.932  -4.195 -13.558  1.00 35.49     0.174 HD
ATOM     13  HE  ARG D 557     -25.933  -1.163 -14.469  1.00 35.49     0.178 HD
ENDBRANCH   4   5
ENDBRANCH   3   4
ENDBRANCH   2   3
ENDBRANCH   1   2
END_RES ARG D 557
BEGIN_RES GLU D 570
REMARK  3 active torsions:
REMARK  status: ('A' for Active; 'I' for Inactive)
REMARK    5  A    between atoms: CA   and  CB  
REMARK    6  A    between atoms: CB   and  CG  
REMARK    7  A    between atoms: CG   and  CD  
ROOT
ATOM     14  CA  GLU D 570     -18.033  -6.348 -13.375  1.00 32.92     0.160 C 
ENDROOT
BRANCH  14  15
ATOM     15  CB  GLU D 570     -19.500  -6.345 -13.794  1.00 32.92     0.043 C 
BRANCH  15  16
ATOM     16  CG  GLU D 570     -20.084  -7.632 -14.252  1.00 32.92     0.100 C 
BRANCH  16  17
ATOM     17  CD  GLU D 570     -20.610  -7.570 -15.667  1.00 32.92     0.185 C 
ATOM     18  OE1 GLU D 570     -20.466  -6.519 -16.321  1.00 32.92    -0.647 OA
ATOM     19  OE2 GLU D 570     -21.187  -8.578 -16.121  1.00 32.92    -0.647 OA
ENDBRANCH  16  17
ENDBRANCH  15  16
ENDBRANCH  14  15
END_RES GLU D 570
ENDMDL
MODEL 3
REMARK VINA RESULT:      -7.0      2.127      3.343
REMARK  23 active torsions:
REMARK  status: ('A' for Active; 'I' for Inactive)
REMARK    1  A    between atoms: C_2  and  C_3 
REMARK    2  A    between atoms: C_3  and  C_4 
REMARK    3  A    between atoms: C_4  and  C_5 
REMARK    4  A    between atoms: C_5  and  C_6 
REMARK    5  A    between atoms: C_6  and  C_7 
REMARK    6  A    between atoms: C_7  and  C_8 
REMARK    7  A    between atoms: C_8  and  C_9 
REMARK    8  A    between atoms: C_9  and  C_10 
REMARK    9  A    between atoms: C_10  and  C_11 
REMARK   10  A    between atoms: C_11  and  C_12 
REMARK   11  A    between atoms: C_12  and  C_13 
REMARK   12  A    between atoms: C_13  and  C_14 
REMARK   13  A    between atoms: C_14  and  C_15 
REMARK   14  A    between atoms: C_15  and  C_16 
REMARK   15  A    between atoms: C_16  and  C_17 
REMARK   16  A    between atoms: C_17  and  C_18 
REMARK   17  A    between atoms: C_18  and  O_20 
REMARK   18  A    between atoms: O_20  and  C_21 
REMARK   19  A    between atoms: C_21  and  C_22 
REMARK   20  A    between atoms: C_22  and  O_23 
REMARK   21  A    between atoms: O_23  and  C_24 
REMARK   22  A    between atoms: C_24  and  C_25 
REMARK   23  A    between atoms: C_25  and  O_26 
ROOT
HETATM    1  C   UNL     1     -22.848  -4.400 -10.114  1.00  0.00     0.000 C 
ENDROOT
BRANCH   1   2
HETATM    2  C   UNL     1     -22.623  -3.946  -8.683  1.00  0.00     0.000 C 
BRANCH   2   3
HETATM    3  C   UNL     1     -21.588  -4.831  -8.012  1.00  0.00     0.000 C 
BRANCH   3   4
HETATM    4  C   UNL     1     -21.231  -4.266  -6.650  1.00  0.00     0.000 C 
BRANCH   4   5
HETATM    5  C   UNL     1     -20.134  -5.101  -6.017  1.00  0.00     0.000 C 
BRANCH   5   6
HETATM    6  C   UNL     1     -20.646  -6.502  -5.744  1.00  0.00     0.000 C 
BRANCH   6   7
HETATM    7  C   UNL     1     -21.783  -6.449  -4.741  1.00  0.00     0.000 C 
BRANCH   7   8
HETATM    8  C   UNL     1     -21.306  -6.959  -3.394  1.00  0.00     0.000 C 
BRANCH   8   9
HETATM    9  C   UNL     1     -21.716  -5.990  -2.302  1.00  0.00     0.000 C 
BRANCH   9  10
HETATM   10  C   UNL     1     -22.366  -6.747  -1.159  1.00  0.00     0.000 C 
BRANCH  10  11
HETATM   11  C   UNL     1     -21.866  -8.179  -1.137  1.00  0.00     0.000 C 
BRANCH  11  12
HETATM   12  C   UNL     1     -22.724  -9.014  -0.206  1.00  0.00    -0.000 C 
BRANCH  12  13
HETATM   13  C   UNL     1     -22.997 -10.376  -0.823  1.00  0.00    -0.005 C 
HETATM   14  C   UNL     1     -24.031 -11.120  -0.005  1.00  0.00     0.005 C 
ENDBRANCH  12  13
ENDBRANCH  11  12
ENDBRANCH  10  11
ENDBRANCH   9  10
ENDBRANCH   8   9
ENDBRANCH   7   8
ENDBRANCH   6   7
ENDBRANCH   5   6
ENDBRANCH   4   5
ENDBRANCH   3   4
ENDBRANCH   2   3
ENDBRANCH   1   2
BRANCH   1  15
HETATM   15  C   UNL     1     -21.665  -3.996 -10.982  1.00  0.00     0.000 C 
BRANCH  15  16
HETATM   16  C   UNL     1     -21.805  -4.591 -12.374  1.00  0.00     0.010 C 
BRANCH  16  17
HETATM   17  C   UNL     1     -23.172  -5.246 -12.592  1.00  0.00     0.111 C 
BRANCH  17  18
HETATM   18  C   UNL     1     -23.412  -5.479 -14.061  1.00  0.00     0.258 C 
HETATM   19  O   UNL     1     -23.006  -4.723 -14.954  1.00  0.00    -0.265 OA
BRANCH  18  20
HETATM   20  O   UNL     1     -24.162  -6.592 -14.291  1.00  0.00    -0.319 OA
BRANCH  20  21
HETATM   21  C   UNL     1     -24.489  -6.837 -15.672  1.00  0.00     0.205 C 
BRANCH  21  22
HETATM   22  C   UNL     1     -25.985  -6.719 -15.944  1.00  0.00     0.194 C 
BRANCH  22  23
HETATM   23  O   UNL     1     -26.237  -5.621 -16.821  1.00  0.00    -0.387 OA
BRANCH  23  24
HETATM   24  C   UNL     1     -27.440  -4.934 -16.428  1.00  0.00     0.193 C 
BRANCH  24  25
HETATM   25  C   UNL     1     -27.125  -3.832 -15.428  1.00  0.00     0.190 C 
BRANCH  25  26
HETATM   26  O   UNL     1     -25.727  -3.555 -15.411  1.00  0.00    -0.399 OA
HETATM   27  H   UNL     1     -25.434  -3.622 -14.485  1.00  0.00     0.209 HD
ENDBRANCH  25  26
ENDBRANCH  24  25
ENDBRANCH  23  24
ENDBRANCH  22  23
ENDBRANCH  21  22
ENDBRANCH  20  21
ENDBRANCH  18  20
ENDBRANCH  17  18
ENDBRANCH  16  17
ENDBRANCH  15  16
ENDBRANCH   1  15
TORSDOF 23
BEGIN_RES ARG D 557
REMARK  4 active torsions:
REMARK  status: ('A' for Active; 'I' for Inactive)
REMARK    1  A    between atoms: CA   and  CB  
REMARK    2  A    between atoms: CB   and  CG  
REMARK    3  A    between atoms: CG   and  CD  
REMARK    4  A    between atoms: CD   and  NE  
REMARK       I    between atoms: NE   and  CZ  
REMARK       I    between atoms: CZ   and  NH1 
REMARK       I    between atoms: CZ   and  NH2 
ROOT
ATOM      1  CA  ARG D 557     -26.217   2.705 -17.014  1.00 35.49     0.159 C 
ENDROOT
BRANCH   1   2
ATOM      2  CB  ARG D 557     -26.789   1.319 -17.183  1.00 35.49     0.034 C 
BRANCH   2   3
ATOM      3  CG  ARG D 557     -26.518   0.357 -16.108  1.00 35.49     0.027 C 
BRANCH   3   4
ATOM      4  CD  ARG D 557     -25.071   0.082 -15.949  1.00 35.49     0.116 C 
BRANCH   4   5
ATOM      5  NE  ARG D 557     -24.783  -0.608 -14.719  1.00 35.49    -0.212 N 
ATOM      6  CZ  ARG D 557     -23.775  -1.427 -14.516  1.00 35.49     0.666 C 
ATOM      7  NH1 ARG D 557     -22.900  -1.722 -15.460  1.00 35.49    -0.235 N 
ATOM      8  NH2 ARG D 557     -23.655  -1.948 -13.330  1.00 35.49    -0.235 N 
ATOM      9  HH  ARG D 557     -22.959  -1.389 -16.247  1.00 35.49     0.174 HD
ATOM     10  HH  ARG D 557     -22.262  -2.261 -15.269  1.00 35.49     0.174 HD
ATOM     11  HH  ARG D 557     -24.230  -1.733 -12.738  1.00 35.49     0.174 HD
ATOM     12  HH  ARG D 557     -23.015  -2.478 -13.160  1.00 35.49     0.174 HD
ATOM     13  HE  ARG D 557     -25.337  -0.532 -14.079  1.00 35.49     0.178 HD
ENDBRANCH   4   5
ENDBRANCH   3   4
ENDBRANCH   2   3
ENDBRANCH   1   2
END_RES ARG D 557
BEGIN_RES GLU D 570
REMARK  3 active torsions:
REMARK  status: ('A' for Active; 'I' for Inactive)
REMARK    5  A    between atoms: CA   and  CB  
REMARK    6  A    between atoms: CB   and  CG  
REMARK    7  A    between atoms: CG   and  CD  
ROOT
ATOM     14  CA  GLU D 570     -18.033  -6.348 -13.375  1.00 32.92     0.160 C 
ENDROOT
BRANCH  14  15
ATOM     15  CB  GLU D 570     -19.500  -6.345 -13.794  1.00 32.92     0.043 C 
BRANCH  15  16
ATOM     16  CG  GLU D 570     -19.800  -6.146 -15.236  1.00 32.92     0.100 C 
BRANCH  16  17
ATOM     17  CD  GLU D 570     -20.644  -7.255 -15.820  1.00 32.92     0.185 C 
ATOM     18  OE1 GLU D 570     -21.240  -7.058 -16.896  1.00 32.92    -0.647 OA
ATOM     19  OE2 GLU D 570     -20.723  -8.326 -15.187  1.00 32.92    -0.647 OA
ENDBRANCH  16  17
ENDBRANCH  15  16
ENDBRANCH  14  15
END_RES GLU D 570
ENDMDL
MODEL 4
REMARK VINA RESULT:      -7.0      1.375      2.460
REMARK  23 active torsions:
REMARK  status: ('A' for Active; 'I' for Inactive)
REMARK    1  A    between atoms: C_2  and  C_3 
REMARK    2  A    between atoms: C_3  and  C_4 
REMARK    3  A    between atoms: C_4  and  C_5 
REMARK    4  A    between atoms: C_5  and  C_6 
REMARK    5  A    between atoms: C_6  and  C_7 
REMARK    6  A    between atoms: C_7  and  C_8 
REMARK    7  A    between atoms: C_8  and  C_9 
REMARK    8  A    between atoms: C_9  and  C_10 
REMARK    9  A    between atoms: C_10  and  C_11 
REMARK   10  A    between atoms: C_11  and  C_12 
REMARK   11  A    between atoms: C_12  and  C_13 
REMARK   12  A    between atoms: C_13  and  C_14 
REMARK   13  A    between atoms: C_14  and  C_15 
REMARK   14  A    between atoms: C_15  and  C_16 
REMARK   15  A    between atoms: C_16  and  C_17 
REMARK   16  A    between atoms: C_17  and  C_18 
REMARK   17  A    between atoms: C_18  and  O_20 
REMARK   18  A    between atoms: O_20  and  C_21 
REMARK   19  A    between atoms: C_21  and  C_22 
REMARK   20  A    between atoms: C_22  and  O_23 
REMARK   21  A    between atoms: O_23  and  C_24 
REMARK   22  A    between atoms: C_24  and  C_25 
REMARK   23  A    between atoms: C_25  and  O_26 
ROOT
HETATM    1  C   UNL     1     -20.052  -6.286  -6.418  1.00  0.00     0.000 C 
ENDROOT
BRANCH   1   2
HETATM    2  C   UNL     1     -20.712  -7.069  -5.297  1.00  0.00     0.000 C 
BRANCH   2   3
HETATM    3  C   UNL     1     -21.906  -6.302  -4.757  1.00  0.00     0.000 C 
BRANCH   3   4
HETATM    4  C   UNL     1     -22.040  -6.539  -3.265  1.00  0.00     0.000 C 
BRANCH   4   5
HETATM    5  C   UNL     1     -20.827  -7.290  -2.751  1.00  0.00     0.000 C 
BRANCH   5   6
HETATM    6  C   UNL     1     -21.105  -7.827  -1.360  1.00  0.00     0.000 C 
BRANCH   6   7
HETATM    7  C   UNL     1     -22.299  -7.111  -0.760  1.00  0.00     0.000 C 
BRANCH   7   8
HETATM    8  C   UNL     1     -22.978  -8.005   0.260  1.00  0.00     0.000 C 
BRANCH   8   9
HETATM    9  C   UNL     1     -22.592  -9.451   0.015  1.00  0.00     0.000 C 
BRANCH   9  10
HETATM   10  C   UNL     1     -23.838 -10.313  -0.049  1.00  0.00     0.000 C 
BRANCH  10  11
HETATM   11  C   UNL     1     -23.591 -11.513  -0.944  1.00  0.00     0.000 C 
BRANCH  11  12
HETATM   12  C   UNL     1     -22.399 -11.250  -1.846  1.00  0.00    -0.000 C 
BRANCH  12  13
HETATM   13  C   UNL     1     -22.863 -11.024  -3.276  1.00  0.00    -0.005 C 
HETATM   14  C   UNL     1     -21.711 -10.528  -4.124  1.00  0.00     0.005 C 
ENDBRANCH  12  13
ENDBRANCH  11  12
ENDBRANCH  10  11
ENDBRANCH   9  10
ENDBRANCH   8   9
ENDBRANCH   7   8
ENDBRANCH   6   7
ENDBRANCH   5   6
ENDBRANCH   4   5
ENDBRANCH   3   4
ENDBRANCH   2   3
ENDBRANCH   1   2
BRANCH   1  15
HETATM   15  C   UNL     1     -20.218  -4.792  -6.180  1.00  0.00     0.000 C 
BRANCH  15  16
HETATM   16  C   UNL     1     -20.255  -4.047  -7.505  1.00  0.00     0.010 C 
BRANCH  16  17
HETATM   17  C   UNL     1     -21.179  -4.720  -8.524  1.00  0.00     0.111 C 
BRANCH  17  18
HETATM   18  C   UNL     1     -22.546  -4.086  -8.489  1.00  0.00     0.258 C 
HETATM   19  O   UNL     1     -23.399  -4.334  -7.627  1.00  0.00    -0.265 OA
BRANCH  18  20
HETATM   20  O   UNL     1     -22.750  -3.243  -9.539  1.00  0.00    -0.319 OA
BRANCH  20  21
HETATM   21  C   UNL     1     -22.182  -3.673 -10.791  1.00  0.00     0.205 C 
BRANCH  21  22
HETATM   22  C   UNL     1     -22.806  -2.962 -11.986  1.00  0.00     0.194 C 
BRANCH  22  23
HETATM   23  O   UNL     1     -24.212  -2.808 -11.784  1.00  0.00    -0.387 OA
BRANCH  23  24
HETATM   24  C   UNL     1     -24.906  -2.862 -13.044  1.00  0.00     0.193 C 
BRANCH  24  25
HETATM   25  C   UNL     1     -24.131  -2.109 -14.115  1.00  0.00     0.190 C 
BRANCH  25  26
HETATM   26  O   UNL     1     -24.726  -0.838 -14.365  1.00  0.00    -0.399 OA
HETATM   27  H   UNL     1     -24.595  -0.642 -15.308  1.00  0.00     0.209 HD
ENDBRANCH  25  26
ENDBRANCH  24  25
ENDBRANCH  23  24
ENDBRANCH  22  23
ENDBRANCH  21  22
ENDBRANCH  20  21
ENDBRANCH  18  20
ENDBRANCH  17  18
ENDBRANCH  16  17
ENDBRANCH  15  16
ENDBRANCH   1  15
TORSDOF 23
BEGIN_RES ARG D 557
REMARK  4 active torsions:
REMARK  status: ('A' for Active; 'I' for Inactive)
REMARK    1  A    between atoms: CA   and  CB  
REMARK    2  A    between atoms: CB   and  CG  
REMARK    3  A    between atoms: CG   and  CD  
REMARK    4  A    between atoms: CD   and  NE  
REMARK       I    between atoms: NE   and  CZ  
REMARK       I    between atoms: CZ   and  NH1 
REMARK       I    between atoms: CZ   and  NH2 
ROOT
ATOM      1  CA  ARG D 557     -26.217   2.705 -17.014  1.00 35.49     0.159 C 
ENDROOT
BRANCH   1   2
ATOM      2  CB  ARG D 557     -26.789   1.319 -17.183  1.00 35.49     0.034 C 
BRANCH   2   3
ATOM      3  CG  ARG D 557     -28.252   1.199 -17.149  1.00 35.49     0.027 C 
BRANCH   3   4
ATOM      4  CD  ARG D 557     -28.706   0.070 -16.307  1.00 35.49     0.116 C 
BRANCH   4   5
ATOM      5  NE  ARG D 557     -29.354  -0.957 -17.080  1.00 35.49    -0.212 N 
ATOM      6  CZ  ARG D 557     -28.979  -2.215 -17.152  1.00 35.49     0.666 C 
ATOM      7  NH1 ARG D 557     -27.923  -2.679 -16.510  1.00 35.49    -0.235 N 
ATOM      8  NH2 ARG D 557     -29.698  -3.014 -17.886  1.00 35.49    -0.235 N 
ATOM      9  HH  ARG D 557     -27.437  -2.171 -16.019  1.00 35.49     0.174 HD
ATOM     10  HH  ARG D 557     -27.729  -3.509 -16.593  1.00 35.49     0.174 HD
ATOM     11  HH  ARG D 557     -30.379  -2.688 -18.284  1.00 35.49     0.174 HD
ATOM     12  HH  ARG D 557     -29.490  -3.833 -17.954  1.00 35.49     0.174 HD
ATOM     13  HE  ARG D 557     -30.001  -0.731 -17.583  1.00 35.49     0.178 HD
ENDBRANCH   4   5
ENDBRANCH   3   4
ENDBRANCH   2   3
ENDBRANCH   1   2
END_RES ARG D 557
BEGIN_RES GLU D 570
REMARK  3 active torsions:
REMARK  status: ('A' for Active; 'I' for Inactive)
REMARK    5  A    between atoms: CA   and  CB  
REMARK    6  A    between atoms: CB   and  CG  
REMARK    7  A    between atoms: CG   and  CD  
ROOT
ATOM     14  CA  GLU D 570     -18.033  -6.348 -13.375  1.00 32.92     0.160 C 
ENDROOT
BRANCH  14  15
ATOM     15  CB  GLU D 570     -19.500  -6.345 -13.794  1.00 32.92     0.043 C 
BRANCH  15  16
ATOM     16  CG  GLU D 570     -19.798  -6.217 -15.244  1.00 32.92     0.100 C 
BRANCH  16  17
ATOM     17  CD  GLU D 570     -21.209  -5.753 -15.517  1.00 32.92     0.185 C 
ATOM     18  OE1 GLU D 570     -22.090  -5.956 -14.659  1.00 32.92    -0.647 OA
ATOM     19  OE2 GLU D 570     -21.441  -5.196 -16.608  1.00 32.92    -0.647 OA
ENDBRANCH  16  17
ENDBRANCH  15  16
ENDBRANCH  14  15
END_RES GLU D 570
ENDMDL
MODEL 5
REMARK VINA RESULT:      -6.7      1.339      2.343
REMARK  23 active torsions:
REMARK  status: ('A' for Active; 'I' for Inactive)
REMARK    1  A    between atoms: C_2  and  C_3 
REMARK    2  A    between atoms: C_3  and  C_4 
REMARK    3  A    between atoms: C_4  and  C_5 
REMARK    4  A    between atoms: C_5  and  C_6 
REMARK    5  A    between atoms: C_6  and  C_7 
REMARK    6  A    between atoms: C_7  and  C_8 
REMARK    7  A    between atoms: C_8  and  C_9 
REMARK    8  A    between atoms: C_9  and  C_10 
REMARK    9  A    between atoms: C_10  and  C_11 
REMARK   10  A    between atoms: C_11  and  C_12 
REMARK   11  A    between atoms: C_12  and  C_13 
REMARK   12  A    between atoms: C_13  and  C_14 
REMARK   13  A    between atoms: C_14  and  C_15 
REMARK   14  A    between atoms: C_15  and  C_16 
REMARK   15  A    between atoms: C_16  and  C_17 
REMARK   16  A    between atoms: C_17  and  C_18 
REMARK   17  A    between atoms: C_18  and  O_20 
REMARK   18  A    between atoms: O_20  and  C_21 
REMARK   19  A    between atoms: C_21  and  C_22 
REMARK   20  A    between atoms: C_22  and  O_23 
REMARK   21  A    between atoms: O_23  and  C_24 
REMARK   22  A    between atoms: C_24  and  C_25 
REMARK   23  A    between atoms: C_25  and  O_26 
ROOT
HETATM    1  C   UNL     1     -20.558  -4.960  -5.458  1.00  0.00     0.000 C 
ENDROOT
BRANCH   1   2
HETATM    2  C   UNL     1     -21.701  -5.924  -5.719  1.00  0.00     0.000 C 
BRANCH   2   3
HETATM    3  C   UNL     1     -21.513  -7.190  -4.902  1.00  0.00     0.000 C 
BRANCH   3   4
HETATM    4  C   UNL     1     -21.263  -6.835  -3.448  1.00  0.00     0.000 C 
BRANCH   4   5
HETATM    5  C   UNL     1     -20.842  -8.072  -2.681  1.00  0.00     0.000 C 
BRANCH   5   6
HETATM    6  C   UNL     1     -21.429  -9.309  -3.334  1.00  0.00     0.000 C 
BRANCH   6   7
HETATM    7  C   UNL     1     -20.681 -10.543  -2.867  1.00  0.00     0.000 C 
BRANCH   7   8
HETATM    8  C   UNL     1     -21.558 -11.352  -1.930  1.00  0.00     0.000 C 
BRANCH   8   9
HETATM    9  C   UNL     1     -23.018 -11.136  -2.276  1.00  0.00     0.000 C 
BRANCH   9  10
HETATM   10  C   UNL     1     -23.857 -11.162  -1.012  1.00  0.00     0.000 C 
BRANCH  10  11
HETATM   11  C   UNL     1     -23.117 -10.462   0.113  1.00  0.00     0.000 C 
BRANCH  11  12
HETATM   12  C   UNL     1     -23.598  -9.029   0.236  1.00  0.00    -0.000 C 
BRANCH  12  13
HETATM   13  C   UNL     1     -22.432  -8.110   0.562  1.00  0.00    -0.005 C 
HETATM   14  C   UNL     1     -21.248  -8.922   1.043  1.00  0.00     0.005 C 
ENDBRANCH  12  13
ENDBRANCH  11  12
ENDBRANCH  10  11
ENDBRANCH   9  10
ENDBRANCH   8   9
ENDBRANCH   7   8
ENDBRANCH   6   7
ENDBRANCH   5   6
ENDBRANCH   4   5
ENDBRANCH   3   4
ENDBRANCH   2   3
ENDBRANCH   1   2
BRANCH   1  15
HETATM   15  C   UNL     1     -19.679  -4.845  -6.695  1.00  0.00     0.000 C 
BRANCH  15  16
HETATM   16  C   UNL     1     -20.410  -5.385  -7.914  1.00  0.00     0.010 C 
BRANCH  16  17
HETATM   17  C   UNL     1     -20.530  -4.343  -9.028  1.00  0.00     0.111 C 
BRANCH  17  18
HETATM   18  C   UNL     1     -21.979  -4.112  -9.374  1.00  0.00     0.258 C 
HETATM   19  O   UNL     1     -22.845  -3.810  -8.542  1.00  0.00    -0.265 OA
BRANCH  18  20
HETATM   20  O   UNL     1     -22.233  -4.316 -10.696  1.00  0.00    -0.319 OA
BRANCH  20  21
HETATM   21  C   UNL     1     -22.670  -3.152 -11.423  1.00  0.00     0.205 C 
BRANCH  21  22
HETATM   22  C   UNL     1     -24.179  -3.138 -11.643  1.00  0.00     0.194 C 
BRANCH  22  23
HETATM   23  O   UNL     1     -24.471  -3.209 -13.039  1.00  0.00    -0.387 OA
BRANCH  23  24
HETATM   24  C   UNL     1     -23.386  -2.652 -13.805  1.00  0.00     0.193 C 
BRANCH  24  25
HETATM   25  C   UNL     1     -23.903  -1.603 -14.779  1.00  0.00     0.190 C 
BRANCH  25  26
HETATM   26  O   UNL     1     -25.208  -1.946 -15.239  1.00  0.00    -0.399 OA
HETATM   27  H   UNL     1     -25.188  -1.902 -16.211  1.00  0.00     0.209 HD
ENDBRANCH  25  26
ENDBRANCH  24  25
ENDBRANCH  23  24
ENDBRANCH  22  23
ENDBRANCH  21  22
ENDBRANCH  20  21
ENDBRANCH  18  20
ENDBRANCH  17  18
ENDBRANCH  16  17
ENDBRANCH  15  16
ENDBRANCH   1  15
TORSDOF 23
BEGIN_RES ARG D 557
REMARK  4 active torsions:
REMARK  status: ('A' for Active; 'I' for Inactive)
REMARK    1  A    between atoms: CA   and  CB  
REMARK    2  A    between atoms: CB   and  CG  
REMARK    3  A    between atoms: CG   and  CD  
REMARK    4  A    between atoms: CD   and  NE  
REMARK       I    between atoms: NE   and  CZ  
REMARK       I    between atoms: CZ   and  NH1 
REMARK       I    between atoms: CZ   and  NH2 
ROOT
ATOM      1  CA  ARG D 557     -26.217   2.705 -17.014  1.00 35.49     0.159 C 
ENDROOT
BRANCH   1   2
ATOM      2  CB  ARG D 557     -26.789   1.319 -17.183  1.00 35.49     0.034 C 
BRANCH   2   3
ATOM      3  CG  ARG D 557     -28.184   1.125 -16.769  1.00 35.49     0.027 C 
BRANCH   3   4
ATOM      4  CD  ARG D 557     -28.727  -0.181 -17.209  1.00 35.49     0.116 C 
BRANCH   4   5
ATOM      5  NE  ARG D 557     -28.003  -1.288 -16.643  1.00 35.49    -0.212 N 
ATOM      6  CZ  ARG D 557     -28.287  -2.560 -16.814  1.00 35.49     0.666 C 
ATOM      7  NH1 ARG D 557     -29.313  -2.965 -17.539  1.00 35.49    -0.235 N 
ATOM      8  NH2 ARG D 557     -27.508  -3.431 -16.242  1.00 35.49    -0.235 N 
ATOM      9  HH  ARG D 557     -29.837  -2.409 -17.927  1.00 35.49     0.174 HD
ATOM     10  HH  ARG D 557     -29.448  -3.808 -17.618  1.00 35.49     0.174 HD
ATOM     11  HH  ARG D 557     -26.849  -3.140 -15.786  1.00 35.49     0.174 HD
ATOM     12  HH  ARG D 557     -27.657  -4.261 -16.333  1.00 35.49     0.174 HD
ATOM     13  HE  ARG D 557     -27.369  -1.116 -16.102  1.00 35.49     0.178 HD
ENDBRANCH   4   5
ENDBRANCH   3   4
ENDBRANCH   2   3
ENDBRANCH   1   2
END_RES ARG D 557
BEGIN_RES GLU D 570
REMARK  3 active torsions:
REMARK  status: ('A' for Active; 'I' for Inactive)
REMARK    5  A    between atoms: CA   and  CB  
REMARK    6  A    between atoms: CB   and  CG  
REMARK    7  A    between atoms: CG   and  CD  
ROOT
ATOM     14  CA  GLU D 570     -18.033  -6.348 -13.375  1.00 32.92     0.160 C 
ENDROOT
BRANCH  14  15
ATOM     15  CB  GLU D 570     -19.500  -6.345 -13.794  1.00 32.92     0.043 C 
BRANCH  15  16
ATOM     16  CG  GLU D 570     -19.805  -6.043 -15.216  1.00 32.92     0.100 C 
BRANCH  16  17
ATOM     17  CD  GLU D 570     -21.272  -5.773 -15.460  1.00 32.92     0.185 C 
ATOM     18  OE1 GLU D 570     -22.116  -6.575 -15.017  1.00 32.92    -0.647 OA
ATOM     19  OE2 GLU D 570     -21.578  -4.758 -16.116  1.00 32.92    -0.647 OA
ENDBRANCH  16  17
ENDBRANCH  15  16
ENDBRANCH  14  15
END_RES GLU D 570
ENDMDL
MODEL 6
REMARK VINA RESULT:      -6.6      1.645      3.776
REMARK  23 active torsions:
REMARK  status: ('A' for Active; 'I' for Inactive)
REMARK    1  A    between atoms: C_2  and  C_3 
REMARK    2  A    between atoms: C_3  and  C_4 
REMARK    3  A    between atoms: C_4  and  C_5 
REMARK    4  A    between atoms: C_5  and  C_6 
REMARK    5  A    between atoms: C_6  and  C_7 
REMARK    6  A    between atoms: C_7  and  C_8 
REMARK    7  A    between atoms: C_8  and  C_9 
REMARK    8  A    between atoms: C_9  and  C_10 
REMARK    9  A    between atoms: C_10  and  C_11 
REMARK   10  A    between atoms: C_11  and  C_12 
REMARK   11  A    between atoms: C_12  and  C_13 
REMARK   12  A    between atoms: C_13  and  C_14 
REMARK   13  A    between atoms: C_14  and  C_15 
REMARK   14  A    between atoms: C_15  and  C_16 
REMARK   15  A    between atoms: C_16  and  C_17 
REMARK   16  A    between atoms: C_17  and  C_18 
REMARK   17  A    between atoms: C_18  and  O_20 
REMARK   18  A    between atoms: O_20  and  C_21 
REMARK   19  A    between atoms: C_21  and  C_22 
REMARK   20  A    between atoms: C_22  and  O_23 
REMARK   21  A    between atoms: O_23  and  C_24 
REMARK   22  A    between atoms: C_24  and  C_25 
REMARK   23  A    between atoms: C_25  and  O_26 
ROOT
HETATM    1  C   UNL     1     -21.844  -6.511  -4.346  1.00  0.00     0.000 C 
ENDROOT
BRANCH   1   2
HETATM    2  C   UNL     1     -21.221  -6.217  -2.994  1.00  0.00     0.000 C 
BRANCH   2   3
HETATM    3  C   UNL     1     -22.244  -6.421  -1.892  1.00  0.00     0.000 C 
BRANCH   3   4
HETATM    4  C   UNL     1     -21.822  -7.576  -1.003  1.00  0.00     0.000 C 
BRANCH   4   5
HETATM    5  C   UNL     1     -22.734  -7.654   0.207  1.00  0.00     0.000 C 
BRANCH   5   6
HETATM    6  C   UNL     1     -23.481  -8.974   0.205  1.00  0.00     0.000 C 
BRANCH   6   7
HETATM    7  C   UNL     1     -22.568 -10.082  -0.285  1.00  0.00     0.000 C 
BRANCH   7   8
HETATM    8  C   UNL     1     -23.347 -11.040  -1.167  1.00  0.00     0.000 C 
BRANCH   8   9
HETATM    9  C   UNL     1     -22.518 -11.410  -2.382  1.00  0.00     0.000 C 
BRANCH   9  10
HETATM   10  C   UNL     1     -22.414 -10.220  -3.317  1.00  0.00     0.000 C 
BRANCH  10  11
HETATM   11  C   UNL     1     -21.043 -10.193  -3.967  1.00  0.00     0.000 C 
BRANCH  11  12
HETATM   12  C   UNL     1     -19.969 -10.045  -2.905  1.00  0.00    -0.000 C 
BRANCH  12  13
HETATM   13  C   UNL     1     -18.809  -9.223  -3.443  1.00  0.00    -0.005 C 
HETATM   14  C   UNL     1     -18.711  -9.382  -4.945  1.00  0.00     0.005 C 
ENDBRANCH  12  13
ENDBRANCH  11  12
ENDBRANCH  10  11
ENDBRANCH   9  10
ENDBRANCH   8   9
ENDBRANCH   7   8
ENDBRANCH   6   7
ENDBRANCH   5   6
ENDBRANCH   4   5
ENDBRANCH   3   4
ENDBRANCH   2   3
ENDBRANCH   1   2
BRANCH   1  15
HETATM   15  C   UNL     1     -20.784  -6.445  -5.436  1.00  0.00     0.000 C 
BRANCH  15  16
HETATM   16  C   UNL     1     -20.578  -5.007  -5.885  1.00  0.00     0.010 C 
BRANCH  16  17
HETATM   17  C   UNL     1     -20.822  -4.826  -7.385  1.00  0.00     0.111 C 
BRANCH  17  18
HETATM   18  C   UNL     1     -22.285  -4.575  -7.650  1.00  0.00     0.258 C 
HETATM   19  O   UNL     1     -23.139  -4.474  -6.758  1.00  0.00    -0.265 OA
BRANCH  18  20
HETATM   20  O   UNL     1     -22.565  -4.516  -8.980  1.00  0.00    -0.319 OA
BRANCH  20  21
HETATM   21  C   UNL     1     -23.673  -3.666  -9.337  1.00  0.00     0.205 C 
BRANCH  21  22
HETATM   22  C   UNL     1     -24.162  -3.917 -10.759  1.00  0.00     0.194 C 
BRANCH  22  23
HETATM   23  O   UNL     1     -23.719  -2.868 -11.621  1.00  0.00    -0.387 OA
BRANCH  23  24
HETATM   24  C   UNL     1     -24.465  -2.887 -12.853  1.00  0.00     0.193 C 
BRANCH  24  25
HETATM   25  C   UNL     1     -23.698  -3.638 -13.932  1.00  0.00     0.190 C 
BRANCH  25  26
HETATM   26  O   UNL     1     -22.371  -3.132 -14.048  1.00  0.00    -0.399 OA
HETATM   27  H   UNL     1     -21.783  -3.769 -13.608  1.00  0.00     0.209 HD
ENDBRANCH  25  26
ENDBRANCH  24  25
ENDBRANCH  23  24
ENDBRANCH  22  23
ENDBRANCH  21  22
ENDBRANCH  20  21
ENDBRANCH  18  20
ENDBRANCH  17  18
ENDBRANCH  16  17
ENDBRANCH  15  16
ENDBRANCH   1  15
TORSDOF 23
BEGIN_RES ARG D 557
REMARK  4 active torsions:
REMARK  status: ('A' for Active; 'I' for Inactive)
REMARK    1  A    between atoms: CA   and  CB  
REMARK    2  A    between atoms: CB   and  CG  
REMARK    3  A    between atoms: CG   and  CD  
REMARK    4  A    between atoms: CD   and  NE  
REMARK       I    between atoms: NE   and  CZ  
REMARK       I    between atoms: CZ   and  NH1 
REMARK       I    between atoms: CZ   and  NH2 
ROOT
ATOM      1  CA  ARG D 557     -26.217   2.705 -17.014  1.00 35.49     0.159 C 
ENDROOT
BRANCH   1   2
ATOM      2  CB  ARG D 557     -26.789   1.319 -17.183  1.00 35.49     0.034 C 
BRANCH   2   3
ATOM      3  CG  ARG D 557     -28.235   1.225 -17.420  1.00 35.49     0.027 C 
BRANCH   3   4
ATOM      4  CD  ARG D 557     -28.897   0.272 -16.500  1.00 35.49     0.116 C 
BRANCH   4   5
ATOM      5  NE  ARG D 557     -29.252  -0.958 -17.157  1.00 35.49    -0.212 N 
ATOM      6  CZ  ARG D 557     -28.616  -2.102 -17.042  1.00 35.49     0.666 C 
ATOM      7  NH1 ARG D 557     -27.537  -2.241 -16.295  1.00 35.49    -0.235 N 
ATOM      8  NH2 ARG D 557     -29.093  -3.122 -17.695  1.00 35.49    -0.235 N 
ATOM      9  HH  ARG D 557     -27.207  -1.584 -15.855  1.00 35.49     0.174 HD
ATOM     10  HH  ARG D 557     -27.166  -3.013 -16.256  1.00 35.49     0.174 HD
ATOM     11  HH  ARG D 557     -29.795  -3.004 -18.164  1.00 35.49     0.174 HD
ATOM     12  HH  ARG D 557     -28.712  -3.878 -17.642  1.00 35.49     0.174 HD
ATOM     13  HE  ARG D 557     -29.894  -0.941 -17.716  1.00 35.49     0.178 HD
ENDBRANCH   4   5
ENDBRANCH   3   4
ENDBRANCH   2   3
ENDBRANCH   1   2
END_RES ARG D 557
BEGIN_RES GLU D 570
REMARK  3 active torsions:
REMARK  status: ('A' for Active; 'I' for Inactive)
REMARK    5  A    between atoms: CA   and  CB  
REMARK    6  A    between atoms: CB   and  CG  
REMARK    7  A    between atoms: CG   and  CD  
ROOT
ATOM     14  CA  GLU D 570     -18.033  -6.348 -13.375  1.00 32.92     0.160 C 
ENDROOT
BRANCH  14  15
ATOM     15  CB  GLU D 570     -19.500  -6.345 -13.794  1.00 32.92     0.043 C 
BRANCH  15  16
ATOM     16  CG  GLU D 570     -19.809  -5.990 -15.203  1.00 32.92     0.100 C 
BRANCH  16  17
ATOM     17  CD  GLU D 570     -21.279  -6.107 -15.532  1.00 32.92     0.185 C 
ATOM     18  OE1 GLU D 570     -21.794  -5.276 -16.304  1.00 32.92    -0.647 OA
ATOM     19  OE2 GLU D 570     -21.925  -7.030 -14.999  1.00 32.92    -0.647 OA
ENDBRANCH  16  17
ENDBRANCH  15  16
ENDBRANCH  14  15
END_RES GLU D 570
ENDMDL
MODEL 7
REMARK VINA RESULT:      -6.6      2.109      4.116
REMARK  23 active torsions:
REMARK  status: ('A' for Active; 'I' for Inactive)
REMARK    1  A    between atoms: C_2  and  C_3 
REMARK    2  A    between atoms: C_3  and  C_4 
REMARK    3  A    between atoms: C_4  and  C_5 
REMARK    4  A    between atoms: C_5  and  C_6 
REMARK    5  A    between atoms: C_6  and  C_7 
REMARK    6  A    between atoms: C_7  and  C_8 
REMARK    7  A    between atoms: C_8  and  C_9 
REMARK    8  A    between atoms: C_9  and  C_10 
REMARK    9  A    between atoms: C_10  and  C_11 
REMARK   10  A    between atoms: C_11  and  C_12 
REMARK   11  A    between atoms: C_12  and  C_13 
REMARK   12  A    between atoms: C_13  and  C_14 
REMARK   13  A    between atoms: C_14  and  C_15 
REMARK   14  A    between atoms: C_15  and  C_16 
REMARK   15  A    between atoms: C_16  and  C_17 
REMARK   16  A    between atoms: C_17  and  C_18 
REMARK   17  A    between atoms: C_18  and  O_20 
REMARK   18  A    between atoms: O_20  and  C_21 
REMARK   19  A    between atoms: C_21  and  C_22 
REMARK   20  A    between atoms: C_22  and  O_23 
REMARK   21  A    between atoms: O_23  and  C_24 
REMARK   22  A    between atoms: C_24  and  C_25 
REMARK   23  A    between atoms: C_25  and  O_26 
ROOT
HETATM    1  C   UNL     1     -21.652  -7.296  -4.672  1.00  0.00     0.000 C 
ENDROOT
BRANCH   1   2
HETATM    2  C   UNL     1     -21.378  -6.292  -3.567  1.00  0.00     0.000 C 
BRANCH   2   3
HETATM    3  C   UNL     1     -21.263  -7.004  -2.231  1.00  0.00     0.000 C 
BRANCH   3   4
HETATM    4  C   UNL     1     -22.333  -6.497  -1.282  1.00  0.00     0.000 C 
BRANCH   4   5
HETATM    5  C   UNL     1     -22.635  -7.552  -0.236  1.00  0.00     0.000 C 
BRANCH   5   6
HETATM    6  C   UNL     1     -21.359  -8.279   0.146  1.00  0.00     0.000 C 
BRANCH   6   7
HETATM    7  C   UNL     1     -21.663  -9.737   0.430  1.00  0.00     0.000 C 
BRANCH   7   8
HETATM    8  C   UNL     1     -23.029 -10.096  -0.124  1.00  0.00     0.000 C 
BRANCH   8   9
HETATM    9  C   UNL     1     -23.002 -11.503  -0.690  1.00  0.00     0.000 C 
BRANCH   9  10
HETATM   10  C   UNL     1     -23.349 -11.472  -2.166  1.00  0.00     0.000 C 
BRANCH  10  11
HETATM   11  C   UNL     1     -22.425 -10.513  -2.893  1.00  0.00     0.000 C 
BRANCH  11  12
HETATM   12  C   UNL     1     -21.072 -11.163  -3.113  1.00  0.00    -0.000 C 
BRANCH  12  13
HETATM   13  C   UNL     1     -19.959 -10.161  -2.848  1.00  0.00    -0.005 C 
HETATM   14  C   UNL     1     -18.825 -10.830  -2.099  1.00  0.00     0.005 C 
ENDBRANCH  12  13
ENDBRANCH  11  12
ENDBRANCH  10  11
ENDBRANCH   9  10
ENDBRANCH   8   9
ENDBRANCH   7   8
ENDBRANCH   6   7
ENDBRANCH   5   6
ENDBRANCH   4   5
ENDBRANCH   3   4
ENDBRANCH   2   3
ENDBRANCH   1   2
BRANCH   1  15
HETATM   15  C   UNL     1     -20.407  -7.485  -5.527  1.00  0.00     0.000 C 
BRANCH  15  16
HETATM   16  C   UNL     1     -20.089  -6.207  -6.286  1.00  0.00     0.010 C 
BRANCH  16  17
HETATM   17  C   UNL     1     -21.151  -5.878  -7.339  1.00  0.00     0.111 C 
BRANCH  17  18
HETATM   18  C   UNL     1     -20.877  -4.529  -7.953  1.00  0.00     0.258 C 
HETATM   19  O   UNL     1     -21.227  -3.456  -7.443  1.00  0.00    -0.265 OA
BRANCH  18  20
HETATM   20  O   UNL     1     -20.242  -4.628  -9.153  1.00  0.00    -0.319 OA
BRANCH  20  21
HETATM   21  C   UNL     1     -20.739  -3.754 -10.185  1.00  0.00     0.205 C 
BRANCH  21  22
HETATM   22  C   UNL     1     -21.438  -4.516 -11.304  1.00  0.00     0.194 C 
BRANCH  22  23
HETATM   23  O   UNL     1     -22.779  -4.048 -11.452  1.00  0.00    -0.387 OA
BRANCH  23  24
HETATM   24  C   UNL     1     -23.627  -4.640 -10.449  1.00  0.00     0.193 C 
BRANCH  24  25
HETATM   25  C   UNL     1     -24.364  -3.562  -9.668  1.00  0.00     0.190 C 
BRANCH  25  26
HETATM   26  O   UNL     1     -24.268  -3.805  -8.266  1.00  0.00    -0.399 OA
HETATM   27  H   UNL     1     -23.327  -3.948  -8.066  1.00  0.00     0.209 HD
ENDBRANCH  25  26
ENDBRANCH  24  25
ENDBRANCH  23  24
ENDBRANCH  22  23
ENDBRANCH  21  22
ENDBRANCH  20  21
ENDBRANCH  18  20
ENDBRANCH  17  18
ENDBRANCH  16  17
ENDBRANCH  15  16
ENDBRANCH   1  15
TORSDOF 23
BEGIN_RES ARG D 557
REMARK  4 active torsions:
REMARK  status: ('A' for Active; 'I' for Inactive)
REMARK    1  A    between atoms: CA   and  CB  
REMARK    2  A    between atoms: CB   and  CG  
REMARK    3  A    between atoms: CG   and  CD  
REMARK    4  A    between atoms: CD   and  NE  
REMARK       I    between atoms: NE   and  CZ  
REMARK       I    between atoms: CZ   and  NH1 
REMARK       I    between atoms: CZ   and  NH2 
ROOT
ATOM      1  CA  ARG D 557     -26.217   2.705 -17.014  1.00 35.49     0.159 C 
ENDROOT
BRANCH   1   2
ATOM      2  CB  ARG D 557     -26.789   1.319 -17.183  1.00 35.49     0.034 C 
BRANCH   2   3
ATOM      3  CG  ARG D 557     -25.859   0.196 -17.016  1.00 35.49     0.027 C 
BRANCH   3   4
ATOM      4  CD  ARG D 557     -26.272  -0.722 -15.930  1.00 35.49     0.116 C 
BRANCH   4   5
ATOM      5  NE  ARG D 557     -25.235  -0.900 -14.947  1.00 35.49    -0.212 N 
ATOM      6  CZ  ARG D 557     -24.946  -2.024 -14.331  1.00 35.49     0.666 C 
ATOM      7  NH1 ARG D 557     -25.611  -3.144 -14.549  1.00 35.49    -0.235 N 
ATOM      8  NH2 ARG D 557     -23.957  -2.008 -13.484  1.00 35.49    -0.235 N 
ATOM      9  HH  ARG D 557     -26.263  -3.178 -15.103  1.00 35.49     0.174 HD
ATOM     10  HH  ARG D 557     -25.375  -3.847 -14.120  1.00 35.49     0.174 HD
ATOM     11  HH  ARG D 557     -23.541  -1.272 -13.370  1.00 35.49     0.174 HD
ATOM     12  HH  ARG D 557     -23.739  -2.715 -13.070  1.00 35.49     0.174 HD
ATOM     13  HE  ARG D 557     -24.804  -0.213 -14.693  1.00 35.49     0.178 HD
ENDBRANCH   4   5
ENDBRANCH   3   4
ENDBRANCH   2   3
ENDBRANCH   1   2
END_RES ARG D 557
BEGIN_RES GLU D 570
REMARK  3 active torsions:
REMARK  status: ('A' for Active; 'I' for Inactive)
REMARK    5  A    between atoms: CA   and  CB  
REMARK    6  A    between atoms: CB   and  CG  
REMARK    7  A    between atoms: CG   and  CD  
ROOT
ATOM     14  CA  GLU D 570     -18.033  -6.348 -13.375  1.00 32.92     0.160 C 
ENDROOT
BRANCH  14  15
ATOM     15  CB  GLU D 570     -19.500  -6.345 -13.794  1.00 32.92     0.043 C 
BRANCH  15  16
ATOM     16  CG  GLU D 570     -20.076  -7.626 -14.278  1.00 32.92     0.100 C 
BRANCH  16  17
ATOM     17  CD  GLU D 570     -21.168  -7.431 -15.305  1.00 32.92     0.185 C 
ATOM     18  OE1 GLU D 570     -21.168  -8.140 -16.329  1.00 32.92    -0.647 OA
ATOM     19  OE2 GLU D 570     -22.022  -6.549 -15.089  1.00 32.92    -0.647 OA
ENDBRANCH  16  17
ENDBRANCH  15  16
ENDBRANCH  14  15
END_RES GLU D 570
ENDMDL
MODEL 8
REMARK VINA RESULT:      -6.6      1.619      2.821
REMARK  23 active torsions:
REMARK  status: ('A' for Active; 'I' for Inactive)
REMARK    1  A    between atoms: C_2  and  C_3 
REMARK    2  A    between atoms: C_3  and  C_4 
REMARK    3  A    between atoms: C_4  and  C_5 
REMARK    4  A    between atoms: C_5  and  C_6 
REMARK    5  A    between atoms: C_6  and  C_7 
REMARK    6  A    between atoms: C_7  and  C_8 
REMARK    7  A    between atoms: C_8  and  C_9 
REMARK    8  A    between atoms: C_9  and  C_10 
REMARK    9  A    between atoms: C_10  and  C_11 
REMARK   10  A    between atoms: C_11  and  C_12 
REMARK   11  A    between atoms: C_12  and  C_13 
REMARK   12  A    between atoms: C_13  and  C_14 
REMARK   13  A    between atoms: C_14  and  C_15 
REMARK   14  A    between atoms: C_15  and  C_16 
REMARK   15  A    between atoms: C_16  and  C_17 
REMARK   16  A    between atoms: C_17  and  C_18 
REMARK   17  A    between atoms: C_18  and  O_20 
REMARK   18  A    between atoms: O_20  and  C_21 
REMARK   19  A    between atoms: C_21  and  C_22 
REMARK   20  A    between atoms: C_22  and  O_23 
REMARK   21  A    between atoms: O_23  and  C_24 
REMARK   22  A    between atoms: C_24  and  C_25 
REMARK   23  A    between atoms: C_25  and  O_26 
ROOT
HETATM    1  C   UNL     1     -20.815  -5.304  -5.525  1.00  0.00     0.000 C 
ENDROOT
BRANCH   1   2
HETATM    2  C   UNL     1     -20.844  -6.821  -5.582  1.00  0.00     0.000 C 
BRANCH   2   3
HETATM    3  C   UNL     1     -21.683  -7.370  -4.441  1.00  0.00     0.000 C 
BRANCH   3   4
HETATM    4  C   UNL     1     -21.516  -6.498  -3.211  1.00  0.00     0.000 C 
BRANCH   4   5
HETATM    5  C   UNL     1     -21.380  -7.369  -1.977  1.00  0.00     0.000 C 
BRANCH   5   6
HETATM    6  C   UNL     1     -22.358  -6.910  -0.912  1.00  0.00     0.000 C 
BRANCH   6   7
HETATM    7  C   UNL     1     -22.431  -7.940   0.198  1.00  0.00     0.000 C 
BRANCH   7   8
HETATM    8  C   UNL     1     -21.463  -9.073  -0.086  1.00  0.00     0.000 C 
BRANCH   8   9
HETATM    9  C   UNL     1     -22.147 -10.406   0.149  1.00  0.00     0.000 C 
BRANCH   9  10
HETATM   10  C   UNL     1     -23.415 -10.488  -0.679  1.00  0.00     0.000 C 
BRANCH  10  11
HETATM   11  C   UNL     1     -23.211 -11.437  -1.844  1.00  0.00     0.000 C 
BRANCH  11  12
HETATM   12  C   UNL     1     -22.772 -10.662  -3.073  1.00  0.00    -0.000 C 
BRANCH  12  13
HETATM   13  C   UNL     1     -21.636 -11.389  -3.774  1.00  0.00    -0.005 C 
HETATM   14  C   UNL     1     -20.329 -10.664  -3.535  1.00  0.00     0.005 C 
ENDBRANCH  12  13
ENDBRANCH  11  12
ENDBRANCH  10  11
ENDBRANCH   9  10
ENDBRANCH   8   9
ENDBRANCH   7   8
ENDBRANCH   6   7
ENDBRANCH   5   6
ENDBRANCH   4   5
ENDBRANCH   3   4
ENDBRANCH   2   3
ENDBRANCH   1   2
BRANCH   1  15
HETATM   15  C   UNL     1     -20.386  -4.740  -6.872  1.00  0.00     0.000 C 
BRANCH  15  16
HETATM   16  C   UNL     1     -21.373  -5.149  -7.954  1.00  0.00     0.010 C 
BRANCH  16  17
HETATM   17  C   UNL     1     -21.145  -4.393  -9.265  1.00  0.00     0.111 C 
BRANCH  17  18
HETATM   18  C   UNL     1     -22.442  -3.810  -9.765  1.00  0.00     0.258 C 
HETATM   19  O   UNL     1     -23.488  -3.786  -9.101  1.00  0.00    -0.265 OA
BRANCH  18  20
HETATM   20  O   UNL     1     -22.343  -3.352 -11.043  1.00  0.00    -0.319 OA
BRANCH  20  21
HETATM   21  C   UNL     1     -22.866  -4.236 -12.053  1.00  0.00     0.205 C 
BRANCH  21  22
HETATM   22  C   UNL     1     -23.956  -3.578 -12.892  1.00  0.00     0.194 C 
BRANCH  22  23
HETATM   23  O   UNL     1     -24.183  -4.336 -14.081  1.00  0.00    -0.387 OA
BRANCH  23  24
HETATM   24  C   UNL     1     -23.604  -5.648 -13.955  1.00  0.00     0.193 C 
BRANCH  24  25
HETATM   25  C   UNL     1     -23.953  -6.505 -15.163  1.00  0.00     0.190 C 
BRANCH  25  26
HETATM   26  O   UNL     1     -25.229  -7.117 -14.992  1.00  0.00    -0.399 OA
HETATM   27  H   UNL     1     -25.327  -7.312 -14.044  1.00  0.00     0.209 HD
ENDBRANCH  25  26
ENDBRANCH  24  25
ENDBRANCH  23  24
ENDBRANCH  22  23
ENDBRANCH  21  22
ENDBRANCH  20  21
ENDBRANCH  18  20
ENDBRANCH  17  18
ENDBRANCH  16  17
ENDBRANCH  15  16
ENDBRANCH   1  15
TORSDOF 23
BEGIN_RES ARG D 557
REMARK  4 active torsions:
REMARK  status: ('A' for Active; 'I' for Inactive)
REMARK    1  A    between atoms: CA   and  CB  
REMARK    2  A    between atoms: CB   and  CG  
REMARK    3  A    between atoms: CG   and  CD  
REMARK    4  A    between atoms: CD   and  NE  
REMARK       I    between atoms: NE   and  CZ  
REMARK       I    between atoms: CZ   and  NH1 
REMARK       I    between atoms: CZ   and  NH2 
ROOT
ATOM      1  CA  ARG D 557     -26.217   2.705 -17.014  1.00 35.49     0.159 C 
ENDROOT
BRANCH   1   2
ATOM      2  CB  ARG D 557     -26.789   1.319 -17.183  1.00 35.49     0.034 C 
BRANCH   2   3
ATOM      3  CG  ARG D 557     -28.205   1.142 -16.838  1.00 35.49     0.027 C 
BRANCH   3   4
ATOM      4  CD  ARG D 557     -28.592  -0.285 -16.760  1.00 35.49     0.116 C 
BRANCH   4   5
ATOM      5  NE  ARG D 557     -27.611  -1.076 -16.064  1.00 35.49    -0.212 N 
ATOM      6  CZ  ARG D 557     -27.465  -2.379 -16.163  1.00 35.49     0.666 C 
ATOM      7  NH1 ARG D 557     -28.241  -3.124 -16.928  1.00 35.49    -0.235 N 
ATOM      8  NH2 ARG D 557     -26.507  -2.928 -15.475  1.00 35.49    -0.235 N 
ATOM      9  HH  ARG D 557     -28.876  -2.783 -17.391  1.00 35.49     0.174 HD
ATOM     10  HH  ARG D 557     -28.097  -3.968 -16.954  1.00 35.49     0.174 HD
ATOM     11  HH  ARG D 557     -26.016  -2.422 -14.995  1.00 35.49     0.174 HD
ATOM     12  HH  ARG D 557     -26.379  -3.766 -15.516  1.00 35.49     0.174 HD
ATOM     13  HE  ARG D 557     -27.115  -0.686 -15.494  1.00 35.49     0.178 HD
ENDBRANCH   4   5
ENDBRANCH   3   4
ENDBRANCH   2   3
ENDBRANCH   1   2
END_RES ARG D 557
BEGIN_RES GLU D 570
REMARK  3 active torsions:
REMARK  status: ('A' for Active; 'I' for Inactive)
REMARK    5  A    between atoms: CA   and  CB  
REMARK    6  A    between atoms: CB   and  CG  
REMARK    7  A    between atoms: CG   and  CD  
ROOT
ATOM     14  CA  GLU D 570     -18.033  -6.348 -13.375  1.00 32.92     0.160 C 
ENDROOT
BRANCH  14  15
ATOM     15  CB  GLU D 570     -19.500  -6.345 -13.794  1.00 32.92     0.043 C 
BRANCH  15  16
ATOM     16  CG  GLU D 570     -20.099  -7.643 -14.198  1.00 32.92     0.100 C 
BRANCH  16  17
ATOM     17  CD  GLU D 570     -20.629  -7.633 -15.613  1.00 32.92     0.185 C 
ATOM     18  OE1 GLU D 570     -21.106  -8.681 -16.088  1.00 32.92    -0.647 OA
ATOM     19  OE2 GLU D 570     -20.549  -6.570 -16.259  1.00 32.92    -0.647 OA
ENDBRANCH  16  17
ENDBRANCH  15  16
ENDBRANCH  14  15
END_RES GLU D 570
ENDMDL
MODEL 9
REMARK VINA RESULT:      -6.6      7.182     12.255
REMARK  23 active torsions:
REMARK  status: ('A' for Active; 'I' for Inactive)
REMARK    1  A    between atoms: C_2  and  C_3 
REMARK    2  A    between atoms: C_3  and  C_4 
REMARK    3  A    between atoms: C_4  and  C_5 
REMARK    4  A    between atoms: C_5  and  C_6 
REMARK    5  A    between atoms: C_6  and  C_7 
REMARK    6  A    between atoms: C_7  and  C_8 
REMARK    7  A    between atoms: C_8  and  C_9 
REMARK    8  A    between atoms: C_9  and  C_10 
REMARK    9  A    between atoms: C_10  and  C_11 
REMARK   10  A    between atoms: C_11  and  C_12 
REMARK   11  A    between atoms: C_12  and  C_13 
REMARK   12  A    between atoms: C_13  and  C_14 
REMARK   13  A    between atoms: C_14  and  C_15 
REMARK   14  A    between atoms: C_15  and  C_16 
REMARK   15  A    between atoms: C_16  and  C_17 
REMARK   16  A    between atoms: C_17  and  C_18 
REMARK   17  A    between atoms: C_18  and  O_20 
REMARK   18  A    between atoms: O_20  and  C_21 
REMARK   19  A    between atoms: C_21  and  C_22 
REMARK   20  A    between atoms: C_22  and  O_23 
REMARK   21  A    between atoms: O_23  and  C_24 
REMARK   22  A    between atoms: C_24  and  C_25 
REMARK   23  A    between atoms: C_25  and  O_26 
ROOT
HETATM    1  C   UNL     1     -33.656  -2.997 -17.176  1.00  0.00     0.000 C 
ENDROOT
BRANCH   1   2
HETATM    2  C   UNL     1     -34.761  -2.620 -16.206  1.00  0.00     0.000 C 
BRANCH   2   3
HETATM    3  C   UNL     1     -35.497  -1.390 -16.705  1.00  0.00     0.000 C 
BRANCH   3   4
HETATM    4  C   UNL     1     -36.062  -0.614 -15.530  1.00  0.00     0.000 C 
BRANCH   4   5
HETATM    5  C   UNL     1     -35.059   0.425 -15.068  1.00  0.00     0.000 C 
BRANCH   5   6
HETATM    6  C   UNL     1     -35.083   0.528 -13.554  1.00  0.00     0.000 C 
BRANCH   6   7
HETATM    7  C   UNL     1     -36.116  -0.429 -12.990  1.00  0.00     0.000 C 
BRANCH   7   8
HETATM    8  C   UNL     1     -35.640  -0.972 -11.655  1.00  0.00     0.000 C 
BRANCH   8   9
HETATM    9  C   UNL     1     -34.177  -1.360 -11.749  1.00  0.00     0.000 C 
BRANCH   9  10
HETATM   10  C   UNL     1     -33.812  -2.277 -10.597  1.00  0.00     0.000 C 
BRANCH  10  11
HETATM   11  C   UNL     1     -33.181  -3.550 -11.130  1.00  0.00     0.000 C 
BRANCH  11  12
HETATM   12  C   UNL     1     -33.941  -4.033 -12.351  1.00  0.00    -0.000 C 
BRANCH  12  13
HETATM   13  C   UNL     1     -34.620  -5.361 -12.056  1.00  0.00    -0.005 C 
HETATM   14  C   UNL     1     -34.115  -5.922 -10.744  1.00  0.00     0.005 C 
ENDBRANCH  12  13
ENDBRANCH  11  12
ENDBRANCH  10  11
ENDBRANCH   9  10
ENDBRANCH   8   9
ENDBRANCH   7   8
ENDBRANCH   6   7
ENDBRANCH   5   6
ENDBRANCH   4   5
ENDBRANCH   3   4
ENDBRANCH   2   3
ENDBRANCH   1   2
BRANCH   1  15
HETATM   15  C   UNL     1     -32.930  -4.240 -16.683  1.00  0.00     0.000 C 
BRANCH  15  16
HETATM   16  C   UNL     1     -31.485  -4.230 -17.156  1.00  0.00     0.010 C 
BRANCH  16  17
HETATM   17  C   UNL     1     -30.713  -5.469 -16.694  1.00  0.00     0.111 C 
BRANCH  17  18
HETATM   18  C   UNL     1     -30.062  -6.148 -17.872  1.00  0.00     0.258 C 
HETATM   19  O   UNL     1     -30.402  -7.258 -18.301  1.00  0.00    -0.265 OA
BRANCH  18  20
HETATM   20  O   UNL     1     -29.031  -5.419 -18.381  1.00  0.00    -0.319 OA
BRANCH  20  21
HETATM   21  C   UNL     1     -27.824  -6.162 -18.639  1.00  0.00     0.205 C 
BRANCH  21  22
HETATM   22  C   UNL     1     -26.938  -6.276 -17.404  1.00  0.00     0.194 C 
BRANCH  22  23
HETATM   23  O   UNL     1     -25.565  -6.350 -17.790  1.00  0.00    -0.387 OA
BRANCH  23  24
HETATM   24  C   UNL     1     -24.795  -7.017 -16.773  1.00  0.00     0.193 C 
BRANCH  24  25
HETATM   25  C   UNL     1     -25.132  -6.461 -15.397  1.00  0.00     0.190 C 
BRANCH  25  26
HETATM   26  O   UNL     1     -24.683  -5.113 -15.277  1.00  0.00    -0.399 OA
HETATM   27  H   UNL     1     -24.757  -4.871 -14.338  1.00  0.00     0.209 HD
ENDBRANCH  25  26
ENDBRANCH  24  25
ENDBRANCH  23  24
ENDBRANCH  22  23
ENDBRANCH  21  22
ENDBRANCH  20  21
ENDBRANCH  18  20
ENDBRANCH  17  18
ENDBRANCH  16  17
ENDBRANCH  15  16
ENDBRANCH   1  15
TORSDOF 23
BEGIN_RES ARG D 557
REMARK  4 active torsions:
REMARK  status: ('A' for Active; 'I' for Inactive)
REMARK    1  A    between atoms: CA   and  CB  
REMARK    2  A    between atoms: CB   and  CG  
REMARK    3  A    between atoms: CG   and  CD  
REMARK    4  A    between atoms: CD   and  NE  
REMARK       I    between atoms: NE   and  CZ  
REMARK       I    between atoms: CZ   and  NH1 
REMARK       I    between atoms: CZ   and  NH2 
ROOT
ATOM      1  CA  ARG D 557     -26.217   2.705 -17.014  1.00 35.49     0.159 C 
ENDROOT
BRANCH   1   2
ATOM      2  CB  ARG D 557     -26.789   1.319 -17.183  1.00 35.49     0.034 C 
BRANCH   2   3
ATOM      3  CG  ARG D 557     -28.218   1.153 -16.889  1.00 35.49     0.027 C 
BRANCH   3   4
ATOM      4  CD  ARG D 557     -28.584  -0.261 -16.649  1.00 35.49     0.116 C 
BRANCH   4   5
ATOM      5  NE  ARG D 557     -27.564  -0.970 -15.921  1.00 35.49    -0.212 N 
ATOM      6  CZ  ARG D 557     -27.325  -2.260 -15.993  1.00 35.49     0.666 C 
ATOM      7  NH1 ARG D 557     -28.033  -3.071 -16.758  1.00 35.49    -0.235 N 
ATOM      8  NH2 ARG D 557     -26.345  -2.730 -15.278  1.00 35.49    -0.235 N 
ATOM      9  HH  ARG D 557     -28.681  -2.783 -17.239  1.00 35.49     0.174 HD
ATOM     10  HH  ARG D 557     -27.830  -3.903 -16.767  1.00 35.49     0.174 HD
ATOM     11  HH  ARG D 557     -25.900  -2.182 -14.799  1.00 35.49     0.174 HD
ATOM     12  HH  ARG D 557     -26.158  -3.557 -15.301  1.00 35.49     0.174 HD
ATOM     13  HE  ARG D 557     -27.108  -0.536 -15.349  1.00 35.49     0.178 HD
ENDBRANCH   4   5
ENDBRANCH   3   4
ENDBRANCH   2   3
ENDBRANCH   1   2
END_RES ARG D 557
BEGIN_RES GLU D 570
REMARK  3 active torsions:
REMARK  status: ('A' for Active; 'I' for Inactive)
REMARK    5  A    between atoms: CA   and  CB  
REMARK    6  A    between atoms: CB   and  CG  
REMARK    7  A    between atoms: CG   and  CD  
ROOT
ATOM     14  CA  GLU D 570     -18.033  -6.348 -13.375  1.00 32.92     0.160 C 
ENDROOT
BRANCH  14  15
ATOM     15  CB  GLU D 570     -19.500  -6.345 -13.794  1.00 32.92     0.043 C 
BRANCH  15  16
ATOM     16  CG  GLU D 570     -20.451  -5.574 -12.952  1.00 32.92     0.100 C 
BRANCH  16  17
ATOM     17  CD  GLU D 570     -21.707  -5.179 -13.692  1.00 32.92     0.185 C 
ATOM     18  OE1 GLU D 570     -22.723  -4.873 -13.039  1.00 32.92    -0.647 OA
ATOM     19  OE2 GLU D 570     -21.680  -5.193 -14.938  1.00 32.92    -0.647 OA
ENDBRANCH  16  17
ENDBRANCH  15  16
ENDBRANCH  14  15
END_RES GLU D 570
ENDMDL
