MODEL 1
REMARK VINA RESULT:      -4.9      0.000      0.000
REMARK  24 active torsions:
REMARK  status: ('A' for Active; 'I' for Inactive)
REMARK    1  A    between atoms: C_1  and  C_2 
REMARK    2  A    between atoms: C_1  and  O_66 
REMARK    3  A    between atoms: C_4  and  O_65 
REMARK    4  A    between atoms: C_5  and  O_64 
REMARK    5  A    between atoms: C_10  and  C_62 
REMARK    6  A    between atoms: C_13  and  O_16 
REMARK    7  A    between atoms: C_14  and  O_15 
REMARK    8  A    between atoms: C_19  and  C_60 
REMARK    9  A    between atoms: C_22  and  O_25 
REMARK   10  A    between atoms: C_23  and  O_24 
REMARK   11  A    between atoms: C_28  and  C_58 
REMARK   12  A    between atoms: C_31  and  O_34 
REMARK   13  A    between atoms: C_32  and  O_33 
REMARK   14  A    between atoms: C_37  and  C_56 
REMARK   15  A    between atoms: C_40  and  O_43 
REMARK   16  A    between atoms: C_41  and  O_42 
REMARK   17  A    between atoms: C_46  and  C_54 
REMARK   18  A    between atoms: C_50  and  O_53 
REMARK   19  A    between atoms: C_51  and  O_52 
REMARK   20  A    between atoms: C_54  and  O_55 
REMARK   21  A    between atoms: C_56  and  O_57 
REMARK   22  A    between atoms: C_58  and  O_59 
REMARK   23  A    between atoms: C_60  and  O_61 
REMARK   24  A    between atoms: C_62  and  O_63 
ROOT
HETATM    1  C   UNL     1     -20.310  -9.102  -3.228  1.00  0.00     0.180 C 
HETATM    2  C   UNL     1     -19.681 -10.523  -3.706  1.00  0.00     0.187 C 
HETATM    3  C   UNL     1     -20.927 -11.292  -3.745  1.00  0.00     0.183 C 
HETATM    4  C   UNL     1     -21.435 -11.250  -2.349  1.00  0.00     0.204 C 
HETATM    5  C   UNL     1     -21.811 -10.119  -1.508  1.00  0.00     0.292 C 
HETATM    6  O   UNL     1     -20.749  -9.124  -1.803  1.00  0.00    -0.348 OA
HETATM    7  O   UNL     1     -21.714 -10.717  -0.114  1.00  0.00    -0.348 OA
HETATM    8  C   UNL     1     -21.845 -12.278   0.190  1.00  0.00     0.187 C 
HETATM    9  C   UNL     1     -21.180 -13.556  -0.551  1.00  0.00     0.180 C 
HETATM   10  O   UNL     1     -21.581 -13.768  -1.895  1.00  0.00    -0.348 OA
HETATM   11  C   UNL     1     -22.933 -14.000  -2.115  1.00  0.00     0.292 C 
HETATM   12  C   UNL     1     -23.885 -13.144  -1.130  1.00  0.00     0.204 C 
HETATM   13  C   UNL     1     -23.320 -12.603   0.228  1.00  0.00     0.183 C 
HETATM   14  O   UNL     1     -23.052 -15.405  -2.242  1.00  0.00    -0.348 OA
HETATM   15  C   UNL     1     -22.440 -16.029  -3.453  1.00  0.00     0.187 C 
HETATM   16  C   UNL     1     -20.918 -15.940  -3.821  1.00  0.00     0.180 C 
HETATM   17  O   UNL     1     -20.509 -14.814  -4.589  1.00  0.00    -0.348 OA
HETATM   18  C   UNL     1     -21.189 -14.464  -5.790  1.00  0.00     0.292 C 
HETATM   19  C   UNL     1     -22.738 -14.653  -5.642  1.00  0.00     0.204 C 
HETATM   20  C   UNL     1     -23.264 -15.787  -4.726  1.00  0.00     0.183 C 
HETATM   21  O   UNL     1     -20.504 -14.952  -6.943  1.00  0.00    -0.348 OA
HETATM   22  C   UNL     1     -19.157 -14.402  -7.267  1.00  0.00     0.187 C 
HETATM   23  C   UNL     1     -18.038 -14.489  -6.188  1.00  0.00     0.180 C 
HETATM   24  O   UNL     1     -17.850 -13.314  -5.382  1.00  0.00    -0.348 OA
HETATM   25  C   UNL     1     -17.572 -12.068  -6.015  1.00  0.00     0.292 C 
HETATM   26  C   UNL     1     -18.653 -11.812  -7.113  1.00  0.00     0.204 C 
HETATM   27  C   UNL     1     -19.025 -13.032  -8.000  1.00  0.00     0.183 C 
HETATM   28  O   UNL     1     -16.217 -11.811  -6.457  1.00  0.00    -0.348 OA
HETATM   29  C   UNL     1     -15.138 -11.461  -5.491  1.00  0.00     0.187 C 
HETATM   30  C   UNL     1     -14.960 -12.516  -4.412  1.00  0.00     0.180 C 
HETATM   31  O   UNL     1     -16.026 -12.280  -3.517  1.00  0.00    -0.348 OA
HETATM   32  C   UNL     1     -15.870 -11.204  -2.625  1.00  0.00     0.292 C 
HETATM   33  C   UNL     1     -15.836  -9.908  -3.426  1.00  0.00     0.204 C 
HETATM   34  C   UNL     1     -15.106 -10.040  -4.790  1.00  0.00     0.183 C 
HETATM   35  O   UNL     1     -15.012 -11.621  -1.585  1.00  0.00    -0.348 OA
HETATM   36  C   UNL     1     -15.553 -12.766  -0.839  1.00  0.00     0.187 C 
HETATM   37  C   UNL     1     -16.149 -13.971  -1.640  1.00  0.00     0.180 C 
HETATM   38  O   UNL     1     -17.440 -13.750  -2.295  1.00  0.00    -0.348 OA
HETATM   39  C   UNL     1     -18.308 -12.596  -1.980  1.00  0.00     0.292 C 
HETATM   40  O   UNL     1     -18.448 -11.301  -3.045  1.00  0.00    -0.348 OA
HETATM   41  C   UNL     1     -17.999 -12.089  -0.437  1.00  0.00     0.204 C 
HETATM   42  C   UNL     1     -16.631 -12.412   0.164  1.00  0.00     0.183 C 
ENDROOT
BRANCH   1  43
HETATM   43  C   UNL     1     -21.588  -8.627  -4.106  1.00  0.00     0.198 C 
BRANCH  43  44
HETATM   44  O   UNL     1     -21.826  -7.226  -4.073  1.00  0.00    -0.398 OA
HETATM   45  H   UNL     1     -21.327  -6.866  -3.302  1.00  0.00     0.209 HD
ENDBRANCH  43  44
ENDBRANCH   1  43
BRANCH   3  46
HETATM   46  O   UNL     1     -20.657 -12.585  -4.164  1.00  0.00    -0.390 OA
HETATM   47  H   UNL     1     -21.480 -13.095  -4.334  1.00  0.00     0.210 HD
ENDBRANCH   3  46
BRANCH   4  48
HETATM   48  O   UNL     1     -20.259 -11.524  -1.589  1.00  0.00    -0.388 OA
HETATM   49  H   UNL     1     -20.544 -11.817  -0.687  1.00  0.00     0.210 HD
ENDBRANCH   4  48
BRANCH  41  50
HETATM   50  O   UNL     1     -18.852 -12.527   0.652  1.00  0.00    -0.388 OA
HETATM   51  H   UNL     1     -18.497 -12.201   1.503  1.00  0.00     0.210 HD
ENDBRANCH  41  50
BRANCH  37  52
HETATM   52  C   UNL     1     -16.194 -15.265  -0.767  1.00  0.00     0.198 C 
BRANCH  52  53
HETATM   53  O   UNL     1     -17.508 -15.821  -0.718  1.00  0.00    -0.398 OA
HETATM   54  H   UNL     1     -17.585 -16.264   0.145  1.00  0.00     0.209 HD
ENDBRANCH  52  53
ENDBRANCH  37  52
BRANCH  42  55
HETATM   55  O   UNL     1     -16.267 -11.367   1.074  1.00  0.00    -0.390 OA
HETATM   56  H   UNL     1     -16.057 -10.596   0.506  1.00  0.00     0.210 HD
ENDBRANCH  42  55
BRANCH   9  57
HETATM   57  C   UNL     1     -21.019 -14.950   0.076  1.00  0.00     0.198 C 
BRANCH  57  58
HETATM   58  O   UNL     1     -19.807 -15.021   0.851  1.00  0.00    -0.398 OA
HETATM   59  H   UNL     1     -19.556 -15.970   0.882  1.00  0.00     0.209 HD
ENDBRANCH  57  58
ENDBRANCH   9  57
BRANCH  13  60
HETATM   60  O   UNL     1     -24.016 -11.417   0.666  1.00  0.00    -0.390 OA
HETATM   61  H   UNL     1     -23.799 -10.707   0.027  1.00  0.00     0.210 HD
ENDBRANCH  13  60
BRANCH  12  62
HETATM   62  O   UNL     1     -25.153 -13.774  -0.957  1.00  0.00    -0.388 OA
HETATM   63  H   UNL     1     -25.233 -14.473  -1.629  1.00  0.00     0.210 HD
ENDBRANCH  12  62
BRANCH  33  64
HETATM   64  O   UNL     1     -15.438  -8.800  -2.608  1.00  0.00    -0.388 OA
HETATM   65  H   UNL     1     -14.467  -8.711  -2.695  1.00  0.00     0.210 HD
ENDBRANCH  33  64
BRANCH  30  66
HETATM   66  C   UNL     1     -13.577 -12.587  -3.735  1.00  0.00     0.198 C 
BRANCH  66  67
HETATM   67  O   UNL     1     -13.154 -13.927  -3.567  1.00  0.00    -0.398 OA
HETATM   68  H   UNL     1     -13.037 -14.072  -2.612  1.00  0.00     0.209 HD
ENDBRANCH  66  67
ENDBRANCH  30  66
BRANCH  34  69
HETATM   69  O   UNL     1     -15.534  -9.024  -5.698  1.00  0.00    -0.390 OA
HETATM   70  H   UNL     1     -16.260  -9.383  -6.235  1.00  0.00     0.210 HD
ENDBRANCH  34  69
BRANCH  16  71
HETATM   71  C   UNL     1     -20.440 -17.183  -4.598  1.00  0.00     0.198 C 
BRANCH  71  72
HETATM   72  O   UNL     1     -19.052 -17.107  -4.888  1.00  0.00    -0.398 OA
HETATM   73  H   UNL     1     -18.777 -17.979  -5.222  1.00  0.00     0.209 HD
ENDBRANCH  71  72
ENDBRANCH  16  71
BRANCH  20  74
HETATM   74  O   UNL     1     -24.638 -15.556  -4.356  1.00  0.00    -0.390 OA
HETATM   75  H   UNL     1     -24.719 -14.621  -4.080  1.00  0.00     0.210 HD
ENDBRANCH  20  74
BRANCH  19  76
HETATM   76  O   UNL     1     -23.416 -14.744  -6.942  1.00  0.00    -0.388 OA
HETATM   77  H   UNL     1     -24.152 -14.099  -6.937  1.00  0.00     0.210 HD
ENDBRANCH  19  76
BRANCH  26  78
HETATM   78  O   UNL     1     -18.292 -10.668  -7.903  1.00  0.00    -0.388 OA
HETATM   79  H   UNL     1     -18.950  -9.969  -7.710  1.00  0.00     0.210 HD
ENDBRANCH  26  78
BRANCH  23  80
HETATM   80  C   UNL     1     -16.692 -14.923  -6.796  1.00  0.00     0.198 C 
BRANCH  80  81
HETATM   81  O   UNL     1     -16.855 -15.968  -7.745  1.00  0.00    -0.398 OA
HETATM   82  H   UNL     1     -17.110 -15.561  -8.592  1.00  0.00     0.209 HD
ENDBRANCH  80  81
ENDBRANCH  23  80
BRANCH  27  83
HETATM   83  O   UNL     1     -20.183 -12.786  -8.812  1.00  0.00    -0.390 OA
HETATM   84  H   UNL     1     -20.970 -12.809  -8.243  1.00  0.00     0.210 HD
ENDBRANCH  27  83
TORSDOF 24
BEGIN_RES ARG D 557
REMARK  4 active torsions:
REMARK  status: ('A' for Active; 'I' for Inactive)
REMARK    1  A    between atoms: CA   and  CB  
REMARK    2  A    between atoms: CB   and  CG  
REMARK    3  A    between atoms: CG   and  CD  
REMARK    4  A    between atoms: CD   and  NE  
REMARK       I    between atoms: NE   and  CZ  
REMARK       I    between atoms: CZ   and  NH1 
REMARK       I    between atoms: CZ   and  NH2 
ROOT
ATOM      1  CA  ARG D 557     -26.217   2.705 -17.014  1.00 35.49     0.159 C 
ENDROOT
BRANCH   1   2
ATOM      2  CB  ARG D 557     -26.789   1.319 -17.183  1.00 35.49     0.034 C 
BRANCH   2   3
ATOM      3  CG  ARG D 557     -25.840   0.201 -17.122  1.00 35.49     0.027 C 
BRANCH   3   4
ATOM      4  CD  ARG D 557     -24.767   0.425 -16.126  1.00 35.49     0.116 C 
BRANCH   4   5
ATOM      5  NE  ARG D 557     -24.907  -0.430 -14.977  1.00 35.49    -0.212 N 
ATOM      6  CZ  ARG D 557     -24.107  -1.422 -14.655  1.00 35.49     0.666 C 
ATOM      7  NH1 ARG D 557     -23.061  -1.756 -15.389  1.00 35.49    -0.235 N 
ATOM      8  NH2 ARG D 557     -24.373  -2.079 -13.564  1.00 35.49    -0.235 N 
ATOM      9  HH  ARG D 557     -22.866  -1.336 -16.110  1.00 35.49     0.174 HD
ATOM     10  HH  ARG D 557     -22.573  -2.410 -15.128  1.00 35.49     0.174 HD
ATOM     11  HH  ARG D 557     -25.051  -1.836 -13.106  1.00 35.49     0.174 HD
ATOM     12  HH  ARG D 557     -23.877  -2.723 -13.322  1.00 35.49     0.174 HD
ATOM     13  HE  ARG D 557     -25.596  -0.332 -14.488  1.00 35.49     0.178 HD
ENDBRANCH   4   5
ENDBRANCH   3   4
ENDBRANCH   2   3
ENDBRANCH   1   2
END_RES ARG D 557
BEGIN_RES GLU D 570
REMARK  3 active torsions:
REMARK  status: ('A' for Active; 'I' for Inactive)
REMARK    5  A    between atoms: CA   and  CB  
REMARK    6  A    between atoms: CB   and  CG  
REMARK    7  A    between atoms: CG   and  CD  
ROOT
ATOM     14  CA  GLU D 570     -18.033  -6.348 -13.375  1.00 32.92     0.160 C 
ENDROOT
BRANCH  14  15
ATOM     15  CB  GLU D 570     -19.500  -6.345 -13.794  1.00 32.92     0.043 C 
BRANCH  15  16
ATOM     16  CG  GLU D 570     -20.447  -5.553 -12.967  1.00 32.92     0.100 C 
BRANCH  16  17
ATOM     17  CD  GLU D 570     -21.722  -5.207 -13.699  1.00 32.92     0.185 C 
ATOM     18  OE1 GLU D 570     -22.313  -4.146 -13.418  1.00 32.92    -0.647 OA
ATOM     19  OE2 GLU D 570     -22.144  -6.013 -14.551  1.00 32.92    -0.647 OA
ENDBRANCH  16  17
ENDBRANCH  15  16
ENDBRANCH  14  15
END_RES GLU D 570
ENDMDL
MODEL 2
REMARK VINA RESULT:      -3.4      1.793      7.072
REMARK  24 active torsions:
REMARK  status: ('A' for Active; 'I' for Inactive)
REMARK    1  A    between atoms: C_1  and  C_2 
REMARK    2  A    between atoms: C_1  and  O_66 
REMARK    3  A    between atoms: C_4  and  O_65 
REMARK    4  A    between atoms: C_5  and  O_64 
REMARK    5  A    between atoms: C_10  and  C_62 
REMARK    6  A    between atoms: C_13  and  O_16 
REMARK    7  A    between atoms: C_14  and  O_15 
REMARK    8  A    between atoms: C_19  and  C_60 
REMARK    9  A    between atoms: C_22  and  O_25 
REMARK   10  A    between atoms: C_23  and  O_24 
REMARK   11  A    between atoms: C_28  and  C_58 
REMARK   12  A    between atoms: C_31  and  O_34 
REMARK   13  A    between atoms: C_32  and  O_33 
REMARK   14  A    between atoms: C_37  and  C_56 
REMARK   15  A    between atoms: C_40  and  O_43 
REMARK   16  A    between atoms: C_41  and  O_42 
REMARK   17  A    between atoms: C_46  and  C_54 
REMARK   18  A    between atoms: C_50  and  O_53 
REMARK   19  A    between atoms: C_51  and  O_52 
REMARK   20  A    between atoms: C_54  and  O_55 
REMARK   21  A    between atoms: C_56  and  O_57 
REMARK   22  A    between atoms: C_58  and  O_59 
REMARK   23  A    between atoms: C_60  and  O_61 
REMARK   24  A    between atoms: C_62  and  O_63 
ROOT
HETATM    1  C   UNL     1     -19.886 -16.276  -5.011  1.00  0.00     0.180 C 
HETATM    2  C   UNL     1     -19.746 -14.862  -4.221  1.00  0.00     0.187 C 
HETATM    3  C   UNL     1     -18.678 -14.280  -5.036  1.00  0.00     0.183 C 
HETATM    4  C   UNL     1     -17.537 -15.220  -4.881  1.00  0.00     0.204 C 
HETATM    5  C   UNL     1     -17.422 -16.637  -5.208  1.00  0.00     0.292 C 
HETATM    6  O   UNL     1     -18.728 -17.183  -4.764  1.00  0.00    -0.348 OA
HETATM    7  O   UNL     1     -16.255 -17.068  -4.335  1.00  0.00    -0.348 OA
HETATM    8  C   UNL     1     -15.130 -16.067  -3.805  1.00  0.00     0.187 C 
HETATM    9  C   UNL     1     -15.256 -14.594  -3.144  1.00  0.00     0.180 C 
HETATM   10  O   UNL     1     -15.781 -13.581  -3.987  1.00  0.00    -0.348 OA
HETATM   11  C   UNL     1     -15.066 -13.298  -5.144  1.00  0.00     0.292 C 
HETATM   12  C   UNL     1     -14.398 -14.611  -5.805  1.00  0.00     0.204 C 
HETATM   13  C   UNL     1     -14.133 -15.882  -4.925  1.00  0.00     0.183 C 
HETATM   14  O   UNL     1     -14.310 -12.142  -4.839  1.00  0.00    -0.348 OA
HETATM   15  C   UNL     1     -15.068 -10.871  -4.637  1.00  0.00     0.187 C 
HETATM   16  C   UNL     1     -16.170 -10.663  -3.541  1.00  0.00     0.180 C 
HETATM   17  O   UNL     1     -17.500 -11.024  -3.892  1.00  0.00    -0.348 OA
HETATM   18  C   UNL     1     -18.094 -10.543  -5.094  1.00  0.00     0.292 C 
HETATM   19  C   UNL     1     -17.063 -10.534  -6.274  1.00  0.00     0.204 C 
HETATM   20  C   UNL     1     -15.570 -10.263  -5.955  1.00  0.00     0.183 C 
HETATM   21  O   UNL     1     -18.929  -9.412  -4.850  1.00  0.00    -0.348 OA
HETATM   22  C   UNL     1     -20.164  -9.590  -4.033  1.00  0.00     0.187 C 
HETATM   23  C   UNL     1     -20.028 -10.184  -2.600  1.00  0.00     0.180 C 
HETATM   24  O   UNL     1     -20.262 -11.597  -2.482  1.00  0.00    -0.348 OA
HETATM   25  C   UNL     1     -21.503 -12.141  -2.925  1.00  0.00     0.292 C 
HETATM   26  C   UNL     1     -21.763 -11.663  -4.389  1.00  0.00     0.204 C 
HETATM   27  C   UNL     1     -21.457 -10.169  -4.684  1.00  0.00     0.183 C 
HETATM   28  O   UNL     1     -22.655 -12.019  -2.056  1.00  0.00    -0.348 OA
HETATM   29  C   UNL     1     -22.811 -12.877  -0.849  1.00  0.00     0.187 C 
HETATM   30  C   UNL     1     -21.637 -12.753   0.108  1.00  0.00     0.180 C 
HETATM   31  O   UNL     1     -20.623 -13.536  -0.485  1.00  0.00    -0.348 OA
HETATM   32  C   UNL     1     -20.730 -14.929  -0.324  1.00  0.00     0.292 C 
HETATM   33  C   UNL     1     -21.974 -15.410  -1.061  1.00  0.00     0.204 C 
HETATM   34  C   UNL     1     -23.164 -14.416  -0.986  1.00  0.00     0.183 C 
HETATM   35  O   UNL     1     -20.298 -15.251   0.980  1.00  0.00    -0.348 OA
HETATM   36  C   UNL     1     -18.900 -14.865   1.217  1.00  0.00     0.187 C 
HETATM   37  C   UNL     1     -18.426 -13.443   0.767  1.00  0.00     0.180 C 
HETATM   38  O   UNL     1     -18.273 -13.228  -0.673  1.00  0.00    -0.348 OA
HETATM   39  C   UNL     1     -18.241 -14.339  -1.648  1.00  0.00     0.292 C 
HETATM   40  O   UNL     1     -19.559 -14.655  -2.645  1.00  0.00    -0.348 OA
HETATM   41  C   UNL     1     -17.702 -15.708  -0.894  1.00  0.00     0.204 C 
HETATM   42  C   UNL     1     -17.876 -15.808   0.622  1.00  0.00     0.183 C 
ENDROOT
BRANCH   1  43
HETATM   43  C   UNL     1     -20.021 -16.113  -6.619  1.00  0.00     0.198 C 
BRANCH  43  44
HETATM   44  O   UNL     1     -21.317 -15.724  -7.055  1.00  0.00    -0.398 OA
HETATM   45  H   UNL     1     -21.968 -16.213  -6.500  1.00  0.00     0.209 HD
ENDBRANCH  43  44
ENDBRANCH   1  43
BRANCH   3  46
HETATM   46  O   UNL     1     -18.378 -13.011  -4.565  1.00  0.00    -0.390 OA
HETATM   47  H   UNL     1     -18.814 -12.827  -3.704  1.00  0.00     0.210 HD
ENDBRANCH   3  46
BRANCH   4  48
HETATM   48  O   UNL     1     -17.533 -15.464  -3.475  1.00  0.00    -0.388 OA
HETATM   49  H   UNL     1     -18.026 -14.722  -3.040  1.00  0.00     0.210 HD
ENDBRANCH   4  48
BRANCH  41  50
HETATM   50  O   UNL     1     -16.307 -16.092  -1.004  1.00  0.00    -0.388 OA
HETATM   51  H   UNL     1     -16.232 -17.067  -1.027  1.00  0.00     0.210 HD
ENDBRANCH  41  50
BRANCH  37  52
HETATM   52  C   UNL     1     -17.132 -13.009   1.526  1.00  0.00     0.198 C 
BRANCH  52  53
HETATM   53  O   UNL     1     -16.562 -11.828   0.959  1.00  0.00    -0.398 OA
HETATM   54  H   UNL     1     -17.190 -11.519   0.284  1.00  0.00     0.209 HD
ENDBRANCH  52  53
ENDBRANCH  37  52
BRANCH  42  55
HETATM   55  O   UNL     1     -18.066 -17.183   0.976  1.00  0.00    -0.390 OA
HETATM   56  H   UNL     1     -18.740 -17.171   1.688  1.00  0.00     0.210 HD
ENDBRANCH  42  55
BRANCH   9  57
HETATM   57  C   UNL     1     -14.174 -13.921  -2.283  1.00  0.00     0.198 C 
BRANCH  57  58
HETATM   58  O   UNL     1     -14.761 -13.290  -1.130  1.00  0.00    -0.398 OA
HETATM   59  H   UNL     1     -14.185 -12.527  -0.910  1.00  0.00     0.209 HD
ENDBRANCH  57  58
ENDBRANCH   9  57
BRANCH  13  60
HETATM   60  O   UNL     1     -14.133 -17.092  -5.713  1.00  0.00    -0.390 OA
HETATM   61  H   UNL     1     -14.971 -17.559  -5.517  1.00  0.00     0.210 HD
ENDBRANCH  13  60
BRANCH  12  62
HETATM   62  O   UNL     1     -13.259 -14.273  -6.594  1.00  0.00    -0.388 OA
HETATM   63  H   UNL     1     -13.363 -14.694  -7.464  1.00  0.00     0.210 HD
ENDBRANCH  12  62
BRANCH  33  64
HETATM   64  O   UNL     1     -22.277 -16.774  -0.739  1.00  0.00    -0.388 OA
HETATM   65  H   UNL     1     -22.185 -17.292  -1.565  1.00  0.00     0.210 HD
ENDBRANCH  33  64
BRANCH  30  66
HETATM   66  C   UNL     1     -21.909 -13.095   1.586  1.00  0.00     0.198 C 
BRANCH  66  67
HETATM   67  O   UNL     1     -23.288 -13.315   1.819  1.00  0.00    -0.398 OA
HETATM   68  H   UNL     1     -23.679 -13.587   0.970  1.00  0.00     0.209 HD
ENDBRANCH  66  67
ENDBRANCH  30  66
BRANCH  34  69
HETATM   69  O   UNL     1     -24.073 -14.626  -2.068  1.00  0.00    -0.390 OA
HETATM   70  H   UNL     1     -24.278 -13.763  -2.465  1.00  0.00     0.210 HD
ENDBRANCH  34  69
BRANCH  16  71
HETATM   71  C   UNL     1     -16.238  -9.199  -3.063  1.00  0.00     0.198 C 
BRANCH  71  72
HETATM   72  O   UNL     1     -17.377  -8.976  -2.245  1.00  0.00    -0.398 OA
HETATM   73  H   UNL     1     -17.094  -9.085  -1.319  1.00  0.00     0.209 HD
ENDBRANCH  71  72
ENDBRANCH  16  71
BRANCH  20  74
HETATM   74  O   UNL     1     -14.723 -10.715  -7.030  1.00  0.00    -0.390 OA
HETATM   75  H   UNL     1     -15.298 -11.103  -7.720  1.00  0.00     0.210 HD
ENDBRANCH  20  74
BRANCH  19  76
HETATM   76  O   UNL     1     -17.477  -9.650  -7.372  1.00  0.00    -0.388 OA
HETATM   77  H   UNL     1     -18.325  -9.236  -7.113  1.00  0.00     0.210 HD
ENDBRANCH  19  76
BRANCH  26  78
HETATM   78  O   UNL     1     -23.092 -12.027  -4.798  1.00  0.00    -0.388 OA
HETATM   79  H   UNL     1     -23.524 -11.210  -5.120  1.00  0.00     0.210 HD
ENDBRANCH  26  78
BRANCH  23  80
HETATM   80  C   UNL     1     -20.901  -9.425  -1.584  1.00  0.00     0.198 C 
BRANCH  80  81
HETATM   81  O   UNL     1     -20.344  -8.160  -1.252  1.00  0.00    -0.398 OA
HETATM   82  H   UNL     1     -21.045  -7.492  -1.357  1.00  0.00     0.209 HD
ENDBRANCH  80  81
ENDBRANCH  23  80
BRANCH  27  83
HETATM   83  O   UNL     1     -21.488  -9.869  -6.086  1.00  0.00    -0.390 OA
HETATM   84  H   UNL     1     -20.992 -10.557  -6.561  1.00  0.00     0.210 HD
ENDBRANCH  27  83
TORSDOF 24
BEGIN_RES ARG D 557
REMARK  4 active torsions:
REMARK  status: ('A' for Active; 'I' for Inactive)
REMARK    1  A    between atoms: CA   and  CB  
REMARK    2  A    between atoms: CB   and  CG  
REMARK    3  A    between atoms: CG   and  CD  
REMARK    4  A    between atoms: CD   and  NE  
REMARK       I    between atoms: NE   and  CZ  
REMARK       I    between atoms: CZ   and  NH1 
REMARK       I    between atoms: CZ   and  NH2 
ROOT
ATOM      1  CA  ARG D 557     -26.217   2.705 -17.014  1.00 35.49     0.159 C 
ENDROOT
BRANCH   1   2
ATOM      2  CB  ARG D 557     -26.789   1.319 -17.183  1.00 35.49     0.034 C 
BRANCH   2   3
ATOM      3  CG  ARG D 557     -25.890   0.194 -16.898  1.00 35.49     0.027 C 
BRANCH   3   4
ATOM      4  CD  ARG D 557     -26.455  -0.740 -15.898  1.00 35.49     0.116 C 
BRANCH   4   5
ATOM      5  NE  ARG D 557     -25.434  -1.352 -15.089  1.00 35.49    -0.212 N 
ATOM      6  CZ  ARG D 557     -25.413  -2.606 -14.698  1.00 35.49     0.666 C 
ATOM      7  NH1 ARG D 557     -26.370  -3.462 -15.006  1.00 35.49    -0.235 N 
ATOM      8  NH2 ARG D 557     -24.395  -2.996 -13.986  1.00 35.49    -0.235 N 
ATOM      9  HH  ARG D 557     -27.048  -3.227 -15.475  1.00 35.49     0.174 HD
ATOM     10  HH  ARG D 557     -26.301  -4.268 -14.724  1.00 35.49     0.174 HD
ATOM     11  HH  ARG D 557     -23.788  -2.424 -13.808  1.00 35.49     0.174 HD
ATOM     12  HH  ARG D 557     -24.345  -3.799 -13.718  1.00 35.49     0.174 HD
ATOM     13  HE  ARG D 557     -24.815  -0.855 -14.784  1.00 35.49     0.178 HD
ENDBRANCH   4   5
ENDBRANCH   3   4
ENDBRANCH   2   3
ENDBRANCH   1   2
END_RES ARG D 557
BEGIN_RES GLU D 570
REMARK  3 active torsions:
REMARK  status: ('A' for Active; 'I' for Inactive)
REMARK    5  A    between atoms: CA   and  CB  
REMARK    6  A    between atoms: CB   and  CG  
REMARK    7  A    between atoms: CG   and  CD  
ROOT
ATOM     14  CA  GLU D 570     -18.033  -6.348 -13.375  1.00 32.92     0.160 C 
ENDROOT
BRANCH  14  15
ATOM     15  CB  GLU D 570     -19.500  -6.345 -13.794  1.00 32.92     0.043 C 
BRANCH  15  16
ATOM     16  CG  GLU D 570     -20.438  -5.513 -12.997  1.00 32.92     0.100 C 
BRANCH  16  17
ATOM     17  CD  GLU D 570     -21.714  -5.188 -13.738  1.00 32.92     0.185 C 
ATOM     18  OE1 GLU D 570     -21.653  -4.502 -14.777  1.00 32.92    -0.647 OA
ATOM     19  OE2 GLU D 570     -22.788  -5.611 -13.266  1.00 32.92    -0.647 OA
ENDBRANCH  16  17
ENDBRANCH  15  16
ENDBRANCH  14  15
END_RES GLU D 570
ENDMDL
MODEL 3
REMARK VINA RESULT:      -2.7      1.779      7.310
REMARK  24 active torsions:
REMARK  status: ('A' for Active; 'I' for Inactive)
REMARK    1  A    between atoms: C_1  and  C_2 
REMARK    2  A    between atoms: C_1  and  O_66 
REMARK    3  A    between atoms: C_4  and  O_65 
REMARK    4  A    between atoms: C_5  and  O_64 
REMARK    5  A    between atoms: C_10  and  C_62 
REMARK    6  A    between atoms: C_13  and  O_16 
REMARK    7  A    between atoms: C_14  and  O_15 
REMARK    8  A    between atoms: C_19  and  C_60 
REMARK    9  A    between atoms: C_22  and  O_25 
REMARK   10  A    between atoms: C_23  and  O_24 
REMARK   11  A    between atoms: C_28  and  C_58 
REMARK   12  A    between atoms: C_31  and  O_34 
REMARK   13  A    between atoms: C_32  and  O_33 
REMARK   14  A    between atoms: C_37  and  C_56 
REMARK   15  A    between atoms: C_40  and  O_43 
REMARK   16  A    between atoms: C_41  and  O_42 
REMARK   17  A    between atoms: C_46  and  C_54 
REMARK   18  A    between atoms: C_50  and  O_53 
REMARK   19  A    between atoms: C_51  and  O_52 
REMARK   20  A    between atoms: C_54  and  O_55 
REMARK   21  A    between atoms: C_56  and  O_57 
REMARK   22  A    between atoms: C_58  and  O_59 
REMARK   23  A    between atoms: C_60  and  O_61 
REMARK   24  A    between atoms: C_62  and  O_63 
ROOT
HETATM    1  C   UNL     1     -16.722 -10.118  -4.821  1.00  0.00     0.180 C 
HETATM    2  C   UNL     1     -17.573 -11.282  -4.068  1.00  0.00     0.187 C 
HETATM    3  C   UNL     1     -16.448 -11.977  -3.436  1.00  0.00     0.183 C 
HETATM    4  C   UNL     1     -15.604 -12.429  -4.573  1.00  0.00     0.204 C 
HETATM    5  C   UNL     1     -14.932 -11.668  -5.619  1.00  0.00     0.292 C 
HETATM    6  O   UNL     1     -15.943 -10.642  -5.980  1.00  0.00    -0.348 OA
HETATM    7  O   UNL     1     -14.726 -12.723  -6.694  1.00  0.00    -0.348 OA
HETATM    8  C   UNL     1     -14.660 -14.289  -6.394  1.00  0.00     0.187 C 
HETATM    9  C   UNL     1     -15.599 -15.225  -5.464  1.00  0.00     0.180 C 
HETATM   10  O   UNL     1     -15.569 -14.943  -4.074  1.00  0.00    -0.348 OA
HETATM   11  C   UNL     1     -14.341 -15.071  -3.437  1.00  0.00     0.292 C 
HETATM   12  C   UNL     1     -13.101 -14.613  -4.365  1.00  0.00     0.204 C 
HETATM   13  C   UNL     1     -13.257 -14.595  -5.925  1.00  0.00     0.183 C 
HETATM   14  O   UNL     1     -14.381 -16.338  -2.806  1.00  0.00    -0.348 OA
HETATM   15  C   UNL     1     -15.330 -16.495  -1.664  1.00  0.00     0.187 C 
HETATM   16  C   UNL     1     -16.882 -16.294  -1.768  1.00  0.00     0.180 C 
HETATM   17  O   UNL     1     -17.371 -14.972  -1.574  1.00  0.00    -0.348 OA
HETATM   18  C   UNL     1     -16.987 -14.212  -0.433  1.00  0.00     0.292 C 
HETATM   19  C   UNL     1     -15.473 -14.429  -0.088  1.00  0.00     0.204 C 
HETATM   20  C   UNL     1     -14.835 -15.810  -0.382  1.00  0.00     0.183 C 
HETATM   21  O   UNL     1     -17.979 -14.264   0.591  1.00  0.00    -0.348 OA
HETATM   22  C   UNL     1     -19.312 -13.646   0.335  1.00  0.00     0.187 C 
HETATM   23  C   UNL     1     -20.127 -14.120  -0.904  1.00  0.00     0.180 C 
HETATM   24  O   UNL     1     -20.002 -13.310  -2.084  1.00  0.00    -0.348 OA
HETATM   25  C   UNL     1     -20.321 -11.922  -2.018  1.00  0.00     0.292 C 
HETATM   26  C   UNL     1     -19.533 -11.284  -0.830  1.00  0.00     0.204 C 
HETATM   27  C   UNL     1     -19.504 -12.106   0.488  1.00  0.00     0.183 C 
HETATM   28  O   UNL     1     -21.716 -11.536  -2.070  1.00  0.00    -0.348 OA
HETATM   29  C   UNL     1     -22.482 -11.561  -3.346  1.00  0.00     0.187 C 
HETATM   30  C   UNL     1     -22.475 -12.932  -4.002  1.00  0.00     0.180 C 
HETATM   31  O   UNL     1     -21.202 -13.021  -4.606  1.00  0.00    -0.348 OA
HETATM   32  C   UNL     1     -21.034 -12.334  -5.820  1.00  0.00     0.292 C 
HETATM   33  C   UNL     1     -21.155 -10.838  -5.555  1.00  0.00     0.204 C 
HETATM   34  C   UNL     1     -22.213 -10.483  -4.476  1.00  0.00     0.183 C 
HETATM   35  O   UNL     1     -21.636 -13.100  -6.841  1.00  0.00    -0.348 OA
HETATM   36  C   UNL     1     -21.026 -14.431  -6.974  1.00  0.00     0.187 C 
HETATM   37  C   UNL     1     -20.758 -15.268  -5.679  1.00  0.00     0.180 C 
HETATM   38  O   UNL     1     -19.660 -14.818  -4.822  1.00  0.00    -0.348 OA
HETATM   39  C   UNL     1     -18.643 -13.843  -5.273  1.00  0.00     0.292 C 
HETATM   40  O   UNL     1     -18.663 -12.254  -4.723  1.00  0.00    -0.348 OA
HETATM   41  C   UNL     1     -18.508 -13.921  -6.919  1.00  0.00     0.204 C 
HETATM   42  C   UNL     1     -19.704 -14.447  -7.712  1.00  0.00     0.183 C 
ENDROOT
BRANCH   1  43
HETATM   43  C   UNL     1     -15.670  -9.352  -3.854  1.00  0.00     0.198 C 
BRANCH  43  44
HETATM   44  O   UNL     1     -16.223  -8.928  -2.616  1.00  0.00    -0.398 OA
HETATM   45  H   UNL     1     -16.028  -7.966  -2.526  1.00  0.00     0.209 HD
ENDBRANCH  43  44
ENDBRANCH   1  43
BRANCH   3  46
HETATM   46  O   UNL     1     -16.927 -13.039  -2.685  1.00  0.00    -0.390 OA
HETATM   47  H   UNL     1     -17.653 -13.515  -3.144  1.00  0.00     0.210 HD
ENDBRANCH   3  46
BRANCH   4  48
HETATM   48  O   UNL     1     -16.571 -12.965  -5.475  1.00  0.00    -0.388 OA
HETATM   49  H   UNL     1     -16.210 -12.872  -6.393  1.00  0.00     0.210 HD
ENDBRANCH   4  48
BRANCH  41  50
HETATM   50  O   UNL     1     -17.450 -14.710  -7.521  1.00  0.00    -0.388 OA
HETATM   51  H   UNL     1     -16.844 -14.126  -8.019  1.00  0.00     0.210 HD
ENDBRANCH  41  50
BRANCH  37  52
HETATM   52  C   UNL     1     -20.609 -16.787  -6.007  1.00  0.00     0.198 C 
BRANCH  52  53
HETATM   53  O   UNL     1     -19.237 -17.183  -6.051  1.00  0.00    -0.398 OA
HETATM   54  H   UNL     1     -18.823 -16.820  -5.249  1.00  0.00     0.209 HD
ENDBRANCH  52  53
ENDBRANCH  37  52
BRANCH  42  55
HETATM   55  O   UNL     1     -19.735 -13.797  -8.988  1.00  0.00    -0.390 OA
HETATM   56  H   UNL     1     -20.686 -13.733  -9.219  1.00  0.00     0.210 HD
ENDBRANCH  42  55
BRANCH   9  57
HETATM   57  C   UNL     1     -15.718 -16.753  -5.591  1.00  0.00     0.198 C 
BRANCH  57  58
HETATM   58  O   UNL     1     -16.354 -17.111  -6.833  1.00  0.00    -0.398 OA
HETATM   59  H   UNL     1     -16.783 -17.981  -6.680  1.00  0.00     0.209 HD
ENDBRANCH  57  58
ENDBRANCH   9  57
BRANCH  13  60
HETATM   60  O   UNL     1     -12.372 -13.636  -6.543  1.00  0.00    -0.390 OA
HETATM   61  H   UNL     1     -12.765 -13.403  -7.409  1.00  0.00     0.210 HD
ENDBRANCH  13  60
BRANCH  12  62
HETATM   62  O   UNL     1     -11.890 -15.253  -3.966  1.00  0.00    -0.388 OA
HETATM   63  H   UNL     1     -11.886 -15.304  -2.995  1.00  0.00     0.210 HD
ENDBRANCH  12  62
BRANCH  33  64
HETATM   64  O   UNL     1     -21.236 -10.096  -6.779  1.00  0.00    -0.388 OA
HETATM   65  H   UNL     1     -21.739  -9.278  -6.588  1.00  0.00     0.210 HD
ENDBRANCH  33  64
BRANCH  30  66
HETATM   66  C   UNL     1     -23.643 -13.251  -4.955  1.00  0.00     0.198 C 
BRANCH  66  67
HETATM   67  O   UNL     1     -23.842 -14.647  -5.079  1.00  0.00    -0.398 OA
HETATM   68  H   UNL     1     -24.713 -14.775  -5.493  1.00  0.00     0.209 HD
ENDBRANCH  66  67
ENDBRANCH  30  66
BRANCH  34  69
HETATM   69  O   UNL     1     -21.940  -9.207  -3.895  1.00  0.00    -0.390 OA
HETATM   70  H   UNL     1     -20.980  -9.055  -3.930  1.00  0.00     0.210 HD
ENDBRANCH  34  69
BRANCH  16  71
HETATM   71  C   UNL     1     -17.647 -17.183  -0.768  1.00  0.00     0.198 C 
BRANCH  71  72
HETATM   72  O   UNL     1     -19.040 -17.183  -1.039  1.00  0.00    -0.398 OA
HETATM   73  H   UNL     1     -19.420 -16.398  -0.607  1.00  0.00     0.209 HD
ENDBRANCH  71  72
ENDBRANCH  16  71
BRANCH  20  74
HETATM   74  O   UNL     1     -13.397 -15.714  -0.429  1.00  0.00    -0.390 OA
HETATM   75  H   UNL     1     -13.095 -16.160  -1.247  1.00  0.00     0.210 HD
ENDBRANCH  20  74
BRANCH  19  76
HETATM   76  O   UNL     1     -15.154 -14.047   1.293  1.00  0.00    -0.388 OA
HETATM   77  H   UNL     1     -14.242 -13.691   1.298  1.00  0.00     0.210 HD
ENDBRANCH  19  76
BRANCH  26  78
HETATM   78  O   UNL     1     -19.979  -9.937  -0.610  1.00  0.00    -0.388 OA
HETATM   79  H   UNL     1     -20.841  -9.844  -1.064  1.00  0.00     0.210 HD
ENDBRANCH  26  78
BRANCH  23  80
HETATM   80  C   UNL     1     -21.615 -14.320  -0.565  1.00  0.00     0.198 C 
BRANCH  80  81
HETATM   81  O   UNL     1     -21.924 -15.689  -0.338  1.00  0.00    -0.398 OA
HETATM   82  H   UNL     1     -22.649 -15.725   0.311  1.00  0.00     0.209 HD
ENDBRANCH  80  81
ENDBRANCH  23  80
BRANCH  27  83
HETATM   83  O   UNL     1     -18.570 -11.578   1.442  1.00  0.00    -0.390 OA
HETATM   84  H   UNL     1     -18.692 -10.616   1.494  1.00  0.00     0.210 HD
ENDBRANCH  27  83
TORSDOF 24
BEGIN_RES ARG D 557
REMARK  4 active torsions:
REMARK  status: ('A' for Active; 'I' for Inactive)
REMARK    1  A    between atoms: CA   and  CB  
REMARK    2  A    between atoms: CB   and  CG  
REMARK    3  A    between atoms: CG   and  CD  
REMARK    4  A    between atoms: CD   and  NE  
REMARK       I    between atoms: NE   and  CZ  
REMARK       I    between atoms: CZ   and  NH1 
REMARK       I    between atoms: CZ   and  NH2 
ROOT
ATOM      1  CA  ARG D 557     -26.217   2.705 -17.014  1.00 35.49     0.159 C 
ENDROOT
BRANCH   1   2
ATOM      2  CB  ARG D 557     -26.789   1.319 -17.183  1.00 35.49     0.034 C 
BRANCH   2   3
ATOM      3  CG  ARG D 557     -25.868   0.195 -16.976  1.00 35.49     0.027 C 
BRANCH   3   4
ATOM      4  CD  ARG D 557     -26.314  -0.707 -15.889  1.00 35.49     0.116 C 
BRANCH   4   5
ATOM      5  NE  ARG D 557     -25.268  -0.967 -14.936  1.00 35.49    -0.212 N 
ATOM      6  CZ  ARG D 557     -25.022  -2.123 -14.361  1.00 35.49     0.666 C 
ATOM      7  NH1 ARG D 557     -25.746  -3.201 -14.598  1.00 35.49    -0.235 N 
ATOM      8  NH2 ARG D 557     -24.017  -2.181 -13.536  1.00 35.49    -0.235 N 
ATOM      9  HH  ARG D 557     -26.410  -3.186 -15.139  1.00 35.49     0.174 HD
ATOM     10  HH  ARG D 557     -25.537  -3.928 -14.196  1.00 35.49     0.174 HD
ATOM     11  HH  ARG D 557     -23.562  -1.471 -13.408  1.00 35.49     0.174 HD
ATOM     12  HH  ARG D 557     -23.825  -2.910 -13.149  1.00 35.49     0.174 HD
ATOM     13  HE  ARG D 557     -24.798  -0.310 -14.670  1.00 35.49     0.178 HD
ENDBRANCH   4   5
ENDBRANCH   3   4
ENDBRANCH   2   3
ENDBRANCH   1   2
END_RES ARG D 557
BEGIN_RES GLU D 570
REMARK  3 active torsions:
REMARK  status: ('A' for Active; 'I' for Inactive)
REMARK    5  A    between atoms: CA   and  CB  
REMARK    6  A    between atoms: CB   and  CG  
REMARK    7  A    between atoms: CG   and  CD  
ROOT
ATOM     14  CA  GLU D 570     -18.033  -6.348 -13.375  1.00 32.92     0.160 C 
ENDROOT
BRANCH  14  15
ATOM     15  CB  GLU D 570     -19.500  -6.345 -13.794  1.00 32.92     0.043 C 
BRANCH  15  16
ATOM     16  CG  GLU D 570     -20.443  -5.536 -12.979  1.00 32.92     0.100 C 
BRANCH  16  17
ATOM     17  CD  GLU D 570     -21.696  -5.155 -13.733  1.00 32.92     0.185 C 
ATOM     18  OE1 GLU D 570     -21.627  -4.958 -14.961  1.00 32.92    -0.647 OA
ATOM     19  OE2 GLU D 570     -22.755  -5.037 -13.085  1.00 32.92    -0.647 OA
ENDBRANCH  16  17
ENDBRANCH  15  16
ENDBRANCH  14  15
END_RES GLU D 570
ENDMDL
MODEL 4
REMARK VINA RESULT:      -2.4      1.668      2.273
REMARK  24 active torsions:
REMARK  status: ('A' for Active; 'I' for Inactive)
REMARK    1  A    between atoms: C_1  and  C_2 
REMARK    2  A    between atoms: C_1  and  O_66 
REMARK    3  A    between atoms: C_4  and  O_65 
REMARK    4  A    between atoms: C_5  and  O_64 
REMARK    5  A    between atoms: C_10  and  C_62 
REMARK    6  A    between atoms: C_13  and  O_16 
REMARK    7  A    between atoms: C_14  and  O_15 
REMARK    8  A    between atoms: C_19  and  C_60 
REMARK    9  A    between atoms: C_22  and  O_25 
REMARK   10  A    between atoms: C_23  and  O_24 
REMARK   11  A    between atoms: C_28  and  C_58 
REMARK   12  A    between atoms: C_31  and  O_34 
REMARK   13  A    between atoms: C_32  and  O_33 
REMARK   14  A    between atoms: C_37  and  C_56 
REMARK   15  A    between atoms: C_40  and  O_43 
REMARK   16  A    between atoms: C_41  and  O_42 
REMARK   17  A    between atoms: C_46  and  C_54 
REMARK   18  A    between atoms: C_50  and  O_53 
REMARK   19  A    between atoms: C_51  and  O_52 
REMARK   20  A    between atoms: C_54  and  O_55 
REMARK   21  A    between atoms: C_56  and  O_57 
REMARK   22  A    between atoms: C_58  and  O_59 
REMARK   23  A    between atoms: C_60  and  O_61 
REMARK   24  A    between atoms: C_62  and  O_63 
ROOT
HETATM    1  C   UNL     1     -17.449  -9.984  -4.045  1.00  0.00     0.180 C 
HETATM    2  C   UNL     1     -17.594 -11.579  -4.329  1.00  0.00     0.187 C 
HETATM    3  C   UNL     1     -19.047 -11.681  -4.173  1.00  0.00     0.183 C 
HETATM    4  C   UNL     1     -19.302 -11.250  -2.773  1.00  0.00     0.204 C 
HETATM    5  C   UNL     1     -19.019  -9.987  -2.102  1.00  0.00     0.292 C 
HETATM    6  O   UNL     1     -17.669  -9.639  -2.612  1.00  0.00    -0.348 OA
HETATM    7  O   UNL     1     -19.029 -10.399  -0.639  1.00  0.00    -0.348 OA
HETATM    8  C   UNL     1     -19.811 -11.675  -0.085  1.00  0.00     0.187 C 
HETATM    9  C   UNL     1     -19.892 -13.190  -0.652  1.00  0.00     0.180 C 
HETATM   10  O   UNL     1     -20.510 -13.343  -1.920  1.00  0.00    -0.348 OA
HETATM   11  C   UNL     1     -21.838 -12.944  -2.020  1.00  0.00     0.292 C 
HETATM   12  C   UNL     1     -22.169 -11.639  -1.129  1.00  0.00     0.204 C 
HETATM   13  C   UNL     1     -21.256 -11.272   0.091  1.00  0.00     0.183 C 
HETATM   14  O   UNL     1     -22.591 -14.137  -1.917  1.00  0.00    -0.348 OA
HETATM   15  C   UNL     1     -22.483 -15.106  -3.048  1.00  0.00     0.187 C 
HETATM   16  C   UNL     1     -21.144 -15.777  -3.514  1.00  0.00     0.180 C 
HETATM   17  O   UNL     1     -20.371 -15.064  -4.473  1.00  0.00    -0.348 OA
HETATM   18  C   UNL     1     -20.964 -14.577  -5.672  1.00  0.00     0.292 C 
HETATM   19  C   UNL     1     -22.400 -14.007  -5.405  1.00  0.00     0.204 C 
HETATM   20  C   UNL     1     -23.262 -14.656  -4.292  1.00  0.00     0.183 C 
HETATM   21  O   UNL     1     -20.723 -15.454  -6.771  1.00  0.00    -0.348 OA
HETATM   22  C   UNL     1     -19.325 -15.633  -7.257  1.00  0.00     0.187 C 
HETATM   23  C   UNL     1     -18.240 -16.107  -6.245  1.00  0.00     0.180 C 
HETATM   24  O   UNL     1     -17.444 -15.071  -5.648  1.00  0.00    -0.348 OA
HETATM   25  C   UNL     1     -16.715 -14.177  -6.485  1.00  0.00     0.292 C 
HETATM   26  C   UNL     1     -17.693 -13.575  -7.544  1.00  0.00     0.204 C 
HETATM   27  C   UNL     1     -18.683 -14.574  -8.204  1.00  0.00     0.183 C 
HETATM   28  O   UNL     1     -15.457 -14.630  -7.041  1.00  0.00    -0.348 OA
HETATM   29  C   UNL     1     -14.226 -14.714  -6.208  1.00  0.00     0.187 C 
HETATM   30  C   UNL     1     -14.409 -15.602  -4.987  1.00  0.00     0.180 C 
HETATM   31  O   UNL     1     -15.132 -14.798  -4.080  1.00  0.00    -0.348 OA
HETATM   32  C   UNL     1     -14.398 -13.824  -3.380  1.00  0.00     0.292 C 
HETATM   33  C   UNL     1     -13.883 -12.793  -4.377  1.00  0.00     0.204 C 
HETATM   34  C   UNL     1     -13.469 -13.402  -5.743  1.00  0.00     0.183 C 
HETATM   35  O   UNL     1     -13.698 -14.471  -2.340  1.00  0.00    -0.348 OA
HETATM   36  C   UNL     1     -14.599 -15.141  -1.391  1.00  0.00     0.187 C 
HETATM   37  C   UNL     1     -15.770 -16.014  -1.955  1.00  0.00     0.180 C 
HETATM   38  O   UNL     1     -16.892 -15.295  -2.560  1.00  0.00    -0.348 OA
HETATM   39  C   UNL     1     -17.099 -13.842  -2.381  1.00  0.00     0.292 C 
HETATM   40  O   UNL     1     -16.772 -12.760  -3.627  1.00  0.00    -0.348 OA
HETATM   41  C   UNL     1     -16.405 -13.365  -0.959  1.00  0.00     0.204 C 
HETATM   42  C   UNL     1     -15.266 -14.216  -0.396  1.00  0.00     0.183 C 
ENDROOT
BRANCH   1  43
HETATM   43  C   UNL     1     -18.474  -9.074  -4.911  1.00  0.00     0.198 C 
BRANCH  43  44
HETATM   44  O   UNL     1     -18.214  -9.077  -6.309  1.00  0.00    -0.398 OA
HETATM   45  H   UNL     1     -17.778  -9.935  -6.520  1.00  0.00     0.209 HD
ENDBRANCH  43  44
ENDBRANCH   1  43
BRANCH   3  46
HETATM   46  O   UNL     1     -19.444 -12.990  -4.398  1.00  0.00    -0.390 OA
HETATM   47  H   UNL     1     -19.551 -13.181  -5.355  1.00  0.00     0.210 HD
ENDBRANCH   3  46
BRANCH   4  48
HETATM   48  O   UNL     1     -18.291 -11.951  -2.051  1.00  0.00    -0.388 OA
HETATM   49  H   UNL     1     -18.074 -12.773  -2.559  1.00  0.00     0.210 HD
ENDBRANCH   4  48
BRANCH  41  50
HETATM   50  O   UNL     1     -17.220 -13.230   0.234  1.00  0.00    -0.388 OA
HETATM   51  H   UNL     1     -18.165 -13.169  -0.015  1.00  0.00     0.210 HD
ENDBRANCH  41  50
BRANCH  37  52
HETATM   52  C   UNL     1     -16.283 -17.031  -0.888  1.00  0.00     0.198 C 
BRANCH  52  53
HETATM   53  O   UNL     1     -17.441 -16.542  -0.210  1.00  0.00    -0.398 OA
HETATM   54  H   UNL     1     -17.217 -16.527   0.737  1.00  0.00     0.209 HD
ENDBRANCH  52  53
ENDBRANCH  37  52
BRANCH  42  55
HETATM   55  O   UNL     1     -14.360 -13.364   0.315  1.00  0.00    -0.390 OA
HETATM   56  H   UNL     1     -14.160 -12.631  -0.305  1.00  0.00     0.210 HD
ENDBRANCH  42  55
BRANCH   9  57
HETATM   57  C   UNL     1     -20.300 -14.419   0.177  1.00  0.00     0.198 C 
BRANCH  57  58
HETATM   58  O   UNL     1     -19.528 -15.571  -0.209  1.00  0.00    -0.398 OA
HETATM   59  H   UNL     1     -20.136 -16.340  -0.158  1.00  0.00     0.209 HD
ENDBRANCH  57  58
ENDBRANCH   9  57
BRANCH  13  60
HETATM   60  O   UNL     1     -21.282  -9.856   0.376  1.00  0.00    -0.390 OA
HETATM   61  H   UNL     1     -20.378  -9.517   0.213  1.00  0.00     0.210 HD
ENDBRANCH  13  60
BRANCH  12  62
HETATM   62  O   UNL     1     -23.553 -11.584  -0.785  1.00  0.00    -0.388 OA
HETATM   63  H   UNL     1     -23.617 -11.333   0.153  1.00  0.00     0.210 HD
ENDBRANCH  12  62
BRANCH  33  64
HETATM   64  O   UNL     1     -12.930 -11.911  -3.769  1.00  0.00    -0.388 OA
HETATM   65  H   UNL     1     -13.371 -11.493  -3.002  1.00  0.00     0.210 HD
ENDBRANCH  33  64
BRANCH  30  66
HETATM   66  C   UNL     1     -13.134 -16.229  -4.390  1.00  0.00     0.198 C 
BRANCH  66  67
HETATM   67  O   UNL     1     -12.501 -17.091  -5.317  1.00  0.00    -0.398 OA
HETATM   68  H   UNL     1     -11.572 -17.176  -5.039  1.00  0.00     0.209 HD
ENDBRANCH  66  67
ENDBRANCH  30  66
BRANCH  34  69
HETATM   69  O   UNL     1     -13.502 -12.413  -6.773  1.00  0.00    -0.390 OA
HETATM   70  H   UNL     1     -12.591 -12.250  -7.068  1.00  0.00     0.210 HD
ENDBRANCH  34  69
BRANCH  16  71
HETATM   71  C   UNL     1     -21.379 -17.178  -4.111  1.00  0.00     0.198 C 
BRANCH  71  72
HETATM   72  O   UNL     1     -22.484 -17.179  -5.003  1.00  0.00    -0.398 OA
HETATM   73  H   UNL     1     -22.567 -16.278  -5.363  1.00  0.00     0.209 HD
ENDBRANCH  71  72
ENDBRANCH  16  71
BRANCH  20  74
HETATM   74  O   UNL     1     -24.326 -13.773  -3.883  1.00  0.00    -0.390 OA
HETATM   75  H   UNL     1     -23.943 -13.105  -3.279  1.00  0.00     0.210 HD
ENDBRANCH  20  74
BRANCH  19  76
HETATM   76  O   UNL     1     -23.203 -13.919  -6.632  1.00  0.00    -0.388 OA
HETATM   77  H   UNL     1     -23.005 -13.059  -7.054  1.00  0.00     0.210 HD
ENDBRANCH  19  76
BRANCH  26  78
HETATM   78  O   UNL     1     -16.957 -12.826  -8.525  1.00  0.00    -0.388 OA
HETATM   79  H   UNL     1     -16.920 -11.900  -8.209  1.00  0.00     0.210 HD
ENDBRANCH  26  78
BRANCH  23  80
HETATM   80  C   UNL     1     -17.323 -17.182  -6.855  1.00  0.00     0.198 C 
BRANCH  80  81
HETATM   81  O   UNL     1     -16.977 -16.877  -8.200  1.00  0.00    -0.398 OA
HETATM   82  H   UNL     1     -16.582 -15.987  -8.209  1.00  0.00     0.209 HD
ENDBRANCH  80  81
ENDBRANCH  23  80
BRANCH  27  83
HETATM   83  O   UNL     1     -19.696 -13.912  -8.975  1.00  0.00    -0.390 OA
HETATM   84  H   UNL     1     -20.095 -13.216  -8.428  1.00  0.00     0.210 HD
ENDBRANCH  27  83
TORSDOF 24
BEGIN_RES ARG D 557
REMARK  4 active torsions:
REMARK  status: ('A' for Active; 'I' for Inactive)
REMARK    1  A    between atoms: CA   and  CB  
REMARK    2  A    between atoms: CB   and  CG  
REMARK    3  A    between atoms: CG   and  CD  
REMARK    4  A    between atoms: CD   and  NE  
REMARK       I    between atoms: NE   and  CZ  
REMARK       I    between atoms: CZ   and  NH1 
REMARK       I    between atoms: CZ   and  NH2 
ROOT
ATOM      1  CA  ARG D 557     -26.217   2.705 -17.014  1.00 35.49     0.159 C 
ENDROOT
BRANCH   1   2
ATOM      2  CB  ARG D 557     -26.789   1.319 -17.183  1.00 35.49     0.034 C 
BRANCH   2   3
ATOM      3  CG  ARG D 557     -25.855   0.196 -17.036  1.00 35.49     0.027 C 
BRANCH   3   4
ATOM      4  CD  ARG D 557     -25.533  -0.088 -15.619  1.00 35.49     0.116 C 
BRANCH   4   5
ATOM      5  NE  ARG D 557     -25.710  -1.477 -15.290  1.00 35.49    -0.212 N 
ATOM      6  CZ  ARG D 557     -24.924  -2.190 -14.514  1.00 35.49     0.666 C 
ATOM      7  NH1 ARG D 557     -23.843  -1.687 -13.947  1.00 35.49    -0.235 N 
ATOM      8  NH2 ARG D 557     -25.250  -3.433 -14.308  1.00 35.49    -0.235 N 
ATOM      9  HH  ARG D 557     -23.611  -0.871 -14.067  1.00 35.49     0.174 HD
ATOM     10  HH  ARG D 557     -23.370  -2.199 -13.448  1.00 35.49     0.174 HD
ATOM     11  HH  ARG D 557     -25.958  -3.728 -14.681  1.00 35.49     0.174 HD
ATOM     12  HH  ARG D 557     -24.769  -3.923 -13.810  1.00 35.49     0.174 HD
ATOM     13  HE  ARG D 557     -26.342  -1.900 -15.671  1.00 35.49     0.178 HD
ENDBRANCH   4   5
ENDBRANCH   3   4
ENDBRANCH   2   3
ENDBRANCH   1   2
END_RES ARG D 557
BEGIN_RES GLU D 570
REMARK  3 active torsions:
REMARK  status: ('A' for Active; 'I' for Inactive)
REMARK    5  A    between atoms: CA   and  CB  
REMARK    6  A    between atoms: CB   and  CG  
REMARK    7  A    between atoms: CG   and  CD  
ROOT
ATOM     14  CA  GLU D 570     -18.033  -6.348 -13.375  1.00 32.92     0.160 C 
ENDROOT
BRANCH  14  15
ATOM     15  CB  GLU D 570     -19.500  -6.345 -13.794  1.00 32.92     0.043 C 
BRANCH  15  16
ATOM     16  CG  GLU D 570     -20.432  -5.488 -13.017  1.00 32.92     0.100 C 
BRANCH  16  17
ATOM     17  CD  GLU D 570     -21.776  -5.320 -13.687  1.00 32.92     0.185 C 
ATOM     18  OE1 GLU D 570     -22.528  -4.400 -13.312  1.00 32.92    -0.647 OA
ATOM     19  OE2 GLU D 570     -22.086  -6.127 -14.585  1.00 32.92    -0.647 OA
ENDBRANCH  16  17
ENDBRANCH  15  16
ENDBRANCH  14  15
END_RES GLU D 570
ENDMDL
