MODEL 1
REMARK VINA RESULT:      -1.2      0.000      0.000
REMARK  7 active torsions:
REMARK  status: ('A' for Active; 'I' for Inactive)
REMARK    1  A    between atoms: C_3  and  S_31 
REMARK    2  A    between atoms: C_6  and  N_7 
REMARK    3  A    between atoms: N_9  and  C_11 
REMARK    4  A    between atoms: C_12  and  C_28 
REMARK    5  A    between atoms: N_15  and  C_18 
REMARK    6  A    between atoms: C_21  and  S_24 
REMARK    7  A    between atoms: C_28  and  O_30 
ROOT
HETATM    1 NA   UNL     3     -27.108 -13.681 -13.090  1.00  0.00     0.000 Na
ENDROOT
TORSDOF 7
BEGIN_RES ARG D 557
REMARK  4 active torsions:
REMARK  status: ('A' for Active; 'I' for Inactive)
REMARK    1  A    between atoms: CA   and  CB  
REMARK    2  A    between atoms: CB   and  CG  
REMARK    3  A    between atoms: CG   and  CD  
REMARK    4  A    between atoms: CD   and  NE  
REMARK       I    between atoms: NE   and  CZ  
REMARK       I    between atoms: CZ   and  NH1 
REMARK       I    between atoms: CZ   and  NH2 
ROOT
ATOM      1  CA  ARG D 557     -26.217   2.705 -17.014  1.00 35.49     0.159 C 
ENDROOT
BRANCH   1   2
ATOM      2  CB  ARG D 557     -26.789   1.319 -17.183  1.00 35.49     0.034 C 
BRANCH   2   3
ATOM      3  CG  ARG D 557     -25.834   0.204 -17.169  1.00 35.49     0.027 C 
BRANCH   3   4
ATOM      4  CD  ARG D 557     -24.742   0.408 -16.190  1.00 35.49     0.116 C 
BRANCH   4   5
ATOM      5  NE  ARG D 557     -24.891  -0.429 -15.029  1.00 35.49    -0.212 N 
ATOM      6  CZ  ARG D 557     -24.083  -1.404 -14.677  1.00 35.49     0.666 C 
ATOM      7  NH1 ARG D 557     -23.021  -1.736 -15.386  1.00 35.49    -0.235 N 
ATOM      8  NH2 ARG D 557     -24.360  -2.045 -13.579  1.00 35.49    -0.235 N 
ATOM      9  HH  ARG D 557     -22.818  -1.326 -16.111  1.00 35.49     0.174 HD
ATOM     10  HH  ARG D 557     -22.529  -2.379 -15.106  1.00 35.49     0.174 HD
ATOM     11  HH  ARG D 557     -25.049  -1.804 -13.137  1.00 35.49     0.174 HD
ATOM     12  HH  ARG D 557     -23.860  -2.678 -13.317  1.00 35.49     0.174 HD
ATOM     13  HE  ARG D 557     -25.589  -0.332 -14.554  1.00 35.49     0.178 HD
ENDBRANCH   4   5
ENDBRANCH   3   4
ENDBRANCH   2   3
ENDBRANCH   1   2
END_RES ARG D 557
BEGIN_RES GLU D 570
REMARK  3 active torsions:
REMARK  status: ('A' for Active; 'I' for Inactive)
REMARK    5  A    between atoms: CA   and  CB  
REMARK    6  A    between atoms: CB   and  CG  
REMARK    7  A    between atoms: CG   and  CD  
ROOT
ATOM     14  CA  GLU D 570     -18.033  -6.348 -13.375  1.00 32.92     0.160 C 
ENDROOT
BRANCH  14  15
ATOM     15  CB  GLU D 570     -19.500  -6.345 -13.794  1.00 32.92     0.043 C 
BRANCH  15  16
ATOM     16  CG  GLU D 570     -20.439  -5.516 -12.995  1.00 32.92     0.100 C 
BRANCH  16  17
ATOM     17  CD  GLU D 570     -21.741  -5.243 -13.711  1.00 32.92     0.185 C 
ATOM     18  OE1 GLU D 570     -22.300  -4.141 -13.551  1.00 32.92    -0.647 OA
ATOM     19  OE2 GLU D 570     -22.215  -6.147 -14.427  1.00 32.92    -0.647 OA
ENDBRANCH  16  17
ENDBRANCH  15  16
ENDBRANCH  14  15
END_RES GLU D 570
ENDMDL
MODEL 2
REMARK VINA RESULT:      -1.1      3.618      3.618
REMARK  7 active torsions:
REMARK  status: ('A' for Active; 'I' for Inactive)
REMARK    1  A    between atoms: C_3  and  S_31 
REMARK    2  A    between atoms: C_6  and  N_7 
REMARK    3  A    between atoms: N_9  and  C_11 
REMARK    4  A    between atoms: C_12  and  C_28 
REMARK    5  A    between atoms: N_15  and  C_18 
REMARK    6  A    between atoms: C_21  and  S_24 
REMARK    7  A    between atoms: C_28  and  O_30 
ROOT
HETATM    1 NA   UNL     3     -25.051  -4.828  -5.254  1.00  0.00     0.000 Na
ENDROOT
TORSDOF 7
BEGIN_RES ARG D 557
REMARK  4 active torsions:
REMARK  status: ('A' for Active; 'I' for Inactive)
REMARK    1  A    between atoms: CA   and  CB  
REMARK    2  A    between atoms: CB   and  CG  
REMARK    3  A    between atoms: CG   and  CD  
REMARK    4  A    between atoms: CD   and  NE  
REMARK       I    between atoms: NE   and  CZ  
REMARK       I    between atoms: CZ   and  NH1 
REMARK       I    between atoms: CZ   and  NH2 
ROOT
ATOM      1  CA  ARG D 557     -26.217   2.705 -17.014  1.00 35.49     0.159 C 
ENDROOT
BRANCH   1   2
ATOM      2  CB  ARG D 557     -26.789   1.319 -17.183  1.00 35.49     0.034 C 
BRANCH   2   3
ATOM      3  CG  ARG D 557     -25.835   0.203 -17.162  1.00 35.49     0.027 C 
BRANCH   3   4
ATOM      4  CD  ARG D 557     -24.747   0.410 -16.179  1.00 35.49     0.116 C 
BRANCH   4   5
ATOM      5  NE  ARG D 557     -24.892  -0.435 -15.024  1.00 35.49    -0.212 N 
ATOM      6  CZ  ARG D 557     -24.076  -1.404 -14.673  1.00 35.49     0.666 C 
ATOM      7  NH1 ARG D 557     -23.007  -1.722 -15.380  1.00 35.49    -0.235 N 
ATOM      8  NH2 ARG D 557     -24.352  -2.055 -13.580  1.00 35.49    -0.235 N 
ATOM      9  HH  ARG D 557     -22.806  -1.305 -16.101  1.00 35.49     0.174 HD
ATOM     10  HH  ARG D 557     -22.510  -2.361 -15.100  1.00 35.49     0.174 HD
ATOM     11  HH  ARG D 557     -25.045  -1.823 -13.140  1.00 35.49     0.174 HD
ATOM     12  HH  ARG D 557     -23.847  -2.684 -13.319  1.00 35.49     0.174 HD
ATOM     13  HE  ARG D 557     -25.594  -0.348 -14.551  1.00 35.49     0.178 HD
ENDBRANCH   4   5
ENDBRANCH   3   4
ENDBRANCH   2   3
ENDBRANCH   1   2
END_RES ARG D 557
BEGIN_RES GLU D 570
REMARK  3 active torsions:
REMARK  status: ('A' for Active; 'I' for Inactive)
REMARK    5  A    between atoms: CA   and  CB  
REMARK    6  A    between atoms: CB   and  CG  
REMARK    7  A    between atoms: CG   and  CD  
ROOT
ATOM     14  CA  GLU D 570     -18.033  -6.348 -13.375  1.00 32.92     0.160 C 
ENDROOT
BRANCH  14  15
ATOM     15  CB  GLU D 570     -19.500  -6.345 -13.794  1.00 32.92     0.043 C 
BRANCH  15  16
ATOM     16  CG  GLU D 570     -20.442  -5.531 -12.983  1.00 32.92     0.100 C 
BRANCH  16  17
ATOM     17  CD  GLU D 570     -21.743  -5.248 -13.698  1.00 32.92     0.185 C 
ATOM     18  OE1 GLU D 570     -22.298  -4.146 -13.529  1.00 32.92    -0.647 OA
ATOM     19  OE2 GLU D 570     -22.220  -6.145 -14.420  1.00 32.92    -0.647 OA
ENDBRANCH  16  17
ENDBRANCH  15  16
ENDBRANCH  14  15
END_RES GLU D 570
ENDMDL
MODEL 3
REMARK VINA RESULT:      -1.0      3.770      3.884
REMARK  7 active torsions:
REMARK  status: ('A' for Active; 'I' for Inactive)
REMARK    1  A    between atoms: C_3  and  S_31 
REMARK    2  A    between atoms: C_6  and  N_7 
REMARK    3  A    between atoms: N_9  and  C_11 
REMARK    4  A    between atoms: C_12  and  C_28 
REMARK    5  A    between atoms: N_15  and  C_18 
REMARK    6  A    between atoms: C_21  and  S_24 
REMARK    7  A    between atoms: C_28  and  O_30 
ROOT
HETATM    1 NA   UNL     3     -32.758  -6.135  -4.877  1.00  0.00     0.000 Na
ENDROOT
TORSDOF 7
BEGIN_RES ARG D 557
REMARK  4 active torsions:
REMARK  status: ('A' for Active; 'I' for Inactive)
REMARK    1  A    between atoms: CA   and  CB  
REMARK    2  A    between atoms: CB   and  CG  
REMARK    3  A    between atoms: CG   and  CD  
REMARK    4  A    between atoms: CD   and  NE  
REMARK       I    between atoms: NE   and  CZ  
REMARK       I    between atoms: CZ   and  NH1 
REMARK       I    between atoms: CZ   and  NH2 
ROOT
ATOM      1  CA  ARG D 557     -26.217   2.705 -17.014  1.00 35.49     0.159 C 
ENDROOT
BRANCH   1   2
ATOM      2  CB  ARG D 557     -26.789   1.319 -17.183  1.00 35.49     0.034 C 
BRANCH   2   3
ATOM      3  CG  ARG D 557     -25.835   0.203 -17.161  1.00 35.49     0.027 C 
BRANCH   3   4
ATOM      4  CD  ARG D 557     -24.746   0.411 -16.179  1.00 35.49     0.116 C 
BRANCH   4   5
ATOM      5  NE  ARG D 557     -24.890  -0.433 -15.023  1.00 35.49    -0.212 N 
ATOM      6  CZ  ARG D 557     -24.075  -1.403 -14.673  1.00 35.49     0.666 C 
ATOM      7  NH1 ARG D 557     -23.009  -1.723 -15.383  1.00 35.49    -0.235 N 
ATOM      8  NH2 ARG D 557     -24.349  -2.053 -13.580  1.00 35.49    -0.235 N 
ATOM      9  HH  ARG D 557     -22.808  -1.308 -16.105  1.00 35.49     0.174 HD
ATOM     10  HH  ARG D 557     -22.512  -2.364 -15.105  1.00 35.49     0.174 HD
ATOM     11  HH  ARG D 557     -25.041  -1.820 -13.138  1.00 35.49     0.174 HD
ATOM     12  HH  ARG D 557     -23.845  -2.683 -13.320  1.00 35.49     0.174 HD
ATOM     13  HE  ARG D 557     -25.590  -0.344 -14.548  1.00 35.49     0.178 HD
ENDBRANCH   4   5
ENDBRANCH   3   4
ENDBRANCH   2   3
ENDBRANCH   1   2
END_RES ARG D 557
BEGIN_RES GLU D 570
REMARK  3 active torsions:
REMARK  status: ('A' for Active; 'I' for Inactive)
REMARK    5  A    between atoms: CA   and  CB  
REMARK    6  A    between atoms: CB   and  CG  
REMARK    7  A    between atoms: CG   and  CD  
ROOT
ATOM     14  CA  GLU D 570     -18.033  -6.348 -13.375  1.00 32.92     0.160 C 
ENDROOT
BRANCH  14  15
ATOM     15  CB  GLU D 570     -19.500  -6.345 -13.794  1.00 32.92     0.043 C 
BRANCH  15  16
ATOM     16  CG  GLU D 570     -20.442  -5.533 -12.981  1.00 32.92     0.100 C 
BRANCH  16  17
ATOM     17  CD  GLU D 570     -21.739  -5.241 -13.700  1.00 32.92     0.185 C 
ATOM     18  OE1 GLU D 570     -22.186  -6.078 -14.507  1.00 32.92    -0.647 OA
ATOM     19  OE2 GLU D 570     -22.305  -4.155 -13.465  1.00 32.92    -0.647 OA
ENDBRANCH  16  17
ENDBRANCH  15  16
ENDBRANCH  14  15
END_RES GLU D 570
ENDMDL
MODEL 4
REMARK VINA RESULT:      -1.0      6.904      6.904
REMARK  7 active torsions:
REMARK  status: ('A' for Active; 'I' for Inactive)
REMARK    1  A    between atoms: C_3  and  S_31 
REMARK    2  A    between atoms: C_6  and  N_7 
REMARK    3  A    between atoms: N_9  and  C_11 
REMARK    4  A    between atoms: C_12  and  C_28 
REMARK    5  A    between atoms: N_15  and  C_18 
REMARK    6  A    between atoms: C_21  and  S_24 
REMARK    7  A    between atoms: C_28  and  O_30 
ROOT
HETATM    1 NA   UNL     3     -11.051   2.306  -9.793  1.00  0.00     0.000 Na
ENDROOT
TORSDOF 7
BEGIN_RES ARG D 557
REMARK  4 active torsions:
REMARK  status: ('A' for Active; 'I' for Inactive)
REMARK    1  A    between atoms: CA   and  CB  
REMARK    2  A    between atoms: CB   and  CG  
REMARK    3  A    between atoms: CG   and  CD  
REMARK    4  A    between atoms: CD   and  NE  
REMARK       I    between atoms: NE   and  CZ  
REMARK       I    between atoms: CZ   and  NH1 
REMARK       I    between atoms: CZ   and  NH2 
ROOT
ATOM      1  CA  ARG D 557     -26.217   2.705 -17.014  1.00 35.49     0.159 C 
ENDROOT
BRANCH   1   2
ATOM      2  CB  ARG D 557     -26.789   1.319 -17.183  1.00 35.49     0.034 C 
BRANCH   2   3
ATOM      3  CG  ARG D 557     -25.836   0.203 -17.155  1.00 35.49     0.027 C 
BRANCH   3   4
ATOM      4  CD  ARG D 557     -24.751   0.412 -16.169  1.00 35.49     0.116 C 
BRANCH   4   5
ATOM      5  NE  ARG D 557     -24.896  -0.436 -15.015  1.00 35.49    -0.212 N 
ATOM      6  CZ  ARG D 557     -24.081  -1.407 -14.669  1.00 35.49     0.666 C 
ATOM      7  NH1 ARG D 557     -23.014  -1.725 -15.379  1.00 35.49    -0.235 N 
ATOM      8  NH2 ARG D 557     -24.355  -2.060 -13.577  1.00 35.49    -0.235 N 
ATOM      9  HH  ARG D 557     -22.813  -1.307 -16.100  1.00 35.49     0.174 HD
ATOM     10  HH  ARG D 557     -22.518  -2.366 -15.103  1.00 35.49     0.174 HD
ATOM     11  HH  ARG D 557     -25.047  -1.828 -13.135  1.00 35.49     0.174 HD
ATOM     12  HH  ARG D 557     -23.851  -2.691 -13.320  1.00 35.49     0.174 HD
ATOM     13  HE  ARG D 557     -25.596  -0.348 -14.540  1.00 35.49     0.178 HD
ENDBRANCH   4   5
ENDBRANCH   3   4
ENDBRANCH   2   3
ENDBRANCH   1   2
END_RES ARG D 557
BEGIN_RES GLU D 570
REMARK  3 active torsions:
REMARK  status: ('A' for Active; 'I' for Inactive)
REMARK    5  A    between atoms: CA   and  CB  
REMARK    6  A    between atoms: CB   and  CG  
REMARK    7  A    between atoms: CG   and  CD  
ROOT
ATOM     14  CA  GLU D 570     -18.033  -6.348 -13.375  1.00 32.92     0.160 C 
ENDROOT
BRANCH  14  15
ATOM     15  CB  GLU D 570     -19.500  -6.345 -13.794  1.00 32.92     0.043 C 
BRANCH  15  16
ATOM     16  CG  GLU D 570     -20.445  -5.545 -12.972  1.00 32.92     0.100 C 
BRANCH  16  17
ATOM     17  CD  GLU D 570     -21.739  -5.241 -13.691  1.00 32.92     0.185 C 
ATOM     18  OE1 GLU D 570     -22.271  -4.126 -13.531  1.00 32.92    -0.647 OA
ATOM     19  OE2 GLU D 570     -22.233  -6.133 -14.408  1.00 32.92    -0.647 OA
ENDBRANCH  16  17
ENDBRANCH  15  16
ENDBRANCH  14  15
END_RES GLU D 570
ENDMDL
MODEL 5
REMARK VINA RESULT:      -1.0      8.701      8.701
REMARK  7 active torsions:
REMARK  status: ('A' for Active; 'I' for Inactive)
REMARK    1  A    between atoms: C_3  and  S_31 
REMARK    2  A    between atoms: C_6  and  N_7 
REMARK    3  A    between atoms: N_9  and  C_11 
REMARK    4  A    between atoms: C_12  and  C_28 
REMARK    5  A    between atoms: N_15  and  C_18 
REMARK    6  A    between atoms: C_21  and  S_24 
REMARK    7  A    between atoms: C_28  and  O_30 
ROOT
HETATM    1 NA   UNL     3      -9.520   8.750 -17.599  1.00  0.00     0.000 Na
ENDROOT
TORSDOF 7
BEGIN_RES ARG D 557
REMARK  4 active torsions:
REMARK  status: ('A' for Active; 'I' for Inactive)
REMARK    1  A    between atoms: CA   and  CB  
REMARK    2  A    between atoms: CB   and  CG  
REMARK    3  A    between atoms: CG   and  CD  
REMARK    4  A    between atoms: CD   and  NE  
REMARK       I    between atoms: NE   and  CZ  
REMARK       I    between atoms: CZ   and  NH1 
REMARK       I    between atoms: CZ   and  NH2 
ROOT
ATOM      1  CA  ARG D 557     -26.217   2.705 -17.014  1.00 35.49     0.159 C 
ENDROOT
BRANCH   1   2
ATOM      2  CB  ARG D 557     -26.789   1.319 -17.183  1.00 35.49     0.034 C 
BRANCH   2   3
ATOM      3  CG  ARG D 557     -25.835   0.204 -17.164  1.00 35.49     0.027 C 
BRANCH   3   4
ATOM      4  CD  ARG D 557     -24.745   0.410 -16.184  1.00 35.49     0.116 C 
BRANCH   4   5
ATOM      5  NE  ARG D 557     -24.889  -0.433 -15.026  1.00 35.49    -0.212 N 
ATOM      6  CZ  ARG D 557     -24.077  -1.407 -14.680  1.00 35.49     0.666 C 
ATOM      7  NH1 ARG D 557     -23.014  -1.731 -15.392  1.00 35.49    -0.235 N 
ATOM      8  NH2 ARG D 557     -24.350  -2.055 -13.585  1.00 35.49    -0.235 N 
ATOM      9  HH  ARG D 557     -22.814  -1.317 -16.115  1.00 35.49     0.174 HD
ATOM     10  HH  ARG D 557     -22.519  -2.374 -15.115  1.00 35.49     0.174 HD
ATOM     11  HH  ARG D 557     -25.039  -1.818 -13.141  1.00 35.49     0.174 HD
ATOM     12  HH  ARG D 557     -23.847  -2.687 -13.327  1.00 35.49     0.174 HD
ATOM     13  HE  ARG D 557     -25.587  -0.341 -14.550  1.00 35.49     0.178 HD
ENDBRANCH   4   5
ENDBRANCH   3   4
ENDBRANCH   2   3
ENDBRANCH   1   2
END_RES ARG D 557
BEGIN_RES GLU D 570
REMARK  3 active torsions:
REMARK  status: ('A' for Active; 'I' for Inactive)
REMARK    5  A    between atoms: CA   and  CB  
REMARK    6  A    between atoms: CB   and  CG  
REMARK    7  A    between atoms: CG   and  CD  
ROOT
ATOM     14  CA  GLU D 570     -18.033  -6.348 -13.375  1.00 32.92     0.160 C 
ENDROOT
BRANCH  14  15
ATOM     15  CB  GLU D 570     -19.500  -6.345 -13.794  1.00 32.92     0.043 C 
BRANCH  15  16
ATOM     16  CG  GLU D 570     -20.442  -5.534 -12.981  1.00 32.92     0.100 C 
BRANCH  16  17
ATOM     17  CD  GLU D 570     -21.741  -5.246 -13.697  1.00 32.92     0.185 C 
ATOM     18  OE1 GLU D 570     -22.293  -4.141 -13.529  1.00 32.92    -0.647 OA
ATOM     19  OE2 GLU D 570     -22.221  -6.140 -14.421  1.00 32.92    -0.647 OA
ENDBRANCH  16  17
ENDBRANCH  15  16
ENDBRANCH  14  15
END_RES GLU D 570
ENDMDL
MODEL 6
REMARK VINA RESULT:      -0.9      8.262      8.309
REMARK  7 active torsions:
REMARK  status: ('A' for Active; 'I' for Inactive)
REMARK    1  A    between atoms: C_3  and  S_31 
REMARK    2  A    between atoms: C_6  and  N_7 
REMARK    3  A    between atoms: N_9  and  C_11 
REMARK    4  A    between atoms: C_12  and  C_28 
REMARK    5  A    between atoms: N_15  and  C_18 
REMARK    6  A    between atoms: C_21  and  S_24 
REMARK    7  A    between atoms: C_28  and  O_30 
ROOT
HETATM    1 NA   UNL     3     -11.256   1.621   2.431  1.00  0.00     0.000 Na
ENDROOT
TORSDOF 7
BEGIN_RES ARG D 557
REMARK  4 active torsions:
REMARK  status: ('A' for Active; 'I' for Inactive)
REMARK    1  A    between atoms: CA   and  CB  
REMARK    2  A    between atoms: CB   and  CG  
REMARK    3  A    between atoms: CG   and  CD  
REMARK    4  A    between atoms: CD   and  NE  
REMARK       I    between atoms: NE   and  CZ  
REMARK       I    between atoms: CZ   and  NH1 
REMARK       I    between atoms: CZ   and  NH2 
ROOT
ATOM      1  CA  ARG D 557     -26.217   2.705 -17.014  1.00 35.49     0.159 C 
ENDROOT
BRANCH   1   2
ATOM      2  CB  ARG D 557     -26.789   1.319 -17.183  1.00 35.49     0.034 C 
BRANCH   2   3
ATOM      3  CG  ARG D 557     -25.929   0.197 -16.789  1.00 35.49     0.027 C 
BRANCH   3   4
ATOM      4  CD  ARG D 557     -26.682  -0.879 -16.105  1.00 35.49     0.116 C 
BRANCH   4   5
ATOM      5  NE  ARG D 557     -25.895  -1.532 -15.092  1.00 35.49    -0.212 N 
ATOM      6  CZ  ARG D 557     -25.945  -2.808 -14.784  1.00 35.49     0.666 C 
ATOM      7  NH1 ARG D 557     -26.764  -3.651 -15.387  1.00 35.49    -0.235 N 
ATOM      8  NH2 ARG D 557     -25.143  -3.233 -13.852  1.00 35.49    -0.235 N 
ATOM      9  HH  ARG D 557     -27.299  -3.394 -16.005  1.00 35.49     0.174 HD
ATOM     10  HH  ARG D 557     -26.751  -4.473 -15.146  1.00 35.49     0.174 HD
ATOM     11  HH  ARG D 557     -24.620  -2.668 -13.486  1.00 35.49     0.174 HD
ATOM     12  HH  ARG D 557     -25.144  -4.051 -13.629  1.00 35.49     0.174 HD
ATOM     13  HE  ARG D 557     -25.392  -1.049 -14.604  1.00 35.49     0.178 HD
ENDBRANCH   4   5
ENDBRANCH   3   4
ENDBRANCH   2   3
ENDBRANCH   1   2
END_RES ARG D 557
BEGIN_RES GLU D 570
REMARK  3 active torsions:
REMARK  status: ('A' for Active; 'I' for Inactive)
REMARK    5  A    between atoms: CA   and  CB  
REMARK    6  A    between atoms: CB   and  CG  
REMARK    7  A    between atoms: CG   and  CD  
ROOT
ATOM     14  CA  GLU D 570     -18.033  -6.348 -13.375  1.00 32.92     0.160 C 
ENDROOT
BRANCH  14  15
ATOM     15  CB  GLU D 570     -19.500  -6.345 -13.794  1.00 32.92     0.043 C 
BRANCH  15  16
ATOM     16  CG  GLU D 570     -20.443  -5.534 -12.981  1.00 32.92     0.100 C 
BRANCH  16  17
ATOM     17  CD  GLU D 570     -21.738  -5.239 -13.700  1.00 32.92     0.185 C 
ATOM     18  OE1 GLU D 570     -22.294  -4.139 -13.518  1.00 32.92    -0.647 OA
ATOM     19  OE2 GLU D 570     -22.211  -6.124 -14.440  1.00 32.92    -0.647 OA
ENDBRANCH  16  17
ENDBRANCH  15  16
ENDBRANCH  14  15
END_RES GLU D 570
ENDMDL
MODEL 7
REMARK VINA RESULT:      -0.9      3.061      3.316
REMARK  7 active torsions:
REMARK  status: ('A' for Active; 'I' for Inactive)
REMARK    1  A    between atoms: C_3  and  S_31 
REMARK    2  A    between atoms: C_6  and  N_7 
REMARK    3  A    between atoms: N_9  and  C_11 
REMARK    4  A    between atoms: C_12  and  C_28 
REMARK    5  A    between atoms: N_15  and  C_18 
REMARK    6  A    between atoms: C_21  and  S_24 
REMARK    7  A    between atoms: C_28  and  O_30 
ROOT
HETATM    1 NA   UNL     3     -27.293  -5.652  -9.139  1.00  0.00     0.000 Na
ENDROOT
TORSDOF 7
BEGIN_RES ARG D 557
REMARK  4 active torsions:
REMARK  status: ('A' for Active; 'I' for Inactive)
REMARK    1  A    between atoms: CA   and  CB  
REMARK    2  A    between atoms: CB   and  CG  
REMARK    3  A    between atoms: CG   and  CD  
REMARK    4  A    between atoms: CD   and  NE  
REMARK       I    between atoms: NE   and  CZ  
REMARK       I    between atoms: CZ   and  NH1 
REMARK       I    between atoms: CZ   and  NH2 
ROOT
ATOM      1  CA  ARG D 557     -26.217   2.705 -17.014  1.00 35.49     0.159 C 
ENDROOT
BRANCH   1   2
ATOM      2  CB  ARG D 557     -26.789   1.319 -17.183  1.00 35.49     0.034 C 
BRANCH   2   3
ATOM      3  CG  ARG D 557     -25.941   0.198 -16.759  1.00 35.49     0.027 C 
BRANCH   3   4
ATOM      4  CD  ARG D 557     -26.708  -0.854 -16.053  1.00 35.49     0.116 C 
BRANCH   4   5
ATOM      5  NE  ARG D 557     -25.958  -1.438 -14.972  1.00 35.49    -0.212 N 
ATOM      6  CZ  ARG D 557     -25.933  -2.713 -14.656  1.00 35.49     0.666 C 
ATOM      7  NH1 ARG D 557     -26.630  -3.621 -15.315  1.00 35.49    -0.235 N 
ATOM      8  NH2 ARG D 557     -25.180  -3.069 -13.657  1.00 35.49    -0.235 N 
ATOM      9  HH  ARG D 557     -27.131  -3.410 -15.977  1.00 35.49     0.174 HD
ATOM     10  HH  ARG D 557     -26.572  -4.439 -15.065  1.00 35.49     0.174 HD
ATOM     11  HH  ARG D 557     -24.735  -2.463 -13.255  1.00 35.49     0.174 HD
ATOM     12  HH  ARG D 557     -25.134  -3.884 -13.426  1.00 35.49     0.174 HD
ATOM     13  HE  ARG D 557     -25.537  -0.915 -14.450  1.00 35.49     0.178 HD
ENDBRANCH   4   5
ENDBRANCH   3   4
ENDBRANCH   2   3
ENDBRANCH   1   2
END_RES ARG D 557
BEGIN_RES GLU D 570
REMARK  3 active torsions:
REMARK  status: ('A' for Active; 'I' for Inactive)
REMARK    5  A    between atoms: CA   and  CB  
REMARK    6  A    between atoms: CB   and  CG  
REMARK    7  A    between atoms: CG   and  CD  
ROOT
ATOM     14  CA  GLU D 570     -18.033  -6.348 -13.375  1.00 32.92     0.160 C 
ENDROOT
BRANCH  14  15
ATOM     15  CB  GLU D 570     -19.500  -6.345 -13.794  1.00 32.92     0.043 C 
BRANCH  15  16
ATOM     16  CG  GLU D 570     -20.439  -5.516 -12.995  1.00 32.92     0.100 C 
BRANCH  16  17
ATOM     17  CD  GLU D 570     -21.751  -5.265 -13.700  1.00 32.92     0.185 C 
ATOM     18  OE1 GLU D 570     -22.222  -6.154 -14.435  1.00 32.92    -0.647 OA
ATOM     19  OE2 GLU D 570     -22.305  -4.161 -13.529  1.00 32.92    -0.647 OA
ENDBRANCH  16  17
ENDBRANCH  15  16
ENDBRANCH  14  15
END_RES GLU D 570
ENDMDL
MODEL 8
REMARK VINA RESULT:      -0.9      2.900      3.045
REMARK  7 active torsions:
REMARK  status: ('A' for Active; 'I' for Inactive)
REMARK    1  A    between atoms: C_3  and  S_31 
REMARK    2  A    between atoms: C_6  and  N_7 
REMARK    3  A    between atoms: N_9  and  C_11 
REMARK    4  A    between atoms: C_12  and  C_28 
REMARK    5  A    between atoms: N_15  and  C_18 
REMARK    6  A    between atoms: C_21  and  S_24 
REMARK    7  A    between atoms: C_28  and  O_30 
ROOT
HETATM    1 NA   UNL     3     -35.161  -8.611 -11.716  1.00  0.00     0.000 Na
ENDROOT
TORSDOF 7
BEGIN_RES ARG D 557
REMARK  4 active torsions:
REMARK  status: ('A' for Active; 'I' for Inactive)
REMARK    1  A    between atoms: CA   and  CB  
REMARK    2  A    between atoms: CB   and  CG  
REMARK    3  A    between atoms: CG   and  CD  
REMARK    4  A    between atoms: CD   and  NE  
REMARK       I    between atoms: NE   and  CZ  
REMARK       I    between atoms: CZ   and  NH1 
REMARK       I    between atoms: CZ   and  NH2 
ROOT
ATOM      1  CA  ARG D 557     -26.217   2.705 -17.014  1.00 35.49     0.159 C 
ENDROOT
BRANCH   1   2
ATOM      2  CB  ARG D 557     -26.789   1.319 -17.183  1.00 35.49     0.034 C 
BRANCH   2   3
ATOM      3  CG  ARG D 557     -25.831   0.207 -17.200  1.00 35.49     0.027 C 
BRANCH   3   4
ATOM      4  CD  ARG D 557     -24.740   0.387 -16.215  1.00 35.49     0.116 C 
BRANCH   4   5
ATOM      5  NE  ARG D 557     -24.912  -0.447 -15.055  1.00 35.49    -0.212 N 
ATOM      6  CZ  ARG D 557     -24.097  -1.403 -14.668  1.00 35.49     0.666 C 
ATOM      7  NH1 ARG D 557     -23.003  -1.716 -15.337  1.00 35.49    -0.235 N 
ATOM      8  NH2 ARG D 557     -24.400  -2.044 -13.577  1.00 35.49    -0.235 N 
ATOM      9  HH  ARG D 557     -22.784  -1.305 -16.056  1.00 35.49     0.174 HD
ATOM     10  HH  ARG D 557     -22.508  -2.347 -15.035  1.00 35.49     0.174 HD
ATOM     11  HH  ARG D 557     -25.109  -1.815 -13.162  1.00 35.49     0.174 HD
ATOM     12  HH  ARG D 557     -23.897  -2.665 -13.293  1.00 35.49     0.174 HD
ATOM     13  HE  ARG D 557     -25.629  -0.362 -14.606  1.00 35.49     0.178 HD
ENDBRANCH   4   5
ENDBRANCH   3   4
ENDBRANCH   2   3
ENDBRANCH   1   2
END_RES ARG D 557
BEGIN_RES GLU D 570
REMARK  3 active torsions:
REMARK  status: ('A' for Active; 'I' for Inactive)
REMARK    5  A    between atoms: CA   and  CB  
REMARK    6  A    between atoms: CB   and  CG  
REMARK    7  A    between atoms: CG   and  CD  
ROOT
ATOM     14  CA  GLU D 570     -18.033  -6.348 -13.375  1.00 32.92     0.160 C 
ENDROOT
BRANCH  14  15
ATOM     15  CB  GLU D 570     -19.500  -6.345 -13.794  1.00 32.92     0.043 C 
BRANCH  15  16
ATOM     16  CG  GLU D 570     -20.439  -5.519 -12.992  1.00 32.92     0.100 C 
BRANCH  16  17
ATOM     17  CD  GLU D 570     -21.722  -5.206 -13.726  1.00 32.92     0.185 C 
ATOM     18  OE1 GLU D 570     -22.122  -5.990 -14.608  1.00 32.92    -0.647 OA
ATOM     19  OE2 GLU D 570     -22.325  -4.156 -13.427  1.00 32.92    -0.647 OA
ENDBRANCH  16  17
ENDBRANCH  15  16
ENDBRANCH  14  15
END_RES GLU D 570
ENDMDL
MODEL 9
REMARK VINA RESULT:      -0.9      8.690      8.896
REMARK  7 active torsions:
REMARK  status: ('A' for Active; 'I' for Inactive)
REMARK    1  A    between atoms: C_3  and  S_31 
REMARK    2  A    between atoms: C_6  and  N_7 
REMARK    3  A    between atoms: N_9  and  C_11 
REMARK    4  A    between atoms: C_12  and  C_28 
REMARK    5  A    between atoms: N_15  and  C_18 
REMARK    6  A    between atoms: C_21  and  S_24 
REMARK    7  A    between atoms: C_28  and  O_30 
ROOT
HETATM    1 NA   UNL     3     -11.228   1.600   2.521  1.00  0.00     0.000 Na
ENDROOT
TORSDOF 7
BEGIN_RES ARG D 557
REMARK  4 active torsions:
REMARK  status: ('A' for Active; 'I' for Inactive)
REMARK    1  A    between atoms: CA   and  CB  
REMARK    2  A    between atoms: CB   and  CG  
REMARK    3  A    between atoms: CG   and  CD  
REMARK    4  A    between atoms: CD   and  NE  
REMARK       I    between atoms: NE   and  CZ  
REMARK       I    between atoms: CZ   and  NH1 
REMARK       I    between atoms: CZ   and  NH2 
ROOT
ATOM      1  CA  ARG D 557     -26.217   2.705 -17.014  1.00 35.49     0.159 C 
ENDROOT
BRANCH   1   2
ATOM      2  CB  ARG D 557     -26.789   1.319 -17.183  1.00 35.49     0.034 C 
BRANCH   2   3
ATOM      3  CG  ARG D 557     -28.231   1.226 -17.439  1.00 35.49     0.027 C 
BRANCH   3   4
ATOM      4  CD  ARG D 557     -28.914   0.307 -16.499  1.00 35.49     0.116 C 
BRANCH   4   5
ATOM      5  NE  ARG D 557     -29.314  -0.920 -17.136  1.00 35.49    -0.212 N 
ATOM      6  CZ  ARG D 557     -28.694  -2.075 -17.036  1.00 35.49     0.666 C 
ATOM      7  NH1 ARG D 557     -27.591  -2.228 -16.327  1.00 35.49    -0.235 N 
ATOM      8  NH2 ARG D 557     -29.211  -3.090 -17.665  1.00 35.49    -0.235 N 
ATOM      9  HH  ARG D 557     -27.234  -1.574 -15.903  1.00 35.49     0.174 HD
ATOM     10  HH  ARG D 557     -27.232  -3.006 -16.296  1.00 35.49     0.174 HD
ATOM     11  HH  ARG D 557     -29.928  -2.963 -18.109  1.00 35.49     0.174 HD
ATOM     12  HH  ARG D 557     -28.841  -3.852 -17.621  1.00 35.49     0.174 HD
ATOM     13  HE  ARG D 557     -29.974  -0.895 -17.671  1.00 35.49     0.178 HD
ENDBRANCH   4   5
ENDBRANCH   3   4
ENDBRANCH   2   3
ENDBRANCH   1   2
END_RES ARG D 557
BEGIN_RES GLU D 570
REMARK  3 active torsions:
REMARK  status: ('A' for Active; 'I' for Inactive)
REMARK    5  A    between atoms: CA   and  CB  
REMARK    6  A    between atoms: CB   and  CG  
REMARK    7  A    between atoms: CG   and  CD  
ROOT
ATOM     14  CA  GLU D 570     -18.033  -6.348 -13.375  1.00 32.92     0.160 C 
ENDROOT
BRANCH  14  15
ATOM     15  CB  GLU D 570     -19.500  -6.345 -13.794  1.00 32.92     0.043 C 
BRANCH  15  16
ATOM     16  CG  GLU D 570     -20.453  -5.584 -12.945  1.00 32.92     0.100 C 
BRANCH  16  17
ATOM     17  CD  GLU D 570     -21.700  -5.166 -13.689  1.00 32.92     0.185 C 
ATOM     18  OE1 GLU D 570     -22.675  -4.736 -13.042  1.00 32.92    -0.647 OA
ATOM     19  OE2 GLU D 570     -21.709  -5.286 -14.930  1.00 32.92    -0.647 OA
ENDBRANCH  16  17
ENDBRANCH  15  16
ENDBRANCH  14  15
END_RES GLU D 570
ENDMDL
