MODEL 1
REMARK VINA RESULT:      -1.2      0.000      0.000
REMARK  12 active torsions:
REMARK  status: ('A' for Active; 'I' for Inactive)
REMARK    1  A    between atoms: C_2  and  C_3 
REMARK    2  A    between atoms: C_3  and  C_4 
REMARK    3  A    between atoms: C_4  and  C_5 
REMARK    4  A    between atoms: C_5  and  C_6 
REMARK    5  A    between atoms: C_6  and  C_7 
REMARK    6  A    between atoms: C_7  and  C_8 
REMARK    7  A    between atoms: C_8  and  C_9 
REMARK    8  A    between atoms: C_9  and  C_10 
REMARK    9  A    between atoms: C_10  and  C_11 
REMARK   10  A    between atoms: C_11  and  C_12 
REMARK   11  A    between atoms: C_12  and  O_13 
REMARK   12  A    between atoms: O_13  and  S_14 
ROOT
HETATM    1 NA   UNL     2      -9.101   5.865 -17.207  1.00  0.00     0.000 Na
ENDROOT
TORSDOF 12
BEGIN_RES ARG D 557
REMARK  4 active torsions:
REMARK  status: ('A' for Active; 'I' for Inactive)
REMARK    1  A    between atoms: CA   and  CB  
REMARK    2  A    between atoms: CB   and  CG  
REMARK    3  A    between atoms: CG   and  CD  
REMARK    4  A    between atoms: CD   and  NE  
REMARK       I    between atoms: NE   and  CZ  
REMARK       I    between atoms: CZ   and  NH1 
REMARK       I    between atoms: CZ   and  NH2 
ROOT
ATOM      1  CA  ARG D 557     -26.217   2.705 -17.014  1.00 35.49     0.159 C 
ENDROOT
BRANCH   1   2
ATOM      2  CB  ARG D 557     -26.789   1.319 -17.183  1.00 35.49     0.034 C 
BRANCH   2   3
ATOM      3  CG  ARG D 557     -25.834   0.204 -17.168  1.00 35.49     0.027 C 
BRANCH   3   4
ATOM      4  CD  ARG D 557     -24.752   0.401 -16.177  1.00 35.49     0.116 C 
BRANCH   4   5
ATOM      5  NE  ARG D 557     -24.904  -0.455 -15.030  1.00 35.49    -0.212 N 
ATOM      6  CZ  ARG D 557     -24.087  -1.423 -14.680  1.00 35.49     0.666 C 
ATOM      7  NH1 ARG D 557     -23.011  -1.730 -15.380  1.00 35.49    -0.235 N 
ATOM      8  NH2 ARG D 557     -24.370  -2.084 -13.596  1.00 35.49    -0.235 N 
ATOM      9  HH  ARG D 557     -22.804  -1.306 -16.096  1.00 35.49     0.174 HD
ATOM     10  HH  ARG D 557     -22.513  -2.370 -15.102  1.00 35.49     0.174 HD
ATOM     11  HH  ARG D 557     -25.067  -1.859 -13.160  1.00 35.49     0.174 HD
ATOM     12  HH  ARG D 557     -23.864  -2.713 -13.336  1.00 35.49     0.174 HD
ATOM     13  HE  ARG D 557     -25.610  -0.374 -14.563  1.00 35.49     0.178 HD
ENDBRANCH   4   5
ENDBRANCH   3   4
ENDBRANCH   2   3
ENDBRANCH   1   2
END_RES ARG D 557
BEGIN_RES GLU D 570
REMARK  3 active torsions:
REMARK  status: ('A' for Active; 'I' for Inactive)
REMARK    5  A    between atoms: CA   and  CB  
REMARK    6  A    between atoms: CB   and  CG  
REMARK    7  A    between atoms: CG   and  CD  
ROOT
ATOM     14  CA  GLU D 570     -18.033  -6.348 -13.375  1.00 32.92     0.160 C 
ENDROOT
BRANCH  14  15
ATOM     15  CB  GLU D 570     -19.500  -6.345 -13.794  1.00 32.92     0.043 C 
BRANCH  15  16
ATOM     16  CG  GLU D 570     -20.441  -5.528 -12.986  1.00 32.92     0.100 C 
BRANCH  16  17
ATOM     17  CD  GLU D 570     -21.668  -5.104 -13.759  1.00 32.92     0.185 C 
ATOM     18  OE1 GLU D 570     -22.346  -4.146 -13.341  1.00 32.92    -0.647 OA
ATOM     19  OE2 GLU D 570     -21.964  -5.748 -14.785  1.00 32.92    -0.647 OA
ENDBRANCH  16  17
ENDBRANCH  15  16
ENDBRANCH  14  15
END_RES GLU D 570
ENDMDL
MODEL 2
REMARK VINA RESULT:      -1.2     10.582     10.639
REMARK  12 active torsions:
REMARK  status: ('A' for Active; 'I' for Inactive)
REMARK    1  A    between atoms: C_2  and  C_3 
REMARK    2  A    between atoms: C_3  and  C_4 
REMARK    3  A    between atoms: C_4  and  C_5 
REMARK    4  A    between atoms: C_5  and  C_6 
REMARK    5  A    between atoms: C_6  and  C_7 
REMARK    6  A    between atoms: C_7  and  C_8 
REMARK    7  A    between atoms: C_8  and  C_9 
REMARK    8  A    between atoms: C_9  and  C_10 
REMARK    9  A    between atoms: C_10  and  C_11 
REMARK   10  A    between atoms: C_11  and  C_12 
REMARK   11  A    between atoms: C_12  and  O_13 
REMARK   12  A    between atoms: O_13  and  S_14 
ROOT
HETATM    1 NA   UNL     2     -32.390  -8.526   4.530  1.00  0.00     0.000 Na
ENDROOT
TORSDOF 12
BEGIN_RES ARG D 557
REMARK  4 active torsions:
REMARK  status: ('A' for Active; 'I' for Inactive)
REMARK    1  A    between atoms: CA   and  CB  
REMARK    2  A    between atoms: CB   and  CG  
REMARK    3  A    between atoms: CG   and  CD  
REMARK    4  A    between atoms: CD   and  NE  
REMARK       I    between atoms: NE   and  CZ  
REMARK       I    between atoms: CZ   and  NH1 
REMARK       I    between atoms: CZ   and  NH2 
ROOT
ATOM      1  CA  ARG D 557     -26.217   2.705 -17.014  1.00 35.49     0.159 C 
ENDROOT
BRANCH   1   2
ATOM      2  CB  ARG D 557     -26.789   1.319 -17.183  1.00 35.49     0.034 C 
BRANCH   2   3
ATOM      3  CG  ARG D 557     -25.867   0.195 -16.982  1.00 35.49     0.027 C 
BRANCH   3   4
ATOM      4  CD  ARG D 557     -26.296  -0.697 -15.881  1.00 35.49     0.116 C 
BRANCH   4   5
ATOM      5  NE  ARG D 557     -25.242  -0.926 -14.927  1.00 35.49    -0.212 N 
ATOM      6  CZ  ARG D 557     -24.961  -2.076 -14.355  1.00 35.49     0.666 C 
ATOM      7  NH1 ARG D 557     -25.651  -3.175 -14.595  1.00 35.49    -0.235 N 
ATOM      8  NH2 ARG D 557     -23.955  -2.105 -13.530  1.00 35.49    -0.235 N 
ATOM      9  HH  ARG D 557     -26.315  -3.179 -15.136  1.00 35.49     0.174 HD
ATOM     10  HH  ARG D 557     -25.420  -3.896 -14.194  1.00 35.49     0.174 HD
ATOM     11  HH  ARG D 557     -23.523  -1.381 -13.400  1.00 35.49     0.174 HD
ATOM     12  HH  ARG D 557     -23.741  -2.829 -13.144  1.00 35.49     0.174 HD
ATOM     13  HE  ARG D 557     -24.793  -0.256 -14.660  1.00 35.49     0.178 HD
ENDBRANCH   4   5
ENDBRANCH   3   4
ENDBRANCH   2   3
ENDBRANCH   1   2
END_RES ARG D 557
BEGIN_RES GLU D 570
REMARK  3 active torsions:
REMARK  status: ('A' for Active; 'I' for Inactive)
REMARK    5  A    between atoms: CA   and  CB  
REMARK    6  A    between atoms: CB   and  CG  
REMARK    7  A    between atoms: CG   and  CD  
ROOT
ATOM     14  CA  GLU D 570     -18.033  -6.348 -13.375  1.00 32.92     0.160 C 
ENDROOT
BRANCH  14  15
ATOM     15  CB  GLU D 570     -19.500  -6.345 -13.794  1.00 32.92     0.043 C 
BRANCH  15  16
ATOM     16  CG  GLU D 570     -20.442  -5.531 -12.983  1.00 32.92     0.100 C 
BRANCH  16  17
ATOM     17  CD  GLU D 570     -21.680  -5.125 -13.748  1.00 32.92     0.185 C 
ATOM     18  OE1 GLU D 570     -21.607  -4.979 -14.983  1.00 32.92    -0.647 OA
ATOM     19  OE2 GLU D 570     -22.730  -4.935 -13.103  1.00 32.92    -0.647 OA
ENDBRANCH  16  17
ENDBRANCH  15  16
ENDBRANCH  14  15
END_RES GLU D 570
ENDMDL
MODEL 3
REMARK VINA RESULT:      -1.2      6.178      6.278
REMARK  12 active torsions:
REMARK  status: ('A' for Active; 'I' for Inactive)
REMARK    1  A    between atoms: C_2  and  C_3 
REMARK    2  A    between atoms: C_3  and  C_4 
REMARK    3  A    between atoms: C_4  and  C_5 
REMARK    4  A    between atoms: C_5  and  C_6 
REMARK    5  A    between atoms: C_6  and  C_7 
REMARK    6  A    between atoms: C_7  and  C_8 
REMARK    7  A    between atoms: C_8  and  C_9 
REMARK    8  A    between atoms: C_9  and  C_10 
REMARK    9  A    between atoms: C_10  and  C_11 
REMARK   10  A    between atoms: C_11  and  C_12 
REMARK   11  A    between atoms: C_12  and  O_13 
REMARK   12  A    between atoms: O_13  and  S_14 
ROOT
HETATM    1 NA   UNL     2     -11.253   1.609   2.478  1.00  0.00     0.000 Na
ENDROOT
TORSDOF 12
BEGIN_RES ARG D 557
REMARK  4 active torsions:
REMARK  status: ('A' for Active; 'I' for Inactive)
REMARK    1  A    between atoms: CA   and  CB  
REMARK    2  A    between atoms: CB   and  CG  
REMARK    3  A    between atoms: CG   and  CD  
REMARK    4  A    between atoms: CD   and  NE  
REMARK       I    between atoms: NE   and  CZ  
REMARK       I    between atoms: CZ   and  NH1 
REMARK       I    between atoms: CZ   and  NH2 
ROOT
ATOM      1  CA  ARG D 557     -26.217   2.705 -17.014  1.00 35.49     0.159 C 
ENDROOT
BRANCH   1   2
ATOM      2  CB  ARG D 557     -26.789   1.319 -17.183  1.00 35.49     0.034 C 
BRANCH   2   3
ATOM      3  CG  ARG D 557     -25.864   0.195 -16.994  1.00 35.49     0.027 C 
BRANCH   3   4
ATOM      4  CD  ARG D 557     -26.288  -0.707 -15.898  1.00 35.49     0.116 C 
BRANCH   4   5
ATOM      5  NE  ARG D 557     -25.239  -0.921 -14.936  1.00 35.49    -0.212 N 
ATOM      6  CZ  ARG D 557     -24.955  -2.063 -14.352  1.00 35.49     0.666 C 
ATOM      7  NH1 ARG D 557     -25.637  -3.169 -14.586  1.00 35.49    -0.235 N 
ATOM      8  NH2 ARG D 557     -23.954  -2.079 -13.520  1.00 35.49    -0.235 N 
ATOM      9  HH  ARG D 557     -26.298  -3.182 -15.132  1.00 35.49     0.174 HD
ATOM     10  HH  ARG D 557     -25.404  -3.885 -14.178  1.00 35.49     0.174 HD
ATOM     11  HH  ARG D 557     -23.527  -1.351 -13.393  1.00 35.49     0.174 HD
ATOM     12  HH  ARG D 557     -23.738  -2.798 -13.126  1.00 35.49     0.174 HD
ATOM     13  HE  ARG D 557     -24.796  -0.245 -14.672  1.00 35.49     0.178 HD
ENDBRANCH   4   5
ENDBRANCH   3   4
ENDBRANCH   2   3
ENDBRANCH   1   2
END_RES ARG D 557
BEGIN_RES GLU D 570
REMARK  3 active torsions:
REMARK  status: ('A' for Active; 'I' for Inactive)
REMARK    5  A    between atoms: CA   and  CB  
REMARK    6  A    between atoms: CB   and  CG  
REMARK    7  A    between atoms: CG   and  CD  
ROOT
ATOM     14  CA  GLU D 570     -18.033  -6.348 -13.375  1.00 32.92     0.160 C 
ENDROOT
BRANCH  14  15
ATOM     15  CB  GLU D 570     -19.500  -6.345 -13.794  1.00 32.92     0.043 C 
BRANCH  15  16
ATOM     16  CG  GLU D 570     -20.450  -5.569 -12.955  1.00 32.92     0.100 C 
BRANCH  16  17
ATOM     17  CD  GLU D 570     -21.679  -5.125 -13.714  1.00 32.92     0.185 C 
ATOM     18  OE1 GLU D 570     -21.621  -5.024 -14.954  1.00 32.92    -0.647 OA
ATOM     19  OE2 GLU D 570     -22.706  -4.859 -13.059  1.00 32.92    -0.647 OA
ENDBRANCH  16  17
ENDBRANCH  15  16
ENDBRANCH  14  15
END_RES GLU D 570
ENDMDL
MODEL 4
REMARK VINA RESULT:      -1.1      6.992      7.080
REMARK  12 active torsions:
REMARK  status: ('A' for Active; 'I' for Inactive)
REMARK    1  A    between atoms: C_2  and  C_3 
REMARK    2  A    between atoms: C_3  and  C_4 
REMARK    3  A    between atoms: C_4  and  C_5 
REMARK    4  A    between atoms: C_5  and  C_6 
REMARK    5  A    between atoms: C_6  and  C_7 
REMARK    6  A    between atoms: C_7  and  C_8 
REMARK    7  A    between atoms: C_8  and  C_9 
REMARK    8  A    between atoms: C_9  and  C_10 
REMARK    9  A    between atoms: C_10  and  C_11 
REMARK   10  A    between atoms: C_11  and  C_12 
REMARK   11  A    between atoms: C_12  and  O_13 
REMARK   12  A    between atoms: O_13  and  S_14 
ROOT
HETATM    1 NA   UNL     2     -27.306  -5.619  -9.155  1.00  0.00     0.000 Na
ENDROOT
TORSDOF 12
BEGIN_RES ARG D 557
REMARK  4 active torsions:
REMARK  status: ('A' for Active; 'I' for Inactive)
REMARK    1  A    between atoms: CA   and  CB  
REMARK    2  A    between atoms: CB   and  CG  
REMARK    3  A    between atoms: CG   and  CD  
REMARK    4  A    between atoms: CD   and  NE  
REMARK       I    between atoms: NE   and  CZ  
REMARK       I    between atoms: CZ   and  NH1 
REMARK       I    between atoms: CZ   and  NH2 
ROOT
ATOM      1  CA  ARG D 557     -26.217   2.705 -17.014  1.00 35.49     0.159 C 
ENDROOT
BRANCH   1   2
ATOM      2  CB  ARG D 557     -26.789   1.319 -17.183  1.00 35.49     0.034 C 
BRANCH   2   3
ATOM      3  CG  ARG D 557     -25.862   0.195 -17.001  1.00 35.49     0.027 C 
BRANCH   3   4
ATOM      4  CD  ARG D 557     -26.282  -0.710 -15.907  1.00 35.49     0.116 C 
BRANCH   4   5
ATOM      5  NE  ARG D 557     -25.231  -0.924 -14.947  1.00 35.49    -0.212 N 
ATOM      6  CZ  ARG D 557     -24.948  -2.064 -14.358  1.00 35.49     0.666 C 
ATOM      7  NH1 ARG D 557     -25.636  -3.169 -14.585  1.00 35.49    -0.235 N 
ATOM      8  NH2 ARG D 557     -23.945  -2.080 -13.529  1.00 35.49    -0.235 N 
ATOM      9  HH  ARG D 557     -26.298  -3.182 -15.128  1.00 35.49     0.174 HD
ATOM     10  HH  ARG D 557     -25.404  -3.884 -14.173  1.00 35.49     0.174 HD
ATOM     11  HH  ARG D 557     -23.515  -1.353 -13.408  1.00 35.49     0.174 HD
ATOM     12  HH  ARG D 557     -23.730  -2.798 -13.133  1.00 35.49     0.174 HD
ATOM     13  HE  ARG D 557     -24.784  -0.249 -14.687  1.00 35.49     0.178 HD
ENDBRANCH   4   5
ENDBRANCH   3   4
ENDBRANCH   2   3
ENDBRANCH   1   2
END_RES ARG D 557
BEGIN_RES GLU D 570
REMARK  3 active torsions:
REMARK  status: ('A' for Active; 'I' for Inactive)
REMARK    5  A    between atoms: CA   and  CB  
REMARK    6  A    between atoms: CB   and  CG  
REMARK    7  A    between atoms: CG   and  CD  
ROOT
ATOM     14  CA  GLU D 570     -18.033  -6.348 -13.375  1.00 32.92     0.160 C 
ENDROOT
BRANCH  14  15
ATOM     15  CB  GLU D 570     -19.500  -6.345 -13.794  1.00 32.92     0.043 C 
BRANCH  15  16
ATOM     16  CG  GLU D 570     -20.450  -5.568 -12.957  1.00 32.92     0.100 C 
BRANCH  16  17
ATOM     17  CD  GLU D 570     -21.676  -5.120 -13.717  1.00 32.92     0.185 C 
ATOM     18  OE1 GLU D 570     -21.612  -5.007 -14.956  1.00 32.92    -0.647 OA
ATOM     19  OE2 GLU D 570     -22.707  -4.864 -13.064  1.00 32.92    -0.647 OA
ENDBRANCH  16  17
ENDBRANCH  15  16
ENDBRANCH  14  15
END_RES GLU D 570
ENDMDL
MODEL 5
REMARK VINA RESULT:      -1.1      8.159      8.233
REMARK  12 active torsions:
REMARK  status: ('A' for Active; 'I' for Inactive)
REMARK    1  A    between atoms: C_2  and  C_3 
REMARK    2  A    between atoms: C_3  and  C_4 
REMARK    3  A    between atoms: C_4  and  C_5 
REMARK    4  A    between atoms: C_5  and  C_6 
REMARK    5  A    between atoms: C_6  and  C_7 
REMARK    6  A    between atoms: C_7  and  C_8 
REMARK    7  A    between atoms: C_8  and  C_9 
REMARK    8  A    between atoms: C_9  and  C_10 
REMARK    9  A    between atoms: C_10  and  C_11 
REMARK   10  A    between atoms: C_11  and  C_12 
REMARK   11  A    between atoms: C_12  and  O_13 
REMARK   12  A    between atoms: O_13  and  S_14 
ROOT
HETATM    1 NA   UNL     2     -27.102 -13.678 -13.090  1.00  0.00     0.000 Na
ENDROOT
TORSDOF 12
BEGIN_RES ARG D 557
REMARK  4 active torsions:
REMARK  status: ('A' for Active; 'I' for Inactive)
REMARK    1  A    between atoms: CA   and  CB  
REMARK    2  A    between atoms: CB   and  CG  
REMARK    3  A    between atoms: CG   and  CD  
REMARK    4  A    between atoms: CD   and  NE  
REMARK       I    between atoms: NE   and  CZ  
REMARK       I    between atoms: CZ   and  NH1 
REMARK       I    between atoms: CZ   and  NH2 
ROOT
ATOM      1  CA  ARG D 557     -26.217   2.705 -17.014  1.00 35.49     0.159 C 
ENDROOT
BRANCH   1   2
ATOM      2  CB  ARG D 557     -26.789   1.319 -17.183  1.00 35.49     0.034 C 
BRANCH   2   3
ATOM      3  CG  ARG D 557     -25.859   0.196 -17.016  1.00 35.49     0.027 C 
BRANCH   3   4
ATOM      4  CD  ARG D 557     -26.258  -0.708 -15.912  1.00 35.49     0.116 C 
BRANCH   4   5
ATOM      5  NE  ARG D 557     -25.194  -0.909 -14.965  1.00 35.49    -0.212 N 
ATOM      6  CZ  ARG D 557     -24.903  -2.042 -14.366  1.00 35.49     0.666 C 
ATOM      7  NH1 ARG D 557     -25.593  -3.149 -14.569  1.00 35.49    -0.235 N 
ATOM      8  NH2 ARG D 557     -23.888  -2.048 -13.551  1.00 35.49    -0.235 N 
ATOM      9  HH  ARG D 557     -26.263  -3.169 -15.103  1.00 35.49     0.174 HD
ATOM     10  HH  ARG D 557     -25.356  -3.859 -14.152  1.00 35.49     0.174 HD
ATOM     11  HH  ARG D 557     -23.456  -1.320 -13.445  1.00 35.49     0.174 HD
ATOM     12  HH  ARG D 557     -23.668  -2.761 -13.149  1.00 35.49     0.174 HD
ATOM     13  HE  ARG D 557     -24.743  -0.231 -14.720  1.00 35.49     0.178 HD
ENDBRANCH   4   5
ENDBRANCH   3   4
ENDBRANCH   2   3
ENDBRANCH   1   2
END_RES ARG D 557
BEGIN_RES GLU D 570
REMARK  3 active torsions:
REMARK  status: ('A' for Active; 'I' for Inactive)
REMARK    5  A    between atoms: CA   and  CB  
REMARK    6  A    between atoms: CB   and  CG  
REMARK    7  A    between atoms: CG   and  CD  
ROOT
ATOM     14  CA  GLU D 570     -18.033  -6.348 -13.375  1.00 32.92     0.160 C 
ENDROOT
BRANCH  14  15
ATOM     15  CB  GLU D 570     -19.500  -6.345 -13.794  1.00 32.92     0.043 C 
BRANCH  15  16
ATOM     16  CG  GLU D 570     -20.444  -5.539 -12.977  1.00 32.92     0.100 C 
BRANCH  16  17
ATOM     17  CD  GLU D 570     -21.677  -5.120 -13.743  1.00 32.92     0.185 C 
ATOM     18  OE1 GLU D 570     -21.604  -4.982 -14.979  1.00 32.92    -0.647 OA
ATOM     19  OE2 GLU D 570     -22.723  -4.911 -13.098  1.00 32.92    -0.647 OA
ENDBRANCH  16  17
ENDBRANCH  15  16
ENDBRANCH  14  15
END_RES GLU D 570
ENDMDL
MODEL 6
REMARK VINA RESULT:      -1.1      8.854      8.901
REMARK  12 active torsions:
REMARK  status: ('A' for Active; 'I' for Inactive)
REMARK    1  A    between atoms: C_2  and  C_3 
REMARK    2  A    between atoms: C_3  and  C_4 
REMARK    3  A    between atoms: C_4  and  C_5 
REMARK    4  A    between atoms: C_5  and  C_6 
REMARK    5  A    between atoms: C_6  and  C_7 
REMARK    6  A    between atoms: C_7  and  C_8 
REMARK    7  A    between atoms: C_8  and  C_9 
REMARK    8  A    between atoms: C_9  and  C_10 
REMARK    9  A    between atoms: C_10  and  C_11 
REMARK   10  A    between atoms: C_11  and  C_12 
REMARK   11  A    between atoms: C_12  and  O_13 
REMARK   12  A    between atoms: O_13  and  S_14 
ROOT
HETATM    1 NA   UNL     2     -32.959 -10.175 -11.245  1.00  0.00     0.000 Na
ENDROOT
TORSDOF 12
BEGIN_RES ARG D 557
REMARK  4 active torsions:
REMARK  status: ('A' for Active; 'I' for Inactive)
REMARK    1  A    between atoms: CA   and  CB  
REMARK    2  A    between atoms: CB   and  CG  
REMARK    3  A    between atoms: CG   and  CD  
REMARK    4  A    between atoms: CD   and  NE  
REMARK       I    between atoms: NE   and  CZ  
REMARK       I    between atoms: CZ   and  NH1 
REMARK       I    between atoms: CZ   and  NH2 
ROOT
ATOM      1  CA  ARG D 557     -26.217   2.705 -17.014  1.00 35.49     0.159 C 
ENDROOT
BRANCH   1   2
ATOM      2  CB  ARG D 557     -26.789   1.319 -17.183  1.00 35.49     0.034 C 
BRANCH   2   3
ATOM      3  CG  ARG D 557     -25.835   0.203 -17.160  1.00 35.49     0.027 C 
BRANCH   3   4
ATOM      4  CD  ARG D 557     -24.752   0.407 -16.171  1.00 35.49     0.116 C 
BRANCH   4   5
ATOM      5  NE  ARG D 557     -24.903  -0.442 -15.019  1.00 35.49    -0.212 N 
ATOM      6  CZ  ARG D 557     -24.091  -1.415 -14.670  1.00 35.49     0.666 C 
ATOM      7  NH1 ARG D 557     -23.021  -1.733 -15.375  1.00 35.49    -0.235 N 
ATOM      8  NH2 ARG D 557     -24.372  -2.069 -13.580  1.00 35.49    -0.235 N 
ATOM      9  HH  ARG D 557     -22.816  -1.314 -16.094  1.00 35.49     0.174 HD
ATOM     10  HH  ARG D 557     -22.526  -2.375 -15.096  1.00 35.49     0.174 HD
ATOM     11  HH  ARG D 557     -25.065  -1.837 -13.141  1.00 35.49     0.174 HD
ATOM     12  HH  ARG D 557     -23.869  -2.700 -13.321  1.00 35.49     0.174 HD
ATOM     13  HE  ARG D 557     -25.606  -0.355 -14.548  1.00 35.49     0.178 HD
ENDBRANCH   4   5
ENDBRANCH   3   4
ENDBRANCH   2   3
ENDBRANCH   1   2
END_RES ARG D 557
BEGIN_RES GLU D 570
REMARK  3 active torsions:
REMARK  status: ('A' for Active; 'I' for Inactive)
REMARK    5  A    between atoms: CA   and  CB  
REMARK    6  A    between atoms: CB   and  CG  
REMARK    7  A    between atoms: CG   and  CD  
ROOT
ATOM     14  CA  GLU D 570     -18.033  -6.348 -13.375  1.00 32.92     0.160 C 
ENDROOT
BRANCH  14  15
ATOM     15  CB  GLU D 570     -19.500  -6.345 -13.794  1.00 32.92     0.043 C 
BRANCH  15  16
ATOM     16  CG  GLU D 570     -20.441  -5.529 -12.985  1.00 32.92     0.100 C 
BRANCH  16  17
ATOM     17  CD  GLU D 570     -21.739  -5.241 -13.703  1.00 32.92     0.185 C 
ATOM     18  OE1 GLU D 570     -22.192  -6.086 -14.498  1.00 32.92    -0.647 OA
ATOM     19  OE2 GLU D 570     -22.301  -4.150 -13.480  1.00 32.92    -0.647 OA
ENDBRANCH  16  17
ENDBRANCH  15  16
ENDBRANCH  14  15
END_RES GLU D 570
ENDMDL
MODEL 7
REMARK VINA RESULT:      -1.1      6.655      6.655
REMARK  12 active torsions:
REMARK  status: ('A' for Active; 'I' for Inactive)
REMARK    1  A    between atoms: C_2  and  C_3 
REMARK    2  A    between atoms: C_3  and  C_4 
REMARK    3  A    between atoms: C_4  and  C_5 
REMARK    4  A    between atoms: C_5  and  C_6 
REMARK    5  A    between atoms: C_6  and  C_7 
REMARK    6  A    between atoms: C_7  and  C_8 
REMARK    7  A    between atoms: C_8  and  C_9 
REMARK    8  A    between atoms: C_9  and  C_10 
REMARK    9  A    between atoms: C_10  and  C_11 
REMARK   10  A    between atoms: C_11  and  C_12 
REMARK   11  A    between atoms: C_12  and  O_13 
REMARK   12  A    between atoms: O_13  and  S_14 
ROOT
HETATM    1 NA   UNL     2     -24.653  -4.781  -5.736  1.00  0.00     0.000 Na
ENDROOT
TORSDOF 12
BEGIN_RES ARG D 557
REMARK  4 active torsions:
REMARK  status: ('A' for Active; 'I' for Inactive)
REMARK    1  A    between atoms: CA   and  CB  
REMARK    2  A    between atoms: CB   and  CG  
REMARK    3  A    between atoms: CG   and  CD  
REMARK    4  A    between atoms: CD   and  NE  
REMARK       I    between atoms: NE   and  CZ  
REMARK       I    between atoms: CZ   and  NH1 
REMARK       I    between atoms: CZ   and  NH2 
ROOT
ATOM      1  CA  ARG D 557     -26.217   2.705 -17.014  1.00 35.49     0.159 C 
ENDROOT
BRANCH   1   2
ATOM      2  CB  ARG D 557     -26.789   1.319 -17.183  1.00 35.49     0.034 C 
BRANCH   2   3
ATOM      3  CG  ARG D 557     -25.836   0.203 -17.157  1.00 35.49     0.027 C 
BRANCH   3   4
ATOM      4  CD  ARG D 557     -24.752   0.409 -16.169  1.00 35.49     0.116 C 
BRANCH   4   5
ATOM      5  NE  ARG D 557     -24.902  -0.439 -15.016  1.00 35.49    -0.212 N 
ATOM      6  CZ  ARG D 557     -24.090  -1.412 -14.667  1.00 35.49     0.666 C 
ATOM      7  NH1 ARG D 557     -23.022  -1.732 -15.374  1.00 35.49    -0.235 N 
ATOM      8  NH2 ARG D 557     -24.369  -2.064 -13.576  1.00 35.49    -0.235 N 
ATOM      9  HH  ARG D 557     -22.818  -1.314 -16.094  1.00 35.49     0.174 HD
ATOM     10  HH  ARG D 557     -22.528  -2.374 -15.097  1.00 35.49     0.174 HD
ATOM     11  HH  ARG D 557     -25.061  -1.831 -13.136  1.00 35.49     0.174 HD
ATOM     12  HH  ARG D 557     -23.867  -2.696 -13.317  1.00 35.49     0.174 HD
ATOM     13  HE  ARG D 557     -25.603  -0.350 -14.543  1.00 35.49     0.178 HD
ENDBRANCH   4   5
ENDBRANCH   3   4
ENDBRANCH   2   3
ENDBRANCH   1   2
END_RES ARG D 557
BEGIN_RES GLU D 570
REMARK  3 active torsions:
REMARK  status: ('A' for Active; 'I' for Inactive)
REMARK    5  A    between atoms: CA   and  CB  
REMARK    6  A    between atoms: CB   and  CG  
REMARK    7  A    between atoms: CG   and  CD  
ROOT
ATOM     14  CA  GLU D 570     -18.033  -6.348 -13.375  1.00 32.92     0.160 C 
ENDROOT
BRANCH  14  15
ATOM     15  CB  GLU D 570     -19.500  -6.345 -13.794  1.00 32.92     0.043 C 
BRANCH  15  16
ATOM     16  CG  GLU D 570     -20.444  -5.540 -12.976  1.00 32.92     0.100 C 
BRANCH  16  17
ATOM     17  CD  GLU D 570     -21.742  -5.247 -13.692  1.00 32.92     0.185 C 
ATOM     18  OE1 GLU D 570     -22.290  -4.141 -13.521  1.00 32.92    -0.647 OA
ATOM     19  OE2 GLU D 570     -22.224  -6.139 -14.418  1.00 32.92    -0.647 OA
ENDBRANCH  16  17
ENDBRANCH  15  16
ENDBRANCH  14  15
END_RES GLU D 570
ENDMDL
MODEL 8
REMARK VINA RESULT:      -1.1     10.961     11.124
REMARK  12 active torsions:
REMARK  status: ('A' for Active; 'I' for Inactive)
REMARK    1  A    between atoms: C_2  and  C_3 
REMARK    2  A    between atoms: C_3  and  C_4 
REMARK    3  A    between atoms: C_4  and  C_5 
REMARK    4  A    between atoms: C_5  and  C_6 
REMARK    5  A    between atoms: C_6  and  C_7 
REMARK    6  A    between atoms: C_7  and  C_8 
REMARK    7  A    between atoms: C_8  and  C_9 
REMARK    8  A    between atoms: C_9  and  C_10 
REMARK    9  A    between atoms: C_10  and  C_11 
REMARK   10  A    between atoms: C_11  and  C_12 
REMARK   11  A    between atoms: C_12  and  O_13 
REMARK   12  A    between atoms: O_13  and  S_14 
ROOT
HETATM    1 NA   UNL     2     -32.379  -8.539   4.518  1.00  0.00     0.000 Na
ENDROOT
TORSDOF 12
BEGIN_RES ARG D 557
REMARK  4 active torsions:
REMARK  status: ('A' for Active; 'I' for Inactive)
REMARK    1  A    between atoms: CA   and  CB  
REMARK    2  A    between atoms: CB   and  CG  
REMARK    3  A    between atoms: CG   and  CD  
REMARK    4  A    between atoms: CD   and  NE  
REMARK       I    between atoms: NE   and  CZ  
REMARK       I    between atoms: CZ   and  NH1 
REMARK       I    between atoms: CZ   and  NH2 
ROOT
ATOM      1  CA  ARG D 557     -26.217   2.705 -17.014  1.00 35.49     0.159 C 
ENDROOT
BRANCH   1   2
ATOM      2  CB  ARG D 557     -26.789   1.319 -17.183  1.00 35.49     0.034 C 
BRANCH   2   3
ATOM      3  CG  ARG D 557     -28.234   1.225 -17.422  1.00 35.49     0.027 C 
BRANCH   3   4
ATOM      4  CD  ARG D 557     -28.901   0.291 -16.487  1.00 35.49     0.116 C 
BRANCH   4   5
ATOM      5  NE  ARG D 557     -29.293  -0.935 -17.132  1.00 35.49    -0.212 N 
ATOM      6  CZ  ARG D 557     -28.672  -2.088 -17.031  1.00 35.49     0.666 C 
ATOM      7  NH1 ARG D 557     -27.576  -2.243 -16.311  1.00 35.49    -0.235 N 
ATOM      8  NH2 ARG D 557     -29.180  -3.102 -17.669  1.00 35.49    -0.235 N 
ATOM      9  HH  ARG D 557     -27.225  -1.590 -15.881  1.00 35.49     0.174 HD
ATOM     10  HH  ARG D 557     -27.215  -3.020 -16.280  1.00 35.49     0.174 HD
ATOM     11  HH  ARG D 557     -29.893  -2.974 -18.120  1.00 35.49     0.174 HD
ATOM     12  HH  ARG D 557     -28.810  -3.863 -17.625  1.00 35.49     0.174 HD
ATOM     13  HE  ARG D 557     -29.948  -0.909 -17.674  1.00 35.49     0.178 HD
ENDBRANCH   4   5
ENDBRANCH   3   4
ENDBRANCH   2   3
ENDBRANCH   1   2
END_RES ARG D 557
BEGIN_RES GLU D 570
REMARK  3 active torsions:
REMARK  status: ('A' for Active; 'I' for Inactive)
REMARK    5  A    between atoms: CA   and  CB  
REMARK    6  A    between atoms: CB   and  CG  
REMARK    7  A    between atoms: CG   and  CD  
ROOT
ATOM     14  CA  GLU D 570     -18.033  -6.348 -13.375  1.00 32.92     0.160 C 
ENDROOT
BRANCH  14  15
ATOM     15  CB  GLU D 570     -19.500  -6.345 -13.794  1.00 32.92     0.043 C 
BRANCH  15  16
ATOM     16  CG  GLU D 570     -20.441  -5.527 -12.986  1.00 32.92     0.100 C 
BRANCH  16  17
ATOM     17  CD  GLU D 570     -21.708  -5.178 -13.731  1.00 32.92     0.185 C 
ATOM     18  OE1 GLU D 570     -22.783  -5.122 -13.104  1.00 32.92    -0.647 OA
ATOM     19  OE2 GLU D 570     -21.627  -4.974 -14.958  1.00 32.92    -0.647 OA
ENDBRANCH  16  17
ENDBRANCH  15  16
ENDBRANCH  14  15
END_RES GLU D 570
ENDMDL
MODEL 9
REMARK VINA RESULT:      -1.1      4.913      4.913
REMARK  12 active torsions:
REMARK  status: ('A' for Active; 'I' for Inactive)
REMARK    1  A    between atoms: C_2  and  C_3 
REMARK    2  A    between atoms: C_3  and  C_4 
REMARK    3  A    between atoms: C_4  and  C_5 
REMARK    4  A    between atoms: C_5  and  C_6 
REMARK    5  A    between atoms: C_6  and  C_7 
REMARK    6  A    between atoms: C_7  and  C_8 
REMARK    7  A    between atoms: C_8  and  C_9 
REMARK    8  A    between atoms: C_9  and  C_10 
REMARK    9  A    between atoms: C_10  and  C_11 
REMARK   10  A    between atoms: C_11  and  C_12 
REMARK   11  A    between atoms: C_12  and  O_13 
REMARK   12  A    between atoms: O_13  and  S_14 
ROOT
HETATM    1 NA   UNL     2      -9.609   0.787  -1.742  1.00  0.00     0.000 Na
ENDROOT
TORSDOF 12
BEGIN_RES ARG D 557
REMARK  4 active torsions:
REMARK  status: ('A' for Active; 'I' for Inactive)
REMARK    1  A    between atoms: CA   and  CB  
REMARK    2  A    between atoms: CB   and  CG  
REMARK    3  A    between atoms: CG   and  CD  
REMARK    4  A    between atoms: CD   and  NE  
REMARK       I    between atoms: NE   and  CZ  
REMARK       I    between atoms: CZ   and  NH1 
REMARK       I    between atoms: CZ   and  NH2 
ROOT
ATOM      1  CA  ARG D 557     -26.217   2.705 -17.014  1.00 35.49     0.159 C 
ENDROOT
BRANCH   1   2
ATOM      2  CB  ARG D 557     -26.789   1.319 -17.183  1.00 35.49     0.034 C 
BRANCH   2   3
ATOM      3  CG  ARG D 557     -25.835   0.204 -17.165  1.00 35.49     0.027 C 
BRANCH   3   4
ATOM      4  CD  ARG D 557     -24.747   0.407 -16.181  1.00 35.49     0.116 C 
BRANCH   4   5
ATOM      5  NE  ARG D 557     -24.897  -0.435 -15.024  1.00 35.49    -0.212 N 
ATOM      6  CZ  ARG D 557     -24.085  -1.406 -14.670  1.00 35.49     0.666 C 
ATOM      7  NH1 ARG D 557     -23.016  -1.728 -15.374  1.00 35.49    -0.235 N 
ATOM      8  NH2 ARG D 557     -24.365  -2.054 -13.577  1.00 35.49    -0.235 N 
ATOM      9  HH  ARG D 557     -22.811  -1.313 -16.096  1.00 35.49     0.174 HD
ATOM     10  HH  ARG D 557     -22.521  -2.369 -15.093  1.00 35.49     0.174 HD
ATOM     11  HH  ARG D 557     -25.058  -1.819 -13.139  1.00 35.49     0.174 HD
ATOM     12  HH  ARG D 557     -23.862  -2.684 -13.314  1.00 35.49     0.174 HD
ATOM     13  HE  ARG D 557     -25.600  -0.345 -14.553  1.00 35.49     0.178 HD
ENDBRANCH   4   5
ENDBRANCH   3   4
ENDBRANCH   2   3
ENDBRANCH   1   2
END_RES ARG D 557
BEGIN_RES GLU D 570
REMARK  3 active torsions:
REMARK  status: ('A' for Active; 'I' for Inactive)
REMARK    5  A    between atoms: CA   and  CB  
REMARK    6  A    between atoms: CB   and  CG  
REMARK    7  A    between atoms: CG   and  CD  
ROOT
ATOM     14  CA  GLU D 570     -18.033  -6.348 -13.375  1.00 32.92     0.160 C 
ENDROOT
BRANCH  14  15
ATOM     15  CB  GLU D 570     -19.500  -6.345 -13.794  1.00 32.92     0.043 C 
BRANCH  15  16
ATOM     16  CG  GLU D 570     -20.441  -5.529 -12.984  1.00 32.92     0.100 C 
BRANCH  16  17
ATOM     17  CD  GLU D 570     -21.738  -5.238 -13.704  1.00 32.92     0.185 C 
ATOM     18  OE1 GLU D 570     -22.314  -4.153 -13.498  1.00 32.92    -0.647 OA
ATOM     19  OE2 GLU D 570     -22.191  -6.113 -14.468  1.00 32.92    -0.647 OA
ENDBRANCH  16  17
ENDBRANCH  15  16
ENDBRANCH  14  15
END_RES GLU D 570
ENDMDL
