MODEL 1
REMARK VINA RESULT:      -6.8      0.000      0.000
REMARK  8 active torsions:
REMARK  status: ('A' for Active; 'I' for Inactive)
REMARK    1  A    between atoms: C_3  and  O_23 
REMARK    2  A    between atoms: C_5  and  O_10 
REMARK    3  A    between atoms: O_10  and  C_11 
REMARK    4  A    between atoms: C_12  and  O_22 
REMARK    5  A    between atoms: C_13  and  O_20 
REMARK    6  A    between atoms: C_14  and  O_19 
REMARK    7  A    between atoms: C_15  and  C_17 
REMARK    8  A    between atoms: C_17  and  O_18 
ROOT
HETATM    1  C   UNL     1     -24.720  -6.299 -15.188  1.00  0.00     0.292 C 
HETATM    2  C   UNL     1     -24.507  -6.983 -16.554  1.00  0.00     0.204 C 
HETATM    3  C   UNL     1     -25.297  -6.174 -17.603  1.00  0.00     0.185 C 
HETATM    4  C   UNL     1     -26.792  -6.159 -17.203  1.00  0.00     0.180 C 
HETATM    5  C   UNL     1     -26.927  -5.549 -15.789  1.00  0.00     0.179 C 
HETATM    6  O   UNL     1     -26.122  -6.285 -14.847  1.00  0.00    -0.348 OA
ENDROOT
BRANCH   1   7
HETATM    7  O   UNL     1     -24.186  -4.962 -15.160  1.00  0.00    -0.348 OA
BRANCH   7   8
HETATM    8  C   UNL     1     -23.916  -4.456 -13.843  1.00  0.00     0.187 C 
HETATM    9  C   UNL     1     -22.636  -3.591 -13.782  1.00  0.00     0.184 C 
HETATM   10  C   UNL     1     -22.360  -3.071 -12.332  1.00  0.00     0.178 C 
HETATM   11  O   UNL     1     -22.994  -2.424 -14.557  1.00  0.00    -0.378 OA
HETATM   12  C   UNL     1     -23.531  -3.469 -11.411  1.00  0.00     0.149 C 
HETATM   13  C   UNL     1     -23.463  -2.887 -10.011  1.00  0.00     0.042 C 
HETATM   14  O   UNL     1     -24.784  -3.090 -12.009  1.00  0.00    -0.373 OA
HETATM   15  C   UNL     1     -24.891  -3.368 -13.426  1.00  0.00     0.177 C 
HETATM   16  C   UNL     1     -24.400  -2.192 -14.281  1.00  0.00     0.203 C 
BRANCH  10  17
HETATM   17  O   UNL     1     -21.089  -3.507 -11.850  1.00  0.00    -0.390 OA
HETATM   18  H   UNL     1     -20.593  -2.757 -11.491  1.00  0.00     0.210 HD
ENDBRANCH  10  17
ENDBRANCH   7   8
ENDBRANCH   1   7
BRANCH   2  19
HETATM   19  O   UNL     1     -24.885  -8.366 -16.497  1.00  0.00    -0.388 OA
HETATM   20  H   UNL     1     -25.826  -8.390 -16.220  1.00  0.00     0.210 HD
ENDBRANCH   2  19
BRANCH   3  21
HETATM   21  O   UNL     1     -25.148  -6.694 -18.935  1.00  0.00    -0.385 OA
HETATM   22  C   UNL     1     -23.813  -7.076 -19.245  1.00  0.00     0.202 C 
ENDBRANCH   3  21
BRANCH   5  23
HETATM   23  C   UNL     1     -28.381  -5.565 -15.287  1.00  0.00     0.198 C 
BRANCH  23  24
HETATM   24  O   UNL     1     -29.288  -5.705 -16.379  1.00  0.00    -0.398 OA
HETATM   25  H   UNL     1     -29.335  -4.824 -16.802  1.00  0.00     0.209 HD
ENDBRANCH  23  24
ENDBRANCH   5  23
BRANCH   4  26
HETATM   26  O   UNL     1     -27.294  -7.512 -17.260  1.00  0.00    -0.390 OA
HETATM   27  H   UNL     1     -27.937  -7.654 -16.543  1.00  0.00     0.210 HD
ENDBRANCH   4  26
TORSDOF 8
BEGIN_RES ARG D 557
REMARK  4 active torsions:
REMARK  status: ('A' for Active; 'I' for Inactive)
REMARK    1  A    between atoms: CA   and  CB  
REMARK    2  A    between atoms: CB   and  CG  
REMARK    3  A    between atoms: CG   and  CD  
REMARK    4  A    between atoms: CD   and  NE  
REMARK       I    between atoms: NE   and  CZ  
REMARK       I    between atoms: CZ   and  NH1 
REMARK       I    between atoms: CZ   and  NH2 
ROOT
ATOM      1  CA  ARG D 557     -26.217   2.705 -17.014  1.00 35.49     0.159 C 
ENDROOT
BRANCH   1   2
ATOM      2  CB  ARG D 557     -26.789   1.319 -17.183  1.00 35.49     0.034 C 
BRANCH   2   3
ATOM      3  CG  ARG D 557     -28.224   1.228 -17.476  1.00 35.49     0.027 C 
BRANCH   3   4
ATOM      4  CD  ARG D 557     -28.937   0.334 -16.535  1.00 35.49     0.116 C 
BRANCH   4   5
ATOM      5  NE  ARG D 557     -29.320  -0.909 -17.153  1.00 35.49    -0.212 N 
ATOM      6  CZ  ARG D 557     -28.676  -2.049 -17.047  1.00 35.49     0.666 C 
ATOM      7  NH1 ARG D 557     -27.563  -2.173 -16.349  1.00 35.49    -0.235 N 
ATOM      8  NH2 ARG D 557     -29.180  -3.082 -17.658  1.00 35.49    -0.235 N 
ATOM      9  HH  ARG D 557     -27.214  -1.507 -15.937  1.00 35.49     0.174 HD
ATOM     10  HH  ARG D 557     -27.188  -2.943 -16.313  1.00 35.49     0.174 HD
ATOM     11  HH  ARG D 557     -29.904  -2.974 -18.095  1.00 35.49     0.174 HD
ATOM     12  HH  ARG D 557     -28.795  -3.836 -17.610  1.00 35.49     0.174 HD
ATOM     13  HE  ARG D 557     -29.987  -0.903 -17.681  1.00 35.49     0.178 HD
ENDBRANCH   4   5
ENDBRANCH   3   4
ENDBRANCH   2   3
ENDBRANCH   1   2
END_RES ARG D 557
BEGIN_RES GLU D 570
REMARK  3 active torsions:
REMARK  status: ('A' for Active; 'I' for Inactive)
REMARK    5  A    between atoms: CA   and  CB  
REMARK    6  A    between atoms: CB   and  CG  
REMARK    7  A    between atoms: CG   and  CD  
ROOT
ATOM     14  CA  GLU D 570     -18.033  -6.348 -13.375  1.00 32.92     0.160 C 
ENDROOT
BRANCH  14  15
ATOM     15  CB  GLU D 570     -19.500  -6.345 -13.794  1.00 32.92     0.043 C 
BRANCH  15  16
ATOM     16  CG  GLU D 570     -20.077  -7.627 -14.275  1.00 32.92     0.100 C 
BRANCH  16  17
ATOM     17  CD  GLU D 570     -20.885  -7.471 -15.542  1.00 32.92     0.185 C 
ATOM     18  OE1 GLU D 570     -21.296  -8.492 -16.127  1.00 32.92    -0.647 OA
ATOM     19  OE2 GLU D 570     -21.095  -6.317 -15.963  1.00 32.92    -0.647 OA
ENDBRANCH  16  17
ENDBRANCH  15  16
ENDBRANCH  14  15
END_RES GLU D 570
ENDMDL
MODEL 2
REMARK VINA RESULT:      -6.7      6.803     10.366
REMARK  8 active torsions:
REMARK  status: ('A' for Active; 'I' for Inactive)
REMARK    1  A    between atoms: C_3  and  O_23 
REMARK    2  A    between atoms: C_5  and  O_10 
REMARK    3  A    between atoms: O_10  and  C_11 
REMARK    4  A    between atoms: C_12  and  O_22 
REMARK    5  A    between atoms: C_13  and  O_20 
REMARK    6  A    between atoms: C_14  and  O_19 
REMARK    7  A    between atoms: C_15  and  C_17 
REMARK    8  A    between atoms: C_17  and  O_18 
ROOT
HETATM    1  C   UNL     1     -20.735  -8.464  -5.524  1.00  0.00     0.292 C 
HETATM    2  C   UNL     1     -21.477  -8.429  -4.173  1.00  0.00     0.204 C 
HETATM    3  C   UNL     1     -20.428  -8.148  -3.078  1.00  0.00     0.185 C 
HETATM    4  C   UNL     1     -19.358  -9.265  -3.108  1.00  0.00     0.180 C 
HETATM    5  C   UNL     1     -18.719  -9.308  -4.515  1.00  0.00     0.179 C 
HETATM    6  O   UNL     1     -19.733  -9.503  -5.521  1.00  0.00    -0.348 OA
ENDROOT
BRANCH   1   7
HETATM    7  O   UNL     1     -20.136  -7.195  -5.848  1.00  0.00    -0.348 OA
BRANCH   7   8
HETATM    8  C   UNL     1     -20.877  -6.411  -6.796  1.00  0.00     0.187 C 
HETATM    9  C   UNL     1     -21.613  -5.217  -6.146  1.00  0.00     0.184 C 
HETATM   10  C   UNL     1     -22.424  -4.395  -7.202  1.00  0.00     0.178 C 
HETATM   11  O   UNL     1     -20.529  -4.356  -5.727  1.00  0.00    -0.378 OA
HETATM   12  C   UNL     1     -22.140  -4.946  -8.613  1.00  0.00     0.149 C 
HETATM   13  C   UNL     1     -22.743  -4.136  -9.745  1.00  0.00     0.042 C 
HETATM   14  O   UNL     1     -20.721  -5.056  -8.827  1.00  0.00    -0.373 OA
HETATM   15  C   UNL     1     -19.976  -5.595  -7.708  1.00  0.00     0.177 C 
HETATM   16  C   UNL     1     -19.507  -4.494  -6.747  1.00  0.00     0.203 C 
BRANCH  10  17
HETATM   17  O   UNL     1     -23.815  -4.355  -6.880  1.00  0.00    -0.390 OA
HETATM   18  H   UNL     1     -23.938  -4.053  -5.968  1.00  0.00     0.210 HD
ENDBRANCH  10  17
ENDBRANCH   7   8
ENDBRANCH   1   7
BRANCH   2  19
HETATM   19  O   UNL     1     -22.210  -9.644  -3.961  1.00  0.00    -0.388 OA
HETATM   20  H   UNL     1     -23.124  -9.384  -3.717  1.00  0.00     0.210 HD
ENDBRANCH   2  19
BRANCH   3  21
HETATM   21  O   UNL     1     -21.006  -8.054  -1.764  1.00  0.00    -0.385 OA
HETATM   22  C   UNL     1     -21.922  -6.974  -1.626  1.00  0.00     0.202 C 
ENDBRANCH   3  21
BRANCH   5  23
HETATM   23  C   UNL     1     -17.691 -10.444  -4.651  1.00  0.00     0.198 C 
BRANCH  23  24
HETATM   24  O   UNL     1     -17.136 -10.774  -3.379  1.00  0.00    -0.398 OA
HETATM   25  H   UNL     1     -16.296 -11.239  -3.567  1.00  0.00     0.209 HD
ENDBRANCH  23  24
ENDBRANCH   5  23
BRANCH   4  26
HETATM   26  O   UNL     1     -19.992 -10.515  -2.763  1.00  0.00    -0.390 OA
HETATM   27  H   UNL     1     -19.590 -11.240  -3.274  1.00  0.00     0.210 HD
ENDBRANCH   4  26
TORSDOF 8
BEGIN_RES ARG D 557
REMARK  4 active torsions:
REMARK  status: ('A' for Active; 'I' for Inactive)
REMARK    1  A    between atoms: CA   and  CB  
REMARK    2  A    between atoms: CB   and  CG  
REMARK    3  A    between atoms: CG   and  CD  
REMARK    4  A    between atoms: CD   and  NE  
REMARK       I    between atoms: NE   and  CZ  
REMARK       I    between atoms: CZ   and  NH1 
REMARK       I    between atoms: CZ   and  NH2 
ROOT
ATOM      1  CA  ARG D 557     -26.217   2.705 -17.014  1.00 35.49     0.159 C 
ENDROOT
BRANCH   1   2
ATOM      2  CB  ARG D 557     -26.789   1.319 -17.183  1.00 35.49     0.034 C 
BRANCH   2   3
ATOM      3  CG  ARG D 557     -25.836   0.203 -17.155  1.00 35.49     0.027 C 
BRANCH   3   4
ATOM      4  CD  ARG D 557     -24.753   0.411 -16.167  1.00 35.49     0.116 C 
BRANCH   4   5
ATOM      5  NE  ARG D 557     -24.899  -0.440 -15.015  1.00 35.49    -0.212 N 
ATOM      6  CZ  ARG D 557     -24.083  -1.409 -14.667  1.00 35.49     0.666 C 
ATOM      7  NH1 ARG D 557     -23.012  -1.722 -15.373  1.00 35.49    -0.235 N 
ATOM      8  NH2 ARG D 557     -24.360  -2.065 -13.577  1.00 35.49    -0.235 N 
ATOM      9  HH  ARG D 557     -22.810  -1.302 -16.092  1.00 35.49     0.174 HD
ATOM     10  HH  ARG D 557     -22.515  -2.362 -15.095  1.00 35.49     0.174 HD
ATOM     11  HH  ARG D 557     -25.054  -1.836 -13.137  1.00 35.49     0.174 HD
ATOM     12  HH  ARG D 557     -23.854  -2.694 -13.318  1.00 35.49     0.174 HD
ATOM     13  HE  ARG D 557     -25.602  -0.355 -14.543  1.00 35.49     0.178 HD
ENDBRANCH   4   5
ENDBRANCH   3   4
ENDBRANCH   2   3
ENDBRANCH   1   2
END_RES ARG D 557
BEGIN_RES GLU D 570
REMARK  3 active torsions:
REMARK  status: ('A' for Active; 'I' for Inactive)
REMARK    5  A    between atoms: CA   and  CB  
REMARK    6  A    between atoms: CB   and  CG  
REMARK    7  A    between atoms: CG   and  CD  
ROOT
ATOM     14  CA  GLU D 570     -18.033  -6.348 -13.375  1.00 32.92     0.160 C 
ENDROOT
BRANCH  14  15
ATOM     15  CB  GLU D 570     -19.500  -6.345 -13.794  1.00 32.92     0.043 C 
BRANCH  15  16
ATOM     16  CG  GLU D 570     -20.446  -5.551 -12.968  1.00 32.92     0.100 C 
BRANCH  16  17
ATOM     17  CD  GLU D 570     -21.744  -5.252 -13.682  1.00 32.92     0.185 C 
ATOM     18  OE1 GLU D 570     -22.309  -4.161 -13.477  1.00 32.92    -0.647 OA
ATOM     19  OE2 GLU D 570     -22.208  -6.124 -14.442  1.00 32.92    -0.647 OA
ENDBRANCH  16  17
ENDBRANCH  15  16
ENDBRANCH  14  15
END_RES GLU D 570
ENDMDL
MODEL 3
REMARK VINA RESULT:      -6.2      6.766     10.282
REMARK  8 active torsions:
REMARK  status: ('A' for Active; 'I' for Inactive)
REMARK    1  A    between atoms: C_3  and  O_23 
REMARK    2  A    between atoms: C_5  and  O_10 
REMARK    3  A    between atoms: O_10  and  C_11 
REMARK    4  A    between atoms: C_12  and  O_22 
REMARK    5  A    between atoms: C_13  and  O_20 
REMARK    6  A    between atoms: C_14  and  O_19 
REMARK    7  A    between atoms: C_15  and  C_17 
REMARK    8  A    between atoms: C_17  and  O_18 
ROOT
HETATM    1  C   UNL     1     -20.646  -8.457  -5.269  1.00  0.00     0.292 C 
HETATM    2  C   UNL     1     -21.529  -8.386  -4.006  1.00  0.00     0.204 C 
HETATM    3  C   UNL     1     -20.615  -7.994  -2.827  1.00  0.00     0.185 C 
HETATM    4  C   UNL     1     -19.501  -9.058  -2.680  1.00  0.00     0.180 C 
HETATM    5  C   UNL     1     -18.715  -9.147  -4.008  1.00  0.00     0.179 C 
HETATM    6  O   UNL     1     -19.607  -9.445  -5.100  1.00  0.00    -0.348 OA
ENDROOT
BRANCH   1   7
HETATM    7  O   UNL     1     -20.071  -7.181  -5.604  1.00  0.00    -0.348 OA
BRANCH   7   8
HETATM    8  C   UNL     1     -20.802  -6.438  -6.592  1.00  0.00     0.187 C 
HETATM    9  C   UNL     1     -21.550  -5.221  -5.998  1.00  0.00     0.184 C 
HETATM   10  C   UNL     1     -22.351  -4.445  -7.096  1.00  0.00     0.178 C 
HETATM   11  O   UNL     1     -20.474  -4.340  -5.601  1.00  0.00    -0.378 OA
HETATM   12  C   UNL     1     -22.048  -5.051  -8.481  1.00  0.00     0.149 C 
HETATM   13  C   UNL     1     -22.639  -4.289  -9.652  1.00  0.00     0.042 C 
HETATM   14  O   UNL     1     -20.626  -5.164  -8.672  1.00  0.00    -0.373 OA
HETATM   15  C   UNL     1     -19.893  -5.655  -7.524  1.00  0.00     0.177 C 
HETATM   16  C   UNL     1     -19.439  -4.516  -6.602  1.00  0.00     0.203 C 
BRANCH  10  17
HETATM   17  O   UNL     1     -23.745  -4.397  -6.793  1.00  0.00    -0.390 OA
HETATM   18  H   UNL     1     -23.894  -4.640  -5.867  1.00  0.00     0.210 HD
ENDBRANCH  10  17
ENDBRANCH   7   8
ENDBRANCH   1   7
BRANCH   2  19
HETATM   19  O   UNL     1     -22.227  -9.621  -3.800  1.00  0.00    -0.388 OA
HETATM   20  H   UNL     1     -22.453  -9.663  -2.846  1.00  0.00     0.210 HD
ENDBRANCH   2  19
BRANCH   3  21
HETATM   21  O   UNL     1     -21.332  -7.858  -1.588  1.00  0.00    -0.385 OA
HETATM   22  C   UNL     1     -22.173  -6.710  -1.547  1.00  0.00     0.202 C 
ENDBRANCH   3  21
BRANCH   5  23
HETATM   23  C   UNL     1     -17.631 -10.238  -3.969  1.00  0.00     0.198 C 
BRANCH  23  24
HETATM   24  O   UNL     1     -18.198 -11.519  -4.234  1.00  0.00    -0.398 OA
HETATM   25  H   UNL     1     -19.090 -11.348  -4.595  1.00  0.00     0.209 HD
ENDBRANCH  23  24
ENDBRANCH   5  23
BRANCH   4  26
HETATM   26  O   UNL     1     -20.115 -10.317  -2.329  1.00  0.00    -0.390 OA
HETATM   27  H   UNL     1     -20.987 -10.156  -1.927  1.00  0.00     0.210 HD
ENDBRANCH   4  26
TORSDOF 8
BEGIN_RES ARG D 557
REMARK  4 active torsions:
REMARK  status: ('A' for Active; 'I' for Inactive)
REMARK    1  A    between atoms: CA   and  CB  
REMARK    2  A    between atoms: CB   and  CG  
REMARK    3  A    between atoms: CG   and  CD  
REMARK    4  A    between atoms: CD   and  NE  
REMARK       I    between atoms: NE   and  CZ  
REMARK       I    between atoms: CZ   and  NH1 
REMARK       I    between atoms: CZ   and  NH2 
ROOT
ATOM      1  CA  ARG D 557     -26.217   2.705 -17.014  1.00 35.49     0.159 C 
ENDROOT
BRANCH   1   2
ATOM      2  CB  ARG D 557     -26.789   1.319 -17.183  1.00 35.49     0.034 C 
BRANCH   2   3
ATOM      3  CG  ARG D 557     -28.230   1.166 -16.950  1.00 35.49     0.027 C 
BRANCH   3   4
ATOM      4  CD  ARG D 557     -28.618  -0.244 -16.719  1.00 35.49     0.116 C 
BRANCH   4   5
ATOM      5  NE  ARG D 557     -27.602  -0.977 -16.010  1.00 35.49    -0.212 N 
ATOM      6  CZ  ARG D 557     -27.405  -2.275 -16.075  1.00 35.49     0.666 C 
ATOM      7  NH1 ARG D 557     -28.157  -3.070 -16.812  1.00 35.49    -0.235 N 
ATOM      8  NH2 ARG D 557     -26.421  -2.768 -15.380  1.00 35.49    -0.235 N 
ATOM      9  HH  ARG D 557     -28.808  -2.767 -17.279  1.00 35.49     0.174 HD
ATOM     10  HH  ARG D 557     -27.980  -3.909 -16.817  1.00 35.49     0.174 HD
ATOM     11  HH  ARG D 557     -25.948  -2.229 -14.918  1.00 35.49     0.174 HD
ATOM     12  HH  ARG D 557     -26.261  -3.600 -15.399  1.00 35.49     0.174 HD
ATOM     13  HE  ARG D 557     -27.118  -0.552 -15.455  1.00 35.49     0.178 HD
ENDBRANCH   4   5
ENDBRANCH   3   4
ENDBRANCH   2   3
ENDBRANCH   1   2
END_RES ARG D 557
BEGIN_RES GLU D 570
REMARK  3 active torsions:
REMARK  status: ('A' for Active; 'I' for Inactive)
REMARK    5  A    between atoms: CA   and  CB  
REMARK    6  A    between atoms: CB   and  CG  
REMARK    7  A    between atoms: CG   and  CD  
ROOT
ATOM     14  CA  GLU D 570     -18.033  -6.348 -13.375  1.00 32.92     0.160 C 
ENDROOT
BRANCH  14  15
ATOM     15  CB  GLU D 570     -19.500  -6.345 -13.794  1.00 32.92     0.043 C 
BRANCH  15  16
ATOM     16  CG  GLU D 570     -20.447  -5.556 -12.965  1.00 32.92     0.100 C 
BRANCH  16  17
ATOM     17  CD  GLU D 570     -21.700  -5.163 -13.713  1.00 32.92     0.185 C 
ATOM     18  OE1 GLU D 570     -22.769  -5.047 -13.084  1.00 32.92    -0.647 OA
ATOM     19  OE2 GLU D 570     -21.614  -4.987 -14.945  1.00 32.92    -0.647 OA
ENDBRANCH  16  17
ENDBRANCH  15  16
ENDBRANCH  14  15
END_RES GLU D 570
ENDMDL
MODEL 4
REMARK VINA RESULT:      -5.8      8.995     11.972
REMARK  8 active torsions:
REMARK  status: ('A' for Active; 'I' for Inactive)
REMARK    1  A    between atoms: C_3  and  O_23 
REMARK    2  A    between atoms: C_5  and  O_10 
REMARK    3  A    between atoms: O_10  and  C_11 
REMARK    4  A    between atoms: C_12  and  O_22 
REMARK    5  A    between atoms: C_13  and  O_20 
REMARK    6  A    between atoms: C_14  and  O_19 
REMARK    7  A    between atoms: C_15  and  C_17 
REMARK    8  A    between atoms: C_17  and  O_18 
ROOT
HETATM    1  C   UNL     1     -19.847  -9.324  -3.840  1.00  0.00     0.292 C 
HETATM    2  C   UNL     1     -20.117  -8.828  -5.275  1.00  0.00     0.204 C 
HETATM    3  C   UNL     1     -20.096  -7.286  -5.241  1.00  0.00     0.185 C 
HETATM    4  C   UNL     1     -21.182  -6.790  -4.256  1.00  0.00     0.180 C 
HETATM    5  C   UNL     1     -20.908  -7.397  -2.861  1.00  0.00     0.179 C 
HETATM    6  O   UNL     1     -20.864  -8.836  -2.940  1.00  0.00    -0.348 OA
ENDROOT
BRANCH   1   7
HETATM    7  O   UNL     1     -18.541  -8.944  -3.369  1.00  0.00    -0.348 OA
BRANCH   7   8
HETATM    8  C   UNL     1     -17.800 -10.003  -2.745  1.00  0.00     0.187 C 
HETATM    9  C   UNL     1     -17.762 -11.294  -3.595  1.00  0.00     0.184 C 
HETATM   10  C   UNL     1     -16.963 -12.434  -2.879  1.00  0.00     0.178 C 
HETATM   11  O   UNL     1     -16.959 -10.909  -4.735  1.00  0.00    -0.378 OA
HETATM   12  C   UNL     1     -16.332 -11.885  -1.584  1.00  0.00     0.149 C 
HETATM   13  C   UNL     1     -15.399 -12.848  -0.874  1.00  0.00     0.042 C 
HETATM   14  O   UNL     1     -15.619 -10.665  -1.857  1.00  0.00    -0.373 OA
HETATM   15  C   UNL     1     -16.302  -9.744  -2.740  1.00  0.00     0.177 C 
HETATM   16  C   UNL     1     -15.958  -9.997  -4.214  1.00  0.00     0.203 C 
BRANCH  10  17
HETATM   17  O   UNL     1     -17.775 -13.589  -2.666  1.00  0.00    -0.390 OA
HETATM   18  H   UNL     1     -18.143 -13.897  -3.507  1.00  0.00     0.210 HD
ENDBRANCH  10  17
ENDBRANCH   7   8
ENDBRANCH   1   7
BRANCH   2  19
HETATM   19  O   UNL     1     -21.345  -9.370  -5.780  1.00  0.00    -0.388 OA
HETATM   20  H   UNL     1     -21.103 -10.124  -6.361  1.00  0.00     0.210 HD
ENDBRANCH   2  19
BRANCH   3  21
HETATM   21  O   UNL     1     -20.301  -6.698  -6.537  1.00  0.00    -0.385 OA
HETATM   22  C   UNL     1     -19.988  -5.310  -6.582  1.00  0.00     0.202 C 
ENDBRANCH   3  21
BRANCH   5  23
HETATM   23  C   UNL     1     -21.988  -7.009  -1.837  1.00  0.00     0.198 C 
BRANCH  23  24
HETATM   24  O   UNL     1     -22.592  -5.766  -2.190  1.00  0.00    -0.398 OA
HETATM   25  H   UNL     1     -23.332  -5.642  -1.563  1.00  0.00     0.209 HD
ENDBRANCH  23  24
ENDBRANCH   5  23
BRANCH   4  26
HETATM   26  O   UNL     1     -22.476  -7.176  -4.770  1.00  0.00    -0.390 OA
HETATM   27  H   UNL     1     -22.818  -6.477  -5.355  1.00  0.00     0.210 HD
ENDBRANCH   4  26
TORSDOF 8
BEGIN_RES ARG D 557
REMARK  4 active torsions:
REMARK  status: ('A' for Active; 'I' for Inactive)
REMARK    1  A    between atoms: CA   and  CB  
REMARK    2  A    between atoms: CB   and  CG  
REMARK    3  A    between atoms: CG   and  CD  
REMARK    4  A    between atoms: CD   and  NE  
REMARK       I    between atoms: NE   and  CZ  
REMARK       I    between atoms: CZ   and  NH1 
REMARK       I    between atoms: CZ   and  NH2 
ROOT
ATOM      1  CA  ARG D 557     -26.217   2.705 -17.014  1.00 35.49     0.159 C 
ENDROOT
BRANCH   1   2
ATOM      2  CB  ARG D 557     -26.789   1.319 -17.183  1.00 35.49     0.034 C 
BRANCH   2   3
ATOM      3  CG  ARG D 557     -25.837   0.203 -17.149  1.00 35.49     0.027 C 
BRANCH   3   4
ATOM      4  CD  ARG D 557     -24.762   0.408 -16.151  1.00 35.49     0.116 C 
BRANCH   4   5
ATOM      5  NE  ARG D 557     -24.914  -0.452 -15.006  1.00 35.49    -0.212 N 
ATOM      6  CZ  ARG D 557     -24.100  -1.425 -14.663  1.00 35.49     0.666 C 
ATOM      7  NH1 ARG D 557     -23.028  -1.734 -15.368  1.00 35.49    -0.235 N 
ATOM      8  NH2 ARG D 557     -24.382  -2.089 -13.580  1.00 35.49    -0.235 N 
ATOM      9  HH  ARG D 557     -22.822  -1.309 -16.083  1.00 35.49     0.174 HD
ATOM     10  HH  ARG D 557     -22.532  -2.378 -15.094  1.00 35.49     0.174 HD
ATOM     11  HH  ARG D 557     -25.077  -1.862 -13.141  1.00 35.49     0.174 HD
ATOM     12  HH  ARG D 557     -23.878  -2.721 -13.324  1.00 35.49     0.174 HD
ATOM     13  HE  ARG D 557     -25.618  -0.370 -14.536  1.00 35.49     0.178 HD
ENDBRANCH   4   5
ENDBRANCH   3   4
ENDBRANCH   2   3
ENDBRANCH   1   2
END_RES ARG D 557
BEGIN_RES GLU D 570
REMARK  3 active torsions:
REMARK  status: ('A' for Active; 'I' for Inactive)
REMARK    5  A    between atoms: CA   and  CB  
REMARK    6  A    between atoms: CB   and  CG  
REMARK    7  A    between atoms: CG   and  CD  
ROOT
ATOM     14  CA  GLU D 570     -18.033  -6.348 -13.375  1.00 32.92     0.160 C 
ENDROOT
BRANCH  14  15
ATOM     15  CB  GLU D 570     -19.500  -6.345 -13.794  1.00 32.92     0.043 C 
BRANCH  15  16
ATOM     16  CG  GLU D 570     -20.451  -5.573 -12.953  1.00 32.92     0.100 C 
BRANCH  16  17
ATOM     17  CD  GLU D 570     -21.739  -5.244 -13.670  1.00 32.92     0.185 C 
ATOM     18  OE1 GLU D 570     -22.271  -6.112 -14.388  1.00 32.92    -0.647 OA
ATOM     19  OE2 GLU D 570     -22.213  -4.100 -13.525  1.00 32.92    -0.647 OA
ENDBRANCH  16  17
ENDBRANCH  15  16
ENDBRANCH  14  15
END_RES GLU D 570
ENDMDL
MODEL 5
REMARK VINA RESULT:      -5.7      9.584     12.225
REMARK  8 active torsions:
REMARK  status: ('A' for Active; 'I' for Inactive)
REMARK    1  A    between atoms: C_3  and  O_23 
REMARK    2  A    between atoms: C_5  and  O_10 
REMARK    3  A    between atoms: O_10  and  C_11 
REMARK    4  A    between atoms: C_12  and  O_22 
REMARK    5  A    between atoms: C_13  and  O_20 
REMARK    6  A    between atoms: C_14  and  O_19 
REMARK    7  A    between atoms: C_15  and  C_17 
REMARK    8  A    between atoms: C_17  and  O_18 
ROOT
HETATM    1  C   UNL     1     -21.379 -10.029  -3.746  1.00  0.00     0.292 C 
HETATM    2  C   UNL     1     -20.506 -10.302  -4.988  1.00  0.00     0.204 C 
HETATM    3  C   UNL     1     -19.354  -9.275  -4.976  1.00  0.00     0.185 C 
HETATM    4  C   UNL     1     -19.953  -7.849  -5.006  1.00  0.00     0.180 C 
HETATM    5  C   UNL     1     -20.889  -7.672  -3.789  1.00  0.00     0.179 C 
HETATM    6  O   UNL     1     -21.912  -8.688  -3.791  1.00  0.00    -0.348 OA
ENDROOT
BRANCH   1   7
HETATM    7  O   UNL     1     -20.658 -10.237  -2.517  1.00  0.00    -0.348 OA
BRANCH   7   8
HETATM    8  C   UNL     1     -21.331 -11.076  -1.566  1.00  0.00     0.187 C 
HETATM    9  C   UNL     1     -20.402 -11.566  -0.431  1.00  0.00     0.184 C 
HETATM   10  C   UNL     1     -21.161 -12.491   0.578  1.00  0.00     0.178 C 
HETATM   11  O   UNL     1     -20.108 -10.350   0.296  1.00  0.00    -0.378 OA
HETATM   12  C   UNL     1     -22.658 -12.533   0.211  1.00  0.00     0.149 C 
HETATM   13  C   UNL     1     -23.536 -13.270   1.206  1.00  0.00     0.042 C 
HETATM   14  O   UNL     1     -23.167 -11.197   0.046  1.00  0.00    -0.373 OA
HETATM   15  C   UNL     1     -22.299 -10.300  -0.687  1.00  0.00     0.177 C 
HETATM   16  C   UNL     1     -21.324  -9.560   0.238  1.00  0.00     0.203 C 
BRANCH  10  17
HETATM   17  O   UNL     1     -20.562 -13.784   0.657  1.00  0.00    -0.390 OA
HETATM   18  H   UNL     1     -20.364 -14.004   1.579  1.00  0.00     0.210 HD
ENDBRANCH  10  17
ENDBRANCH   7   8
ENDBRANCH   1   7
BRANCH   2  19
HETATM   19  O   UNL     1     -21.294 -10.260  -6.185  1.00  0.00    -0.388 OA
HETATM   20  H   UNL     1     -20.971 -10.987  -6.761  1.00  0.00     0.210 HD
ENDBRANCH   2  19
BRANCH   3  21
HETATM   21  O   UNL     1     -18.441  -9.450  -6.073  1.00  0.00    -0.385 OA
HETATM   22  C   UNL     1     -17.752 -10.695  -6.040  1.00  0.00     0.202 C 
ENDBRANCH   3  21
BRANCH   5  23
HETATM   23  C   UNL     1     -21.583  -6.299  -3.785  1.00  0.00     0.198 C 
BRANCH  23  24
HETATM   24  O   UNL     1     -22.690  -6.293  -4.684  1.00  0.00    -0.398 OA
HETATM   25  H   UNL     1     -23.486  -6.406  -4.128  1.00  0.00     0.209 HD
ENDBRANCH  23  24
ENDBRANCH   5  23
BRANCH   4  26
HETATM   26  O   UNL     1     -20.652  -7.673  -6.258  1.00  0.00    -0.390 OA
HETATM   27  H   UNL     1     -21.396  -7.057  -6.134  1.00  0.00     0.210 HD
ENDBRANCH   4  26
TORSDOF 8
BEGIN_RES ARG D 557
REMARK  4 active torsions:
REMARK  status: ('A' for Active; 'I' for Inactive)
REMARK    1  A    between atoms: CA   and  CB  
REMARK    2  A    between atoms: CB   and  CG  
REMARK    3  A    between atoms: CG   and  CD  
REMARK    4  A    between atoms: CD   and  NE  
REMARK       I    between atoms: NE   and  CZ  
REMARK       I    between atoms: CZ   and  NH1 
REMARK       I    between atoms: CZ   and  NH2 
ROOT
ATOM      1  CA  ARG D 557     -26.217   2.705 -17.014  1.00 35.49     0.159 C 
ENDROOT
BRANCH   1   2
ATOM      2  CB  ARG D 557     -26.789   1.319 -17.183  1.00 35.49     0.034 C 
BRANCH   2   3
ATOM      3  CG  ARG D 557     -25.836   0.203 -17.156  1.00 35.49     0.027 C 
BRANCH   3   4
ATOM      4  CD  ARG D 557     -24.749   0.413 -16.172  1.00 35.49     0.116 C 
BRANCH   4   5
ATOM      5  NE  ARG D 557     -24.893  -0.433 -15.017  1.00 35.49    -0.212 N 
ATOM      6  CZ  ARG D 557     -24.078  -1.404 -14.669  1.00 35.49     0.666 C 
ATOM      7  NH1 ARG D 557     -23.012  -1.723 -15.379  1.00 35.49    -0.235 N 
ATOM      8  NH2 ARG D 557     -24.352  -2.055 -13.576  1.00 35.49    -0.235 N 
ATOM      9  HH  ARG D 557     -22.811  -1.306 -16.100  1.00 35.49     0.174 HD
ATOM     10  HH  ARG D 557     -22.515  -2.364 -15.102  1.00 35.49     0.174 HD
ATOM     11  HH  ARG D 557     -25.043  -1.822 -13.134  1.00 35.49     0.174 HD
ATOM     12  HH  ARG D 557     -23.847  -2.686 -13.318  1.00 35.49     0.174 HD
ATOM     13  HE  ARG D 557     -25.593  -0.345 -14.542  1.00 35.49     0.178 HD
ENDBRANCH   4   5
ENDBRANCH   3   4
ENDBRANCH   2   3
ENDBRANCH   1   2
END_RES ARG D 557
BEGIN_RES GLU D 570
REMARK  3 active torsions:
REMARK  status: ('A' for Active; 'I' for Inactive)
REMARK    5  A    between atoms: CA   and  CB  
REMARK    6  A    between atoms: CB   and  CG  
REMARK    7  A    between atoms: CG   and  CD  
ROOT
ATOM     14  CA  GLU D 570     -18.033  -6.348 -13.375  1.00 32.92     0.160 C 
ENDROOT
BRANCH  14  15
ATOM     15  CB  GLU D 570     -19.500  -6.345 -13.794  1.00 32.92     0.043 C 
BRANCH  15  16
ATOM     16  CG  GLU D 570     -20.444  -5.542 -12.974  1.00 32.92     0.100 C 
BRANCH  16  17
ATOM     17  CD  GLU D 570     -21.745  -5.253 -13.688  1.00 32.92     0.185 C 
ATOM     18  OE1 GLU D 570     -22.256  -6.141 -14.397  1.00 32.92    -0.647 OA
ATOM     19  OE2 GLU D 570     -22.249  -4.121 -13.548  1.00 32.92    -0.647 OA
ENDBRANCH  16  17
ENDBRANCH  15  16
ENDBRANCH  14  15
END_RES GLU D 570
ENDMDL
MODEL 6
REMARK VINA RESULT:      -5.7      9.463     12.675
REMARK  8 active torsions:
REMARK  status: ('A' for Active; 'I' for Inactive)
REMARK    1  A    between atoms: C_3  and  O_23 
REMARK    2  A    between atoms: C_5  and  O_10 
REMARK    3  A    between atoms: O_10  and  C_11 
REMARK    4  A    between atoms: C_12  and  O_22 
REMARK    5  A    between atoms: C_13  and  O_20 
REMARK    6  A    between atoms: C_14  and  O_19 
REMARK    7  A    between atoms: C_15  and  C_17 
REMARK    8  A    between atoms: C_17  and  O_18 
ROOT
HETATM    1  C   UNL     1     -20.294  -9.770  -1.482  1.00  0.00     0.292 C 
HETATM    2  C   UNL     1     -21.049 -10.633  -0.450  1.00  0.00     0.204 C 
HETATM    3  C   UNL     1     -22.554 -10.335  -0.614  1.00  0.00     0.185 C 
HETATM    4  C   UNL     1     -22.796  -8.825  -0.377  1.00  0.00     0.180 C 
HETATM    5  C   UNL     1     -21.940  -8.017  -1.379  1.00  0.00     0.179 C 
HETATM    6  O   UNL     1     -20.549  -8.369  -1.249  1.00  0.00    -0.348 OA
ENDROOT
BRANCH   1   7
HETATM    7  O   UNL     1     -20.635 -10.120  -2.837  1.00  0.00    -0.348 OA
BRANCH   7   8
HETATM    8  C   UNL     1     -19.509 -10.427  -3.674  1.00  0.00     0.187 C 
HETATM    9  C   UNL     1     -19.915 -10.763  -5.128  1.00  0.00     0.184 C 
HETATM   10  C   UNL     1     -18.668 -11.109  -6.009  1.00  0.00     0.178 C 
HETATM   11  O   UNL     1     -20.410  -9.499  -5.628  1.00  0.00    -0.378 OA
HETATM   12  C   UNL     1     -17.381 -10.882  -5.192  1.00  0.00     0.149 C 
HETATM   13  C   UNL     1     -16.093 -11.030  -5.981  1.00  0.00     0.042 C 
HETATM   14  O   UNL     1     -17.403  -9.578  -4.583  1.00  0.00    -0.373 OA
HETATM   15  C   UNL     1     -18.672  -9.200  -3.997  1.00  0.00     0.177 C 
HETATM   16  C   UNL     1     -19.581  -8.484  -5.006  1.00  0.00     0.203 C 
BRANCH  10  17
HETATM   17  O   UNL     1     -18.763 -12.423  -6.559  1.00  0.00    -0.390 OA
HETATM   18  H   UNL     1     -19.692 -12.654  -6.714  1.00  0.00     0.210 HD
ENDBRANCH  10  17
ENDBRANCH   7   8
ENDBRANCH   1   7
BRANCH   2  19
HETATM   19  O   UNL     1     -20.561 -10.387   0.876  1.00  0.00    -0.388 OA
HETATM   20  H   UNL     1     -21.274 -10.657   1.494  1.00  0.00     0.210 HD
ENDBRANCH   2  19
BRANCH   3  21
HETATM   21  O   UNL     1     -23.376 -11.111   0.275  1.00  0.00    -0.385 OA
HETATM   22  C   UNL     1     -23.459 -12.485  -0.089  1.00  0.00     0.202 C 
ENDBRANCH   3  21
BRANCH   5  23
HETATM   23  C   UNL     1     -22.070  -6.500  -1.161  1.00  0.00     0.198 C 
BRANCH  23  24
HETATM   24  O   UNL     1     -22.699  -5.883  -2.282  1.00  0.00    -0.398 OA
HETATM   25  H   UNL     1     -22.656  -6.538  -3.007  1.00  0.00     0.209 HD
ENDBRANCH  23  24
ENDBRANCH   5  23
BRANCH   4  26
HETATM   26  O   UNL     1     -22.460  -8.517   0.993  1.00  0.00    -0.390 OA
HETATM   27  H   UNL     1     -23.126  -8.903   1.589  1.00  0.00     0.210 HD
ENDBRANCH   4  26
TORSDOF 8
BEGIN_RES ARG D 557
REMARK  4 active torsions:
REMARK  status: ('A' for Active; 'I' for Inactive)
REMARK    1  A    between atoms: CA   and  CB  
REMARK    2  A    between atoms: CB   and  CG  
REMARK    3  A    between atoms: CG   and  CD  
REMARK    4  A    between atoms: CD   and  NE  
REMARK       I    between atoms: NE   and  CZ  
REMARK       I    between atoms: CZ   and  NH1 
REMARK       I    between atoms: CZ   and  NH2 
ROOT
ATOM      1  CA  ARG D 557     -26.217   2.705 -17.014  1.00 35.49     0.159 C 
ENDROOT
BRANCH   1   2
ATOM      2  CB  ARG D 557     -26.789   1.319 -17.183  1.00 35.49     0.034 C 
BRANCH   2   3
ATOM      3  CG  ARG D 557     -25.835   0.203 -17.162  1.00 35.49     0.027 C 
BRANCH   3   4
ATOM      4  CD  ARG D 557     -24.745   0.411 -16.182  1.00 35.49     0.116 C 
BRANCH   4   5
ATOM      5  NE  ARG D 557     -24.889  -0.430 -15.023  1.00 35.49    -0.212 N 
ATOM      6  CZ  ARG D 557     -24.075  -1.401 -14.673  1.00 35.49     0.666 C 
ATOM      7  NH1 ARG D 557     -23.010  -1.723 -15.382  1.00 35.49    -0.235 N 
ATOM      8  NH2 ARG D 557     -24.350  -2.048 -13.577  1.00 35.49    -0.235 N 
ATOM      9  HH  ARG D 557     -22.809  -1.310 -16.105  1.00 35.49     0.174 HD
ATOM     10  HH  ARG D 557     -22.514  -2.364 -15.103  1.00 35.49     0.174 HD
ATOM     11  HH  ARG D 557     -25.040  -1.812 -13.136  1.00 35.49     0.174 HD
ATOM     12  HH  ARG D 557     -23.846  -2.678 -13.317  1.00 35.49     0.174 HD
ATOM     13  HE  ARG D 557     -25.589  -0.339 -14.549  1.00 35.49     0.178 HD
ENDBRANCH   4   5
ENDBRANCH   3   4
ENDBRANCH   2   3
ENDBRANCH   1   2
END_RES ARG D 557
BEGIN_RES GLU D 570
REMARK  3 active torsions:
REMARK  status: ('A' for Active; 'I' for Inactive)
REMARK    5  A    between atoms: CA   and  CB  
REMARK    6  A    between atoms: CB   and  CG  
REMARK    7  A    between atoms: CG   and  CD  
ROOT
ATOM     14  CA  GLU D 570     -18.033  -6.348 -13.375  1.00 32.92     0.160 C 
ENDROOT
BRANCH  14  15
ATOM     15  CB  GLU D 570     -19.500  -6.345 -13.794  1.00 32.92     0.043 C 
BRANCH  15  16
ATOM     16  CG  GLU D 570     -20.442  -5.531 -12.983  1.00 32.92     0.100 C 
BRANCH  16  17
ATOM     17  CD  GLU D 570     -21.743  -5.249 -13.697  1.00 32.92     0.185 C 
ATOM     18  OE1 GLU D 570     -22.299  -4.147 -13.529  1.00 32.92    -0.647 OA
ATOM     19  OE2 GLU D 570     -22.219  -6.146 -14.421  1.00 32.92    -0.647 OA
ENDBRANCH  16  17
ENDBRANCH  15  16
ENDBRANCH  14  15
END_RES GLU D 570
ENDMDL
MODEL 7
REMARK VINA RESULT:      -5.5      9.353     12.513
REMARK  8 active torsions:
REMARK  status: ('A' for Active; 'I' for Inactive)
REMARK    1  A    between atoms: C_3  and  O_23 
REMARK    2  A    between atoms: C_5  and  O_10 
REMARK    3  A    between atoms: O_10  and  C_11 
REMARK    4  A    between atoms: C_12  and  O_22 
REMARK    5  A    between atoms: C_13  and  O_20 
REMARK    6  A    between atoms: C_14  and  O_19 
REMARK    7  A    between atoms: C_15  and  C_17 
REMARK    8  A    between atoms: C_17  and  O_18 
ROOT
HETATM    1  C   UNL     1     -20.308  -9.770  -1.477  1.00  0.00     0.292 C 
HETATM    2  C   UNL     1     -21.061 -10.627  -0.439  1.00  0.00     0.204 C 
HETATM    3  C   UNL     1     -22.566 -10.326  -0.599  1.00  0.00     0.185 C 
HETATM    4  C   UNL     1     -22.804  -8.815  -0.366  1.00  0.00     0.180 C 
HETATM    5  C   UNL     1     -21.949  -8.012  -1.374  1.00  0.00     0.179 C 
HETATM    6  O   UNL     1     -20.558  -8.367  -1.247  1.00  0.00    -0.348 OA
ENDROOT
BRANCH   1   7
HETATM    7  O   UNL     1     -20.654 -10.124  -2.829  1.00  0.00    -0.348 OA
BRANCH   7   8
HETATM    8  C   UNL     1     -19.532 -10.428  -3.672  1.00  0.00     0.187 C 
HETATM    9  C   UNL     1     -19.944 -10.768  -5.123  1.00  0.00     0.184 C 
HETATM   10  C   UNL     1     -18.701 -11.113  -6.010  1.00  0.00     0.178 C 
HETATM   11  O   UNL     1     -20.445  -9.506  -5.623  1.00  0.00    -0.378 OA
HETATM   12  C   UNL     1     -17.410 -10.881  -5.199  1.00  0.00     0.149 C 
HETATM   13  C   UNL     1     -16.126 -11.027  -5.994  1.00  0.00     0.042 C 
HETATM   14  O   UNL     1     -17.433  -9.576  -4.593  1.00  0.00    -0.373 OA
HETATM   15  C   UNL     1     -18.700  -9.200  -4.001  1.00  0.00     0.177 C 
HETATM   16  C   UNL     1     -19.615  -8.488  -5.006  1.00  0.00     0.203 C 
BRANCH  10  17
HETATM   17  O   UNL     1     -18.796 -12.428  -6.557  1.00  0.00    -0.390 OA
HETATM   18  H   UNL     1     -19.651 -12.823  -6.331  1.00  0.00     0.210 HD
ENDBRANCH  10  17
ENDBRANCH   7   8
ENDBRANCH   1   7
BRANCH   2  19
HETATM   19  O   UNL     1     -20.567 -10.378   0.884  1.00  0.00    -0.388 OA
HETATM   20  H   UNL     1     -19.587 -10.396   0.828  1.00  0.00     0.210 HD
ENDBRANCH   2  19
BRANCH   3  21
HETATM   21  O   UNL     1     -23.386 -11.097   0.296  1.00  0.00    -0.385 OA
HETATM   22  C   UNL     1     -23.333 -12.497   0.045  1.00  0.00     0.202 C 
ENDBRANCH   3  21
BRANCH   5  23
HETATM   23  C   UNL     1     -22.074  -6.494  -1.161  1.00  0.00     0.198 C 
BRANCH  23  24
HETATM   24  O   UNL     1     -22.700  -5.878  -2.285  1.00  0.00    -0.398 OA
HETATM   25  H   UNL     1     -23.450  -5.365  -1.925  1.00  0.00     0.209 HD
ENDBRANCH  23  24
ENDBRANCH   5  23
BRANCH   4  26
HETATM   26  O   UNL     1     -22.461  -8.504   1.002  1.00  0.00    -0.390 OA
HETATM   27  H   UNL     1     -23.192  -8.015   1.420  1.00  0.00     0.210 HD
ENDBRANCH   4  26
TORSDOF 8
BEGIN_RES ARG D 557
REMARK  4 active torsions:
REMARK  status: ('A' for Active; 'I' for Inactive)
REMARK    1  A    between atoms: CA   and  CB  
REMARK    2  A    between atoms: CB   and  CG  
REMARK    3  A    between atoms: CG   and  CD  
REMARK    4  A    between atoms: CD   and  NE  
REMARK       I    between atoms: NE   and  CZ  
REMARK       I    between atoms: CZ   and  NH1 
REMARK       I    between atoms: CZ   and  NH2 
ROOT
ATOM      1  CA  ARG D 557     -26.217   2.705 -17.014  1.00 35.49     0.159 C 
ENDROOT
BRANCH   1   2
ATOM      2  CB  ARG D 557     -26.789   1.319 -17.183  1.00 35.49     0.034 C 
BRANCH   2   3
ATOM      3  CG  ARG D 557     -28.231   1.226 -17.440  1.00 35.49     0.027 C 
BRANCH   3   4
ATOM      4  CD  ARG D 557     -28.914   0.305 -16.503  1.00 35.49     0.116 C 
BRANCH   4   5
ATOM      5  NE  ARG D 557     -29.286  -0.933 -17.134  1.00 35.49    -0.212 N 
ATOM      6  CZ  ARG D 557     -28.643  -2.074 -17.026  1.00 35.49     0.666 C 
ATOM      7  NH1 ARG D 557     -27.540  -2.202 -16.311  1.00 35.49    -0.235 N 
ATOM      8  NH2 ARG D 557     -29.137  -3.103 -17.652  1.00 35.49    -0.235 N 
ATOM      9  HH  ARG D 557     -27.199  -1.539 -15.889  1.00 35.49     0.174 HD
ATOM     10  HH  ARG D 557     -27.166  -2.972 -16.275  1.00 35.49     0.174 HD
ATOM     11  HH  ARG D 557     -29.854  -2.993 -18.100  1.00 35.49     0.174 HD
ATOM     12  HH  ARG D 557     -28.752  -3.857 -17.602  1.00 35.49     0.174 HD
ATOM     13  HE  ARG D 557     -29.944  -0.925 -17.672  1.00 35.49     0.178 HD
ENDBRANCH   4   5
ENDBRANCH   3   4
ENDBRANCH   2   3
ENDBRANCH   1   2
END_RES ARG D 557
BEGIN_RES GLU D 570
REMARK  3 active torsions:
REMARK  status: ('A' for Active; 'I' for Inactive)
REMARK    5  A    between atoms: CA   and  CB  
REMARK    6  A    between atoms: CB   and  CG  
REMARK    7  A    between atoms: CG   and  CD  
ROOT
ATOM     14  CA  GLU D 570     -18.033  -6.348 -13.375  1.00 32.92     0.160 C 
ENDROOT
BRANCH  14  15
ATOM     15  CB  GLU D 570     -19.500  -6.345 -13.794  1.00 32.92     0.043 C 
BRANCH  15  16
ATOM     16  CG  GLU D 570     -20.440  -5.521 -12.991  1.00 32.92     0.100 C 
BRANCH  16  17
ATOM     17  CD  GLU D 570     -21.742  -5.247 -13.705  1.00 32.92     0.185 C 
ATOM     18  OE1 GLU D 570     -22.316  -4.156 -13.521  1.00 32.92    -0.647 OA
ATOM     19  OE2 GLU D 570     -22.203  -6.139 -14.445  1.00 32.92    -0.647 OA
ENDBRANCH  16  17
ENDBRANCH  15  16
ENDBRANCH  14  15
END_RES GLU D 570
ENDMDL
MODEL 8
REMARK VINA RESULT:      -5.5      9.508     12.101
REMARK  8 active torsions:
REMARK  status: ('A' for Active; 'I' for Inactive)
REMARK    1  A    between atoms: C_3  and  O_23 
REMARK    2  A    between atoms: C_5  and  O_10 
REMARK    3  A    between atoms: O_10  and  C_11 
REMARK    4  A    between atoms: C_12  and  O_22 
REMARK    5  A    between atoms: C_13  and  O_20 
REMARK    6  A    between atoms: C_14  and  O_19 
REMARK    7  A    between atoms: C_15  and  C_17 
REMARK    8  A    between atoms: C_17  and  O_18 
ROOT
HETATM    1  C   UNL     1     -21.355 -10.059  -3.712  1.00  0.00     0.292 C 
HETATM    2  C   UNL     1     -20.473 -10.299  -4.954  1.00  0.00     0.204 C 
HETATM    3  C   UNL     1     -19.345  -9.248  -4.929  1.00  0.00     0.185 C 
HETATM    4  C   UNL     1     -19.975  -7.834  -4.947  1.00  0.00     0.180 C 
HETATM    5  C   UNL     1     -20.917  -7.692  -3.730  1.00  0.00     0.179 C 
HETATM    6  O   UNL     1     -21.917  -8.730  -3.745  1.00  0.00    -0.348 OA
ENDROOT
BRANCH   1   7
HETATM    7  O   UNL     1     -20.632 -10.264  -2.484  1.00  0.00    -0.348 OA
BRANCH   7   8
HETATM    8  C   UNL     1     -21.298 -11.110  -1.534  1.00  0.00     0.187 C 
HETATM    9  C   UNL     1     -20.358 -11.615  -0.415  1.00  0.00     0.184 C 
HETATM   10  C   UNL     1     -21.110 -12.548   0.592  1.00  0.00     0.178 C 
HETATM   11  O   UNL     1     -20.051 -10.409   0.322  1.00  0.00    -0.378 OA
HETATM   12  C   UNL     1     -22.612 -12.580   0.242  1.00  0.00     0.149 C 
HETATM   13  C   UNL     1     -23.481 -13.323   1.239  1.00  0.00     0.042 C 
HETATM   14  O   UNL     1     -23.116 -11.240   0.097  1.00  0.00    -0.373 OA
HETATM   15  C   UNL     1     -22.252 -10.339  -0.636  1.00  0.00     0.177 C 
HETATM   16  C   UNL     1     -21.263  -9.613   0.286  1.00  0.00     0.203 C 
BRANCH  10  17
HETATM   17  O   UNL     1     -20.517 -13.845   0.651  1.00  0.00    -0.390 OA
HETATM   18  H   UNL     1     -19.678 -13.806   1.134  1.00  0.00     0.210 HD
ENDBRANCH  10  17
ENDBRANCH   7   8
ENDBRANCH   1   7
BRANCH   2  19
HETATM   19  O   UNL     1     -21.260 -10.263  -6.153  1.00  0.00    -0.388 OA
HETATM   20  H   UNL     1     -21.213  -9.343  -6.494  1.00  0.00     0.210 HD
ENDBRANCH   2  19
BRANCH   3  21
HETATM   21  O   UNL     1     -18.426  -9.391  -6.026  1.00  0.00    -0.385 OA
HETATM   22  C   UNL     1     -17.720 -10.627  -6.013  1.00  0.00     0.202 C 
ENDBRANCH   3  21
BRANCH   5  23
HETATM   23  C   UNL     1     -21.641  -6.334  -3.713  1.00  0.00     0.198 C 
BRANCH  23  24
HETATM   24  O   UNL     1     -22.643  -6.287  -4.727  1.00  0.00    -0.398 OA
HETATM   25  H   UNL     1     -22.573  -5.399  -5.130  1.00  0.00     0.209 HD
ENDBRANCH  23  24
ENDBRANCH   5  23
BRANCH   4  26
HETATM   26  O   UNL     1     -20.675  -7.661  -6.198  1.00  0.00    -0.390 OA
HETATM   27  H   UNL     1     -21.413  -7.038  -6.077  1.00  0.00     0.210 HD
ENDBRANCH   4  26
TORSDOF 8
BEGIN_RES ARG D 557
REMARK  4 active torsions:
REMARK  status: ('A' for Active; 'I' for Inactive)
REMARK    1  A    between atoms: CA   and  CB  
REMARK    2  A    between atoms: CB   and  CG  
REMARK    3  A    between atoms: CG   and  CD  
REMARK    4  A    between atoms: CD   and  NE  
REMARK       I    between atoms: NE   and  CZ  
REMARK       I    between atoms: CZ   and  NH1 
REMARK       I    between atoms: CZ   and  NH2 
ROOT
ATOM      1  CA  ARG D 557     -26.217   2.705 -17.014  1.00 35.49     0.159 C 
ENDROOT
BRANCH   1   2
ATOM      2  CB  ARG D 557     -26.789   1.319 -17.183  1.00 35.49     0.034 C 
BRANCH   2   3
ATOM      3  CG  ARG D 557     -28.236   1.225 -17.412  1.00 35.49     0.027 C 
BRANCH   3   4
ATOM      4  CD  ARG D 557     -28.894   0.278 -16.483  1.00 35.49     0.116 C 
BRANCH   4   5
ATOM      5  NE  ARG D 557     -29.263  -0.952 -17.133  1.00 35.49    -0.212 N 
ATOM      6  CZ  ARG D 557     -28.630  -2.098 -17.023  1.00 35.49     0.666 C 
ATOM      7  NH1 ARG D 557     -27.542  -2.240 -16.289  1.00 35.49    -0.235 N 
ATOM      8  NH2 ARG D 557     -29.118  -3.118 -17.668  1.00 35.49    -0.235 N 
ATOM      9  HH  ARG D 557     -27.204  -1.583 -15.855  1.00 35.49     0.174 HD
ATOM     10  HH  ARG D 557     -27.173  -3.013 -16.253  1.00 35.49     0.174 HD
ATOM     11  HH  ARG D 557     -29.826  -2.998 -18.129  1.00 35.49     0.174 HD
ATOM     12  HH  ARG D 557     -28.739  -3.875 -17.619  1.00 35.49     0.174 HD
ATOM     13  HE  ARG D 557     -29.910  -0.934 -17.684  1.00 35.49     0.178 HD
ENDBRANCH   4   5
ENDBRANCH   3   4
ENDBRANCH   2   3
ENDBRANCH   1   2
END_RES ARG D 557
BEGIN_RES GLU D 570
REMARK  3 active torsions:
REMARK  status: ('A' for Active; 'I' for Inactive)
REMARK    5  A    between atoms: CA   and  CB  
REMARK    6  A    between atoms: CB   and  CG  
REMARK    7  A    between atoms: CG   and  CD  
ROOT
ATOM     14  CA  GLU D 570     -18.033  -6.348 -13.375  1.00 32.92     0.160 C 
ENDROOT
BRANCH  14  15
ATOM     15  CB  GLU D 570     -19.500  -6.345 -13.794  1.00 32.92     0.043 C 
BRANCH  15  16
ATOM     16  CG  GLU D 570     -20.446  -5.552 -12.968  1.00 32.92     0.100 C 
BRANCH  16  17
ATOM     17  CD  GLU D 570     -21.739  -5.242 -13.686  1.00 32.92     0.185 C 
ATOM     18  OE1 GLU D 570     -22.259  -4.120 -13.538  1.00 32.92    -0.647 OA
ATOM     19  OE2 GLU D 570     -22.245  -6.137 -14.391  1.00 32.92    -0.647 OA
ENDBRANCH  16  17
ENDBRANCH  15  16
ENDBRANCH  14  15
END_RES GLU D 570
ENDMDL
MODEL 9
REMARK VINA RESULT:      -5.4      8.874     11.818
REMARK  8 active torsions:
REMARK  status: ('A' for Active; 'I' for Inactive)
REMARK    1  A    between atoms: C_3  and  O_23 
REMARK    2  A    between atoms: C_5  and  O_10 
REMARK    3  A    between atoms: O_10  and  C_11 
REMARK    4  A    between atoms: C_12  and  O_22 
REMARK    5  A    between atoms: C_13  and  O_20 
REMARK    6  A    between atoms: C_14  and  O_19 
REMARK    7  A    between atoms: C_15  and  C_17 
REMARK    8  A    between atoms: C_17  and  O_18 
ROOT
HETATM    1  C   UNL     1     -19.847  -9.321  -3.843  1.00  0.00     0.292 C 
HETATM    2  C   UNL     1     -20.110  -8.815  -5.276  1.00  0.00     0.204 C 
HETATM    3  C   UNL     1     -20.088  -7.274  -5.232  1.00  0.00     0.185 C 
HETATM    4  C   UNL     1     -21.178  -6.783  -4.248  1.00  0.00     0.180 C 
HETATM    5  C   UNL     1     -20.910  -7.400  -2.856  1.00  0.00     0.179 C 
HETATM    6  O   UNL     1     -20.867  -8.838  -2.944  1.00  0.00    -0.348 OA
ENDROOT
BRANCH   1   7
HETATM    7  O   UNL     1     -18.542  -8.945  -3.365  1.00  0.00    -0.348 OA
BRANCH   7   8
HETATM    8  C   UNL     1     -17.799 -10.012  -2.756  1.00  0.00     0.187 C 
HETATM    9  C   UNL     1     -17.751 -11.287  -3.630  1.00  0.00     0.184 C 
HETATM   10  C   UNL     1     -16.951 -12.436  -2.931  1.00  0.00     0.178 C 
HETATM   11  O   UNL     1     -16.945 -10.878  -4.759  1.00  0.00    -0.378 OA
HETATM   12  C   UNL     1     -16.329 -11.908  -1.623  1.00  0.00     0.149 C 
HETATM   13  C   UNL     1     -15.394 -12.880  -0.926  1.00  0.00     0.042 C 
HETATM   14  O   UNL     1     -15.619 -10.681  -1.871  1.00  0.00    -0.373 OA
HETATM   15  C   UNL     1     -16.303  -9.746  -2.740  1.00  0.00     0.177 C 
HETATM   16  C   UNL     1     -15.950  -9.971  -4.217  1.00  0.00     0.203 C 
BRANCH  10  17
HETATM   17  O   UNL     1     -17.758 -13.599  -2.743  1.00  0.00    -0.390 OA
HETATM   18  H   UNL     1     -18.683 -13.400  -2.951  1.00  0.00     0.210 HD
ENDBRANCH  10  17
ENDBRANCH   7   8
ENDBRANCH   1   7
BRANCH   2  19
HETATM   19  O   UNL     1     -21.337  -9.353  -5.790  1.00  0.00    -0.388 OA
HETATM   20  H   UNL     1     -21.711  -9.927  -5.086  1.00  0.00     0.210 HD
ENDBRANCH   2  19
BRANCH   3  21
HETATM   21  O   UNL     1     -20.287  -6.677  -6.525  1.00  0.00    -0.385 OA
HETATM   22  C   UNL     1     -20.028  -5.277  -6.546  1.00  0.00     0.202 C 
ENDBRANCH   3  21
BRANCH   5  23
HETATM   23  C   UNL     1     -21.994  -7.018  -1.834  1.00  0.00     0.198 C 
BRANCH  23  24
HETATM   24  O   UNL     1     -22.585  -5.765  -2.173  1.00  0.00    -0.398 OA
HETATM   25  H   UNL     1     -23.549  -5.925  -2.210  1.00  0.00     0.209 HD
ENDBRANCH  23  24
ENDBRANCH   5  23
BRANCH   4  26
HETATM   26  O   UNL     1     -22.469  -7.165  -4.770  1.00  0.00    -0.390 OA
HETATM   27  H   UNL     1     -23.128  -7.157  -4.053  1.00  0.00     0.210 HD
ENDBRANCH   4  26
TORSDOF 8
BEGIN_RES ARG D 557
REMARK  4 active torsions:
REMARK  status: ('A' for Active; 'I' for Inactive)
REMARK    1  A    between atoms: CA   and  CB  
REMARK    2  A    between atoms: CB   and  CG  
REMARK    3  A    between atoms: CG   and  CD  
REMARK    4  A    between atoms: CD   and  NE  
REMARK       I    between atoms: NE   and  CZ  
REMARK       I    between atoms: CZ   and  NH1 
REMARK       I    between atoms: CZ   and  NH2 
ROOT
ATOM      1  CA  ARG D 557     -26.217   2.705 -17.014  1.00 35.49     0.159 C 
ENDROOT
BRANCH   1   2
ATOM      2  CB  ARG D 557     -26.789   1.319 -17.183  1.00 35.49     0.034 C 
BRANCH   2   3
ATOM      3  CG  ARG D 557     -28.230   1.227 -17.448  1.00 35.49     0.027 C 
BRANCH   3   4
ATOM      4  CD  ARG D 557     -28.917   0.303 -16.516  1.00 35.49     0.116 C 
BRANCH   4   5
ATOM      5  NE  ARG D 557     -28.138  -0.877 -16.249  1.00 35.49    -0.212 N 
ATOM      6  CZ  ARG D 557     -28.375  -2.078 -16.727  1.00 35.49     0.666 C 
ATOM      7  NH1 ARG D 557     -29.400  -2.337 -17.518  1.00 35.49    -0.235 N 
ATOM      8  NH2 ARG D 557     -27.550  -3.029 -16.397  1.00 35.49    -0.235 N 
ATOM      9  HH  ARG D 557     -29.954  -1.726 -17.750  1.00 35.49     0.174 HD
ATOM     10  HH  ARG D 557     -29.503  -3.139 -17.801  1.00 35.49     0.174 HD
ATOM     11  HH  ARG D 557     -26.893  -2.831 -15.890  1.00 35.49     0.174 HD
ATOM     12  HH  ARG D 557     -27.669  -3.817 -16.688  1.00 35.49     0.174 HD
ATOM     13  HE  ARG D 557     -27.500  -0.817 -15.690  1.00 35.49     0.178 HD
ENDBRANCH   4   5
ENDBRANCH   3   4
ENDBRANCH   2   3
ENDBRANCH   1   2
END_RES ARG D 557
BEGIN_RES GLU D 570
REMARK  3 active torsions:
REMARK  status: ('A' for Active; 'I' for Inactive)
REMARK    5  A    between atoms: CA   and  CB  
REMARK    6  A    between atoms: CB   and  CG  
REMARK    7  A    between atoms: CG   and  CD  
ROOT
ATOM     14  CA  GLU D 570     -18.033  -6.348 -13.375  1.00 32.92     0.160 C 
ENDROOT
BRANCH  14  15
ATOM     15  CB  GLU D 570     -19.500  -6.345 -13.794  1.00 32.92     0.043 C 
BRANCH  15  16
ATOM     16  CG  GLU D 570     -20.439  -5.519 -12.992  1.00 32.92     0.100 C 
BRANCH  16  17
ATOM     17  CD  GLU D 570     -21.742  -5.245 -13.708  1.00 32.92     0.185 C 
ATOM     18  OE1 GLU D 570     -22.324  -4.162 -13.511  1.00 32.92    -0.647 OA
ATOM     19  OE2 GLU D 570     -22.193  -6.132 -14.460  1.00 32.92    -0.647 OA
ENDBRANCH  16  17
ENDBRANCH  15  16
ENDBRANCH  14  15
END_RES GLU D 570
ENDMDL
