MODEL 1
REMARK VINA RESULT:      -5.9      0.000      0.000
REMARK  11 active torsions:
REMARK  status: ('A' for Active; 'I' for Inactive)
REMARK    1  A    between atoms: C_2  and  C_3 
REMARK    2  A    between atoms: C_3  and  C_4 
REMARK    3  A    between atoms: C_4  and  C_5 
REMARK    4  A    between atoms: C_5  and  C_6 
REMARK    5  A    between atoms: C_6  and  C_7 
REMARK    6  A    between atoms: C_7  and  C_8 
REMARK    7  A    between atoms: C_8  and  C_9 
REMARK    8  A    between atoms: C_9  and  C_10 
REMARK    9  A    between atoms: C_10  and  C_11 
REMARK   10  A    between atoms: C_11  and  C_12 
REMARK   11  A    between atoms: C_12  and  O_13 
ROOT
HETATM    1  C   UNL     1     -20.613  -4.171  -6.800  1.00  0.00     0.000 C 
ENDROOT
BRANCH   1   2
HETATM    2  C   UNL     1     -20.442  -5.011  -5.538  1.00  0.00     0.000 C 
BRANCH   2   3
HETATM    3  C   UNL     1     -21.189  -6.335  -5.660  1.00  0.00     0.000 C 
BRANCH   3   4
HETATM    4  C   UNL     1     -22.047  -6.595  -4.424  1.00  0.00     0.000 C 
BRANCH   4   5
HETATM    5  C   UNL     1     -21.342  -6.102  -3.162  1.00  0.00    -0.000 C 
BRANCH   5   6
HETATM    6  C   UNL     1     -22.239  -6.255  -1.935  1.00  0.00    -0.005 C 
HETATM    7  C   UNL     1     -21.918  -7.536  -1.183  1.00  0.00     0.005 C 
ENDBRANCH   5   6
ENDBRANCH   4   5
ENDBRANCH   3   4
ENDBRANCH   2   3
ENDBRANCH   1   2
BRANCH   1   8
HETATM    8  C   UNL     1     -21.388  -4.941  -7.864  1.00  0.00     0.000 C 
BRANCH   8   9
HETATM    9  C   UNL     1     -20.991  -4.486  -9.266  1.00  0.00     0.000 C 
BRANCH   9  10
HETATM   10  C   UNL     1     -22.149  -3.765  -9.952  1.00  0.00     0.002 C 
BRANCH  10  11
HETATM   11  C   UNL     1     -23.484  -4.413  -9.603  1.00  0.00     0.026 C 
BRANCH  11  12
HETATM   12  C   UNL     1     -24.644  -3.462  -9.859  1.00  0.00     0.164 C 
BRANCH  12  13
HETATM   13  O   UNL     1     -24.803  -3.260 -11.256  1.00  0.00    -0.401 OA
HETATM   14  H   UNL     1     -23.921  -3.302 -11.660  1.00  0.00     0.209 HD
ENDBRANCH  12  13
ENDBRANCH  11  12
ENDBRANCH  10  11
ENDBRANCH   9  10
ENDBRANCH   8   9
ENDBRANCH   1   8
TORSDOF 11
BEGIN_RES ARG D 557
REMARK  4 active torsions:
REMARK  status: ('A' for Active; 'I' for Inactive)
REMARK    1  A    between atoms: CA   and  CB  
REMARK    2  A    between atoms: CB   and  CG  
REMARK    3  A    between atoms: CG   and  CD  
REMARK    4  A    between atoms: CD   and  NE  
REMARK       I    between atoms: NE   and  CZ  
REMARK       I    between atoms: CZ   and  NH1 
REMARK       I    between atoms: CZ   and  NH2 
ROOT
ATOM      1  CA  ARG D 557     -26.217   2.705 -17.014  1.00 35.49     0.159 C 
ENDROOT
BRANCH   1   2
ATOM      2  CB  ARG D 557     -26.789   1.319 -17.183  1.00 35.49     0.034 C 
BRANCH   2   3
ATOM      3  CG  ARG D 557     -25.857   0.196 -17.025  1.00 35.49     0.027 C 
BRANCH   3   4
ATOM      4  CD  ARG D 557     -26.171  -0.635 -15.840  1.00 35.49     0.116 C 
BRANCH   4   5
ATOM      5  NE  ARG D 557     -25.049  -0.753 -14.947  1.00 35.49    -0.212 N 
ATOM      6  CZ  ARG D 557     -24.648  -1.858 -14.358  1.00 35.49     0.666 C 
ATOM      7  NH1 ARG D 557     -25.268  -3.013 -14.521  1.00 35.49    -0.235 N 
ATOM      8  NH2 ARG D 557     -23.596  -1.785 -13.597  1.00 35.49    -0.235 N 
ATOM      9  HH  ARG D 557     -25.961  -3.084 -15.019  1.00 35.49     0.174 HD
ATOM     10  HH  ARG D 557     -24.960  -3.700 -14.113  1.00 35.49     0.174 HD
ATOM     11  HH  ARG D 557     -23.212  -1.027 -13.516  1.00 35.49     0.174 HD
ATOM     12  HH  ARG D 557     -23.305  -2.477 -13.203  1.00 35.49     0.174 HD
ATOM     13  HE  ARG D 557     -24.635  -0.043 -14.729  1.00 35.49     0.178 HD
ENDBRANCH   4   5
ENDBRANCH   3   4
ENDBRANCH   2   3
ENDBRANCH   1   2
END_RES ARG D 557
BEGIN_RES GLU D 570
REMARK  3 active torsions:
REMARK  status: ('A' for Active; 'I' for Inactive)
REMARK    5  A    between atoms: CA   and  CB  
REMARK    6  A    between atoms: CB   and  CG  
REMARK    7  A    between atoms: CG   and  CD  
ROOT
ATOM     14  CA  GLU D 570     -18.033  -6.348 -13.375  1.00 32.92     0.160 C 
ENDROOT
BRANCH  14  15
ATOM     15  CB  GLU D 570     -19.500  -6.345 -13.794  1.00 32.92     0.043 C 
BRANCH  15  16
ATOM     16  CG  GLU D 570     -20.438  -5.515 -12.995  1.00 32.92     0.100 C 
BRANCH  16  17
ATOM     17  CD  GLU D 570     -21.643  -5.061 -13.786  1.00 32.92     0.185 C 
ATOM     18  OE1 GLU D 570     -22.652  -4.660 -13.175  1.00 32.92    -0.647 OA
ATOM     19  OE2 GLU D 570     -21.582  -5.121 -15.030  1.00 32.92    -0.647 OA
ENDBRANCH  16  17
ENDBRANCH  15  16
ENDBRANCH  14  15
END_RES GLU D 570
ENDMDL
MODEL 2
REMARK VINA RESULT:      -5.7      1.949      2.318
REMARK  11 active torsions:
REMARK  status: ('A' for Active; 'I' for Inactive)
REMARK    1  A    between atoms: C_2  and  C_3 
REMARK    2  A    between atoms: C_3  and  C_4 
REMARK    3  A    between atoms: C_4  and  C_5 
REMARK    4  A    between atoms: C_5  and  C_6 
REMARK    5  A    between atoms: C_6  and  C_7 
REMARK    6  A    between atoms: C_7  and  C_8 
REMARK    7  A    between atoms: C_8  and  C_9 
REMARK    8  A    between atoms: C_9  and  C_10 
REMARK    9  A    between atoms: C_10  and  C_11 
REMARK   10  A    between atoms: C_11  and  C_12 
REMARK   11  A    between atoms: C_12  and  O_13 
ROOT
HETATM    1  C   UNL     1     -20.370  -5.320  -8.101  1.00  0.00     0.000 C 
ENDROOT
BRANCH   1   2
HETATM    2  C   UNL     1     -19.686  -4.738  -6.867  1.00  0.00     0.000 C 
BRANCH   2   3
HETATM    3  C   UNL     1     -20.508  -5.009  -5.611  1.00  0.00     0.000 C 
BRANCH   3   4
HETATM    4  C   UNL     1     -21.439  -6.202  -5.814  1.00  0.00     0.000 C 
BRANCH   4   5
HETATM    5  C   UNL     1     -22.168  -6.546  -4.517  1.00  0.00    -0.000 C 
BRANCH   5   6
HETATM    6  C   UNL     1     -21.306  -6.224  -3.299  1.00  0.00    -0.005 C 
HETATM    7  C   UNL     1     -22.146  -6.184  -2.032  1.00  0.00     0.005 C 
ENDBRANCH   5   6
ENDBRANCH   4   5
ENDBRANCH   3   4
ENDBRANCH   2   3
ENDBRANCH   1   2
BRANCH   1   8
HETATM    8  C   UNL     1     -20.183  -4.406  -9.308  1.00  0.00     0.000 C 
BRANCH   8   9
HETATM    9  C   UNL     1     -21.528  -3.912  -9.833  1.00  0.00     0.000 C 
BRANCH   9  10
HETATM   10  C   UNL     1     -22.676  -4.454  -8.985  1.00  0.00     0.002 C 
BRANCH  10  11
HETATM   11  C   UNL     1     -23.919  -4.694  -9.832  1.00  0.00     0.026 C 
BRANCH  11  12
HETATM   12  C   UNL     1     -24.535  -3.382 -10.295  1.00  0.00     0.164 C 
BRANCH  12  13
HETATM   13  O   UNL     1     -25.831  -3.232  -9.732  1.00  0.00    -0.401 OA
HETATM   14  H   UNL     1     -25.745  -3.327  -8.770  1.00  0.00     0.209 HD
ENDBRANCH  12  13
ENDBRANCH  11  12
ENDBRANCH  10  11
ENDBRANCH   9  10
ENDBRANCH   8   9
ENDBRANCH   1   8
TORSDOF 11
BEGIN_RES ARG D 557
REMARK  4 active torsions:
REMARK  status: ('A' for Active; 'I' for Inactive)
REMARK    1  A    between atoms: CA   and  CB  
REMARK    2  A    between atoms: CB   and  CG  
REMARK    3  A    between atoms: CG   and  CD  
REMARK    4  A    between atoms: CD   and  NE  
REMARK       I    between atoms: NE   and  CZ  
REMARK       I    between atoms: CZ   and  NH1 
REMARK       I    between atoms: CZ   and  NH2 
ROOT
ATOM      1  CA  ARG D 557     -26.217   2.705 -17.014  1.00 35.49     0.159 C 
ENDROOT
BRANCH   1   2
ATOM      2  CB  ARG D 557     -26.789   1.319 -17.183  1.00 35.49     0.034 C 
BRANCH   2   3
ATOM      3  CG  ARG D 557     -28.189   1.129 -16.785  1.00 35.49     0.027 C 
BRANCH   3   4
ATOM      4  CD  ARG D 557     -28.719  -0.191 -17.198  1.00 35.49     0.116 C 
BRANCH   4   5
ATOM      5  NE  ARG D 557     -27.990  -1.279 -16.601  1.00 35.49    -0.212 N 
ATOM      6  CZ  ARG D 557     -28.235  -2.557 -16.781  1.00 35.49     0.666 C 
ATOM      7  NH1 ARG D 557     -29.221  -2.990 -17.545  1.00 35.49    -0.235 N 
ATOM      8  NH2 ARG D 557     -27.457  -3.408 -16.177  1.00 35.49    -0.235 N 
ATOM      9  HH  ARG D 557     -29.744  -2.448 -17.954  1.00 35.49     0.174 HD
ATOM     10  HH  ARG D 557     -29.331  -3.836 -17.627  1.00 35.49     0.174 HD
ATOM     11  HH  ARG D 557     -26.824  -3.100 -15.696  1.00 35.49     0.174 HD
ATOM     12  HH  ARG D 557     -27.582  -4.242 -16.272  1.00 35.49     0.174 HD
ATOM     13  HE  ARG D 557     -27.383  -1.090 -16.037  1.00 35.49     0.178 HD
ENDBRANCH   4   5
ENDBRANCH   3   4
ENDBRANCH   2   3
ENDBRANCH   1   2
END_RES ARG D 557
BEGIN_RES GLU D 570
REMARK  3 active torsions:
REMARK  status: ('A' for Active; 'I' for Inactive)
REMARK    5  A    between atoms: CA   and  CB  
REMARK    6  A    between atoms: CB   and  CG  
REMARK    7  A    between atoms: CG   and  CD  
ROOT
ATOM     14  CA  GLU D 570     -18.033  -6.348 -13.375  1.00 32.92     0.160 C 
ENDROOT
BRANCH  14  15
ATOM     15  CB  GLU D 570     -19.500  -6.345 -13.794  1.00 32.92     0.043 C 
BRANCH  15  16
ATOM     16  CG  GLU D 570     -20.439  -5.520 -12.991  1.00 32.92     0.100 C 
BRANCH  16  17
ATOM     17  CD  GLU D 570     -21.705  -5.172 -13.740  1.00 32.92     0.185 C 
ATOM     18  OE1 GLU D 570     -22.779  -5.098 -13.112  1.00 32.92    -0.647 OA
ATOM     19  OE2 GLU D 570     -21.625  -4.988 -14.970  1.00 32.92    -0.647 OA
ENDBRANCH  16  17
ENDBRANCH  15  16
ENDBRANCH  14  15
END_RES GLU D 570
ENDMDL
MODEL 3
REMARK VINA RESULT:      -5.6      2.612      5.315
REMARK  11 active torsions:
REMARK  status: ('A' for Active; 'I' for Inactive)
REMARK    1  A    between atoms: C_2  and  C_3 
REMARK    2  A    between atoms: C_3  and  C_4 
REMARK    3  A    between atoms: C_4  and  C_5 
REMARK    4  A    between atoms: C_5  and  C_6 
REMARK    5  A    between atoms: C_6  and  C_7 
REMARK    6  A    between atoms: C_7  and  C_8 
REMARK    7  A    between atoms: C_8  and  C_9 
REMARK    8  A    between atoms: C_9  and  C_10 
REMARK    9  A    between atoms: C_10  and  C_11 
REMARK   10  A    between atoms: C_11  and  C_12 
REMARK   11  A    between atoms: C_12  and  O_13 
ROOT
HETATM    1  C   UNL     1     -20.306  -5.022  -5.592  1.00  0.00     0.000 C 
ENDROOT
BRANCH   1   2
HETATM    2  C   UNL     1     -19.623  -4.695  -6.917  1.00  0.00     0.000 C 
BRANCH   2   3
HETATM    3  C   UNL     1     -20.436  -5.227  -8.093  1.00  0.00     0.000 C 
BRANCH   3   4
HETATM    4  C   UNL     1     -20.471  -4.214  -9.236  1.00  0.00     0.000 C 
BRANCH   4   5
HETATM    5  C   UNL     1     -21.862  -4.156  -9.864  1.00  0.00    -0.000 C 
BRANCH   5   6
HETATM    6  C   UNL     1     -22.939  -3.958  -8.799  1.00  0.00    -0.005 C 
HETATM    7  C   UNL     1     -24.247  -3.504  -9.426  1.00  0.00     0.005 C 
ENDBRANCH   5   6
ENDBRANCH   4   5
ENDBRANCH   3   4
ENDBRANCH   2   3
ENDBRANCH   1   2
BRANCH   1   8
HETATM    8  C   UNL     1     -21.081  -6.331  -5.689  1.00  0.00     0.000 C 
BRANCH   8   9
HETATM    9  C   UNL     1     -22.032  -6.492  -4.506  1.00  0.00     0.000 C 
BRANCH   9  10
HETATM   10  C   UNL     1     -21.272  -6.420  -3.183  1.00  0.00     0.002 C 
BRANCH  10  11
HETATM   11  C   UNL     1     -22.225  -6.209  -2.013  1.00  0.00     0.026 C 
BRANCH  11  12
HETATM   12  C   UNL     1     -22.064  -7.301  -0.965  1.00  0.00     0.164 C 
BRANCH  12  13
HETATM   13  O   UNL     1     -23.198  -7.320  -0.109  1.00  0.00    -0.401 OA
HETATM   14  H   UNL     1     -23.989  -7.260  -0.670  1.00  0.00     0.209 HD
ENDBRANCH  12  13
ENDBRANCH  11  12
ENDBRANCH  10  11
ENDBRANCH   9  10
ENDBRANCH   8   9
ENDBRANCH   1   8
TORSDOF 11
BEGIN_RES ARG D 557
REMARK  4 active torsions:
REMARK  status: ('A' for Active; 'I' for Inactive)
REMARK    1  A    between atoms: CA   and  CB  
REMARK    2  A    between atoms: CB   and  CG  
REMARK    3  A    between atoms: CG   and  CD  
REMARK    4  A    between atoms: CD   and  NE  
REMARK       I    between atoms: NE   and  CZ  
REMARK       I    between atoms: CZ   and  NH1 
REMARK       I    between atoms: CZ   and  NH2 
ROOT
ATOM      1  CA  ARG D 557     -26.217   2.705 -17.014  1.00 35.49     0.159 C 
ENDROOT
BRANCH   1   2
ATOM      2  CB  ARG D 557     -26.789   1.319 -17.183  1.00 35.49     0.034 C 
BRANCH   2   3
ATOM      3  CG  ARG D 557     -25.836   0.203 -17.152  1.00 35.49     0.027 C 
BRANCH   3   4
ATOM      4  CD  ARG D 557     -24.762   0.405 -16.153  1.00 35.49     0.116 C 
BRANCH   4   5
ATOM      5  NE  ARG D 557     -24.918  -0.454 -15.009  1.00 35.49    -0.212 N 
ATOM      6  CZ  ARG D 557     -24.104  -1.425 -14.661  1.00 35.49     0.666 C 
ATOM      7  NH1 ARG D 557     -23.027  -1.733 -15.360  1.00 35.49    -0.235 N 
ATOM      8  NH2 ARG D 557     -24.389  -2.089 -13.578  1.00 35.49    -0.235 N 
ATOM      9  HH  ARG D 557     -22.819  -1.308 -16.075  1.00 35.49     0.174 HD
ATOM     10  HH  ARG D 557     -22.532  -2.375 -15.084  1.00 35.49     0.174 HD
ATOM     11  HH  ARG D 557     -25.087  -1.863 -13.143  1.00 35.49     0.174 HD
ATOM     12  HH  ARG D 557     -23.886  -2.720 -13.320  1.00 35.49     0.174 HD
ATOM     13  HE  ARG D 557     -25.624  -0.373 -14.542  1.00 35.49     0.178 HD
ENDBRANCH   4   5
ENDBRANCH   3   4
ENDBRANCH   2   3
ENDBRANCH   1   2
END_RES ARG D 557
BEGIN_RES GLU D 570
REMARK  3 active torsions:
REMARK  status: ('A' for Active; 'I' for Inactive)
REMARK    5  A    between atoms: CA   and  CB  
REMARK    6  A    between atoms: CB   and  CG  
REMARK    7  A    between atoms: CG   and  CD  
ROOT
ATOM     14  CA  GLU D 570     -18.033  -6.348 -13.375  1.00 32.92     0.160 C 
ENDROOT
BRANCH  14  15
ATOM     15  CB  GLU D 570     -19.500  -6.345 -13.794  1.00 32.92     0.043 C 
BRANCH  15  16
ATOM     16  CG  GLU D 570     -20.443  -5.534 -12.980  1.00 32.92     0.100 C 
BRANCH  16  17
ATOM     17  CD  GLU D 570     -21.734  -5.229 -13.704  1.00 32.92     0.185 C 
ATOM     18  OE1 GLU D 570     -22.189  -6.065 -14.508  1.00 32.92    -0.647 OA
ATOM     19  OE2 GLU D 570     -22.287  -4.135 -13.476  1.00 32.92    -0.647 OA
ENDBRANCH  16  17
ENDBRANCH  15  16
ENDBRANCH  14  15
END_RES GLU D 570
ENDMDL
MODEL 4
REMARK VINA RESULT:      -5.4      2.431      3.740
REMARK  11 active torsions:
REMARK  status: ('A' for Active; 'I' for Inactive)
REMARK    1  A    between atoms: C_2  and  C_3 
REMARK    2  A    between atoms: C_3  and  C_4 
REMARK    3  A    between atoms: C_4  and  C_5 
REMARK    4  A    between atoms: C_5  and  C_6 
REMARK    5  A    between atoms: C_6  and  C_7 
REMARK    6  A    between atoms: C_7  and  C_8 
REMARK    7  A    between atoms: C_8  and  C_9 
REMARK    8  A    between atoms: C_9  and  C_10 
REMARK    9  A    between atoms: C_10  and  C_11 
REMARK   10  A    between atoms: C_11  and  C_12 
REMARK   11  A    between atoms: C_12  and  O_13 
ROOT
HETATM    1  C   UNL     1     -20.492  -4.122 -10.587  1.00  0.00     0.000 C 
ENDROOT
BRANCH   1   2
HETATM    2  C   UNL     1     -21.087  -4.190  -9.183  1.00  0.00     0.000 C 
BRANCH   2   3
HETATM    3  C   UNL     1     -20.006  -3.992  -8.125  1.00  0.00     0.000 C 
BRANCH   3   4
HETATM    4  C   UNL     1     -20.508  -4.413  -6.745  1.00  0.00     0.000 C 
BRANCH   4   5
HETATM    5  C   UNL     1     -20.011  -5.814  -6.393  1.00  0.00    -0.000 C 
BRANCH   5   6
HETATM    6  C   UNL     1     -21.179  -6.766  -6.146  1.00  0.00    -0.005 C 
HETATM    7  C   UNL     1     -21.950  -6.370  -4.897  1.00  0.00     0.005 C 
ENDBRANCH   5   6
ENDBRANCH   4   5
ENDBRANCH   3   4
ENDBRANCH   2   3
ENDBRANCH   1   2
BRANCH   1   8
HETATM    8  C   UNL     1     -21.572  -4.320 -11.645  1.00  0.00     0.000 C 
BRANCH   8   9
HETATM    9  C   UNL     1     -22.965  -4.172 -11.039  1.00  0.00     0.000 C 
BRANCH   9  10
HETATM   10  C   UNL     1     -23.787  -3.143 -11.812  1.00  0.00     0.002 C 
BRANCH  10  11
HETATM   11  C   UNL     1     -22.984  -2.551 -12.964  1.00  0.00     0.026 C 
BRANCH  11  12
HETATM   12  C   UNL     1     -23.724  -2.697 -14.286  1.00  0.00     0.164 C 
BRANCH  12  13
HETATM   13  O   UNL     1     -22.839  -2.433 -15.366  1.00  0.00    -0.401 OA
HETATM   14  H   UNL     1     -22.393  -1.590 -15.179  1.00  0.00     0.209 HD
ENDBRANCH  12  13
ENDBRANCH  11  12
ENDBRANCH  10  11
ENDBRANCH   9  10
ENDBRANCH   8   9
ENDBRANCH   1   8
TORSDOF 11
BEGIN_RES ARG D 557
REMARK  4 active torsions:
REMARK  status: ('A' for Active; 'I' for Inactive)
REMARK    1  A    between atoms: CA   and  CB  
REMARK    2  A    between atoms: CB   and  CG  
REMARK    3  A    between atoms: CG   and  CD  
REMARK    4  A    between atoms: CD   and  NE  
REMARK       I    between atoms: NE   and  CZ  
REMARK       I    between atoms: CZ   and  NH1 
REMARK       I    between atoms: CZ   and  NH2 
ROOT
ATOM      1  CA  ARG D 557     -26.217   2.705 -17.014  1.00 35.49     0.159 C 
ENDROOT
BRANCH   1   2
ATOM      2  CB  ARG D 557     -26.789   1.319 -17.183  1.00 35.49     0.034 C 
BRANCH   2   3
ATOM      3  CG  ARG D 557     -28.231   1.226 -17.443  1.00 35.49     0.027 C 
BRANCH   3   4
ATOM      4  CD  ARG D 557     -28.916   0.310 -16.504  1.00 35.49     0.116 C 
BRANCH   4   5
ATOM      5  NE  ARG D 557     -29.298  -0.926 -17.133  1.00 35.49    -0.212 N 
ATOM      6  CZ  ARG D 557     -28.661  -2.071 -17.028  1.00 35.49     0.666 C 
ATOM      7  NH1 ARG D 557     -27.556  -2.205 -16.318  1.00 35.49    -0.235 N 
ATOM      8  NH2 ARG D 557     -29.163  -3.097 -17.652  1.00 35.49    -0.235 N 
ATOM      9  HH  ARG D 557     -27.209  -1.543 -15.898  1.00 35.49     0.174 HD
ATOM     10  HH  ARG D 557     -27.185  -2.976 -16.284  1.00 35.49     0.174 HD
ATOM     11  HH  ARG D 557     -29.881  -2.983 -18.096  1.00 35.49     0.174 HD
ATOM     12  HH  ARG D 557     -28.782  -3.853 -17.604  1.00 35.49     0.174 HD
ATOM     13  HE  ARG D 557     -29.959  -0.915 -17.669  1.00 35.49     0.178 HD
ENDBRANCH   4   5
ENDBRANCH   3   4
ENDBRANCH   2   3
ENDBRANCH   1   2
END_RES ARG D 557
BEGIN_RES GLU D 570
REMARK  3 active torsions:
REMARK  status: ('A' for Active; 'I' for Inactive)
REMARK    5  A    between atoms: CA   and  CB  
REMARK    6  A    between atoms: CB   and  CG  
REMARK    7  A    between atoms: CG   and  CD  
ROOT
ATOM     14  CA  GLU D 570     -18.033  -6.348 -13.375  1.00 32.92     0.160 C 
ENDROOT
BRANCH  14  15
ATOM     15  CB  GLU D 570     -19.500  -6.345 -13.794  1.00 32.92     0.043 C 
BRANCH  15  16
ATOM     16  CG  GLU D 570     -19.808  -5.993 -15.204  1.00 32.92     0.100 C 
BRANCH  16  17
ATOM     17  CD  GLU D 570     -21.259  -5.626 -15.416  1.00 32.92     0.185 C 
ATOM     18  OE1 GLU D 570     -22.116  -6.062 -14.624  1.00 32.92    -0.647 OA
ATOM     19  OE2 GLU D 570     -21.543  -4.908 -16.395  1.00 32.92    -0.647 OA
ENDBRANCH  16  17
ENDBRANCH  15  16
ENDBRANCH  14  15
END_RES GLU D 570
ENDMDL
MODEL 5
REMARK VINA RESULT:      -5.4      2.217      3.316
REMARK  11 active torsions:
REMARK  status: ('A' for Active; 'I' for Inactive)
REMARK    1  A    between atoms: C_2  and  C_3 
REMARK    2  A    between atoms: C_3  and  C_4 
REMARK    3  A    between atoms: C_4  and  C_5 
REMARK    4  A    between atoms: C_5  and  C_6 
REMARK    5  A    between atoms: C_6  and  C_7 
REMARK    6  A    between atoms: C_7  and  C_8 
REMARK    7  A    between atoms: C_8  and  C_9 
REMARK    8  A    between atoms: C_9  and  C_10 
REMARK    9  A    between atoms: C_10  and  C_11 
REMARK   10  A    between atoms: C_11  and  C_12 
REMARK   11  A    between atoms: C_12  and  O_13 
ROOT
HETATM    1  C   UNL     1     -22.113  -6.400  -4.788  1.00  0.00     0.000 C 
ENDROOT
BRANCH   1   2
HETATM    2  C   UNL     1     -21.308  -6.188  -3.509  1.00  0.00     0.000 C 
BRANCH   2   3
HETATM    3  C   UNL     1     -22.201  -6.303  -2.279  1.00  0.00     0.000 C 
BRANCH   3   4
HETATM    4  C   UNL     1     -21.677  -7.370  -1.320  1.00  0.00     0.000 C 
BRANCH   4   5
HETATM    5  C   UNL     1     -22.679  -7.628  -0.197  1.00  0.00    -0.000 C 
BRANCH   5   6
HETATM    6  C   UNL     1     -21.969  -8.064   1.083  1.00  0.00    -0.005 C 
HETATM    7  C   UNL     1     -21.130  -9.309   0.844  1.00  0.00     0.005 C 
ENDBRANCH   5   6
ENDBRANCH   4   5
ENDBRANCH   3   4
ENDBRANCH   2   3
ENDBRANCH   1   2
BRANCH   1   8
HETATM    8  C   UNL     1     -21.240  -6.189  -6.021  1.00  0.00     0.000 C 
BRANCH   8   9
HETATM    9  C   UNL     1     -20.500  -4.856  -5.946  1.00  0.00     0.000 C 
BRANCH   9  10
HETATM   10  C   UNL     1     -20.692  -4.055  -7.232  1.00  0.00     0.002 C 
BRANCH  10  11
HETATM   11  C   UNL     1     -21.566  -4.811  -8.225  1.00  0.00     0.026 C 
BRANCH  11  12
HETATM   12  C   UNL     1     -22.735  -3.956  -8.694  1.00  0.00     0.164 C 
BRANCH  12  13
HETATM   13  O   UNL     1     -23.833  -4.109  -7.805  1.00  0.00    -0.401 OA
HETATM   14  H   UNL     1     -24.642  -3.906  -8.301  1.00  0.00     0.209 HD
ENDBRANCH  12  13
ENDBRANCH  11  12
ENDBRANCH  10  11
ENDBRANCH   9  10
ENDBRANCH   8   9
ENDBRANCH   1   8
TORSDOF 11
BEGIN_RES ARG D 557
REMARK  4 active torsions:
REMARK  status: ('A' for Active; 'I' for Inactive)
REMARK    1  A    between atoms: CA   and  CB  
REMARK    2  A    between atoms: CB   and  CG  
REMARK    3  A    between atoms: CG   and  CD  
REMARK    4  A    between atoms: CD   and  NE  
REMARK       I    between atoms: NE   and  CZ  
REMARK       I    between atoms: CZ   and  NH1 
REMARK       I    between atoms: CZ   and  NH2 
ROOT
ATOM      1  CA  ARG D 557     -26.217   2.705 -17.014  1.00 35.49     0.159 C 
ENDROOT
BRANCH   1   2
ATOM      2  CB  ARG D 557     -26.789   1.319 -17.183  1.00 35.49     0.034 C 
BRANCH   2   3
ATOM      3  CG  ARG D 557     -28.231   1.226 -17.441  1.00 35.49     0.027 C 
BRANCH   3   4
ATOM      4  CD  ARG D 557     -28.915   0.311 -16.499  1.00 35.49     0.116 C 
BRANCH   4   5
ATOM      5  NE  ARG D 557     -29.288  -0.931 -17.123  1.00 35.49    -0.212 N 
ATOM      6  CZ  ARG D 557     -28.638  -2.068 -17.019  1.00 35.49     0.666 C 
ATOM      7  NH1 ARG D 557     -27.527  -2.189 -16.316  1.00 35.49    -0.235 N 
ATOM      8  NH2 ARG D 557     -29.133  -3.101 -17.637  1.00 35.49    -0.235 N 
ATOM      9  HH  ARG D 557     -27.185  -1.523 -15.899  1.00 35.49     0.174 HD
ATOM     10  HH  ARG D 557     -27.148  -2.956 -16.282  1.00 35.49     0.174 HD
ATOM     11  HH  ARG D 557     -29.855  -2.996 -18.078  1.00 35.49     0.174 HD
ATOM     12  HH  ARG D 557     -28.743  -3.853 -17.590  1.00 35.49     0.174 HD
ATOM     13  HE  ARG D 557     -29.952  -0.927 -17.655  1.00 35.49     0.178 HD
ENDBRANCH   4   5
ENDBRANCH   3   4
ENDBRANCH   2   3
ENDBRANCH   1   2
END_RES ARG D 557
BEGIN_RES GLU D 570
REMARK  3 active torsions:
REMARK  status: ('A' for Active; 'I' for Inactive)
REMARK    5  A    between atoms: CA   and  CB  
REMARK    6  A    between atoms: CB   and  CG  
REMARK    7  A    between atoms: CG   and  CD  
ROOT
ATOM     14  CA  GLU D 570     -18.033  -6.348 -13.375  1.00 32.92     0.160 C 
ENDROOT
BRANCH  14  15
ATOM     15  CB  GLU D 570     -19.500  -6.345 -13.794  1.00 32.92     0.043 C 
BRANCH  15  16
ATOM     16  CG  GLU D 570     -20.453  -5.584 -12.945  1.00 32.92     0.100 C 
BRANCH  16  17
ATOM     17  CD  GLU D 570     -21.684  -5.137 -13.698  1.00 32.92     0.185 C 
ATOM     18  OE1 GLU D 570     -21.623  -5.005 -14.935  1.00 32.92    -0.647 OA
ATOM     19  OE2 GLU D 570     -22.717  -4.899 -13.040  1.00 32.92    -0.647 OA
ENDBRANCH  16  17
ENDBRANCH  15  16
ENDBRANCH  14  15
END_RES GLU D 570
ENDMDL
MODEL 6
REMARK VINA RESULT:      -5.3      2.774      5.384
REMARK  11 active torsions:
REMARK  status: ('A' for Active; 'I' for Inactive)
REMARK    1  A    between atoms: C_2  and  C_3 
REMARK    2  A    between atoms: C_3  and  C_4 
REMARK    3  A    between atoms: C_4  and  C_5 
REMARK    4  A    between atoms: C_5  and  C_6 
REMARK    5  A    between atoms: C_6  and  C_7 
REMARK    6  A    between atoms: C_7  and  C_8 
REMARK    7  A    between atoms: C_8  and  C_9 
REMARK    8  A    between atoms: C_9  and  C_10 
REMARK    9  A    between atoms: C_10  and  C_11 
REMARK   10  A    between atoms: C_11  and  C_12 
REMARK   11  A    between atoms: C_12  and  O_13 
ROOT
HETATM    1  C   UNL     1     -20.162  -5.441  -7.953  1.00  0.00     0.000 C 
ENDROOT
BRANCH   1   2
HETATM    2  C   UNL     1     -20.030  -4.482  -9.133  1.00  0.00     0.000 C 
BRANCH   2   3
HETATM    3  C   UNL     1     -21.399  -4.133  -9.706  1.00  0.00     0.000 C 
BRANCH   3   4
HETATM    4  C   UNL     1     -22.438  -3.997  -8.595  1.00  0.00     0.000 C 
BRANCH   4   5
HETATM    5  C   UNL     1     -23.847  -3.916  -9.178  1.00  0.00    -0.000 C 
BRANCH   5   6
HETATM    6  C   UNL     1     -23.862  -4.346 -10.643  1.00  0.00    -0.005 C 
HETATM    7  C   UNL     1     -24.443  -3.253 -11.526  1.00  0.00     0.005 C 
ENDBRANCH   5   6
ENDBRANCH   4   5
ENDBRANCH   3   4
ENDBRANCH   2   3
ENDBRANCH   1   2
BRANCH   1   8
HETATM    8  C   UNL     1     -19.530  -4.848  -6.698  1.00  0.00     0.000 C 
BRANCH   8   9
HETATM    9  C   UNL     1     -20.456  -5.004  -5.494  1.00  0.00     0.000 C 
BRANCH   9  10
HETATM   10  C   UNL     1     -20.948  -6.444  -5.369  1.00  0.00     0.002 C 
BRANCH  10  11
HETATM   11  C   UNL     1     -22.043  -6.561  -4.317  1.00  0.00     0.026 C 
BRANCH  11  12
HETATM   12  C   UNL     1     -21.520  -6.210  -2.932  1.00  0.00     0.164 C 
BRANCH  12  13
HETATM   13  O   UNL     1     -22.602  -5.856  -2.082  1.00  0.00    -0.401 OA
HETATM   14  H   UNL     1     -22.721  -6.578  -1.443  1.00  0.00     0.209 HD
ENDBRANCH  12  13
ENDBRANCH  11  12
ENDBRANCH  10  11
ENDBRANCH   9  10
ENDBRANCH   8   9
ENDBRANCH   1   8
TORSDOF 11
BEGIN_RES ARG D 557
REMARK  4 active torsions:
REMARK  status: ('A' for Active; 'I' for Inactive)
REMARK    1  A    between atoms: CA   and  CB  
REMARK    2  A    between atoms: CB   and  CG  
REMARK    3  A    between atoms: CG   and  CD  
REMARK    4  A    between atoms: CD   and  NE  
REMARK       I    between atoms: NE   and  CZ  
REMARK       I    between atoms: CZ   and  NH1 
REMARK       I    between atoms: CZ   and  NH2 
ROOT
ATOM      1  CA  ARG D 557     -26.217   2.705 -17.014  1.00 35.49     0.159 C 
ENDROOT
BRANCH   1   2
ATOM      2  CB  ARG D 557     -26.789   1.319 -17.183  1.00 35.49     0.034 C 
BRANCH   2   3
ATOM      3  CG  ARG D 557     -28.215   1.151 -16.876  1.00 35.49     0.027 C 
BRANCH   3   4
ATOM      4  CD  ARG D 557     -28.716  -0.193 -17.244  1.00 35.49     0.116 C 
BRANCH   4   5
ATOM      5  NE  ARG D 557     -27.962  -1.245 -16.614  1.00 35.49    -0.212 N 
ATOM      6  CZ  ARG D 557     -28.178  -2.534 -16.751  1.00 35.49     0.666 C 
ATOM      7  NH1 ARG D 557     -29.156  -3.013 -17.498  1.00 35.49    -0.235 N 
ATOM      8  NH2 ARG D 557     -27.380  -3.347 -16.122  1.00 35.49    -0.235 N 
ATOM      9  HH  ARG D 557     -29.691  -2.496 -17.923  1.00 35.49     0.174 HD
ATOM     10  HH  ARG D 557     -29.247  -3.863 -17.552  1.00 35.49     0.174 HD
ATOM     11  HH  ARG D 557     -26.753  -3.009 -15.653  1.00 35.49     0.174 HD
ATOM     12  HH  ARG D 557     -27.486  -4.185 -16.189  1.00 35.49     0.174 HD
ATOM     13  HE  ARG D 557     -27.357  -1.025 -16.057  1.00 35.49     0.178 HD
ENDBRANCH   4   5
ENDBRANCH   3   4
ENDBRANCH   2   3
ENDBRANCH   1   2
END_RES ARG D 557
BEGIN_RES GLU D 570
REMARK  3 active torsions:
REMARK  status: ('A' for Active; 'I' for Inactive)
REMARK    5  A    between atoms: CA   and  CB  
REMARK    6  A    between atoms: CB   and  CG  
REMARK    7  A    between atoms: CG   and  CD  
ROOT
ATOM     14  CA  GLU D 570     -18.033  -6.348 -13.375  1.00 32.92     0.160 C 
ENDROOT
BRANCH  14  15
ATOM     15  CB  GLU D 570     -19.500  -6.345 -13.794  1.00 32.92     0.043 C 
BRANCH  15  16
ATOM     16  CG  GLU D 570     -20.431  -5.483 -13.020  1.00 32.92     0.100 C 
BRANCH  16  17
ATOM     17  CD  GLU D 570     -21.731  -5.221 -13.745  1.00 32.92     0.185 C 
ATOM     18  OE1 GLU D 570     -22.366  -6.184 -14.216  1.00 32.92    -0.647 OA
ATOM     19  OE2 GLU D 570     -22.110  -4.039 -13.857  1.00 32.92    -0.647 OA
ENDBRANCH  16  17
ENDBRANCH  15  16
ENDBRANCH  14  15
END_RES GLU D 570
ENDMDL
MODEL 7
REMARK VINA RESULT:      -5.3      2.833      5.554
REMARK  11 active torsions:
REMARK  status: ('A' for Active; 'I' for Inactive)
REMARK    1  A    between atoms: C_2  and  C_3 
REMARK    2  A    between atoms: C_3  and  C_4 
REMARK    3  A    between atoms: C_4  and  C_5 
REMARK    4  A    between atoms: C_5  and  C_6 
REMARK    5  A    between atoms: C_6  and  C_7 
REMARK    6  A    between atoms: C_7  and  C_8 
REMARK    7  A    between atoms: C_8  and  C_9 
REMARK    8  A    between atoms: C_9  and  C_10 
REMARK    9  A    between atoms: C_10  and  C_11 
REMARK   10  A    between atoms: C_11  and  C_12 
REMARK   11  A    between atoms: C_12  and  O_13 
ROOT
HETATM    1  C   UNL     1     -21.524  -6.205  -5.817  1.00  0.00     0.000 C 
ENDROOT
BRANCH   1   2
HETATM    2  C   UNL     1     -20.612  -5.028  -5.478  1.00  0.00     0.000 C 
BRANCH   2   3
HETATM    3  C   UNL     1     -19.616  -4.770  -6.603  1.00  0.00     0.000 C 
BRANCH   3   4
HETATM    4  C   UNL     1     -19.998  -5.549  -7.860  1.00  0.00     0.000 C 
BRANCH   4   5
HETATM    5  C   UNL     1     -20.046  -4.626  -9.076  1.00  0.00    -0.000 C 
BRANCH   5   6
HETATM    6  C   UNL     1     -21.370  -3.867  -9.137  1.00  0.00    -0.005 C 
HETATM    7  C   UNL     1     -22.541  -4.825  -9.280  1.00  0.00     0.005 C 
ENDBRANCH   5   6
ENDBRANCH   4   5
ENDBRANCH   3   4
ENDBRANCH   2   3
ENDBRANCH   1   2
BRANCH   1   8
HETATM    8  C   UNL     1     -21.848  -7.018  -4.568  1.00  0.00     0.000 C 
BRANCH   8   9
HETATM    9  C   UNL     1     -21.555  -6.218  -3.302  1.00  0.00     0.000 C 
BRANCH   9  10
HETATM   10  C   UNL     1     -21.343  -7.148  -2.109  1.00  0.00     0.002 C 
BRANCH  10  11
HETATM   11  C   UNL     1     -22.326  -6.834  -0.988  1.00  0.00     0.026 C 
BRANCH  11  12
HETATM   12  C   UNL     1     -22.386  -7.966   0.028  1.00  0.00     0.164 C 
BRANCH  12  13
HETATM   13  O   UNL     1     -23.661  -7.984   0.656  1.00  0.00    -0.401 OA
HETATM   14  H   UNL     1     -23.906  -7.064   0.846  1.00  0.00     0.209 HD
ENDBRANCH  12  13
ENDBRANCH  11  12
ENDBRANCH  10  11
ENDBRANCH   9  10
ENDBRANCH   8   9
ENDBRANCH   1   8
TORSDOF 11
BEGIN_RES ARG D 557
REMARK  4 active torsions:
REMARK  status: ('A' for Active; 'I' for Inactive)
REMARK    1  A    between atoms: CA   and  CB  
REMARK    2  A    between atoms: CB   and  CG  
REMARK    3  A    between atoms: CG   and  CD  
REMARK    4  A    between atoms: CD   and  NE  
REMARK       I    between atoms: NE   and  CZ  
REMARK       I    between atoms: CZ   and  NH1 
REMARK       I    between atoms: CZ   and  NH2 
ROOT
ATOM      1  CA  ARG D 557     -26.217   2.705 -17.014  1.00 35.49     0.159 C 
ENDROOT
BRANCH   1   2
ATOM      2  CB  ARG D 557     -26.789   1.319 -17.183  1.00 35.49     0.034 C 
BRANCH   2   3
ATOM      3  CG  ARG D 557     -25.925   0.196 -16.799  1.00 35.49     0.027 C 
BRANCH   3   4
ATOM      4  CD  ARG D 557     -26.665  -0.867 -16.082  1.00 35.49     0.116 C 
BRANCH   4   5
ATOM      5  NE  ARG D 557     -25.849  -1.527 -15.098  1.00 35.49    -0.212 N 
ATOM      6  CZ  ARG D 557     -25.894  -2.805 -14.795  1.00 35.49     0.666 C 
ATOM      7  NH1 ARG D 557     -26.735  -3.642 -15.374  1.00 35.49    -0.235 N 
ATOM      8  NH2 ARG D 557     -25.064  -3.238 -13.891  1.00 35.49    -0.235 N 
ATOM      9  HH  ARG D 557     -27.289  -3.380 -15.973  1.00 35.49     0.174 HD
ATOM     10  HH  ARG D 557     -26.717  -4.466 -15.138  1.00 35.49     0.174 HD
ATOM     11  HH  ARG D 557     -24.527  -2.676 -13.539  1.00 35.49     0.174 HD
ATOM     12  HH  ARG D 557     -25.061  -4.057 -13.672  1.00 35.49     0.174 HD
ATOM     13  HE  ARG D 557     -25.329  -1.049 -14.625  1.00 35.49     0.178 HD
ENDBRANCH   4   5
ENDBRANCH   3   4
ENDBRANCH   2   3
ENDBRANCH   1   2
END_RES ARG D 557
BEGIN_RES GLU D 570
REMARK  3 active torsions:
REMARK  status: ('A' for Active; 'I' for Inactive)
REMARK    5  A    between atoms: CA   and  CB  
REMARK    6  A    between atoms: CB   and  CG  
REMARK    7  A    between atoms: CG   and  CD  
ROOT
ATOM     14  CA  GLU D 570     -18.033  -6.348 -13.375  1.00 32.92     0.160 C 
ENDROOT
BRANCH  14  15
ATOM     15  CB  GLU D 570     -19.500  -6.345 -13.794  1.00 32.92     0.043 C 
BRANCH  15  16
ATOM     16  CG  GLU D 570     -20.446  -5.551 -12.968  1.00 32.92     0.100 C 
BRANCH  16  17
ATOM     17  CD  GLU D 570     -21.709  -5.181 -13.711  1.00 32.92     0.185 C 
ATOM     18  OE1 GLU D 570     -22.780  -5.101 -13.080  1.00 32.92    -0.647 OA
ATOM     19  OE2 GLU D 570     -21.629  -4.985 -14.939  1.00 32.92    -0.647 OA
ENDBRANCH  16  17
ENDBRANCH  15  16
ENDBRANCH  14  15
END_RES GLU D 570
ENDMDL
MODEL 8
REMARK VINA RESULT:      -5.3      2.893      4.292
REMARK  11 active torsions:
REMARK  status: ('A' for Active; 'I' for Inactive)
REMARK    1  A    between atoms: C_2  and  C_3 
REMARK    2  A    between atoms: C_3  and  C_4 
REMARK    3  A    between atoms: C_4  and  C_5 
REMARK    4  A    between atoms: C_5  and  C_6 
REMARK    5  A    between atoms: C_6  and  C_7 
REMARK    6  A    between atoms: C_7  and  C_8 
REMARK    7  A    between atoms: C_8  and  C_9 
REMARK    8  A    between atoms: C_9  and  C_10 
REMARK    9  A    between atoms: C_10  and  C_11 
REMARK   10  A    between atoms: C_11  and  C_12 
REMARK   11  A    between atoms: C_12  and  O_13 
ROOT
HETATM    1  C   UNL     1     -24.159  -4.114 -10.220  1.00  0.00     0.000 C 
ENDROOT
BRANCH   1   2
HETATM    2  C   UNL     1     -22.929  -4.641  -9.487  1.00  0.00     0.000 C 
BRANCH   2   3
HETATM    3  C   UNL     1     -22.948  -4.220  -8.021  1.00  0.00     0.000 C 
BRANCH   3   4
HETATM    4  C   UNL     1     -21.622  -3.577  -7.620  1.00  0.00     0.000 C 
BRANCH   4   5
HETATM    5  C   UNL     1     -20.455  -4.245  -8.343  1.00  0.00    -0.000 C 
BRANCH   5   6
HETATM    6  C   UNL     1     -19.376  -4.685  -7.356  1.00  0.00    -0.005 C 
HETATM    7  C   UNL     1     -19.945  -4.828  -5.954  1.00  0.00     0.005 C 
ENDBRANCH   5   6
ENDBRANCH   4   5
ENDBRANCH   3   4
ENDBRANCH   2   3
ENDBRANCH   1   2
BRANCH   1   8
HETATM    8  C   UNL     1     -23.754  -3.270 -11.424  1.00  0.00     0.000 C 
BRANCH   8   9
HETATM    9  C   UNL     1     -22.399  -3.711 -11.971  1.00  0.00     0.000 C 
BRANCH   9  10
HETATM   10  C   UNL     1     -22.529  -4.210 -13.408  1.00  0.00     0.002 C 
BRANCH  10  11
HETATM   11  C   UNL     1     -23.382  -5.471 -13.477  1.00  0.00     0.026 C 
BRANCH  11  12
HETATM   12  C   UNL     1     -24.292  -5.457 -14.697  1.00  0.00     0.164 C 
BRANCH  12  13
HETATM   13  O   UNL     1     -24.907  -4.182 -14.826  1.00  0.00    -0.401 OA
HETATM   14  H   UNL     1     -24.360  -3.653 -15.429  1.00  0.00     0.209 HD
ENDBRANCH  12  13
ENDBRANCH  11  12
ENDBRANCH  10  11
ENDBRANCH   9  10
ENDBRANCH   8   9
ENDBRANCH   1   8
TORSDOF 11
BEGIN_RES ARG D 557
REMARK  4 active torsions:
REMARK  status: ('A' for Active; 'I' for Inactive)
REMARK    1  A    between atoms: CA   and  CB  
REMARK    2  A    between atoms: CB   and  CG  
REMARK    3  A    between atoms: CG   and  CD  
REMARK    4  A    between atoms: CD   and  NE  
REMARK       I    between atoms: NE   and  CZ  
REMARK       I    between atoms: CZ   and  NH1 
REMARK       I    between atoms: CZ   and  NH2 
ROOT
ATOM      1  CA  ARG D 557     -26.217   2.705 -17.014  1.00 35.49     0.159 C 
ENDROOT
BRANCH   1   2
ATOM      2  CB  ARG D 557     -26.789   1.319 -17.183  1.00 35.49     0.034 C 
BRANCH   2   3
ATOM      3  CG  ARG D 557     -28.231   1.226 -17.439  1.00 35.49     0.027 C 
BRANCH   3   4
ATOM      4  CD  ARG D 557     -28.910   0.293 -16.511  1.00 35.49     0.116 C 
BRANCH   4   5
ATOM      5  NE  ARG D 557     -28.100  -0.858 -16.210  1.00 35.49    -0.212 N 
ATOM      6  CZ  ARG D 557     -28.299  -2.077 -16.659  1.00 35.49     0.666 C 
ATOM      7  NH1 ARG D 557     -29.310  -2.384 -17.451  1.00 35.49    -0.235 N 
ATOM      8  NH2 ARG D 557     -27.450  -2.995 -16.300  1.00 35.49    -0.235 N 
ATOM      9  HH  ARG D 557     -29.879  -1.795 -17.702  1.00 35.49     0.174 HD
ATOM     10  HH  ARG D 557     -29.388  -3.196 -17.714  1.00 35.49     0.174 HD
ATOM     11  HH  ARG D 557     -26.803  -2.766 -15.794  1.00 35.49     0.174 HD
ATOM     12  HH  ARG D 557     -27.544  -3.792 -16.572  1.00 35.49     0.174 HD
ATOM     13  HE  ARG D 557     -27.468  -0.765 -15.648  1.00 35.49     0.178 HD
ENDBRANCH   4   5
ENDBRANCH   3   4
ENDBRANCH   2   3
ENDBRANCH   1   2
END_RES ARG D 557
BEGIN_RES GLU D 570
REMARK  3 active torsions:
REMARK  status: ('A' for Active; 'I' for Inactive)
REMARK    5  A    between atoms: CA   and  CB  
REMARK    6  A    between atoms: CB   and  CG  
REMARK    7  A    between atoms: CG   and  CD  
ROOT
ATOM     14  CA  GLU D 570     -18.033  -6.348 -13.375  1.00 32.92     0.160 C 
ENDROOT
BRANCH  14  15
ATOM     15  CB  GLU D 570     -19.500  -6.345 -13.794  1.00 32.92     0.043 C 
BRANCH  15  16
ATOM     16  CG  GLU D 570     -19.797  -6.247 -15.247  1.00 32.92     0.100 C 
BRANCH  16  17
ATOM     17  CD  GLU D 570     -20.767  -7.303 -15.723  1.00 32.92     0.185 C 
ATOM     18  OE1 GLU D 570     -21.702  -6.970 -16.475  1.00 32.92    -0.647 OA
ATOM     19  OE2 GLU D 570     -20.599  -8.473 -15.325  1.00 32.92    -0.647 OA
ENDBRANCH  16  17
ENDBRANCH  15  16
ENDBRANCH  14  15
END_RES GLU D 570
ENDMDL
MODEL 9
REMARK VINA RESULT:      -5.2      3.278      5.243
REMARK  11 active torsions:
REMARK  status: ('A' for Active; 'I' for Inactive)
REMARK    1  A    between atoms: C_2  and  C_3 
REMARK    2  A    between atoms: C_3  and  C_4 
REMARK    3  A    between atoms: C_4  and  C_5 
REMARK    4  A    between atoms: C_5  and  C_6 
REMARK    5  A    between atoms: C_6  and  C_7 
REMARK    6  A    between atoms: C_7  and  C_8 
REMARK    7  A    between atoms: C_8  and  C_9 
REMARK    8  A    between atoms: C_9  and  C_10 
REMARK    9  A    between atoms: C_10  and  C_11 
REMARK   10  A    between atoms: C_11  and  C_12 
REMARK   11  A    between atoms: C_12  and  O_13 
ROOT
HETATM    1  C   UNL     1     -23.485  -2.996 -12.619  1.00  0.00     0.000 C 
ENDROOT
BRANCH   1   2
HETATM    2  C   UNL     1     -22.204  -2.703 -11.843  1.00  0.00     0.000 C 
BRANCH   2   3
HETATM    3  C   UNL     1     -22.112  -3.578 -10.597  1.00  0.00     0.000 C 
BRANCH   3   4
HETATM    4  C   UNL     1     -20.794  -4.350 -10.567  1.00  0.00     0.000 C 
BRANCH   4   5
HETATM    5  C   UNL     1     -20.113  -4.206  -9.208  1.00  0.00    -0.000 C 
BRANCH   5   6
HETATM    6  C   UNL     1     -20.843  -5.015  -8.138  1.00  0.00    -0.005 C 
HETATM    7  C   UNL     1     -21.336  -4.116  -7.017  1.00  0.00     0.005 C 
ENDBRANCH   5   6
ENDBRANCH   4   5
ENDBRANCH   3   4
ENDBRANCH   2   3
ENDBRANCH   1   2
BRANCH   1   8
HETATM    8  C   UNL     1     -23.703  -4.499 -12.762  1.00  0.00     0.000 C 
BRANCH   8   9
HETATM    9  C   UNL     1     -23.028  -5.031 -14.023  1.00  0.00     0.000 C 
BRANCH   9  10
HETATM   10  C   UNL     1     -23.621  -6.379 -14.429  1.00  0.00     0.002 C 
BRANCH  10  11
HETATM   11  C   UNL     1     -24.850  -6.195 -15.310  1.00  0.00     0.026 C 
BRANCH  11  12
HETATM   12  C   UNL     1     -24.861  -7.191 -16.461  1.00  0.00     0.164 C 
BRANCH  12  13
HETATM   13  O   UNL     1     -23.865  -8.183 -16.249  1.00  0.00    -0.401 OA
HETATM   14  H   UNL     1     -23.177  -8.055 -16.923  1.00  0.00     0.209 HD
ENDBRANCH  12  13
ENDBRANCH  11  12
ENDBRANCH  10  11
ENDBRANCH   9  10
ENDBRANCH   8   9
ENDBRANCH   1   8
TORSDOF 11
BEGIN_RES ARG D 557
REMARK  4 active torsions:
REMARK  status: ('A' for Active; 'I' for Inactive)
REMARK    1  A    between atoms: CA   and  CB  
REMARK    2  A    between atoms: CB   and  CG  
REMARK    3  A    between atoms: CG   and  CD  
REMARK    4  A    between atoms: CD   and  NE  
REMARK       I    between atoms: NE   and  CZ  
REMARK       I    between atoms: CZ   and  NH1 
REMARK       I    between atoms: CZ   and  NH2 
ROOT
ATOM      1  CA  ARG D 557     -26.217   2.705 -17.014  1.00 35.49     0.159 C 
ENDROOT
BRANCH   1   2
ATOM      2  CB  ARG D 557     -26.789   1.319 -17.183  1.00 35.49     0.034 C 
BRANCH   2   3
ATOM      3  CG  ARG D 557     -28.216   1.152 -16.883  1.00 35.49     0.027 C 
BRANCH   3   4
ATOM      4  CD  ARG D 557     -28.578  -0.261 -16.627  1.00 35.49     0.116 C 
BRANCH   4   5
ATOM      5  NE  ARG D 557     -27.552  -0.959 -15.899  1.00 35.49    -0.212 N 
ATOM      6  CZ  ARG D 557     -27.299  -2.247 -15.972  1.00 35.49     0.666 C 
ATOM      7  NH1 ARG D 557     -27.996  -3.064 -16.740  1.00 35.49    -0.235 N 
ATOM      8  NH2 ARG D 557     -26.315  -2.707 -15.256  1.00 35.49    -0.235 N 
ATOM      9  HH  ARG D 557     -28.647  -2.782 -17.221  1.00 35.49     0.174 HD
ATOM     10  HH  ARG D 557     -27.784  -3.894 -16.749  1.00 35.49     0.174 HD
ATOM     11  HH  ARG D 557     -25.877  -2.155 -14.775  1.00 35.49     0.174 HD
ATOM     12  HH  ARG D 557     -26.119  -3.532 -15.280  1.00 35.49     0.174 HD
ATOM     13  HE  ARG D 557     -27.101  -0.522 -15.325  1.00 35.49     0.178 HD
ENDBRANCH   4   5
ENDBRANCH   3   4
ENDBRANCH   2   3
ENDBRANCH   1   2
END_RES ARG D 557
BEGIN_RES GLU D 570
REMARK  3 active torsions:
REMARK  status: ('A' for Active; 'I' for Inactive)
REMARK    5  A    between atoms: CA   and  CB  
REMARK    6  A    between atoms: CB   and  CG  
REMARK    7  A    between atoms: CG   and  CD  
ROOT
ATOM     14  CA  GLU D 570     -18.033  -6.348 -13.375  1.00 32.92     0.160 C 
ENDROOT
BRANCH  14  15
ATOM     15  CB  GLU D 570     -19.500  -6.345 -13.794  1.00 32.92     0.043 C 
BRANCH  15  16
ATOM     16  CG  GLU D 570     -20.084  -7.633 -14.251  1.00 32.92     0.100 C 
BRANCH  16  17
ATOM     17  CD  GLU D 570     -20.533  -7.598 -15.693  1.00 32.92     0.185 C 
ATOM     18  OE1 GLU D 570     -20.591  -6.502 -16.282  1.00 32.92    -0.647 OA
ATOM     19  OE2 GLU D 570     -20.845  -8.677 -16.234  1.00 32.92    -0.647 OA
ENDBRANCH  16  17
ENDBRANCH  15  16
ENDBRANCH  14  15
END_RES GLU D 570
ENDMDL
