MODEL 1
REMARK VINA RESULT:      -1.2      0.000      0.000
REMARK  6 active torsions:
REMARK  status: ('A' for Active; 'I' for Inactive)
REMARK    1  A    between atoms: C_4  and  S_37 
REMARK    2  A    between atoms: C_5  and  N_8 
REMARK    3  A    between atoms: N_8  and  C_9 
REMARK    4  A    between atoms: C_12  and  N_15 
REMARK    5  A    between atoms: N_15  and  C_16 
REMARK    6  A    between atoms: C_17  and  S_23 
ROOT
HETATM    1 NA   UNL     2     -11.267   1.744   2.512  1.00  0.00     0.000 Na
ENDROOT
TORSDOF 6
BEGIN_RES ARG D 557
REMARK  4 active torsions:
REMARK  status: ('A' for Active; 'I' for Inactive)
REMARK    1  A    between atoms: CA   and  CB  
REMARK    2  A    between atoms: CB   and  CG  
REMARK    3  A    between atoms: CG   and  CD  
REMARK    4  A    between atoms: CD   and  NE  
REMARK       I    between atoms: NE   and  CZ  
REMARK       I    between atoms: CZ   and  NH1 
REMARK       I    between atoms: CZ   and  NH2 
ROOT
ATOM      1  CA  ARG D 557     -26.217   2.705 -17.014  1.00 35.49     0.159 C 
ENDROOT
BRANCH   1   2
ATOM      2  CB  ARG D 557     -26.789   1.319 -17.183  1.00 35.49     0.034 C 
BRANCH   2   3
ATOM      3  CG  ARG D 557     -25.835   0.204 -17.164  1.00 35.49     0.027 C 
BRANCH   3   4
ATOM      4  CD  ARG D 557     -24.745   0.410 -16.183  1.00 35.49     0.116 C 
BRANCH   4   5
ATOM      5  NE  ARG D 557     -24.890  -0.433 -15.026  1.00 35.49    -0.212 N 
ATOM      6  CZ  ARG D 557     -24.076  -1.404 -14.677  1.00 35.49     0.666 C 
ATOM      7  NH1 ARG D 557     -23.010  -1.726 -15.386  1.00 35.49    -0.235 N 
ATOM      8  NH2 ARG D 557     -24.350  -2.053 -13.582  1.00 35.49    -0.235 N 
ATOM      9  HH  ARG D 557     -22.809  -1.311 -16.108  1.00 35.49     0.174 HD
ATOM     10  HH  ARG D 557     -22.514  -2.367 -15.108  1.00 35.49     0.174 HD
ATOM     11  HH  ARG D 557     -25.041  -1.819 -13.140  1.00 35.49     0.174 HD
ATOM     12  HH  ARG D 557     -23.846  -2.684 -13.323  1.00 35.49     0.174 HD
ATOM     13  HE  ARG D 557     -25.589  -0.343 -14.551  1.00 35.49     0.178 HD
ENDBRANCH   4   5
ENDBRANCH   3   4
ENDBRANCH   2   3
ENDBRANCH   1   2
END_RES ARG D 557
BEGIN_RES GLU D 570
REMARK  3 active torsions:
REMARK  status: ('A' for Active; 'I' for Inactive)
REMARK    5  A    between atoms: CA   and  CB  
REMARK    6  A    between atoms: CB   and  CG  
REMARK    7  A    between atoms: CG   and  CD  
ROOT
ATOM     14  CA  GLU D 570     -18.033  -6.348 -13.375  1.00 32.92     0.160 C 
ENDROOT
BRANCH  14  15
ATOM     15  CB  GLU D 570     -19.500  -6.345 -13.794  1.00 32.92     0.043 C 
BRANCH  15  16
ATOM     16  CG  GLU D 570     -20.444  -5.539 -12.977  1.00 32.92     0.100 C 
BRANCH  16  17
ATOM     17  CD  GLU D 570     -21.741  -5.245 -13.693  1.00 32.92     0.185 C 
ATOM     18  OE1 GLU D 570     -22.272  -4.128 -13.549  1.00 32.92    -0.647 OA
ATOM     19  OE2 GLU D 570     -22.240  -6.148 -14.393  1.00 32.92    -0.647 OA
ENDBRANCH  16  17
ENDBRANCH  15  16
ENDBRANCH  14  15
END_RES GLU D 570
ENDMDL
MODEL 2
REMARK VINA RESULT:      -1.2      8.163      8.216
REMARK  6 active torsions:
REMARK  status: ('A' for Active; 'I' for Inactive)
REMARK    1  A    between atoms: C_4  and  S_37 
REMARK    2  A    between atoms: C_5  and  N_8 
REMARK    3  A    between atoms: N_8  and  C_9 
REMARK    4  A    between atoms: C_12  and  N_15 
REMARK    5  A    between atoms: N_15  and  C_16 
REMARK    6  A    between atoms: C_17  and  S_23 
ROOT
HETATM    1 NA   UNL     2     -27.113 -13.690 -13.097  1.00  0.00     0.000 Na
ENDROOT
TORSDOF 6
BEGIN_RES ARG D 557
REMARK  4 active torsions:
REMARK  status: ('A' for Active; 'I' for Inactive)
REMARK    1  A    between atoms: CA   and  CB  
REMARK    2  A    between atoms: CB   and  CG  
REMARK    3  A    between atoms: CG   and  CD  
REMARK    4  A    between atoms: CD   and  NE  
REMARK       I    between atoms: NE   and  CZ  
REMARK       I    between atoms: CZ   and  NH1 
REMARK       I    between atoms: CZ   and  NH2 
ROOT
ATOM      1  CA  ARG D 557     -26.217   2.705 -17.014  1.00 35.49     0.159 C 
ENDROOT
BRANCH   1   2
ATOM      2  CB  ARG D 557     -26.789   1.319 -17.183  1.00 35.49     0.034 C 
BRANCH   2   3
ATOM      3  CG  ARG D 557     -25.834   0.204 -17.169  1.00 35.49     0.027 C 
BRANCH   3   4
ATOM      4  CD  ARG D 557     -24.752   0.400 -16.178  1.00 35.49     0.116 C 
BRANCH   4   5
ATOM      5  NE  ARG D 557     -24.913  -0.444 -15.024  1.00 35.49    -0.212 N 
ATOM      6  CZ  ARG D 557     -24.105  -1.416 -14.664  1.00 35.49     0.666 C 
ATOM      7  NH1 ARG D 557     -23.029  -1.738 -15.359  1.00 35.49    -0.235 N 
ATOM      8  NH2 ARG D 557     -24.395  -2.066 -13.574  1.00 35.49    -0.235 N 
ATOM      9  HH  ARG D 557     -22.818  -1.322 -16.078  1.00 35.49     0.174 HD
ATOM     10  HH  ARG D 557     -22.538  -2.379 -15.074  1.00 35.49     0.174 HD
ATOM     11  HH  ARG D 557     -25.092  -1.831 -13.142  1.00 35.49     0.174 HD
ATOM     12  HH  ARG D 557     -23.895  -2.697 -13.308  1.00 35.49     0.174 HD
ATOM     13  HE  ARG D 557     -25.620  -0.354 -14.559  1.00 35.49     0.178 HD
ENDBRANCH   4   5
ENDBRANCH   3   4
ENDBRANCH   2   3
ENDBRANCH   1   2
END_RES ARG D 557
BEGIN_RES GLU D 570
REMARK  3 active torsions:
REMARK  status: ('A' for Active; 'I' for Inactive)
REMARK    5  A    between atoms: CA   and  CB  
REMARK    6  A    between atoms: CB   and  CG  
REMARK    7  A    between atoms: CG   and  CD  
ROOT
ATOM     14  CA  GLU D 570     -18.033  -6.348 -13.375  1.00 32.92     0.160 C 
ENDROOT
BRANCH  14  15
ATOM     15  CB  GLU D 570     -19.500  -6.345 -13.794  1.00 32.92     0.043 C 
BRANCH  15  16
ATOM     16  CG  GLU D 570     -20.440  -5.523 -12.989  1.00 32.92     0.100 C 
BRANCH  16  17
ATOM     17  CD  GLU D 570     -21.747  -5.256 -13.700  1.00 32.92     0.185 C 
ATOM     18  OE1 GLU D 570     -22.217  -6.132 -14.451  1.00 32.92    -0.647 OA
ATOM     19  OE2 GLU D 570     -22.297  -4.153 -13.516  1.00 32.92    -0.647 OA
ENDBRANCH  16  17
ENDBRANCH  15  16
ENDBRANCH  14  15
END_RES GLU D 570
ENDMDL
MODEL 3
REMARK VINA RESULT:      -1.0      6.458      6.506
REMARK  6 active torsions:
REMARK  status: ('A' for Active; 'I' for Inactive)
REMARK    1  A    between atoms: C_4  and  S_37 
REMARK    2  A    between atoms: C_5  and  N_8 
REMARK    3  A    between atoms: N_8  and  C_9 
REMARK    4  A    between atoms: C_12  and  N_15 
REMARK    5  A    between atoms: N_15  and  C_16 
REMARK    6  A    between atoms: C_17  and  S_23 
ROOT
HETATM    1 NA   UNL     2     -27.304  -5.611  -9.153  1.00  0.00     0.000 Na
ENDROOT
TORSDOF 6
BEGIN_RES ARG D 557
REMARK  4 active torsions:
REMARK  status: ('A' for Active; 'I' for Inactive)
REMARK    1  A    between atoms: CA   and  CB  
REMARK    2  A    between atoms: CB   and  CG  
REMARK    3  A    between atoms: CG   and  CD  
REMARK    4  A    between atoms: CD   and  NE  
REMARK       I    between atoms: NE   and  CZ  
REMARK       I    between atoms: CZ   and  NH1 
REMARK       I    between atoms: CZ   and  NH2 
ROOT
ATOM      1  CA  ARG D 557     -26.217   2.705 -17.014  1.00 35.49     0.159 C 
ENDROOT
BRANCH   1   2
ATOM      2  CB  ARG D 557     -26.789   1.319 -17.183  1.00 35.49     0.034 C 
BRANCH   2   3
ATOM      3  CG  ARG D 557     -25.864   0.195 -16.993  1.00 35.49     0.027 C 
BRANCH   3   4
ATOM      4  CD  ARG D 557     -26.286  -0.704 -15.895  1.00 35.49     0.116 C 
BRANCH   4   5
ATOM      5  NE  ARG D 557     -25.233  -0.924 -14.939  1.00 35.49    -0.212 N 
ATOM      6  CZ  ARG D 557     -24.956  -2.067 -14.351  1.00 35.49     0.666 C 
ATOM      7  NH1 ARG D 557     -25.652  -3.166 -14.575  1.00 35.49    -0.235 N 
ATOM      8  NH2 ARG D 557     -23.950  -2.089 -13.526  1.00 35.49    -0.235 N 
ATOM      9  HH  ARG D 557     -26.317  -3.175 -15.115  1.00 35.49     0.174 HD
ATOM     10  HH  ARG D 557     -25.423  -3.883 -14.164  1.00 35.49     0.174 HD
ATOM     11  HH  ARG D 557     -23.514  -1.365 -13.407  1.00 35.49     0.174 HD
ATOM     12  HH  ARG D 557     -23.739  -2.809 -13.131  1.00 35.49     0.174 HD
ATOM     13  HE  ARG D 557     -24.780  -0.252 -14.681  1.00 35.49     0.178 HD
ENDBRANCH   4   5
ENDBRANCH   3   4
ENDBRANCH   2   3
ENDBRANCH   1   2
END_RES ARG D 557
BEGIN_RES GLU D 570
REMARK  3 active torsions:
REMARK  status: ('A' for Active; 'I' for Inactive)
REMARK    5  A    between atoms: CA   and  CB  
REMARK    6  A    between atoms: CB   and  CG  
REMARK    7  A    between atoms: CG   and  CD  
ROOT
ATOM     14  CA  GLU D 570     -18.033  -6.348 -13.375  1.00 32.92     0.160 C 
ENDROOT
BRANCH  14  15
ATOM     15  CB  GLU D 570     -19.500  -6.345 -13.794  1.00 32.92     0.043 C 
BRANCH  15  16
ATOM     16  CG  GLU D 570     -20.447  -5.555 -12.965  1.00 32.92     0.100 C 
BRANCH  16  17
ATOM     17  CD  GLU D 570     -21.681  -5.128 -13.726  1.00 32.92     0.185 C 
ATOM     18  OE1 GLU D 570     -22.731  -4.899 -13.096  1.00 32.92    -0.647 OA
ATOM     19  OE2 GLU D 570     -21.601  -5.038 -14.967  1.00 32.92    -0.647 OA
ENDBRANCH  16  17
ENDBRANCH  15  16
ENDBRANCH  14  15
END_RES GLU D 570
ENDMDL
MODEL 4
REMARK VINA RESULT:      -1.0      9.746      9.746
REMARK  6 active torsions:
REMARK  status: ('A' for Active; 'I' for Inactive)
REMARK    1  A    between atoms: C_4  and  S_37 
REMARK    2  A    between atoms: C_5  and  N_8 
REMARK    3  A    between atoms: N_8  and  C_9 
REMARK    4  A    between atoms: C_12  and  N_15 
REMARK    5  A    between atoms: N_15  and  C_16 
REMARK    6  A    between atoms: C_17  and  S_23 
ROOT
HETATM    1 NA   UNL     2     -36.282  -0.510 -17.836  1.00  0.00     0.000 Na
ENDROOT
TORSDOF 6
BEGIN_RES ARG D 557
REMARK  4 active torsions:
REMARK  status: ('A' for Active; 'I' for Inactive)
REMARK    1  A    between atoms: CA   and  CB  
REMARK    2  A    between atoms: CB   and  CG  
REMARK    3  A    between atoms: CG   and  CD  
REMARK    4  A    between atoms: CD   and  NE  
REMARK       I    between atoms: NE   and  CZ  
REMARK       I    between atoms: CZ   and  NH1 
REMARK       I    between atoms: CZ   and  NH2 
ROOT
ATOM      1  CA  ARG D 557     -26.217   2.705 -17.014  1.00 35.49     0.159 C 
ENDROOT
BRANCH   1   2
ATOM      2  CB  ARG D 557     -26.789   1.319 -17.183  1.00 35.49     0.034 C 
BRANCH   2   3
ATOM      3  CG  ARG D 557     -25.836   0.203 -17.153  1.00 35.49     0.027 C 
BRANCH   3   4
ATOM      4  CD  ARG D 557     -24.763   0.404 -16.153  1.00 35.49     0.116 C 
BRANCH   4   5
ATOM      5  NE  ARG D 557     -24.918  -0.456 -15.010  1.00 35.49    -0.212 N 
ATOM      6  CZ  ARG D 557     -24.101  -1.425 -14.660  1.00 35.49     0.666 C 
ATOM      7  NH1 ARG D 557     -23.021  -1.727 -15.357  1.00 35.49    -0.235 N 
ATOM      8  NH2 ARG D 557     -24.387  -2.091 -13.579  1.00 35.49    -0.235 N 
ATOM      9  HH  ARG D 557     -22.812  -1.301 -16.070  1.00 35.49     0.174 HD
ATOM     10  HH  ARG D 557     -22.524  -2.367 -15.079  1.00 35.49     0.174 HD
ATOM     11  HH  ARG D 557     -25.087  -1.868 -13.146  1.00 35.49     0.174 HD
ATOM     12  HH  ARG D 557     -23.882  -2.720 -13.320  1.00 35.49     0.174 HD
ATOM     13  HE  ARG D 557     -25.626  -0.379 -14.546  1.00 35.49     0.178 HD
ENDBRANCH   4   5
ENDBRANCH   3   4
ENDBRANCH   2   3
ENDBRANCH   1   2
END_RES ARG D 557
BEGIN_RES GLU D 570
REMARK  3 active torsions:
REMARK  status: ('A' for Active; 'I' for Inactive)
REMARK    5  A    between atoms: CA   and  CB  
REMARK    6  A    between atoms: CB   and  CG  
REMARK    7  A    between atoms: CG   and  CD  
ROOT
ATOM     14  CA  GLU D 570     -18.033  -6.348 -13.375  1.00 32.92     0.160 C 
ENDROOT
BRANCH  14  15
ATOM     15  CB  GLU D 570     -19.500  -6.345 -13.794  1.00 32.92     0.043 C 
BRANCH  15  16
ATOM     16  CG  GLU D 570     -20.441  -5.527 -12.986  1.00 32.92     0.100 C 
BRANCH  16  17
ATOM     17  CD  GLU D 570     -21.737  -5.236 -13.706  1.00 32.92     0.185 C 
ATOM     18  OE1 GLU D 570     -22.298  -4.138 -13.523  1.00 32.92    -0.647 OA
ATOM     19  OE2 GLU D 570     -22.205  -6.122 -14.448  1.00 32.92    -0.647 OA
ENDBRANCH  16  17
ENDBRANCH  15  16
ENDBRANCH  14  15
END_RES GLU D 570
ENDMDL
MODEL 5
REMARK VINA RESULT:      -0.9      5.554      5.554
REMARK  6 active torsions:
REMARK  status: ('A' for Active; 'I' for Inactive)
REMARK    1  A    between atoms: C_4  and  S_37 
REMARK    2  A    between atoms: C_5  and  N_8 
REMARK    3  A    between atoms: N_8  and  C_9 
REMARK    4  A    between atoms: C_12  and  N_15 
REMARK    5  A    between atoms: N_15  and  C_16 
REMARK    6  A    between atoms: C_17  and  S_23 
ROOT
HETATM    1 NA   UNL     2     -21.161  -2.538 -12.421  1.00  0.00     0.000 Na
ENDROOT
TORSDOF 6
BEGIN_RES ARG D 557
REMARK  4 active torsions:
REMARK  status: ('A' for Active; 'I' for Inactive)
REMARK    1  A    between atoms: CA   and  CB  
REMARK    2  A    between atoms: CB   and  CG  
REMARK    3  A    between atoms: CG   and  CD  
REMARK    4  A    between atoms: CD   and  NE  
REMARK       I    between atoms: NE   and  CZ  
REMARK       I    between atoms: CZ   and  NH1 
REMARK       I    between atoms: CZ   and  NH2 
ROOT
ATOM      1  CA  ARG D 557     -26.217   2.705 -17.014  1.00 35.49     0.159 C 
ENDROOT
BRANCH   1   2
ATOM      2  CB  ARG D 557     -26.789   1.319 -17.183  1.00 35.49     0.034 C 
BRANCH   2   3
ATOM      3  CG  ARG D 557     -25.836   0.203 -17.157  1.00 35.49     0.027 C 
BRANCH   3   4
ATOM      4  CD  ARG D 557     -24.749   0.412 -16.172  1.00 35.49     0.116 C 
BRANCH   4   5
ATOM      5  NE  ARG D 557     -24.895  -0.433 -15.016  1.00 35.49    -0.212 N 
ATOM      6  CZ  ARG D 557     -24.080  -1.403 -14.666  1.00 35.49     0.666 C 
ATOM      7  NH1 ARG D 557     -23.013  -1.722 -15.374  1.00 35.49    -0.235 N 
ATOM      8  NH2 ARG D 557     -24.356  -2.053 -13.573  1.00 35.49    -0.235 N 
ATOM      9  HH  ARG D 557     -22.811  -1.306 -16.096  1.00 35.49     0.174 HD
ATOM     10  HH  ARG D 557     -22.516  -2.363 -15.095  1.00 35.49     0.174 HD
ATOM     11  HH  ARG D 557     -25.048  -1.820 -13.132  1.00 35.49     0.174 HD
ATOM     12  HH  ARG D 557     -23.851  -2.683 -13.313  1.00 35.49     0.174 HD
ATOM     13  HE  ARG D 557     -25.596  -0.344 -14.543  1.00 35.49     0.178 HD
ENDBRANCH   4   5
ENDBRANCH   3   4
ENDBRANCH   2   3
ENDBRANCH   1   2
END_RES ARG D 557
BEGIN_RES GLU D 570
REMARK  3 active torsions:
REMARK  status: ('A' for Active; 'I' for Inactive)
REMARK    5  A    between atoms: CA   and  CB  
REMARK    6  A    between atoms: CB   and  CG  
REMARK    7  A    between atoms: CG   and  CD  
ROOT
ATOM     14  CA  GLU D 570     -18.033  -6.348 -13.375  1.00 32.92     0.160 C 
ENDROOT
BRANCH  14  15
ATOM     15  CB  GLU D 570     -19.500  -6.345 -13.794  1.00 32.92     0.043 C 
BRANCH  15  16
ATOM     16  CG  GLU D 570     -20.432  -5.489 -13.016  1.00 32.92     0.100 C 
BRANCH  16  17
ATOM     17  CD  GLU D 570     -21.760  -5.283 -13.708  1.00 32.92     0.185 C 
ATOM     18  OE1 GLU D 570     -22.392  -4.229 -13.504  1.00 32.92    -0.647 OA
ATOM     19  OE2 GLU D 570     -22.180  -6.193 -14.449  1.00 32.92    -0.647 OA
ENDBRANCH  16  17
ENDBRANCH  15  16
ENDBRANCH  14  15
END_RES GLU D 570
ENDMDL
MODEL 6
REMARK VINA RESULT:      -0.9      7.693      7.924
REMARK  6 active torsions:
REMARK  status: ('A' for Active; 'I' for Inactive)
REMARK    1  A    between atoms: C_4  and  S_37 
REMARK    2  A    between atoms: C_5  and  N_8 
REMARK    3  A    between atoms: N_8  and  C_9 
REMARK    4  A    between atoms: C_12  and  N_15 
REMARK    5  A    between atoms: N_15  and  C_16 
REMARK    6  A    between atoms: C_17  and  S_23 
ROOT
HETATM    1 NA   UNL     2     -32.246  -8.636   4.522  1.00  0.00     0.000 Na
ENDROOT
TORSDOF 6
BEGIN_RES ARG D 557
REMARK  4 active torsions:
REMARK  status: ('A' for Active; 'I' for Inactive)
REMARK    1  A    between atoms: CA   and  CB  
REMARK    2  A    between atoms: CB   and  CG  
REMARK    3  A    between atoms: CG   and  CD  
REMARK    4  A    between atoms: CD   and  NE  
REMARK       I    between atoms: NE   and  CZ  
REMARK       I    between atoms: CZ   and  NH1 
REMARK       I    between atoms: CZ   and  NH2 
ROOT
ATOM      1  CA  ARG D 557     -26.217   2.705 -17.014  1.00 35.49     0.159 C 
ENDROOT
BRANCH   1   2
ATOM      2  CB  ARG D 557     -26.789   1.319 -17.183  1.00 35.49     0.034 C 
BRANCH   2   3
ATOM      3  CG  ARG D 557     -28.231   1.226 -17.443  1.00 35.49     0.027 C 
BRANCH   3   4
ATOM      4  CD  ARG D 557     -28.915   0.307 -16.505  1.00 35.49     0.116 C 
BRANCH   4   5
ATOM      5  NE  ARG D 557     -29.291  -0.931 -17.137  1.00 35.49    -0.212 N 
ATOM      6  CZ  ARG D 557     -28.653  -2.074 -17.026  1.00 35.49     0.666 C 
ATOM      7  NH1 ARG D 557     -27.552  -2.205 -16.308  1.00 35.49    -0.235 N 
ATOM      8  NH2 ARG D 557     -29.148  -3.102 -17.652  1.00 35.49    -0.235 N 
ATOM      9  HH  ARG D 557     -27.209  -1.543 -15.886  1.00 35.49     0.174 HD
ATOM     10  HH  ARG D 557     -27.181  -2.976 -16.270  1.00 35.49     0.174 HD
ATOM     11  HH  ARG D 557     -29.864  -2.989 -18.101  1.00 35.49     0.174 HD
ATOM     12  HH  ARG D 557     -28.767  -3.857 -17.601  1.00 35.49     0.174 HD
ATOM     13  HE  ARG D 557     -29.948  -0.920 -17.676  1.00 35.49     0.178 HD
ENDBRANCH   4   5
ENDBRANCH   3   4
ENDBRANCH   2   3
ENDBRANCH   1   2
END_RES ARG D 557
BEGIN_RES GLU D 570
REMARK  3 active torsions:
REMARK  status: ('A' for Active; 'I' for Inactive)
REMARK    5  A    between atoms: CA   and  CB  
REMARK    6  A    between atoms: CB   and  CG  
REMARK    7  A    between atoms: CG   and  CD  
ROOT
ATOM     14  CA  GLU D 570     -18.033  -6.348 -13.375  1.00 32.92     0.160 C 
ENDROOT
BRANCH  14  15
ATOM     15  CB  GLU D 570     -19.500  -6.345 -13.794  1.00 32.92     0.043 C 
BRANCH  15  16
ATOM     16  CG  GLU D 570     -20.447  -5.553 -12.967  1.00 32.92     0.100 C 
BRANCH  16  17
ATOM     17  CD  GLU D 570     -21.712  -5.187 -13.706  1.00 32.92     0.185 C 
ATOM     18  OE1 GLU D 570     -22.552  -4.457 -13.145  1.00 32.92    -0.647 OA
ATOM     19  OE2 GLU D 570     -21.873  -5.649 -14.853  1.00 32.92    -0.647 OA
ENDBRANCH  16  17
ENDBRANCH  15  16
ENDBRANCH  14  15
END_RES GLU D 570
ENDMDL
MODEL 7
REMARK VINA RESULT:      -0.9     10.197     10.235
REMARK  6 active torsions:
REMARK  status: ('A' for Active; 'I' for Inactive)
REMARK    1  A    between atoms: C_4  and  S_37 
REMARK    2  A    between atoms: C_5  and  N_8 
REMARK    3  A    between atoms: N_8  and  C_9 
REMARK    4  A    between atoms: C_12  and  N_15 
REMARK    5  A    between atoms: N_15  and  C_16 
REMARK    6  A    between atoms: C_17  and  S_23 
ROOT
HETATM    1 NA   UNL     2     -33.388 -14.853 -16.935  1.00  0.00     0.000 Na
ENDROOT
TORSDOF 6
BEGIN_RES ARG D 557
REMARK  4 active torsions:
REMARK  status: ('A' for Active; 'I' for Inactive)
REMARK    1  A    between atoms: CA   and  CB  
REMARK    2  A    between atoms: CB   and  CG  
REMARK    3  A    between atoms: CG   and  CD  
REMARK    4  A    between atoms: CD   and  NE  
REMARK       I    between atoms: NE   and  CZ  
REMARK       I    between atoms: CZ   and  NH1 
REMARK       I    between atoms: CZ   and  NH2 
ROOT
ATOM      1  CA  ARG D 557     -26.217   2.705 -17.014  1.00 35.49     0.159 C 
ENDROOT
BRANCH   1   2
ATOM      2  CB  ARG D 557     -26.789   1.319 -17.183  1.00 35.49     0.034 C 
BRANCH   2   3
ATOM      3  CG  ARG D 557     -25.835   0.203 -17.159  1.00 35.49     0.027 C 
BRANCH   3   4
ATOM      4  CD  ARG D 557     -24.759   0.402 -16.161  1.00 35.49     0.116 C 
BRANCH   4   5
ATOM      5  NE  ARG D 557     -24.917  -0.456 -15.016  1.00 35.49    -0.212 N 
ATOM      6  CZ  ARG D 557     -24.101  -1.424 -14.664  1.00 35.49     0.666 C 
ATOM      7  NH1 ARG D 557     -23.021  -1.730 -15.359  1.00 35.49    -0.235 N 
ATOM      8  NH2 ARG D 557     -24.389  -2.088 -13.582  1.00 35.49    -0.235 N 
ATOM      9  HH  ARG D 557     -22.811  -1.305 -16.073  1.00 35.49     0.174 HD
ATOM     10  HH  ARG D 557     -22.525  -2.370 -15.080  1.00 35.49     0.174 HD
ATOM     11  HH  ARG D 557     -25.089  -1.864 -13.149  1.00 35.49     0.174 HD
ATOM     12  HH  ARG D 557     -23.884  -2.717 -13.321  1.00 35.49     0.174 HD
ATOM     13  HE  ARG D 557     -25.625  -0.377 -14.552  1.00 35.49     0.178 HD
ENDBRANCH   4   5
ENDBRANCH   3   4
ENDBRANCH   2   3
ENDBRANCH   1   2
END_RES ARG D 557
BEGIN_RES GLU D 570
REMARK  3 active torsions:
REMARK  status: ('A' for Active; 'I' for Inactive)
REMARK    5  A    between atoms: CA   and  CB  
REMARK    6  A    between atoms: CB   and  CG  
REMARK    7  A    between atoms: CG   and  CD  
ROOT
ATOM     14  CA  GLU D 570     -18.033  -6.348 -13.375  1.00 32.92     0.160 C 
ENDROOT
BRANCH  14  15
ATOM     15  CB  GLU D 570     -19.500  -6.345 -13.794  1.00 32.92     0.043 C 
BRANCH  15  16
ATOM     16  CG  GLU D 570     -20.443  -5.536 -12.979  1.00 32.92     0.100 C 
BRANCH  16  17
ATOM     17  CD  GLU D 570     -21.660  -5.089 -13.756  1.00 32.92     0.185 C 
ATOM     18  OE1 GLU D 570     -21.907  -5.625 -14.854  1.00 32.92    -0.647 OA
ATOM     19  OE2 GLU D 570     -22.364  -4.183 -13.269  1.00 32.92    -0.647 OA
ENDBRANCH  16  17
ENDBRANCH  15  16
ENDBRANCH  14  15
END_RES GLU D 570
ENDMDL
MODEL 8
REMARK VINA RESULT:      -0.9      7.320      7.362
REMARK  6 active torsions:
REMARK  status: ('A' for Active; 'I' for Inactive)
REMARK    1  A    between atoms: C_4  and  S_37 
REMARK    2  A    between atoms: C_5  and  N_8 
REMARK    3  A    between atoms: N_8  and  C_9 
REMARK    4  A    between atoms: C_12  and  N_15 
REMARK    5  A    between atoms: N_15  and  C_16 
REMARK    6  A    between atoms: C_17  and  S_23 
ROOT
HETATM    1 NA   UNL     2     -32.720  -6.042  -5.050  1.00  0.00     0.000 Na
ENDROOT
TORSDOF 6
BEGIN_RES ARG D 557
REMARK  4 active torsions:
REMARK  status: ('A' for Active; 'I' for Inactive)
REMARK    1  A    between atoms: CA   and  CB  
REMARK    2  A    between atoms: CB   and  CG  
REMARK    3  A    between atoms: CG   and  CD  
REMARK    4  A    between atoms: CD   and  NE  
REMARK       I    between atoms: NE   and  CZ  
REMARK       I    between atoms: CZ   and  NH1 
REMARK       I    between atoms: CZ   and  NH2 
ROOT
ATOM      1  CA  ARG D 557     -26.217   2.705 -17.014  1.00 35.49     0.159 C 
ENDROOT
BRANCH   1   2
ATOM      2  CB  ARG D 557     -26.789   1.319 -17.183  1.00 35.49     0.034 C 
BRANCH   2   3
ATOM      3  CG  ARG D 557     -25.864   0.195 -16.992  1.00 35.49     0.027 C 
BRANCH   3   4
ATOM      4  CD  ARG D 557     -26.289  -0.705 -15.896  1.00 35.49     0.116 C 
BRANCH   4   5
ATOM      5  NE  ARG D 557     -25.239  -0.924 -14.936  1.00 35.49    -0.212 N 
ATOM      6  CZ  ARG D 557     -24.956  -2.068 -14.355  1.00 35.49     0.666 C 
ATOM      7  NH1 ARG D 557     -25.642  -3.172 -14.590  1.00 35.49    -0.235 N 
ATOM      8  NH2 ARG D 557     -23.954  -2.088 -13.524  1.00 35.49    -0.235 N 
ATOM      9  HH  ARG D 557     -26.304  -3.182 -15.134  1.00 35.49     0.174 HD
ATOM     10  HH  ARG D 557     -25.410  -3.890 -14.183  1.00 35.49     0.174 HD
ATOM     11  HH  ARG D 557     -23.525  -1.362 -13.398  1.00 35.49     0.174 HD
ATOM     12  HH  ARG D 557     -23.739  -2.809 -13.133  1.00 35.49     0.174 HD
ATOM     13  HE  ARG D 557     -24.794  -0.250 -14.671  1.00 35.49     0.178 HD
ENDBRANCH   4   5
ENDBRANCH   3   4
ENDBRANCH   2   3
ENDBRANCH   1   2
END_RES ARG D 557
BEGIN_RES GLU D 570
REMARK  3 active torsions:
REMARK  status: ('A' for Active; 'I' for Inactive)
REMARK    5  A    between atoms: CA   and  CB  
REMARK    6  A    between atoms: CB   and  CG  
REMARK    7  A    between atoms: CG   and  CD  
ROOT
ATOM     14  CA  GLU D 570     -18.033  -6.348 -13.375  1.00 32.92     0.160 C 
ENDROOT
BRANCH  14  15
ATOM     15  CB  GLU D 570     -19.500  -6.345 -13.794  1.00 32.92     0.043 C 
BRANCH  15  16
ATOM     16  CG  GLU D 570     -20.452  -5.578 -12.949  1.00 32.92     0.100 C 
BRANCH  16  17
ATOM     17  CD  GLU D 570     -21.680  -5.128 -13.705  1.00 32.92     0.185 C 
ATOM     18  OE1 GLU D 570     -22.721  -4.870 -13.071  1.00 32.92    -0.647 OA
ATOM     19  OE2 GLU D 570     -21.606  -5.049 -14.947  1.00 32.92    -0.647 OA
ENDBRANCH  16  17
ENDBRANCH  15  16
ENDBRANCH  14  15
END_RES GLU D 570
ENDMDL
MODEL 9
REMARK VINA RESULT:      -0.8      8.463      8.463
REMARK  6 active torsions:
REMARK  status: ('A' for Active; 'I' for Inactive)
REMARK    1  A    between atoms: C_4  and  S_37 
REMARK    2  A    between atoms: C_5  and  N_8 
REMARK    3  A    between atoms: N_8  and  C_9 
REMARK    4  A    between atoms: C_12  and  N_15 
REMARK    5  A    between atoms: N_15  and  C_16 
REMARK    6  A    between atoms: C_17  and  S_23 
ROOT
HETATM    1 NA   UNL     2     -34.349  -9.667  -8.657  1.00  0.00     0.000 Na
ENDROOT
TORSDOF 6
BEGIN_RES ARG D 557
REMARK  4 active torsions:
REMARK  status: ('A' for Active; 'I' for Inactive)
REMARK    1  A    between atoms: CA   and  CB  
REMARK    2  A    between atoms: CB   and  CG  
REMARK    3  A    between atoms: CG   and  CD  
REMARK    4  A    between atoms: CD   and  NE  
REMARK       I    between atoms: NE   and  CZ  
REMARK       I    between atoms: CZ   and  NH1 
REMARK       I    between atoms: CZ   and  NH2 
ROOT
ATOM      1  CA  ARG D 557     -26.217   2.705 -17.014  1.00 35.49     0.159 C 
ENDROOT
BRANCH   1   2
ATOM      2  CB  ARG D 557     -26.789   1.319 -17.183  1.00 35.49     0.034 C 
BRANCH   2   3
ATOM      3  CG  ARG D 557     -25.835   0.203 -17.162  1.00 35.49     0.027 C 
BRANCH   3   4
ATOM      4  CD  ARG D 557     -24.764   0.396 -16.157  1.00 35.49     0.116 C 
BRANCH   4   5
ATOM      5  NE  ARG D 557     -24.931  -0.465 -15.015  1.00 35.49    -0.212 N 
ATOM      6  CZ  ARG D 557     -24.124  -1.441 -14.665  1.00 35.49     0.666 C 
ATOM      7  NH1 ARG D 557     -23.045  -1.753 -15.360  1.00 35.49    -0.235 N 
ATOM      8  NH2 ARG D 557     -24.418  -2.106 -13.586  1.00 35.49    -0.235 N 
ATOM      9  HH  ARG D 557     -22.830  -1.327 -16.072  1.00 35.49     0.174 HD
ATOM     10  HH  ARG D 557     -22.554  -2.398 -15.081  1.00 35.49     0.174 HD
ATOM     11  HH  ARG D 557     -25.117  -1.877 -13.154  1.00 35.49     0.174 HD
ATOM     12  HH  ARG D 557     -23.919  -2.740 -13.326  1.00 35.49     0.174 HD
ATOM     13  HE  ARG D 557     -25.639  -0.381 -14.552  1.00 35.49     0.178 HD
ENDBRANCH   4   5
ENDBRANCH   3   4
ENDBRANCH   2   3
ENDBRANCH   1   2
END_RES ARG D 557
BEGIN_RES GLU D 570
REMARK  3 active torsions:
REMARK  status: ('A' for Active; 'I' for Inactive)
REMARK    5  A    between atoms: CA   and  CB  
REMARK    6  A    between atoms: CB   and  CG  
REMARK    7  A    between atoms: CG   and  CD  
ROOT
ATOM     14  CA  GLU D 570     -18.033  -6.348 -13.375  1.00 32.92     0.160 C 
ENDROOT
BRANCH  14  15
ATOM     15  CB  GLU D 570     -19.500  -6.345 -13.794  1.00 32.92     0.043 C 
BRANCH  15  16
ATOM     16  CG  GLU D 570     -20.438  -5.513 -12.997  1.00 32.92     0.100 C 
BRANCH  16  17
ATOM     17  CD  GLU D 570     -21.723  -5.206 -13.730  1.00 32.92     0.185 C 
ATOM     18  OE1 GLU D 570     -22.321  -4.141 -13.484  1.00 32.92    -0.647 OA
ATOM     19  OE2 GLU D 570     -22.145  -6.048 -14.547  1.00 32.92    -0.647 OA
ENDBRANCH  16  17
ENDBRANCH  15  16
ENDBRANCH  14  15
END_RES GLU D 570
ENDMDL
