MODEL 1
REMARK VINA RESULT:      -1.3      0.000      0.000
REMARK  6 active torsions:
REMARK  status: ('A' for Active; 'I' for Inactive)
REMARK    1  A    between atoms: C_4  and  N_14 
REMARK    2  A    between atoms: C_5  and  O_12 
REMARK    3  A    between atoms: C_7  and  S_8 
REMARK    4  A    between atoms: N_16  and  C_18 
REMARK    5  A    between atoms: C_19  and  O_32 
REMARK    6  A    between atoms: C_26  and  S_28 
ROOT
HETATM    1 NA   UNL     2     -32.376  -8.526   4.533  1.00  0.00     0.000 Na
ENDROOT
TORSDOF 6
BEGIN_RES ARG D 557
REMARK  4 active torsions:
REMARK  status: ('A' for Active; 'I' for Inactive)
REMARK    1  A    between atoms: CA   and  CB  
REMARK    2  A    between atoms: CB   and  CG  
REMARK    3  A    between atoms: CG   and  CD  
REMARK    4  A    between atoms: CD   and  NE  
REMARK       I    between atoms: NE   and  CZ  
REMARK       I    between atoms: CZ   and  NH1 
REMARK       I    between atoms: CZ   and  NH2 
ROOT
ATOM      1  CA  ARG D 557     -26.217   2.705 -17.014  1.00 35.49     0.159 C 
ENDROOT
BRANCH   1   2
ATOM      2  CB  ARG D 557     -26.789   1.319 -17.183  1.00 35.49     0.034 C 
BRANCH   2   3
ATOM      3  CG  ARG D 557     -25.836   0.203 -17.154  1.00 35.49     0.027 C 
BRANCH   3   4
ATOM      4  CD  ARG D 557     -24.756   0.408 -16.162  1.00 35.49     0.116 C 
BRANCH   4   5
ATOM      5  NE  ARG D 557     -24.908  -0.443 -15.011  1.00 35.49    -0.212 N 
ATOM      6  CZ  ARG D 557     -24.099  -1.419 -14.666  1.00 35.49     0.666 C 
ATOM      7  NH1 ARG D 557     -23.032  -1.740 -15.374  1.00 35.49    -0.235 N 
ATOM      8  NH2 ARG D 557     -24.380  -2.075 -13.577  1.00 35.49    -0.235 N 
ATOM      9  HH  ARG D 557     -22.827  -1.321 -16.093  1.00 35.49     0.174 HD
ATOM     10  HH  ARG D 557     -22.539  -2.385 -15.098  1.00 35.49     0.174 HD
ATOM     11  HH  ARG D 557     -25.071  -1.841 -13.136  1.00 35.49     0.174 HD
ATOM     12  HH  ARG D 557     -23.879  -2.709 -13.320  1.00 35.49     0.174 HD
ATOM     13  HE  ARG D 557     -25.609  -0.353 -14.538  1.00 35.49     0.178 HD
ENDBRANCH   4   5
ENDBRANCH   3   4
ENDBRANCH   2   3
ENDBRANCH   1   2
END_RES ARG D 557
BEGIN_RES GLU D 570
REMARK  3 active torsions:
REMARK  status: ('A' for Active; 'I' for Inactive)
REMARK    5  A    between atoms: CA   and  CB  
REMARK    6  A    between atoms: CB   and  CG  
REMARK    7  A    between atoms: CG   and  CD  
ROOT
ATOM     14  CA  GLU D 570     -18.033  -6.348 -13.375  1.00 32.92     0.160 C 
ENDROOT
BRANCH  14  15
ATOM     15  CB  GLU D 570     -19.500  -6.345 -13.794  1.00 32.92     0.043 C 
BRANCH  15  16
ATOM     16  CG  GLU D 570     -20.440  -5.522 -12.990  1.00 32.92     0.100 C 
BRANCH  16  17
ATOM     17  CD  GLU D 570     -21.733  -5.226 -13.714  1.00 32.92     0.185 C 
ATOM     18  OE1 GLU D 570     -22.328  -4.157 -13.479  1.00 32.92    -0.647 OA
ATOM     19  OE2 GLU D 570     -22.163  -6.081 -14.513  1.00 32.92    -0.647 OA
ENDBRANCH  16  17
ENDBRANCH  15  16
ENDBRANCH  14  15
END_RES GLU D 570
ENDMDL
MODEL 2
REMARK VINA RESULT:      -1.1      3.713      3.713
REMARK  6 active torsions:
REMARK  status: ('A' for Active; 'I' for Inactive)
REMARK    1  A    between atoms: C_4  and  N_14 
REMARK    2  A    between atoms: C_5  and  O_12 
REMARK    3  A    between atoms: C_7  and  S_8 
REMARK    4  A    between atoms: N_16  and  C_18 
REMARK    5  A    between atoms: C_19  and  O_32 
REMARK    6  A    between atoms: C_26  and  S_28 
ROOT
HETATM    1 NA   UNL     2     -25.244  -5.245  -4.952  1.00  0.00     0.000 Na
ENDROOT
TORSDOF 6
BEGIN_RES ARG D 557
REMARK  4 active torsions:
REMARK  status: ('A' for Active; 'I' for Inactive)
REMARK    1  A    between atoms: CA   and  CB  
REMARK    2  A    between atoms: CB   and  CG  
REMARK    3  A    between atoms: CG   and  CD  
REMARK    4  A    between atoms: CD   and  NE  
REMARK       I    between atoms: NE   and  CZ  
REMARK       I    between atoms: CZ   and  NH1 
REMARK       I    between atoms: CZ   and  NH2 
ROOT
ATOM      1  CA  ARG D 557     -26.217   2.705 -17.014  1.00 35.49     0.159 C 
ENDROOT
BRANCH   1   2
ATOM      2  CB  ARG D 557     -26.789   1.319 -17.183  1.00 35.49     0.034 C 
BRANCH   2   3
ATOM      3  CG  ARG D 557     -25.834   0.204 -17.168  1.00 35.49     0.027 C 
BRANCH   3   4
ATOM      4  CD  ARG D 557     -24.745   0.407 -16.186  1.00 35.49     0.116 C 
BRANCH   4   5
ATOM      5  NE  ARG D 557     -24.894  -0.435 -15.029  1.00 35.49    -0.212 N 
ATOM      6  CZ  ARG D 557     -24.081  -1.405 -14.675  1.00 35.49     0.666 C 
ATOM      7  NH1 ARG D 557     -23.012  -1.727 -15.379  1.00 35.49    -0.235 N 
ATOM      8  NH2 ARG D 557     -24.359  -2.053 -13.581  1.00 35.49    -0.235 N 
ATOM      9  HH  ARG D 557     -22.808  -1.313 -16.101  1.00 35.49     0.174 HD
ATOM     10  HH  ARG D 557     -22.517  -2.367 -15.098  1.00 35.49     0.174 HD
ATOM     11  HH  ARG D 557     -25.052  -1.818 -13.142  1.00 35.49     0.174 HD
ATOM     12  HH  ARG D 557     -23.856  -2.683 -13.318  1.00 35.49     0.174 HD
ATOM     13  HE  ARG D 557     -25.596  -0.345 -14.557  1.00 35.49     0.178 HD
ENDBRANCH   4   5
ENDBRANCH   3   4
ENDBRANCH   2   3
ENDBRANCH   1   2
END_RES ARG D 557
BEGIN_RES GLU D 570
REMARK  3 active torsions:
REMARK  status: ('A' for Active; 'I' for Inactive)
REMARK    5  A    between atoms: CA   and  CB  
REMARK    6  A    between atoms: CB   and  CG  
REMARK    7  A    between atoms: CG   and  CD  
ROOT
ATOM     14  CA  GLU D 570     -18.033  -6.348 -13.375  1.00 32.92     0.160 C 
ENDROOT
BRANCH  14  15
ATOM     15  CB  GLU D 570     -19.500  -6.345 -13.794  1.00 32.92     0.043 C 
BRANCH  15  16
ATOM     16  CG  GLU D 570     -20.441  -5.527 -12.986  1.00 32.92     0.100 C 
BRANCH  16  17
ATOM     17  CD  GLU D 570     -21.740  -5.242 -13.704  1.00 32.92     0.185 C 
ATOM     18  OE1 GLU D 570     -22.307  -4.149 -13.517  1.00 32.92    -0.647 OA
ATOM     19  OE2 GLU D 570     -22.204  -6.129 -14.447  1.00 32.92    -0.647 OA
ENDBRANCH  16  17
ENDBRANCH  15  16
ENDBRANCH  14  15
END_RES GLU D 570
ENDMDL
MODEL 3
REMARK VINA RESULT:      -1.1      7.159      7.202
REMARK  6 active torsions:
REMARK  status: ('A' for Active; 'I' for Inactive)
REMARK    1  A    between atoms: C_4  and  N_14 
REMARK    2  A    between atoms: C_5  and  O_12 
REMARK    3  A    between atoms: C_7  and  S_8 
REMARK    4  A    between atoms: N_16  and  C_18 
REMARK    5  A    between atoms: C_19  and  O_32 
REMARK    6  A    between atoms: C_26  and  S_28 
ROOT
HETATM    1 NA   UNL     2     -11.245   1.577   2.499  1.00  0.00     0.000 Na
ENDROOT
TORSDOF 6
BEGIN_RES ARG D 557
REMARK  4 active torsions:
REMARK  status: ('A' for Active; 'I' for Inactive)
REMARK    1  A    between atoms: CA   and  CB  
REMARK    2  A    between atoms: CB   and  CG  
REMARK    3  A    between atoms: CG   and  CD  
REMARK    4  A    between atoms: CD   and  NE  
REMARK       I    between atoms: NE   and  CZ  
REMARK       I    between atoms: CZ   and  NH1 
REMARK       I    between atoms: CZ   and  NH2 
ROOT
ATOM      1  CA  ARG D 557     -26.217   2.705 -17.014  1.00 35.49     0.159 C 
ENDROOT
BRANCH   1   2
ATOM      2  CB  ARG D 557     -26.789   1.319 -17.183  1.00 35.49     0.034 C 
BRANCH   2   3
ATOM      3  CG  ARG D 557     -25.867   0.195 -16.983  1.00 35.49     0.027 C 
BRANCH   3   4
ATOM      4  CD  ARG D 557     -26.299  -0.701 -15.885  1.00 35.49     0.116 C 
BRANCH   4   5
ATOM      5  NE  ARG D 557     -25.248  -0.933 -14.929  1.00 35.49    -0.212 N 
ATOM      6  CZ  ARG D 557     -24.971  -2.083 -14.357  1.00 35.49     0.666 C 
ATOM      7  NH1 ARG D 557     -25.664  -3.181 -14.598  1.00 35.49    -0.235 N 
ATOM      8  NH2 ARG D 557     -23.967  -2.115 -13.529  1.00 35.49    -0.235 N 
ATOM      9  HH  ARG D 557     -26.327  -3.183 -15.141  1.00 35.49     0.174 HD
ATOM     10  HH  ARG D 557     -25.435  -3.902 -14.197  1.00 35.49     0.174 HD
ATOM     11  HH  ARG D 557     -23.534  -1.392 -13.398  1.00 35.49     0.174 HD
ATOM     12  HH  ARG D 557     -23.756  -2.839 -13.143  1.00 35.49     0.174 HD
ATOM     13  HE  ARG D 557     -24.798  -0.263 -14.661  1.00 35.49     0.178 HD
ENDBRANCH   4   5
ENDBRANCH   3   4
ENDBRANCH   2   3
ENDBRANCH   1   2
END_RES ARG D 557
BEGIN_RES GLU D 570
REMARK  3 active torsions:
REMARK  status: ('A' for Active; 'I' for Inactive)
REMARK    5  A    between atoms: CA   and  CB  
REMARK    6  A    between atoms: CB   and  CG  
REMARK    7  A    between atoms: CG   and  CD  
ROOT
ATOM     14  CA  GLU D 570     -18.033  -6.348 -13.375  1.00 32.92     0.160 C 
ENDROOT
BRANCH  14  15
ATOM     15  CB  GLU D 570     -19.500  -6.345 -13.794  1.00 32.92     0.043 C 
BRANCH  15  16
ATOM     16  CG  GLU D 570     -20.444  -5.540 -12.976  1.00 32.92     0.100 C 
BRANCH  16  17
ATOM     17  CD  GLU D 570     -21.682  -5.129 -13.739  1.00 32.92     0.185 C 
ATOM     18  OE1 GLU D 570     -22.744  -4.944 -13.115  1.00 32.92    -0.647 OA
ATOM     19  OE2 GLU D 570     -21.592  -5.007 -14.977  1.00 32.92    -0.647 OA
ENDBRANCH  16  17
ENDBRANCH  15  16
ENDBRANCH  14  15
END_RES GLU D 570
ENDMDL
MODEL 4
REMARK VINA RESULT:      -1.0      4.575      4.690
REMARK  6 active torsions:
REMARK  status: ('A' for Active; 'I' for Inactive)
REMARK    1  A    between atoms: C_4  and  N_14 
REMARK    2  A    between atoms: C_5  and  O_12 
REMARK    3  A    between atoms: C_7  and  S_8 
REMARK    4  A    between atoms: N_16  and  C_18 
REMARK    5  A    between atoms: C_19  and  O_32 
REMARK    6  A    between atoms: C_26  and  S_28 
ROOT
HETATM    1 NA   UNL     2     -27.249  -5.739  -9.087  1.00  0.00     0.000 Na
ENDROOT
TORSDOF 6
BEGIN_RES ARG D 557
REMARK  4 active torsions:
REMARK  status: ('A' for Active; 'I' for Inactive)
REMARK    1  A    between atoms: CA   and  CB  
REMARK    2  A    between atoms: CB   and  CG  
REMARK    3  A    between atoms: CG   and  CD  
REMARK    4  A    between atoms: CD   and  NE  
REMARK       I    between atoms: NE   and  CZ  
REMARK       I    between atoms: CZ   and  NH1 
REMARK       I    between atoms: CZ   and  NH2 
ROOT
ATOM      1  CA  ARG D 557     -26.217   2.705 -17.014  1.00 35.49     0.159 C 
ENDROOT
BRANCH   1   2
ATOM      2  CB  ARG D 557     -26.789   1.319 -17.183  1.00 35.49     0.034 C 
BRANCH   2   3
ATOM      3  CG  ARG D 557     -25.863   0.195 -17.000  1.00 35.49     0.027 C 
BRANCH   3   4
ATOM      4  CD  ARG D 557     -26.288  -0.715 -15.912  1.00 35.49     0.116 C 
BRANCH   4   5
ATOM      5  NE  ARG D 557     -25.247  -0.923 -14.940  1.00 35.49    -0.212 N 
ATOM      6  CZ  ARG D 557     -24.965  -2.062 -14.348  1.00 35.49     0.666 C 
ATOM      7  NH1 ARG D 557     -25.643  -3.170 -14.583  1.00 35.49    -0.235 N 
ATOM      8  NH2 ARG D 557     -23.971  -2.071 -13.508  1.00 35.49    -0.235 N 
ATOM      9  HH  ARG D 557     -26.299  -3.187 -15.133  1.00 35.49     0.174 HD
ATOM     10  HH  ARG D 557     -25.412  -3.884 -14.169  1.00 35.49     0.174 HD
ATOM     11  HH  ARG D 557     -23.547  -1.342 -13.381  1.00 35.49     0.174 HD
ATOM     12  HH  ARG D 557     -23.757  -2.788 -13.109  1.00 35.49     0.174 HD
ATOM     13  HE  ARG D 557     -24.807  -0.245 -14.676  1.00 35.49     0.178 HD
ENDBRANCH   4   5
ENDBRANCH   3   4
ENDBRANCH   2   3
ENDBRANCH   1   2
END_RES ARG D 557
BEGIN_RES GLU D 570
REMARK  3 active torsions:
REMARK  status: ('A' for Active; 'I' for Inactive)
REMARK    5  A    between atoms: CA   and  CB  
REMARK    6  A    between atoms: CB   and  CG  
REMARK    7  A    between atoms: CG   and  CD  
ROOT
ATOM     14  CA  GLU D 570     -18.033  -6.348 -13.375  1.00 32.92     0.160 C 
ENDROOT
BRANCH  14  15
ATOM     15  CB  GLU D 570     -19.500  -6.345 -13.794  1.00 32.92     0.043 C 
BRANCH  15  16
ATOM     16  CG  GLU D 570     -20.448  -5.560 -12.962  1.00 32.92     0.100 C 
BRANCH  16  17
ATOM     17  CD  GLU D 570     -21.667  -5.103 -13.729  1.00 32.92     0.185 C 
ATOM     18  OE1 GLU D 570     -21.602  -5.012 -14.970  1.00 32.92    -0.647 OA
ATOM     19  OE2 GLU D 570     -22.693  -4.817 -13.081  1.00 32.92    -0.647 OA
ENDBRANCH  16  17
ENDBRANCH  15  16
ENDBRANCH  14  15
END_RES GLU D 570
ENDMDL
MODEL 5
REMARK VINA RESULT:      -1.0      7.568      7.568
REMARK  6 active torsions:
REMARK  status: ('A' for Active; 'I' for Inactive)
REMARK    1  A    between atoms: C_4  and  N_14 
REMARK    2  A    between atoms: C_5  and  O_12 
REMARK    3  A    between atoms: C_7  and  S_8 
REMARK    4  A    between atoms: N_16  and  C_18 
REMARK    5  A    between atoms: C_19  and  O_32 
REMARK    6  A    between atoms: C_26  and  S_28 
ROOT
HETATM    1 NA   UNL     2     -14.444   3.528  -8.243  1.00  0.00     0.000 Na
ENDROOT
TORSDOF 6
BEGIN_RES ARG D 557
REMARK  4 active torsions:
REMARK  status: ('A' for Active; 'I' for Inactive)
REMARK    1  A    between atoms: CA   and  CB  
REMARK    2  A    between atoms: CB   and  CG  
REMARK    3  A    between atoms: CG   and  CD  
REMARK    4  A    between atoms: CD   and  NE  
REMARK       I    between atoms: NE   and  CZ  
REMARK       I    between atoms: CZ   and  NH1 
REMARK       I    between atoms: CZ   and  NH2 
ROOT
ATOM      1  CA  ARG D 557     -26.217   2.705 -17.014  1.00 35.49     0.159 C 
ENDROOT
BRANCH   1   2
ATOM      2  CB  ARG D 557     -26.789   1.319 -17.183  1.00 35.49     0.034 C 
BRANCH   2   3
ATOM      3  CG  ARG D 557     -25.835   0.204 -17.167  1.00 35.49     0.027 C 
BRANCH   3   4
ATOM      4  CD  ARG D 557     -24.749   0.405 -16.180  1.00 35.49     0.116 C 
BRANCH   4   5
ATOM      5  NE  ARG D 557     -24.901  -0.441 -15.026  1.00 35.49    -0.212 N 
ATOM      6  CZ  ARG D 557     -24.087  -1.409 -14.670  1.00 35.49     0.666 C 
ATOM      7  NH1 ARG D 557     -23.014  -1.726 -15.370  1.00 35.49    -0.235 N 
ATOM      8  NH2 ARG D 557     -24.370  -2.061 -13.579  1.00 35.49    -0.235 N 
ATOM      9  HH  ARG D 557     -22.808  -1.310 -16.090  1.00 35.49     0.174 HD
ATOM     10  HH  ARG D 557     -22.518  -2.366 -15.088  1.00 35.49     0.174 HD
ATOM     11  HH  ARG D 557     -25.066  -1.829 -13.143  1.00 35.49     0.174 HD
ATOM     12  HH  ARG D 557     -23.866  -2.690 -13.316  1.00 35.49     0.174 HD
ATOM     13  HE  ARG D 557     -25.606  -0.354 -14.557  1.00 35.49     0.178 HD
ENDBRANCH   4   5
ENDBRANCH   3   4
ENDBRANCH   2   3
ENDBRANCH   1   2
END_RES ARG D 557
BEGIN_RES GLU D 570
REMARK  3 active torsions:
REMARK  status: ('A' for Active; 'I' for Inactive)
REMARK    5  A    between atoms: CA   and  CB  
REMARK    6  A    between atoms: CB   and  CG  
REMARK    7  A    between atoms: CG   and  CD  
ROOT
ATOM     14  CA  GLU D 570     -18.033  -6.348 -13.375  1.00 32.92     0.160 C 
ENDROOT
BRANCH  14  15
ATOM     15  CB  GLU D 570     -19.500  -6.345 -13.794  1.00 32.92     0.043 C 
BRANCH  15  16
ATOM     16  CG  GLU D 570     -20.441  -5.526 -12.987  1.00 32.92     0.100 C 
BRANCH  16  17
ATOM     17  CD  GLU D 570     -21.736  -5.234 -13.708  1.00 32.92     0.185 C 
ATOM     18  OE1 GLU D 570     -22.321  -4.156 -13.488  1.00 32.92    -0.647 OA
ATOM     19  OE2 GLU D 570     -22.179  -6.099 -14.489  1.00 32.92    -0.647 OA
ENDBRANCH  16  17
ENDBRANCH  15  16
ENDBRANCH  14  15
END_RES GLU D 570
ENDMDL
MODEL 6
REMARK VINA RESULT:      -1.0     10.568     10.596
REMARK  6 active torsions:
REMARK  status: ('A' for Active; 'I' for Inactive)
REMARK    1  A    between atoms: C_4  and  N_14 
REMARK    2  A    between atoms: C_5  and  O_12 
REMARK    3  A    between atoms: C_7  and  S_8 
REMARK    4  A    between atoms: N_16  and  C_18 
REMARK    5  A    between atoms: C_19  and  O_32 
REMARK    6  A    between atoms: C_26  and  S_28 
ROOT
HETATM    1 NA   UNL     2      -9.152   5.821 -17.226  1.00  0.00     0.000 Na
ENDROOT
TORSDOF 6
BEGIN_RES ARG D 557
REMARK  4 active torsions:
REMARK  status: ('A' for Active; 'I' for Inactive)
REMARK    1  A    between atoms: CA   and  CB  
REMARK    2  A    between atoms: CB   and  CG  
REMARK    3  A    between atoms: CG   and  CD  
REMARK    4  A    between atoms: CD   and  NE  
REMARK       I    between atoms: NE   and  CZ  
REMARK       I    between atoms: CZ   and  NH1 
REMARK       I    between atoms: CZ   and  NH2 
ROOT
ATOM      1  CA  ARG D 557     -26.217   2.705 -17.014  1.00 35.49     0.159 C 
ENDROOT
BRANCH   1   2
ATOM      2  CB  ARG D 557     -26.789   1.319 -17.183  1.00 35.49     0.034 C 
BRANCH   2   3
ATOM      3  CG  ARG D 557     -25.861   0.195 -17.009  1.00 35.49     0.027 C 
BRANCH   3   4
ATOM      4  CD  ARG D 557     -26.259  -0.699 -15.898  1.00 35.49     0.116 C 
BRANCH   4   5
ATOM      5  NE  ARG D 557     -25.194  -0.892 -14.949  1.00 35.49    -0.212 N 
ATOM      6  CZ  ARG D 557     -24.882  -2.028 -14.365  1.00 35.49     0.666 C 
ATOM      7  NH1 ARG D 557     -25.549  -3.146 -14.587  1.00 35.49    -0.235 N 
ATOM      8  NH2 ARG D 557     -23.870  -2.024 -13.547  1.00 35.49    -0.235 N 
ATOM      9  HH  ARG D 557     -26.217  -3.171 -15.123  1.00 35.49     0.174 HD
ATOM     10  HH  ARG D 557     -25.299  -3.857 -14.180  1.00 35.49     0.174 HD
ATOM     11  HH  ARG D 557     -23.454  -1.290 -13.429  1.00 35.49     0.174 HD
ATOM     12  HH  ARG D 557     -23.637  -2.739 -13.154  1.00 35.49     0.174 HD
ATOM     13  HE  ARG D 557     -24.758  -0.209 -14.693  1.00 35.49     0.178 HD
ENDBRANCH   4   5
ENDBRANCH   3   4
ENDBRANCH   2   3
ENDBRANCH   1   2
END_RES ARG D 557
BEGIN_RES GLU D 570
REMARK  3 active torsions:
REMARK  status: ('A' for Active; 'I' for Inactive)
REMARK    5  A    between atoms: CA   and  CB  
REMARK    6  A    between atoms: CB   and  CG  
REMARK    7  A    between atoms: CG   and  CD  
ROOT
ATOM     14  CA  GLU D 570     -18.033  -6.348 -13.375  1.00 32.92     0.160 C 
ENDROOT
BRANCH  14  15
ATOM     15  CB  GLU D 570     -19.500  -6.345 -13.794  1.00 32.92     0.043 C 
BRANCH  15  16
ATOM     16  CG  GLU D 570     -20.447  -5.555 -12.965  1.00 32.92     0.100 C 
BRANCH  16  17
ATOM     17  CD  GLU D 570     -21.677  -5.121 -13.728  1.00 32.92     0.185 C 
ATOM     18  OE1 GLU D 570     -22.704  -4.812 -13.094  1.00 32.92    -0.647 OA
ATOM     19  OE2 GLU D 570     -21.618  -5.106 -14.973  1.00 32.92    -0.647 OA
ENDBRANCH  16  17
ENDBRANCH  15  16
ENDBRANCH  14  15
END_RES GLU D 570
ENDMDL
MODEL 7
REMARK VINA RESULT:      -0.9      3.095      3.232
REMARK  6 active torsions:
REMARK  status: ('A' for Active; 'I' for Inactive)
REMARK    1  A    between atoms: C_4  and  N_14 
REMARK    2  A    between atoms: C_5  and  O_12 
REMARK    3  A    between atoms: C_7  and  S_8 
REMARK    4  A    between atoms: N_16  and  C_18 
REMARK    5  A    between atoms: C_19  and  O_32 
REMARK    6  A    between atoms: C_26  and  S_28 
ROOT
HETATM    1 NA   UNL     2     -36.923   0.543   2.988  1.00  0.00     0.000 Na
ENDROOT
TORSDOF 6
BEGIN_RES ARG D 557
REMARK  4 active torsions:
REMARK  status: ('A' for Active; 'I' for Inactive)
REMARK    1  A    between atoms: CA   and  CB  
REMARK    2  A    between atoms: CB   and  CG  
REMARK    3  A    between atoms: CG   and  CD  
REMARK    4  A    between atoms: CD   and  NE  
REMARK       I    between atoms: NE   and  CZ  
REMARK       I    between atoms: CZ   and  NH1 
REMARK       I    between atoms: CZ   and  NH2 
ROOT
ATOM      1  CA  ARG D 557     -26.217   2.705 -17.014  1.00 35.49     0.159 C 
ENDROOT
BRANCH   1   2
ATOM      2  CB  ARG D 557     -26.789   1.319 -17.183  1.00 35.49     0.034 C 
BRANCH   2   3
ATOM      3  CG  ARG D 557     -25.836   0.203 -17.152  1.00 35.49     0.027 C 
BRANCH   3   4
ATOM      4  CD  ARG D 557     -24.753   0.412 -16.165  1.00 35.49     0.116 C 
BRANCH   4   5
ATOM      5  NE  ARG D 557     -24.896  -0.439 -15.013  1.00 35.49    -0.212 N 
ATOM      6  CZ  ARG D 557     -24.082  -1.412 -14.672  1.00 35.49     0.666 C 
ATOM      7  NH1 ARG D 557     -23.017  -1.729 -15.384  1.00 35.49    -0.235 N 
ATOM      8  NH2 ARG D 557     -24.355  -2.068 -13.581  1.00 35.49    -0.235 N 
ATOM      9  HH  ARG D 557     -22.817  -1.309 -16.104  1.00 35.49     0.174 HD
ATOM     10  HH  ARG D 557     -22.520  -2.372 -15.111  1.00 35.49     0.174 HD
ATOM     11  HH  ARG D 557     -25.046  -1.837 -13.137  1.00 35.49     0.174 HD
ATOM     12  HH  ARG D 557     -23.851  -2.700 -13.326  1.00 35.49     0.174 HD
ATOM     13  HE  ARG D 557     -25.596  -0.352 -14.537  1.00 35.49     0.178 HD
ENDBRANCH   4   5
ENDBRANCH   3   4
ENDBRANCH   2   3
ENDBRANCH   1   2
END_RES ARG D 557
BEGIN_RES GLU D 570
REMARK  3 active torsions:
REMARK  status: ('A' for Active; 'I' for Inactive)
REMARK    5  A    between atoms: CA   and  CB  
REMARK    6  A    between atoms: CB   and  CG  
REMARK    7  A    between atoms: CG   and  CD  
ROOT
ATOM     14  CA  GLU D 570     -18.033  -6.348 -13.375  1.00 32.92     0.160 C 
ENDROOT
BRANCH  14  15
ATOM     15  CB  GLU D 570     -19.500  -6.345 -13.794  1.00 32.92     0.043 C 
BRANCH  15  16
ATOM     16  CG  GLU D 570     -20.448  -5.561 -12.961  1.00 32.92     0.100 C 
BRANCH  16  17
ATOM     17  CD  GLU D 570     -21.740  -5.245 -13.678  1.00 32.92     0.185 C 
ATOM     18  OE1 GLU D 570     -22.259  -6.116 -14.402  1.00 32.92    -0.647 OA
ATOM     19  OE2 GLU D 570     -22.230  -4.108 -13.527  1.00 32.92    -0.647 OA
ENDBRANCH  16  17
ENDBRANCH  15  16
ENDBRANCH  14  15
END_RES GLU D 570
ENDMDL
MODEL 8
REMARK VINA RESULT:      -0.9      8.226      8.226
REMARK  6 active torsions:
REMARK  status: ('A' for Active; 'I' for Inactive)
REMARK    1  A    between atoms: C_4  and  N_14 
REMARK    2  A    between atoms: C_5  and  O_12 
REMARK    3  A    between atoms: C_7  and  S_8 
REMARK    4  A    between atoms: N_16  and  C_18 
REMARK    5  A    between atoms: C_19  and  O_32 
REMARK    6  A    between atoms: C_26  and  S_28 
ROOT
HETATM    1 NA   UNL     2     -10.156  -7.668 -11.276  1.00  0.00     0.000 Na
ENDROOT
TORSDOF 6
BEGIN_RES ARG D 557
REMARK  4 active torsions:
REMARK  status: ('A' for Active; 'I' for Inactive)
REMARK    1  A    between atoms: CA   and  CB  
REMARK    2  A    between atoms: CB   and  CG  
REMARK    3  A    between atoms: CG   and  CD  
REMARK    4  A    between atoms: CD   and  NE  
REMARK       I    between atoms: NE   and  CZ  
REMARK       I    between atoms: CZ   and  NH1 
REMARK       I    between atoms: CZ   and  NH2 
ROOT
ATOM      1  CA  ARG D 557     -26.217   2.705 -17.014  1.00 35.49     0.159 C 
ENDROOT
BRANCH   1   2
ATOM      2  CB  ARG D 557     -26.789   1.319 -17.183  1.00 35.49     0.034 C 
BRANCH   2   3
ATOM      3  CG  ARG D 557     -25.836   0.203 -17.156  1.00 35.49     0.027 C 
BRANCH   3   4
ATOM      4  CD  ARG D 557     -24.752   0.411 -16.169  1.00 35.49     0.116 C 
BRANCH   4   5
ATOM      5  NE  ARG D 557     -24.897  -0.438 -15.016  1.00 35.49    -0.212 N 
ATOM      6  CZ  ARG D 557     -24.081  -1.407 -14.667  1.00 35.49     0.666 C 
ATOM      7  NH1 ARG D 557     -23.011  -1.721 -15.374  1.00 35.49    -0.235 N 
ATOM      8  NH2 ARG D 557     -24.357  -2.062 -13.577  1.00 35.49    -0.235 N 
ATOM      9  HH  ARG D 557     -22.809  -1.303 -16.094  1.00 35.49     0.174 HD
ATOM     10  HH  ARG D 557     -22.514  -2.361 -15.096  1.00 35.49     0.174 HD
ATOM     11  HH  ARG D 557     -25.051  -1.832 -13.137  1.00 35.49     0.174 HD
ATOM     12  HH  ARG D 557     -23.851  -2.691 -13.318  1.00 35.49     0.174 HD
ATOM     13  HE  ARG D 557     -25.599  -0.353 -14.543  1.00 35.49     0.178 HD
ENDBRANCH   4   5
ENDBRANCH   3   4
ENDBRANCH   2   3
ENDBRANCH   1   2
END_RES ARG D 557
BEGIN_RES GLU D 570
REMARK  3 active torsions:
REMARK  status: ('A' for Active; 'I' for Inactive)
REMARK    5  A    between atoms: CA   and  CB  
REMARK    6  A    between atoms: CB   and  CG  
REMARK    7  A    between atoms: CG   and  CD  
ROOT
ATOM     14  CA  GLU D 570     -18.033  -6.348 -13.375  1.00 32.92     0.160 C 
ENDROOT
BRANCH  14  15
ATOM     15  CB  GLU D 570     -19.500  -6.345 -13.794  1.00 32.92     0.043 C 
BRANCH  15  16
ATOM     16  CG  GLU D 570     -20.441  -5.527 -12.986  1.00 32.92     0.100 C 
BRANCH  16  17
ATOM     17  CD  GLU D 570     -21.736  -5.233 -13.707  1.00 32.92     0.185 C 
ATOM     18  OE1 GLU D 570     -22.290  -4.131 -13.531  1.00 32.92    -0.647 OA
ATOM     19  OE2 GLU D 570     -22.209  -6.121 -14.444  1.00 32.92    -0.647 OA
ENDBRANCH  16  17
ENDBRANCH  15  16
ENDBRANCH  14  15
END_RES GLU D 570
ENDMDL
MODEL 9
REMARK VINA RESULT:      -0.9      7.706      7.936
REMARK  6 active torsions:
REMARK  status: ('A' for Active; 'I' for Inactive)
REMARK    1  A    between atoms: C_4  and  N_14 
REMARK    2  A    between atoms: C_5  and  O_12 
REMARK    3  A    between atoms: C_7  and  S_8 
REMARK    4  A    between atoms: N_16  and  C_18 
REMARK    5  A    between atoms: C_19  and  O_32 
REMARK    6  A    between atoms: C_26  and  S_28 
ROOT
HETATM    1 NA   UNL     2     -11.253   1.599   2.509  1.00  0.00     0.000 Na
ENDROOT
TORSDOF 6
BEGIN_RES ARG D 557
REMARK  4 active torsions:
REMARK  status: ('A' for Active; 'I' for Inactive)
REMARK    1  A    between atoms: CA   and  CB  
REMARK    2  A    between atoms: CB   and  CG  
REMARK    3  A    between atoms: CG   and  CD  
REMARK    4  A    between atoms: CD   and  NE  
REMARK       I    between atoms: NE   and  CZ  
REMARK       I    between atoms: CZ   and  NH1 
REMARK       I    between atoms: CZ   and  NH2 
ROOT
ATOM      1  CA  ARG D 557     -26.217   2.705 -17.014  1.00 35.49     0.159 C 
ENDROOT
BRANCH   1   2
ATOM      2  CB  ARG D 557     -26.789   1.319 -17.183  1.00 35.49     0.034 C 
BRANCH   2   3
ATOM      3  CG  ARG D 557     -28.230   1.227 -17.447  1.00 35.49     0.027 C 
BRANCH   3   4
ATOM      4  CD  ARG D 557     -28.918   0.312 -16.507  1.00 35.49     0.116 C 
BRANCH   4   5
ATOM      5  NE  ARG D 557     -29.313  -0.919 -17.140  1.00 35.49    -0.212 N 
ATOM      6  CZ  ARG D 557     -28.690  -2.071 -17.035  1.00 35.49     0.666 C 
ATOM      7  NH1 ARG D 557     -27.587  -2.218 -16.324  1.00 35.49    -0.235 N 
ATOM      8  NH2 ARG D 557     -29.202  -3.090 -17.661  1.00 35.49    -0.235 N 
ATOM      9  HH  ARG D 557     -27.234  -1.562 -15.902  1.00 35.49     0.174 HD
ATOM     10  HH  ARG D 557     -27.226  -2.994 -16.290  1.00 35.49     0.174 HD
ATOM     11  HH  ARG D 557     -29.919  -2.967 -18.107  1.00 35.49     0.174 HD
ATOM     12  HH  ARG D 557     -28.830  -3.850 -17.615  1.00 35.49     0.174 HD
ATOM     13  HE  ARG D 557     -29.973  -0.898 -17.676  1.00 35.49     0.178 HD
ENDBRANCH   4   5
ENDBRANCH   3   4
ENDBRANCH   2   3
ENDBRANCH   1   2
END_RES ARG D 557
BEGIN_RES GLU D 570
REMARK  3 active torsions:
REMARK  status: ('A' for Active; 'I' for Inactive)
REMARK    5  A    between atoms: CA   and  CB  
REMARK    6  A    between atoms: CB   and  CG  
REMARK    7  A    between atoms: CG   and  CD  
ROOT
ATOM     14  CA  GLU D 570     -18.033  -6.348 -13.375  1.00 32.92     0.160 C 
ENDROOT
BRANCH  14  15
ATOM     15  CB  GLU D 570     -19.500  -6.345 -13.794  1.00 32.92     0.043 C 
BRANCH  15  16
ATOM     16  CG  GLU D 570     -20.446  -5.552 -12.967  1.00 32.92     0.100 C 
BRANCH  16  17
ATOM     17  CD  GLU D 570     -21.702  -5.168 -13.714  1.00 32.92     0.185 C 
ATOM     18  OE1 GLU D 570     -22.672  -4.715 -13.076  1.00 32.92    -0.647 OA
ATOM     19  OE2 GLU D 570     -21.723  -5.338 -14.949  1.00 32.92    -0.647 OA
ENDBRANCH  16  17
ENDBRANCH  15  16
ENDBRANCH  14  15
END_RES GLU D 570
ENDMDL
