MODEL 1
REMARK VINA RESULT:      -7.4      0.000      0.000
REMARK  22 active torsions:
REMARK  status: ('A' for Active; 'I' for Inactive)
REMARK    1  A    between atoms: O_2  and  C_3 
REMARK    2  A    between atoms: C_3  and  C_4 
REMARK    3  A    between atoms: C_5  and  O_39 
REMARK    4  A    between atoms: C_6  and  O_38 
REMARK    5  A    between atoms: C_7  and  O_37 
REMARK    6  A    between atoms: C_8  and  C_10 
REMARK    7  A    between atoms: C_10  and  O_11 
REMARK    8  A    between atoms: O_11  and  C_12 
REMARK    9  A    between atoms: C_12  and  C_13 
REMARK   10  A    between atoms: C_14  and  C_35 
REMARK   11  A    between atoms: C_16  and  C_21 
REMARK   12  A    between atoms: C_17  and  O_20 
REMARK   13  A    between atoms: C_18  and  O_19 
REMARK   14  A    between atoms: C_21  and  O_22 
REMARK   15  A    between atoms: O_22  and  C_23 
REMARK   16  A    between atoms: C_23  and  C_24 
REMARK   17  A    between atoms: C_25  and  C_33 
REMARK   18  A    between atoms: C_27  and  O_32 
REMARK   19  A    between atoms: C_28  and  O_31 
REMARK   20  A    between atoms: C_29  and  O_30 
REMARK   21  A    between atoms: C_33  and  O_34 
REMARK   22  A    between atoms: C_35  and  O_36 
ROOT
HETATM    1  C   UNL     1     -20.291  -4.090  -8.419  1.00  0.00     0.072 C 
HETATM    2  C   UNL     1     -19.336  -5.082  -7.736  1.00  0.00     0.154 C 
HETATM    3  O   UNL     1     -20.000  -6.244  -7.233  1.00  0.00    -0.373 OA
HETATM    4  C   UNL     1     -21.223  -6.068  -6.491  1.00  0.00     0.177 C 
HETATM    5  C   UNL     1     -22.224  -5.131  -7.197  1.00  0.00     0.178 C 
HETATM    6  C   UNL     1     -21.511  -3.820  -7.526  1.00  0.00     0.158 C 
ENDROOT
BRANCH   1   7
HETATM    7  C   UNL     1     -20.657  -4.609  -9.825  1.00  0.00     0.177 C 
BRANCH   7   8
HETATM    8  O   UNL     1     -21.709  -3.872 -10.441  1.00  0.00    -0.388 OA
BRANCH   8   9
HETATM    9  C   UNL     1     -22.742  -4.705 -10.985  1.00  0.00     0.202 C 
BRANCH   9  10
HETATM   10  C   UNL     1     -22.954  -4.332 -12.450  1.00  0.00     0.177 C 
HETATM   11  C   UNL     1     -23.179  -2.823 -12.606  1.00  0.00     0.180 C 
HETATM   12  C   UNL     1     -23.523  -2.509 -14.070  1.00  0.00     0.180 C 
HETATM   13  C   UNL     1     -24.666  -3.396 -14.599  1.00  0.00     0.180 C 
HETATM   14  C   UNL     1     -24.374  -4.882 -14.342  1.00  0.00     0.177 C 
HETATM   15  O   UNL     1     -24.104  -5.052 -12.936  1.00  0.00    -0.371 OA
BRANCH  11  16
HETATM   16  O   UNL     1     -24.232  -2.367 -11.739  1.00  0.00    -0.390 OA
HETATM   17  H   UNL     1     -24.954  -3.024 -11.794  1.00  0.00     0.210 HD
ENDBRANCH  11  16
BRANCH  12  18
HETATM   18  O   UNL     1     -23.879  -1.131 -14.198  1.00  0.00    -0.390 OA
HETATM   19  H   UNL     1     -23.099  -0.714 -14.622  1.00  0.00     0.210 HD
ENDBRANCH  12  18
BRANCH  13  20
HETATM   20  O   UNL     1     -25.881  -3.018 -13.911  1.00  0.00    -0.390 OA
HETATM   21  H   UNL     1     -25.710  -3.055 -12.951  1.00  0.00     0.210 HD
ENDBRANCH  13  20
BRANCH  14  22
HETATM   22  C   UNL     1     -23.279  -5.482 -15.241  1.00  0.00     0.201 C 
BRANCH  22  23
HETATM   23  O   UNL     1     -23.915  -6.205 -16.299  1.00  0.00    -0.393 OA
HETATM   24  C   UNL     1     -25.027  -6.964 -15.851  1.00  0.00     0.201 C 
ENDBRANCH  22  23
ENDBRANCH  14  22
ENDBRANCH   9  10
ENDBRANCH   8   9
ENDBRANCH   7   8
ENDBRANCH   1   7
BRANCH   2  25
HETATM   25  C   UNL     1     -18.424  -4.403  -6.699  1.00  0.00     0.196 C 
BRANCH  25  26
HETATM   26  O   UNL     1     -17.173  -4.037  -7.277  1.00  0.00    -0.398 OA
HETATM   27  H   UNL     1     -16.953  -3.147  -6.965  1.00  0.00     0.209 HD
ENDBRANCH  25  26
ENDBRANCH   2  25
BRANCH   6  28
HETATM   28  O   UNL     1     -22.422  -2.868  -8.070  1.00  0.00    -0.392 OA
HETATM   29  H   UNL     1     -23.290  -2.974  -7.625  1.00  0.00     0.210 HD
ENDBRANCH   6  28
BRANCH   5  30
HETATM   30  O   UNL     1     -23.420  -4.900  -6.455  1.00  0.00    -0.390 OA
HETATM   31  H   UNL     1     -23.992  -4.320  -6.988  1.00  0.00     0.210 HD
ENDBRANCH   5  30
BRANCH   4  32
HETATM   32  C   UNL     1     -20.946  -5.739  -5.009  1.00  0.00     0.202 C 
BRANCH  32  33
HETATM   33  O   UNL     1     -21.968  -6.124  -4.098  1.00  0.00    -0.388 OA
BRANCH  33  34
HETATM   34  C   UNL     1     -21.960  -7.520  -3.809  1.00  0.00     0.177 C 
BRANCH  34  35
HETATM   35  C   UNL     1     -20.826  -7.818  -2.824  1.00  0.00     0.072 C 
HETATM   36  C   UNL     1     -20.097  -9.114  -3.204  1.00  0.00     0.157 C 
HETATM   37  O   UNL     1     -20.913 -10.276  -2.974  1.00  0.00    -0.351 OA
HETATM   38  C   UNL     1     -21.524 -10.408  -1.703  1.00  0.00     0.288 C 
HETATM   39  C   UNL     1     -22.254  -9.142  -1.213  1.00  0.00     0.202 C 
HETATM   40  C   UNL     1     -21.371  -7.901  -1.395  1.00  0.00     0.160 C 
BRANCH  36  41
HETATM   41  C   UNL     1     -18.721  -9.227  -2.523  1.00  0.00     0.196 C 
BRANCH  41  42
HETATM   42  O   UNL     1     -18.244 -10.566  -2.572  1.00  0.00    -0.398 OA
HETATM   43  H   UNL     1     -19.017 -11.136  -2.394  1.00  0.00     0.209 HD
ENDBRANCH  41  42
ENDBRANCH  36  41
BRANCH  38  44
HETATM   44  O   UNL     1     -20.601 -10.904  -0.736  1.00  0.00    -0.369 OA
HETATM   45  H   UNL     1     -20.116 -11.645  -1.107  1.00  0.00     0.212 HD
ENDBRANCH  38  44
BRANCH  39  46
HETATM   46  O   UNL     1     -22.656  -9.243   0.158  1.00  0.00    -0.388 OA
HETATM   47  H   UNL     1     -22.938 -10.163   0.324  1.00  0.00     0.210 HD
ENDBRANCH  39  46
BRANCH  40  48
HETATM   48  O   UNL     1     -22.078  -6.696  -1.086  1.00  0.00    -0.392 OA
HETATM   49  H   UNL     1     -22.049  -6.107  -1.862  1.00  0.00     0.210 HD
ENDBRANCH  40  48
ENDBRANCH  34  35
ENDBRANCH  33  34
ENDBRANCH  32  33
ENDBRANCH   4  32
TORSDOF 22
BEGIN_RES ARG D 557
REMARK  4 active torsions:
REMARK  status: ('A' for Active; 'I' for Inactive)
REMARK    1  A    between atoms: CA   and  CB  
REMARK    2  A    between atoms: CB   and  CG  
REMARK    3  A    between atoms: CG   and  CD  
REMARK    4  A    between atoms: CD   and  NE  
REMARK       I    between atoms: NE   and  CZ  
REMARK       I    between atoms: CZ   and  NH1 
REMARK       I    between atoms: CZ   and  NH2 
ROOT
ATOM      1  CA  ARG D 557     -26.217   2.705 -17.014  1.00 35.49     0.159 C 
ENDROOT
BRANCH   1   2
ATOM      2  CB  ARG D 557     -26.789   1.319 -17.183  1.00 35.49     0.034 C 
BRANCH   2   3
ATOM      3  CG  ARG D 557     -28.233   1.226 -17.429  1.00 35.49     0.027 C 
BRANCH   3   4
ATOM      4  CD  ARG D 557     -28.909   0.312 -16.480  1.00 35.49     0.116 C 
BRANCH   4   5
ATOM      5  NE  ARG D 557     -28.158  -0.896 -16.262  1.00 35.49    -0.212 N 
ATOM      6  CZ  ARG D 557     -28.448  -2.080 -16.752  1.00 35.49     0.666 C 
ATOM      7  NH1 ARG D 557     -29.506  -2.293 -17.512  1.00 35.49    -0.235 N 
ATOM      8  NH2 ARG D 557     -27.642  -3.062 -16.468  1.00 35.49    -0.235 N 
ATOM      9  HH  ARG D 557     -30.049  -1.662 -17.714  1.00 35.49     0.174 HD
ATOM     10  HH  ARG D 557     -29.644  -3.087 -17.806  1.00 35.49     0.174 HD
ATOM     11  HH  ARG D 557     -26.962  -2.893 -15.981  1.00 35.49     0.174 HD
ATOM     12  HH  ARG D 557     -27.794  -3.840 -16.769  1.00 35.49     0.174 HD
ATOM     13  HE  ARG D 557     -27.500  -0.865 -15.724  1.00 35.49     0.178 HD
ENDBRANCH   4   5
ENDBRANCH   3   4
ENDBRANCH   2   3
ENDBRANCH   1   2
END_RES ARG D 557
BEGIN_RES GLU D 570
REMARK  3 active torsions:
REMARK  status: ('A' for Active; 'I' for Inactive)
REMARK    5  A    between atoms: CA   and  CB  
REMARK    6  A    between atoms: CB   and  CG  
REMARK    7  A    between atoms: CG   and  CD  
ROOT
ATOM     14  CA  GLU D 570     -18.033  -6.348 -13.375  1.00 32.92     0.160 C 
ENDROOT
BRANCH  14  15
ATOM     15  CB  GLU D 570     -19.500  -6.345 -13.794  1.00 32.92     0.043 C 
BRANCH  15  16
ATOM     16  CG  GLU D 570     -20.086  -7.634 -14.244  1.00 32.92     0.100 C 
BRANCH  16  17
ATOM     17  CD  GLU D 570     -20.565  -7.595 -15.677  1.00 32.92     0.185 C 
ATOM     18  OE1 GLU D 570     -21.215  -8.560 -16.124  1.00 32.92    -0.647 OA
ATOM     19  OE2 GLU D 570     -20.274  -6.597 -16.364  1.00 32.92    -0.647 OA
ENDBRANCH  16  17
ENDBRANCH  15  16
ENDBRANCH  14  15
END_RES GLU D 570
ENDMDL
MODEL 2
REMARK VINA RESULT:      -7.3      1.693      9.776
REMARK  22 active torsions:
REMARK  status: ('A' for Active; 'I' for Inactive)
REMARK    1  A    between atoms: O_2  and  C_3 
REMARK    2  A    between atoms: C_3  and  C_4 
REMARK    3  A    between atoms: C_5  and  O_39 
REMARK    4  A    between atoms: C_6  and  O_38 
REMARK    5  A    between atoms: C_7  and  O_37 
REMARK    6  A    between atoms: C_8  and  C_10 
REMARK    7  A    between atoms: C_10  and  O_11 
REMARK    8  A    between atoms: O_11  and  C_12 
REMARK    9  A    between atoms: C_12  and  C_13 
REMARK   10  A    between atoms: C_14  and  C_35 
REMARK   11  A    between atoms: C_16  and  C_21 
REMARK   12  A    between atoms: C_17  and  O_20 
REMARK   13  A    between atoms: C_18  and  O_19 
REMARK   14  A    between atoms: C_21  and  O_22 
REMARK   15  A    between atoms: O_22  and  C_23 
REMARK   16  A    between atoms: C_23  and  C_24 
REMARK   17  A    between atoms: C_25  and  C_33 
REMARK   18  A    between atoms: C_27  and  O_32 
REMARK   19  A    between atoms: C_28  and  O_31 
REMARK   20  A    between atoms: C_29  and  O_30 
REMARK   21  A    between atoms: C_33  and  O_34 
REMARK   22  A    between atoms: C_35  and  O_36 
ROOT
HETATM    1  C   UNL     1     -21.493  -6.765  -4.578  1.00  0.00     0.072 C 
HETATM    2  C   UNL     1     -20.071  -6.996  -5.113  1.00  0.00     0.154 C 
HETATM    3  O   UNL     1     -19.498  -5.829  -5.709  1.00  0.00    -0.373 OA
HETATM    4  C   UNL     1     -20.304  -5.060  -6.624  1.00  0.00     0.177 C 
HETATM    5  C   UNL     1     -21.712  -4.757  -6.074  1.00  0.00     0.178 C 
HETATM    6  C   UNL     1     -22.358  -6.074  -5.642  1.00  0.00     0.158 C 
ENDROOT
BRANCH   1   7
HETATM    7  C   UNL     1     -21.425  -5.997  -3.243  1.00  0.00     0.177 C 
BRANCH   7   8
HETATM    8  O   UNL     1     -22.573  -6.192  -2.422  1.00  0.00    -0.388 OA
BRANCH   8   9
HETATM    9  C   UNL     1     -22.269  -6.791  -1.154  1.00  0.00     0.202 C 
BRANCH   9  10
HETATM   10  C   UNL     1     -21.957  -8.269  -1.371  1.00  0.00     0.177 C 
HETATM   11  C   UNL     1     -22.807  -9.151  -0.448  1.00  0.00     0.180 C 
HETATM   12  C   UNL     1     -22.367 -10.616  -0.598  1.00  0.00     0.180 C 
HETATM   13  C   UNL     1     -20.845 -10.783  -0.438  1.00  0.00     0.180 C 
HETATM   14  C   UNL     1     -20.085  -9.815  -1.358  1.00  0.00     0.177 C 
HETATM   15  O   UNL     1     -20.557  -8.479  -1.098  1.00  0.00    -0.371 OA
BRANCH  11  16
HETATM   16  O   UNL     1     -22.682  -8.733   0.923  1.00  0.00    -0.390 OA
HETATM   17  H   UNL     1     -21.735  -8.796   1.157  1.00  0.00     0.210 HD
ENDBRANCH  11  16
BRANCH  12  18
HETATM   18  O   UNL     1     -23.049 -11.426   0.362  1.00  0.00    -0.390 OA
HETATM   19  H   UNL     1     -23.873 -11.704  -0.092  1.00  0.00     0.210 HD
ENDBRANCH  12  18
BRANCH  13  20
HETATM   20  O   UNL     1     -20.506 -10.502   0.940  1.00  0.00    -0.390 OA
HETATM   21  H   UNL     1     -21.334 -10.481   1.458  1.00  0.00     0.210 HD
ENDBRANCH  13  20
BRANCH  14  22
HETATM   22  C   UNL     1     -20.128 -10.188  -2.851  1.00  0.00     0.201 C 
BRANCH  22  23
HETATM   23  O   UNL     1     -18.787 -10.201  -3.348  1.00  0.00    -0.393 OA
HETATM   24  C   UNL     1     -18.255 -11.512  -3.454  1.00  0.00     0.201 C 
ENDBRANCH  22  23
ENDBRANCH  14  22
ENDBRANCH   9  10
ENDBRANCH   8   9
ENDBRANCH   7   8
ENDBRANCH   1   7
BRANCH   2  25
HETATM   25  C   UNL     1     -19.971  -8.247  -6.003  1.00  0.00     0.196 C 
BRANCH  25  26
HETATM   26  O   UNL     1     -18.665  -8.814  -5.948  1.00  0.00    -0.398 OA
HETATM   27  H   UNL     1     -18.334  -8.885  -6.856  1.00  0.00     0.209 HD
ENDBRANCH  25  26
ENDBRANCH   2  25
BRANCH   6  28
HETATM   28  O   UNL     1     -23.710  -5.869  -5.239  1.00  0.00    -0.392 OA
HETATM   29  H   UNL     1     -23.747  -5.853  -4.259  1.00  0.00     0.210 HD
ENDBRANCH   6  28
BRANCH   5  30
HETATM   30  O   UNL     1     -22.546  -4.044  -6.985  1.00  0.00    -0.390 OA
HETATM   31  H   UNL     1     -23.440  -4.427  -6.931  1.00  0.00     0.210 HD
ENDBRANCH   5  30
BRANCH   4  32
HETATM   32  C   UNL     1     -20.268  -5.653  -8.048  1.00  0.00     0.202 C 
BRANCH  32  33
HETATM   33  O   UNL     1     -20.221  -4.700  -9.103  1.00  0.00    -0.388 OA
BRANCH  33  34
HETATM   34  C   UNL     1     -21.184  -4.952 -10.124  1.00  0.00     0.177 C 
BRANCH  34  35
HETATM   35  C   UNL     1     -22.142  -3.761 -10.208  1.00  0.00     0.072 C 
HETATM   36  C   UNL     1     -23.601  -4.220 -10.077  1.00  0.00     0.157 C 
HETATM   37  O   UNL     1     -24.039  -4.951 -11.236  1.00  0.00    -0.351 OA
HETATM   38  C   UNL     1     -23.820  -4.363 -12.505  1.00  0.00     0.288 C 
HETATM   39  C   UNL     1     -22.389  -3.833 -12.722  1.00  0.00     0.202 C 
HETATM   40  C   UNL     1     -21.930  -2.999 -11.520  1.00  0.00     0.160 C 
BRANCH  36  41
HETATM   41  C   UNL     1     -24.548  -3.057  -9.732  1.00  0.00     0.196 C 
BRANCH  41  42
HETATM   42  O   UNL     1     -25.905  -3.480  -9.787  1.00  0.00    -0.398 OA
HETATM   43  H   UNL     1     -26.062  -3.769 -10.707  1.00  0.00     0.209 HD
ENDBRANCH  41  42
ENDBRANCH  36  41
BRANCH  38  44
HETATM   44  O   UNL     1     -24.807  -3.375 -12.794  1.00  0.00    -0.369 OA
HETATM   45  H   UNL     1     -25.671  -3.793 -12.843  1.00  0.00     0.212 HD
ENDBRANCH  38  44
BRANCH  39  46
HETATM   46  O   UNL     1     -22.275  -3.050 -13.917  1.00  0.00    -0.388 OA
HETATM   47  H   UNL     1     -22.022  -3.647 -14.647  1.00  0.00     0.210 HD
ENDBRANCH  39  46
BRANCH  40  48
HETATM   48  O   UNL     1     -20.555  -2.619 -11.631  1.00  0.00    -0.392 OA
HETATM   49  H   UNL     1     -20.066  -2.982 -10.870  1.00  0.00     0.210 HD
ENDBRANCH  40  48
ENDBRANCH  34  35
ENDBRANCH  33  34
ENDBRANCH  32  33
ENDBRANCH   4  32
TORSDOF 22
BEGIN_RES ARG D 557
REMARK  4 active torsions:
REMARK  status: ('A' for Active; 'I' for Inactive)
REMARK    1  A    between atoms: CA   and  CB  
REMARK    2  A    between atoms: CB   and  CG  
REMARK    3  A    between atoms: CG   and  CD  
REMARK    4  A    between atoms: CD   and  NE  
REMARK       I    between atoms: NE   and  CZ  
REMARK       I    between atoms: CZ   and  NH1 
REMARK       I    between atoms: CZ   and  NH2 
ROOT
ATOM      1  CA  ARG D 557     -26.217   2.705 -17.014  1.00 35.49     0.159 C 
ENDROOT
BRANCH   1   2
ATOM      2  CB  ARG D 557     -26.789   1.319 -17.183  1.00 35.49     0.034 C 
BRANCH   2   3
ATOM      3  CG  ARG D 557     -28.236   1.225 -17.411  1.00 35.49     0.027 C 
BRANCH   3   4
ATOM      4  CD  ARG D 557     -28.894   0.281 -16.479  1.00 35.49     0.116 C 
BRANCH   4   5
ATOM      5  NE  ARG D 557     -29.259  -0.952 -17.124  1.00 35.49    -0.212 N 
ATOM      6  CZ  ARG D 557     -28.626  -2.098 -17.006  1.00 35.49     0.666 C 
ATOM      7  NH1 ARG D 557     -27.540  -2.235 -16.268  1.00 35.49    -0.235 N 
ATOM      8  NH2 ARG D 557     -29.111  -3.121 -17.648  1.00 35.49    -0.235 N 
ATOM      9  HH  ARG D 557     -27.205  -1.576 -15.836  1.00 35.49     0.174 HD
ATOM     10  HH  ARG D 557     -27.171  -3.007 -16.227  1.00 35.49     0.174 HD
ATOM     11  HH  ARG D 557     -29.818  -3.005 -18.111  1.00 35.49     0.174 HD
ATOM     12  HH  ARG D 557     -28.732  -3.877 -17.593  1.00 35.49     0.174 HD
ATOM     13  HE  ARG D 557     -29.905  -0.938 -17.677  1.00 35.49     0.178 HD
ENDBRANCH   4   5
ENDBRANCH   3   4
ENDBRANCH   2   3
ENDBRANCH   1   2
END_RES ARG D 557
BEGIN_RES GLU D 570
REMARK  3 active torsions:
REMARK  status: ('A' for Active; 'I' for Inactive)
REMARK    5  A    between atoms: CA   and  CB  
REMARK    6  A    between atoms: CB   and  CG  
REMARK    7  A    between atoms: CG   and  CD  
ROOT
ATOM     14  CA  GLU D 570     -18.033  -6.348 -13.375  1.00 32.92     0.160 C 
ENDROOT
BRANCH  14  15
ATOM     15  CB  GLU D 570     -19.500  -6.345 -13.794  1.00 32.92     0.043 C 
BRANCH  15  16
ATOM     16  CG  GLU D 570     -19.861  -7.090 -15.028  1.00 32.92     0.100 C 
BRANCH  16  17
ATOM     17  CD  GLU D 570     -20.915  -6.388 -15.853  1.00 32.92     0.185 C 
ATOM     18  OE1 GLU D 570     -21.578  -7.049 -16.675  1.00 32.92    -0.647 OA
ATOM     19  OE2 GLU D 570     -21.067  -5.162 -15.687  1.00 32.92    -0.647 OA
ENDBRANCH  16  17
ENDBRANCH  15  16
ENDBRANCH  14  15
END_RES GLU D 570
ENDMDL
MODEL 3
REMARK VINA RESULT:      -7.1      1.536     10.151
REMARK  22 active torsions:
REMARK  status: ('A' for Active; 'I' for Inactive)
REMARK    1  A    between atoms: O_2  and  C_3 
REMARK    2  A    between atoms: C_3  and  C_4 
REMARK    3  A    between atoms: C_5  and  O_39 
REMARK    4  A    between atoms: C_6  and  O_38 
REMARK    5  A    between atoms: C_7  and  O_37 
REMARK    6  A    between atoms: C_8  and  C_10 
REMARK    7  A    between atoms: C_10  and  O_11 
REMARK    8  A    between atoms: O_11  and  C_12 
REMARK    9  A    between atoms: C_12  and  C_13 
REMARK   10  A    between atoms: C_14  and  C_35 
REMARK   11  A    between atoms: C_16  and  C_21 
REMARK   12  A    between atoms: C_17  and  O_20 
REMARK   13  A    between atoms: C_18  and  O_19 
REMARK   14  A    between atoms: C_21  and  O_22 
REMARK   15  A    between atoms: O_22  and  C_23 
REMARK   16  A    between atoms: C_23  and  C_24 
REMARK   17  A    between atoms: C_25  and  C_33 
REMARK   18  A    between atoms: C_27  and  O_32 
REMARK   19  A    between atoms: C_28  and  O_31 
REMARK   20  A    between atoms: C_29  and  O_30 
REMARK   21  A    between atoms: C_33  and  O_34 
REMARK   22  A    between atoms: C_35  and  O_36 
ROOT
HETATM    1  C   UNL     1     -23.019  -4.224  -7.545  1.00  0.00     0.072 C 
HETATM    2  C   UNL     1     -23.756  -4.386  -8.884  1.00  0.00     0.154 C 
HETATM    3  O   UNL     1     -22.972  -5.047  -9.881  1.00  0.00    -0.373 OA
HETATM    4  C   UNL     1     -21.602  -4.635 -10.061  1.00  0.00     0.177 C 
HETATM    5  C   UNL     1     -20.826  -4.536  -8.732  1.00  0.00     0.178 C 
HETATM    6  C   UNL     1     -21.615  -3.644  -7.774  1.00  0.00     0.158 C 
ENDROOT
BRANCH   1   7
HETATM    7  C   UNL     1     -23.016  -5.569  -6.791  1.00  0.00     0.177 C 
BRANCH   7   8
HETATM    8  O   UNL     1     -21.974  -5.671  -5.824  1.00  0.00    -0.388 OA
BRANCH   8   9
HETATM    9  C   UNL     1     -21.173  -6.852  -5.976  1.00  0.00     0.202 C 
BRANCH   9  10
HETATM   10  C   UNL     1     -20.771  -7.353  -4.591  1.00  0.00     0.177 C 
HETATM   11  C   UNL     1     -19.668  -8.413  -4.691  1.00  0.00     0.180 C 
HETATM   12  C   UNL     1     -19.389  -8.989  -3.293  1.00  0.00     0.180 C 
HETATM   13  C   UNL     1     -20.678  -9.455  -2.592  1.00  0.00     0.180 C 
HETATM   14  C   UNL     1     -21.741  -8.346  -2.599  1.00  0.00     0.177 C 
HETATM   15  O   UNL     1     -21.938  -7.918  -3.961  1.00  0.00    -0.371 OA
BRANCH  11  16
HETATM   16  O   UNL     1     -20.043  -9.466  -5.596  1.00  0.00    -0.390 OA
HETATM   17  H   UNL     1     -19.456  -9.398  -6.375  1.00  0.00     0.210 HD
ENDBRANCH  11  16
BRANCH  12  18
HETATM   18  O   UNL     1     -18.469 -10.079  -3.394  1.00  0.00    -0.390 OA
HETATM   19  H   UNL     1     -17.788  -9.889  -2.715  1.00  0.00     0.210 HD
ENDBRANCH  12  18
BRANCH  13  20
HETATM   20  O   UNL     1     -21.183 -10.610  -3.304  1.00  0.00    -0.390 OA
HETATM   21  H   UNL     1     -21.036 -11.398  -2.746  1.00  0.00     0.210 HD
ENDBRANCH  13  20
BRANCH  14  22
HETATM   22  C   UNL     1     -21.452  -7.180  -1.638  1.00  0.00     0.201 C 
BRANCH  22  23
HETATM   23  O   UNL     1     -22.641  -6.910  -0.890  1.00  0.00    -0.393 OA
HETATM   24  C   UNL     1     -22.867  -7.859   0.140  1.00  0.00     0.201 C 
ENDBRANCH  22  23
ENDBRANCH  14  22
ENDBRANCH   9  10
ENDBRANCH   8   9
ENDBRANCH   7   8
ENDBRANCH   1   7
BRANCH   2  25
HETATM   25  C   UNL     1     -24.382  -3.069  -9.375  1.00  0.00     0.196 C 
BRANCH  25  26
HETATM   26  O   UNL     1     -25.103  -3.266 -10.589  1.00  0.00    -0.398 OA
HETATM   27  H   UNL     1     -25.816  -3.897 -10.412  1.00  0.00     0.209 HD
ENDBRANCH  25  26
ENDBRANCH   2  25
BRANCH   6  28
HETATM   28  O   UNL     1     -20.884  -3.417  -6.572  1.00  0.00    -0.392 OA
HETATM   29  H   UNL     1     -20.940  -2.464  -6.345  1.00  0.00     0.210 HD
ENDBRANCH   6  28
BRANCH   5  30
HETATM   30  O   UNL     1     -19.483  -4.078  -8.881  1.00  0.00    -0.390 OA
HETATM   31  H   UNL     1     -18.974  -4.787  -9.314  1.00  0.00     0.210 HD
ENDBRANCH   5  30
BRANCH   4  32
HETATM   32  C   UNL     1     -21.498  -3.399 -10.978  1.00  0.00     0.202 C 
BRANCH  32  33
HETATM   33  O   UNL     1     -22.570  -3.229 -11.896  1.00  0.00    -0.388 OA
BRANCH  33  34
HETATM   34  C   UNL     1     -22.479  -4.094 -13.026  1.00  0.00     0.177 C 
BRANCH  34  35
HETATM   35  C   UNL     1     -22.841  -3.305 -14.287  1.00  0.00     0.072 C 
HETATM   36  C   UNL     1     -23.525  -1.979 -13.927  1.00  0.00     0.157 C 
HETATM   37  O   UNL     1     -24.846  -2.185 -13.397  1.00  0.00    -0.351 OA
HETATM   38  C   UNL     1     -25.729  -3.011 -14.133  1.00  0.00     0.288 C 
HETATM   39  C   UNL     1     -25.121  -4.356 -14.577  1.00  0.00     0.202 C 
HETATM   40  C   UNL     1     -23.736  -4.146 -15.202  1.00  0.00     0.160 C 
BRANCH  36  41
HETATM   41  C   UNL     1     -23.519  -0.984 -15.101  1.00  0.00     0.196 C 
BRANCH  41  42
HETATM   42  O   UNL     1     -24.527   0.004 -14.928  1.00  0.00    -0.398 OA
HETATM   43  H   UNL     1     -24.123   0.853 -15.194  1.00  0.00     0.209 HD
ENDBRANCH  41  42
ENDBRANCH  36  41
BRANCH  38  44
HETATM   44  O   UNL     1     -26.311  -2.300 -15.224  1.00  0.00    -0.369 OA
HETATM   45  H   UNL     1     -26.900  -2.885 -15.709  1.00  0.00     0.212 HD
ENDBRANCH  38  44
BRANCH  39  46
HETATM   46  O   UNL     1     -25.962  -5.052 -15.504  1.00  0.00    -0.388 OA
HETATM   47  H   UNL     1     -26.557  -5.635 -14.995  1.00  0.00     0.210 HD
ENDBRANCH  39  46
BRANCH  40  48
HETATM   48  O   UNL     1     -23.089  -5.390 -15.487  1.00  0.00    -0.392 OA
HETATM   49  H   UNL     1     -22.137  -5.299 -15.300  1.00  0.00     0.210 HD
ENDBRANCH  40  48
ENDBRANCH  34  35
ENDBRANCH  33  34
ENDBRANCH  32  33
ENDBRANCH   4  32
TORSDOF 22
BEGIN_RES ARG D 557
REMARK  4 active torsions:
REMARK  status: ('A' for Active; 'I' for Inactive)
REMARK    1  A    between atoms: CA   and  CB  
REMARK    2  A    between atoms: CB   and  CG  
REMARK    3  A    between atoms: CG   and  CD  
REMARK    4  A    between atoms: CD   and  NE  
REMARK       I    between atoms: NE   and  CZ  
REMARK       I    between atoms: CZ   and  NH1 
REMARK       I    between atoms: CZ   and  NH2 
ROOT
ATOM      1  CA  ARG D 557     -26.217   2.705 -17.014  1.00 35.49     0.159 C 
ENDROOT
BRANCH   1   2
ATOM      2  CB  ARG D 557     -26.789   1.319 -17.183  1.00 35.49     0.034 C 
BRANCH   2   3
ATOM      3  CG  ARG D 557     -28.163   1.229 -17.692  1.00 35.49     0.027 C 
BRANCH   3   4
ATOM      4  CD  ARG D 557     -28.982   0.253 -16.937  1.00 35.49     0.116 C 
BRANCH   4   5
ATOM      5  NE  ARG D 557     -28.359  -1.042 -16.872  1.00 35.49    -0.212 N 
ATOM      6  CZ  ARG D 557     -28.950  -2.192 -17.110  1.00 35.49     0.666 C 
ATOM      7  NH1 ARG D 557     -30.228  -2.278 -17.432  1.00 35.49    -0.235 N 
ATOM      8  NH2 ARG D 557     -28.225  -3.269 -17.025  1.00 35.49    -0.235 N 
ATOM      9  HH  ARG D 557     -30.723  -1.582 -17.496  1.00 35.49     0.174 HD
ATOM     10  HH  ARG D 557     -30.559  -3.055 -17.579  1.00 35.49     0.174 HD
ATOM     11  HH  ARG D 557     -27.401  -3.182 -16.823  1.00 35.49     0.174 HD
ATOM     12  HH  ARG D 557     -28.571  -4.028 -17.176  1.00 35.49     0.174 HD
ATOM     13  HE  ARG D 557     -27.554  -1.086 -16.601  1.00 35.49     0.178 HD
ENDBRANCH   4   5
ENDBRANCH   3   4
ENDBRANCH   2   3
ENDBRANCH   1   2
END_RES ARG D 557
BEGIN_RES GLU D 570
REMARK  3 active torsions:
REMARK  status: ('A' for Active; 'I' for Inactive)
REMARK    5  A    between atoms: CA   and  CB  
REMARK    6  A    between atoms: CB   and  CG  
REMARK    7  A    between atoms: CG   and  CD  
ROOT
ATOM     14  CA  GLU D 570     -18.033  -6.348 -13.375  1.00 32.92     0.160 C 
ENDROOT
BRANCH  14  15
ATOM     15  CB  GLU D 570     -19.500  -6.345 -13.794  1.00 32.92     0.043 C 
BRANCH  15  16
ATOM     16  CG  GLU D 570     -19.796  -6.299 -15.249  1.00 32.92     0.100 C 
BRANCH  16  17
ATOM     17  CD  GLU D 570     -20.617  -7.477 -15.721  1.00 32.92     0.185 C 
ATOM     18  OE1 GLU D 570     -21.330  -7.350 -16.735  1.00 32.92    -0.647 OA
ATOM     19  OE2 GLU D 570     -20.559  -8.532 -15.060  1.00 32.92    -0.647 OA
ENDBRANCH  16  17
ENDBRANCH  15  16
ENDBRANCH  14  15
END_RES GLU D 570
ENDMDL
MODEL 4
REMARK VINA RESULT:      -7.1      2.691     10.801
REMARK  22 active torsions:
REMARK  status: ('A' for Active; 'I' for Inactive)
REMARK    1  A    between atoms: O_2  and  C_3 
REMARK    2  A    between atoms: C_3  and  C_4 
REMARK    3  A    between atoms: C_5  and  O_39 
REMARK    4  A    between atoms: C_6  and  O_38 
REMARK    5  A    between atoms: C_7  and  O_37 
REMARK    6  A    between atoms: C_8  and  C_10 
REMARK    7  A    between atoms: C_10  and  O_11 
REMARK    8  A    between atoms: O_11  and  C_12 
REMARK    9  A    between atoms: C_12  and  C_13 
REMARK   10  A    between atoms: C_14  and  C_35 
REMARK   11  A    between atoms: C_16  and  C_21 
REMARK   12  A    between atoms: C_17  and  O_20 
REMARK   13  A    between atoms: C_18  and  O_19 
REMARK   14  A    between atoms: C_21  and  O_22 
REMARK   15  A    between atoms: O_22  and  C_23 
REMARK   16  A    between atoms: C_23  and  C_24 
REMARK   17  A    between atoms: C_25  and  C_33 
REMARK   18  A    between atoms: C_27  and  O_32 
REMARK   19  A    between atoms: C_28  and  O_31 
REMARK   20  A    between atoms: C_29  and  O_30 
REMARK   21  A    between atoms: C_33  and  O_34 
REMARK   22  A    between atoms: C_35  and  O_36 
ROOT
HETATM    1  C   UNL     1     -20.533  -8.498  -2.722  1.00  0.00     0.072 C 
HETATM    2  C   UNL     1     -21.707  -7.614  -3.174  1.00  0.00     0.154 C 
HETATM    3  O   UNL     1     -22.064  -7.813  -4.545  1.00  0.00    -0.373 OA
HETATM    4  C   UNL     1     -21.011  -7.862  -5.528  1.00  0.00     0.177 C 
HETATM    5  C   UNL     1     -19.856  -8.800  -5.124  1.00  0.00     0.178 C 
HETATM    6  C   UNL     1     -19.376  -8.404  -3.727  1.00  0.00     0.158 C 
ENDROOT
BRANCH   1   7
HETATM    7  C   UNL     1     -21.031  -9.938  -2.486  1.00  0.00     0.177 C 
BRANCH   7   8
HETATM    8  O   UNL     1     -20.096 -10.749  -1.780  1.00  0.00    -0.388 OA
BRANCH   8   9
HETATM    9  C   UNL     1     -19.903 -12.040  -2.375  1.00  0.00     0.202 C 
BRANCH   9  10
HETATM   10  C   UNL     1     -18.561 -12.600  -1.908  1.00  0.00     0.177 C 
HETATM   11  C   UNL     1     -18.704 -13.314  -0.559  1.00  0.00     0.180 C 
HETATM   12  C   UNL     1     -17.314 -13.741  -0.061  1.00  0.00     0.180 C 
HETATM   13  C   UNL     1     -16.310 -12.573  -0.077  1.00  0.00     0.180 C 
HETATM   14  C   UNL     1     -16.286 -11.886  -1.450  1.00  0.00     0.177 C 
HETATM   15  O   UNL     1     -17.634 -11.503  -1.787  1.00  0.00    -0.371 OA
BRANCH  11  16
HETATM   16  O   UNL     1     -19.339 -12.463   0.411  1.00  0.00    -0.390 OA
HETATM   17  H   UNL     1     -20.043 -11.972  -0.056  1.00  0.00     0.210 HD
ENDBRANCH  11  16
BRANCH  12  18
HETATM   18  O   UNL     1     -17.417 -14.276   1.260  1.00  0.00    -0.390 OA
HETATM   19  H   UNL     1     -16.533 -14.662   1.439  1.00  0.00     0.210 HD
ENDBRANCH  12  18
BRANCH  13  20
HETATM   20  O   UNL     1     -16.716 -11.619   0.932  1.00  0.00    -0.390 OA
HETATM   21  H   UNL     1     -16.580 -10.721   0.573  1.00  0.00     0.210 HD
ENDBRANCH  13  20
BRANCH  14  22
HETATM   22  C   UNL     1     -15.598 -12.701  -2.560  1.00  0.00     0.201 C 
BRANCH  22  23
HETATM   23  O   UNL     1     -14.738 -11.823  -3.291  1.00  0.00    -0.393 OA
HETATM   24  C   UNL     1     -13.751 -12.518  -4.037  1.00  0.00     0.201 C 
ENDBRANCH  22  23
ENDBRANCH  14  22
ENDBRANCH   9  10
ENDBRANCH   8   9
ENDBRANCH   7   8
ENDBRANCH   1   7
BRANCH   2  25
HETATM   25  C   UNL     1     -21.508  -6.134  -2.804  1.00  0.00     0.196 C 
BRANCH  25  26
HETATM   26  O   UNL     1     -22.436  -5.726  -1.802  1.00  0.00    -0.398 OA
HETATM   27  H   UNL     1     -23.326  -5.942  -2.118  1.00  0.00     0.209 HD
ENDBRANCH  25  26
ENDBRANCH   2  25
BRANCH   6  28
HETATM   28  O   UNL     1     -18.226  -9.158  -3.352  1.00  0.00    -0.392 OA
HETATM   29  H   UNL     1     -18.467 -10.109  -3.332  1.00  0.00     0.210 HD
ENDBRANCH   6  28
BRANCH   5  30
HETATM   30  O   UNL     1     -18.777  -8.823  -6.057  1.00  0.00    -0.390 OA
HETATM   31  H   UNL     1     -19.020  -9.433  -6.776  1.00  0.00     0.210 HD
ENDBRANCH   5  30
BRANCH   4  32
HETATM   32  C   UNL     1     -20.585  -6.448  -5.974  1.00  0.00     0.202 C 
BRANCH  32  33
HETATM   33  O   UNL     1     -21.618  -5.649  -6.537  1.00  0.00    -0.388 OA
BRANCH  33  34
HETATM   34  C   UNL     1     -21.621  -5.665  -7.963  1.00  0.00     0.177 C 
BRANCH  34  35
HETATM   35  C   UNL     1     -22.123  -4.313  -8.475  1.00  0.00     0.072 C 
HETATM   36  C   UNL     1     -23.460  -4.468  -9.213  1.00  0.00     0.157 C 
HETATM   37  O   UNL     1     -23.302  -5.146 -10.471  1.00  0.00    -0.351 OA
HETATM   38  C   UNL     1     -22.303  -4.668 -11.355  1.00  0.00     0.288 C 
HETATM   39  C   UNL     1     -20.928  -4.442 -10.698  1.00  0.00     0.202 C 
HETATM   40  C   UNL     1     -21.074  -3.665  -9.384  1.00  0.00     0.160 C 
BRANCH  36  41
HETATM   41  C   UNL     1     -24.199  -3.126  -9.365  1.00  0.00     0.196 C 
BRANCH  41  42
HETATM   42  O   UNL     1     -25.193  -3.212 -10.378  1.00  0.00    -0.398 OA
HETATM   43  H   UNL     1     -25.488  -2.296 -10.547  1.00  0.00     0.209 HD
ENDBRANCH  41  42
ENDBRANCH  36  41
BRANCH  38  44
HETATM   44  O   UNL     1     -22.753  -3.517 -12.067  1.00  0.00    -0.369 OA
HETATM   45  H   UNL     1     -22.939  -3.758 -12.979  1.00  0.00     0.212 HD
ENDBRANCH  38  44
BRANCH  39  46
HETATM   46  O   UNL     1     -20.020  -3.748 -11.563  1.00  0.00    -0.388 OA
HETATM   47  H   UNL     1     -19.593  -3.039 -11.046  1.00  0.00     0.210 HD
ENDBRANCH  39  46
BRANCH  40  48
HETATM   48  O   UNL     1     -19.831  -3.570  -8.682  1.00  0.00    -0.392 OA
HETATM   49  H   UNL     1     -19.671  -4.409  -8.212  1.00  0.00     0.210 HD
ENDBRANCH  40  48
ENDBRANCH  34  35
ENDBRANCH  33  34
ENDBRANCH  32  33
ENDBRANCH   4  32
TORSDOF 22
BEGIN_RES ARG D 557
REMARK  4 active torsions:
REMARK  status: ('A' for Active; 'I' for Inactive)
REMARK    1  A    between atoms: CA   and  CB  
REMARK    2  A    between atoms: CB   and  CG  
REMARK    3  A    between atoms: CG   and  CD  
REMARK    4  A    between atoms: CD   and  NE  
REMARK       I    between atoms: NE   and  CZ  
REMARK       I    between atoms: CZ   and  NH1 
REMARK       I    between atoms: CZ   and  NH2 
ROOT
ATOM      1  CA  ARG D 557     -26.217   2.705 -17.014  1.00 35.49     0.159 C 
ENDROOT
BRANCH   1   2
ATOM      2  CB  ARG D 557     -26.789   1.319 -17.183  1.00 35.49     0.034 C 
BRANCH   2   3
ATOM      3  CG  ARG D 557     -25.938   0.198 -16.766  1.00 35.49     0.027 C 
BRANCH   3   4
ATOM      4  CD  ARG D 557     -26.704  -0.865 -16.076  1.00 35.49     0.116 C 
BRANCH   4   5
ATOM      5  NE  ARG D 557     -25.995  -1.394 -14.940  1.00 35.49    -0.212 N 
ATOM      6  CZ  ARG D 557     -25.955  -2.657 -14.580  1.00 35.49     0.666 C 
ATOM      7  NH1 ARG D 557     -26.596  -3.604 -15.240  1.00 35.49    -0.235 N 
ATOM      8  NH2 ARG D 557     -25.244  -2.961 -13.533  1.00 35.49    -0.235 N 
ATOM      9  HH  ARG D 557     -27.069  -3.427 -15.933  1.00 35.49     0.174 HD
ATOM     10  HH  ARG D 557     -26.531  -4.411 -14.960  1.00 35.49     0.174 HD
ATOM     11  HH  ARG D 557     -24.834  -2.330 -13.131  1.00 35.49     0.174 HD
ATOM     12  HH  ARG D 557     -25.191  -3.766 -13.273  1.00 35.49     0.174 HD
ATOM     13  HE  ARG D 557     -25.613  -0.844 -14.417  1.00 35.49     0.178 HD
ENDBRANCH   4   5
ENDBRANCH   3   4
ENDBRANCH   2   3
ENDBRANCH   1   2
END_RES ARG D 557
BEGIN_RES GLU D 570
REMARK  3 active torsions:
REMARK  status: ('A' for Active; 'I' for Inactive)
REMARK    5  A    between atoms: CA   and  CB  
REMARK    6  A    between atoms: CB   and  CG  
REMARK    7  A    between atoms: CG   and  CD  
ROOT
ATOM     14  CA  GLU D 570     -18.033  -6.348 -13.375  1.00 32.92     0.160 C 
ENDROOT
BRANCH  14  15
ATOM     15  CB  GLU D 570     -19.500  -6.345 -13.794  1.00 32.92     0.043 C 
BRANCH  15  16
ATOM     16  CG  GLU D 570     -19.797  -6.232 -15.245  1.00 32.92     0.100 C 
BRANCH  16  17
ATOM     17  CD  GLU D 570     -21.026  -5.401 -15.533  1.00 32.92     0.185 C 
ATOM     18  OE1 GLU D 570     -21.646  -4.889 -14.581  1.00 32.92    -0.647 OA
ATOM     19  OE2 GLU D 570     -21.382  -5.275 -16.721  1.00 32.92    -0.647 OA
ENDBRANCH  16  17
ENDBRANCH  15  16
ENDBRANCH  14  15
END_RES GLU D 570
ENDMDL
MODEL 5
REMARK VINA RESULT:      -6.9      1.790      9.707
REMARK  22 active torsions:
REMARK  status: ('A' for Active; 'I' for Inactive)
REMARK    1  A    between atoms: O_2  and  C_3 
REMARK    2  A    between atoms: C_3  and  C_4 
REMARK    3  A    between atoms: C_5  and  O_39 
REMARK    4  A    between atoms: C_6  and  O_38 
REMARK    5  A    between atoms: C_7  and  O_37 
REMARK    6  A    between atoms: C_8  and  C_10 
REMARK    7  A    between atoms: C_10  and  O_11 
REMARK    8  A    between atoms: O_11  and  C_12 
REMARK    9  A    between atoms: C_12  and  C_13 
REMARK   10  A    between atoms: C_14  and  C_35 
REMARK   11  A    between atoms: C_16  and  C_21 
REMARK   12  A    between atoms: C_17  and  O_20 
REMARK   13  A    between atoms: C_18  and  O_19 
REMARK   14  A    between atoms: C_21  and  O_22 
REMARK   15  A    between atoms: O_22  and  C_23 
REMARK   16  A    between atoms: C_23  and  C_24 
REMARK   17  A    between atoms: C_25  and  C_33 
REMARK   18  A    between atoms: C_27  and  O_32 
REMARK   19  A    between atoms: C_28  and  O_31 
REMARK   20  A    between atoms: C_29  and  O_30 
REMARK   21  A    between atoms: C_33  and  O_34 
REMARK   22  A    between atoms: C_35  and  O_36 
ROOT
HETATM    1  C   UNL     1     -21.700  -6.925  -4.548  1.00  0.00     0.072 C 
HETATM    2  C   UNL     1     -20.256  -7.170  -5.013  1.00  0.00     0.154 C 
HETATM    3  O   UNL     1     -19.617  -5.990  -5.509  1.00  0.00    -0.373 OA
HETATM    4  C   UNL     1     -20.347  -5.148  -6.424  1.00  0.00     0.177 C 
HETATM    5  C   UNL     1     -21.776  -4.832  -5.939  1.00  0.00     0.178 C 
HETATM    6  C   UNL     1     -22.482  -6.150  -5.620  1.00  0.00     0.158 C 
ENDROOT
BRANCH   1   7
HETATM    7  C   UNL     1     -21.689  -6.233  -3.170  1.00  0.00     0.177 C 
BRANCH   7   8
HETATM    8  O   UNL     1     -22.251  -7.034  -2.134  1.00  0.00    -0.388 OA
BRANCH   8   9
HETATM    9  C   UNL     1     -21.267  -7.584  -1.246  1.00  0.00     0.202 C 
BRANCH   9  10
HETATM   10  C   UNL     1     -21.450  -9.098  -1.188  1.00  0.00     0.177 C 
HETATM   11  C   UNL     1     -20.105  -9.820  -1.329  1.00  0.00     0.180 C 
HETATM   12  C   UNL     1     -20.346 -11.336  -1.404  1.00  0.00     0.180 C 
HETATM   13  C   UNL     1     -21.397 -11.702  -2.469  1.00  0.00     0.180 C 
HETATM   14  C   UNL     1     -22.682 -10.884  -2.280  1.00  0.00     0.177 C 
HETATM   15  O   UNL     1     -22.330  -9.486  -2.262  1.00  0.00    -0.371 OA
BRANCH  11  16
HETATM   16  O   UNL     1     -19.399  -9.371  -2.500  1.00  0.00    -0.390 OA
HETATM   17  H   UNL     1     -18.629  -9.962  -2.614  1.00  0.00     0.210 HD
ENDBRANCH  11  16
BRANCH  12  18
HETATM   18  O   UNL     1     -19.116 -12.008  -1.683  1.00  0.00    -0.390 OA
HETATM   19  H   UNL     1     -18.952 -12.560  -0.889  1.00  0.00     0.210 HD
ENDBRANCH  12  18
BRANCH  13  20
HETATM   20  O   UNL     1     -20.833 -11.418  -3.771  1.00  0.00    -0.390 OA
HETATM   21  H   UNL     1     -20.101 -10.782  -3.652  1.00  0.00     0.210 HD
ENDBRANCH  13  20
BRANCH  14  22
HETATM   22  C   UNL     1     -23.533 -11.304  -1.068  1.00  0.00     0.201 C 
BRANCH  22  23
HETATM   23  O   UNL     1     -23.891 -12.680  -1.228  1.00  0.00    -0.393 OA
HETATM   24  C   UNL     1     -23.552 -13.469  -0.100  1.00  0.00     0.201 C 
ENDBRANCH  22  23
ENDBRANCH  14  22
ENDBRANCH   9  10
ENDBRANCH   8   9
ENDBRANCH   7   8
ENDBRANCH   1   7
BRANCH   2  25
HETATM   25  C   UNL     1     -20.139  -8.372  -5.966  1.00  0.00     0.196 C 
BRANCH  25  26
HETATM   26  O   UNL     1     -21.096  -9.378  -5.642  1.00  0.00    -0.398 OA
HETATM   27  H   UNL     1     -21.934  -8.936  -5.441  1.00  0.00     0.209 HD
ENDBRANCH  25  26
ENDBRANCH   2  25
BRANCH   6  28
HETATM   28  O   UNL     1     -23.849  -5.926  -5.283  1.00  0.00    -0.392 OA
HETATM   29  H   UNL     1     -23.938  -5.022  -4.913  1.00  0.00     0.210 HD
ENDBRANCH   6  28
BRANCH   5  30
HETATM   30  O   UNL     1     -22.535  -4.044  -6.854  1.00  0.00    -0.390 OA
HETATM   31  H   UNL     1     -23.010  -4.654  -7.447  1.00  0.00     0.210 HD
ENDBRANCH   5  30
BRANCH   4  32
HETATM   32  C   UNL     1     -20.243  -5.662  -7.874  1.00  0.00     0.202 C 
BRANCH  32  33
HETATM   33  O   UNL     1     -20.140  -4.654  -8.872  1.00  0.00    -0.388 OA
BRANCH  33  34
HETATM   34  C   UNL     1     -20.995  -4.887  -9.990  1.00  0.00     0.177 C 
BRANCH  34  35
HETATM   35  C   UNL     1     -21.994  -3.733 -10.101  1.00  0.00     0.072 C 
HETATM   36  C   UNL     1     -23.434  -4.236  -9.934  1.00  0.00     0.157 C 
HETATM   37  O   UNL     1     -23.863  -5.020 -11.060  1.00  0.00    -0.351 OA
HETATM   38  C   UNL     1     -23.680  -4.470 -12.352  1.00  0.00     0.288 C 
HETATM   39  C   UNL     1     -22.271  -3.901 -12.608  1.00  0.00     0.202 C 
HETATM   40  C   UNL     1     -21.825  -3.010 -11.441  1.00  0.00     0.160 C 
BRANCH  36  41
HETATM   41  C   UNL     1     -24.416  -3.093  -9.615  1.00  0.00     0.196 C 
BRANCH  41  42
HETATM   42  O   UNL     1     -25.761  -3.532  -9.753  1.00  0.00    -0.398 OA
HETATM   43  H   UNL     1     -25.932  -3.585 -10.714  1.00  0.00     0.209 HD
ENDBRANCH  41  42
ENDBRANCH  36  41
BRANCH  38  44
HETATM   44  O   UNL     1     -24.704  -3.526 -12.660  1.00  0.00    -0.369 OA
HETATM   45  H   UNL     1     -24.865  -3.527 -13.608  1.00  0.00     0.212 HD
ENDBRANCH  38  44
BRANCH  39  46
HETATM   46  O   UNL     1     -22.199  -3.156 -13.830  1.00  0.00    -0.388 OA
HETATM   47  H   UNL     1     -21.392  -2.607 -13.802  1.00  0.00     0.210 HD
ENDBRANCH  39  46
BRANCH  40  48
HETATM   48  O   UNL     1     -20.465  -2.589 -11.585  1.00  0.00    -0.392 OA
HETATM   49  H   UNL     1     -20.407  -1.639 -11.378  1.00  0.00     0.210 HD
ENDBRANCH  40  48
ENDBRANCH  34  35
ENDBRANCH  33  34
ENDBRANCH  32  33
ENDBRANCH   4  32
TORSDOF 22
BEGIN_RES ARG D 557
REMARK  4 active torsions:
REMARK  status: ('A' for Active; 'I' for Inactive)
REMARK    1  A    between atoms: CA   and  CB  
REMARK    2  A    between atoms: CB   and  CG  
REMARK    3  A    between atoms: CG   and  CD  
REMARK    4  A    between atoms: CD   and  NE  
REMARK       I    between atoms: NE   and  CZ  
REMARK       I    between atoms: CZ   and  NH1 
REMARK       I    between atoms: CZ   and  NH2 
ROOT
ATOM      1  CA  ARG D 557     -26.217   2.705 -17.014  1.00 35.49     0.159 C 
ENDROOT
BRANCH   1   2
ATOM      2  CB  ARG D 557     -26.789   1.319 -17.183  1.00 35.49     0.034 C 
BRANCH   2   3
ATOM      3  CG  ARG D 557     -28.238   1.224 -17.399  1.00 35.49     0.027 C 
BRANCH   3   4
ATOM      4  CD  ARG D 557     -28.887   0.277 -16.464  1.00 35.49     0.116 C 
BRANCH   4   5
ATOM      5  NE  ARG D 557     -29.264  -0.952 -17.111  1.00 35.49    -0.212 N 
ATOM      6  CZ  ARG D 557     -28.626  -2.098 -17.016  1.00 35.49     0.666 C 
ATOM      7  NH1 ARG D 557     -27.526  -2.239 -16.301  1.00 35.49    -0.235 N 
ATOM      8  NH2 ARG D 557     -29.123  -3.116 -17.656  1.00 35.49    -0.235 N 
ATOM      9  HH  ARG D 557     -27.182  -1.583 -15.870  1.00 35.49     0.174 HD
ATOM     10  HH  ARG D 557     -27.155  -3.011 -16.273  1.00 35.49     0.174 HD
ATOM     11  HH  ARG D 557     -29.839  -2.997 -18.104  1.00 35.49     0.174 HD
ATOM     12  HH  ARG D 557     -28.742  -3.872 -17.615  1.00 35.49     0.174 HD
ATOM     13  HE  ARG D 557     -29.921  -0.934 -17.651  1.00 35.49     0.178 HD
ENDBRANCH   4   5
ENDBRANCH   3   4
ENDBRANCH   2   3
ENDBRANCH   1   2
END_RES ARG D 557
BEGIN_RES GLU D 570
REMARK  3 active torsions:
REMARK  status: ('A' for Active; 'I' for Inactive)
REMARK    5  A    between atoms: CA   and  CB  
REMARK    6  A    between atoms: CB   and  CG  
REMARK    7  A    between atoms: CG   and  CD  
ROOT
ATOM     14  CA  GLU D 570     -18.033  -6.348 -13.375  1.00 32.92     0.160 C 
ENDROOT
BRANCH  14  15
ATOM     15  CB  GLU D 570     -19.500  -6.345 -13.794  1.00 32.92     0.043 C 
BRANCH  15  16
ATOM     16  CG  GLU D 570     -19.812  -5.946 -15.191  1.00 32.92     0.100 C 
BRANCH  16  17
ATOM     17  CD  GLU D 570     -21.276  -6.095 -15.533  1.00 32.92     0.185 C 
ATOM     18  OE1 GLU D 570     -21.903  -5.104 -15.954  1.00 32.92    -0.647 OA
ATOM     19  OE2 GLU D 570     -21.806  -7.211 -15.362  1.00 32.92    -0.647 OA
ENDBRANCH  16  17
ENDBRANCH  15  16
ENDBRANCH  14  15
END_RES GLU D 570
ENDMDL
MODEL 6
REMARK VINA RESULT:      -6.7      1.522      9.638
REMARK  22 active torsions:
REMARK  status: ('A' for Active; 'I' for Inactive)
REMARK    1  A    between atoms: O_2  and  C_3 
REMARK    2  A    between atoms: C_3  and  C_4 
REMARK    3  A    between atoms: C_5  and  O_39 
REMARK    4  A    between atoms: C_6  and  O_38 
REMARK    5  A    between atoms: C_7  and  O_37 
REMARK    6  A    between atoms: C_8  and  C_10 
REMARK    7  A    between atoms: C_10  and  O_11 
REMARK    8  A    between atoms: O_11  and  C_12 
REMARK    9  A    between atoms: C_12  and  C_13 
REMARK   10  A    between atoms: C_14  and  C_35 
REMARK   11  A    between atoms: C_16  and  C_21 
REMARK   12  A    between atoms: C_17  and  O_20 
REMARK   13  A    between atoms: C_18  and  O_19 
REMARK   14  A    between atoms: C_21  and  O_22 
REMARK   15  A    between atoms: O_22  and  C_23 
REMARK   16  A    between atoms: C_23  and  C_24 
REMARK   17  A    between atoms: C_25  and  C_33 
REMARK   18  A    between atoms: C_27  and  O_32 
REMARK   19  A    between atoms: C_28  and  O_31 
REMARK   20  A    between atoms: C_29  and  O_30 
REMARK   21  A    between atoms: C_33  and  O_34 
REMARK   22  A    between atoms: C_35  and  O_36 
ROOT
HETATM    1  C   UNL     1     -21.146  -6.301  -5.176  1.00  0.00     0.072 C 
HETATM    2  C   UNL     1     -19.713  -6.236  -5.726  1.00  0.00     0.154 C 
HETATM    3  O   UNL     1     -19.368  -4.949  -6.246  1.00  0.00    -0.373 OA
HETATM    4  C   UNL     1     -20.312  -4.282  -7.107  1.00  0.00     0.177 C 
HETATM    5  C   UNL     1     -21.745  -4.274  -6.536  1.00  0.00     0.178 C 
HETATM    6  C   UNL     1     -22.136  -5.711  -6.191  1.00  0.00     0.158 C 
ENDROOT
BRANCH   1   7
HETATM    7  C   UNL     1     -21.200  -5.621  -3.793  1.00  0.00     0.177 C 
BRANCH   7   8
HETATM    8  O   UNL     1     -22.310  -6.038  -3.002  1.00  0.00    -0.388 OA
BRANCH   8   9
HETATM    9  C   UNL     1     -21.931  -6.545  -1.715  1.00  0.00     0.202 C 
BRANCH   9  10
HETATM   10  C   UNL     1     -21.737  -8.056  -1.821  1.00  0.00     0.177 C 
HETATM   11  C   UNL     1     -22.636  -8.796  -0.823  1.00  0.00     0.180 C 
HETATM   12  C   UNL     1     -22.312 -10.298  -0.864  1.00  0.00     0.180 C 
HETATM   13  C   UNL     1     -20.804 -10.569  -0.709  1.00  0.00     0.180 C 
HETATM   14  C   UNL     1     -19.988  -9.737  -1.709  1.00  0.00     0.177 C 
HETATM   15  O   UNL     1     -20.353  -8.352  -1.548  1.00  0.00    -0.371 OA
BRANCH  11  16
HETATM   16  O   UNL     1     -22.456  -8.286   0.510  1.00  0.00    -0.390 OA
HETATM   17  H   UNL     1     -22.636  -7.325   0.476  1.00  0.00     0.210 HD
ENDBRANCH  11  16
BRANCH  12  18
HETATM   18  O   UNL     1     -23.037 -10.977   0.163  1.00  0.00    -0.390 OA
HETATM   19  H   UNL     1     -23.852 -11.296  -0.281  1.00  0.00     0.210 HD
ENDBRANCH  12  18
BRANCH  13  20
HETATM   20  O   UNL     1     -20.422 -10.211   0.640  1.00  0.00    -0.390 OA
HETATM   21  H   UNL     1     -20.977 -10.723   1.259  1.00  0.00     0.210 HD
ENDBRANCH  13  20
BRANCH  14  22
HETATM   22  C   UNL     1     -20.086 -10.218  -3.168  1.00  0.00     0.201 C 
BRANCH  22  23
HETATM   23  O   UNL     1     -20.191 -11.645  -3.162  1.00  0.00    -0.393 OA
HETATM   24  C   UNL     1     -21.117 -12.130  -4.121  1.00  0.00     0.201 C 
ENDBRANCH  22  23
ENDBRANCH  14  22
ENDBRANCH   9  10
ENDBRANCH   8   9
ENDBRANCH   7   8
ENDBRANCH   1   7
BRANCH   2  25
HETATM   25  C   UNL     1     -19.402  -7.388  -6.698  1.00  0.00     0.196 C 
BRANCH  25  26
HETATM   26  O   UNL     1     -19.004  -8.562  -5.991  1.00  0.00    -0.398 OA
HETATM   27  H   UNL     1     -19.106  -8.386  -5.044  1.00  0.00     0.209 HD
ENDBRANCH  25  26
ENDBRANCH   2  25
BRANCH   6  28
HETATM   28  O   UNL     1     -23.497  -5.781  -5.773  1.00  0.00    -0.392 OA
HETATM   29  H   UNL     1     -23.525  -5.797  -4.792  1.00  0.00     0.210 HD
ENDBRANCH   6  28
BRANCH   5  30
HETATM   30  O   UNL     1     -22.706  -3.666  -7.397  1.00  0.00    -0.390 OA
HETATM   31  H   UNL     1     -22.320  -3.625  -8.290  1.00  0.00     0.210 HD
ENDBRANCH   5  30
BRANCH   4  32
HETATM   32  C   UNL     1     -20.189  -4.765  -8.567  1.00  0.00     0.202 C 
BRANCH  32  33
HETATM   33  O   UNL     1     -21.400  -4.769  -9.312  1.00  0.00    -0.388 OA
BRANCH  33  34
HETATM   34  C   UNL     1     -21.268  -4.159 -10.594  1.00  0.00     0.177 C 
BRANCH  34  35
HETATM   35  C   UNL     1     -22.304  -4.767 -11.543  1.00  0.00     0.072 C 
HETATM   36  C   UNL     1     -22.278  -4.062 -12.907  1.00  0.00     0.157 C 
HETATM   37  O   UNL     1     -22.796  -2.723 -12.828  1.00  0.00    -0.351 OA
HETATM   38  C   UNL     1     -24.053  -2.540 -12.203  1.00  0.00     0.288 C 
HETATM   39  C   UNL     1     -24.193  -3.243 -10.839  1.00  0.00     0.202 C 
HETATM   40  C   UNL     1     -23.702  -4.694 -10.922  1.00  0.00     0.160 C 
BRANCH  36  41
HETATM   41  C   UNL     1     -22.973  -4.891 -14.002  1.00  0.00     0.196 C 
BRANCH  41  42
HETATM   42  O   UNL     1     -22.630  -4.405 -15.294  1.00  0.00    -0.398 OA
HETATM   43  H   UNL     1     -21.761  -4.798 -15.509  1.00  0.00     0.209 HD
ENDBRANCH  41  42
ENDBRANCH  36  41
BRANCH  38  44
HETATM   44  O   UNL     1     -25.122  -2.868 -13.088  1.00  0.00    -0.369 OA
HETATM   45  H   UNL     1     -24.763  -3.112 -13.946  1.00  0.00     0.212 HD
ENDBRANCH  38  44
BRANCH  39  46
HETATM   46  O   UNL     1     -25.542  -3.225 -10.354  1.00  0.00    -0.388 OA
HETATM   47  H   UNL     1     -25.537  -3.555  -9.435  1.00  0.00     0.210 HD
ENDBRANCH  39  46
BRANCH  40  48
HETATM   48  O   UNL     1     -23.684  -5.323  -9.637  1.00  0.00    -0.392 OA
HETATM   49  H   UNL     1     -24.356  -4.901  -9.072  1.00  0.00     0.210 HD
ENDBRANCH  40  48
ENDBRANCH  34  35
ENDBRANCH  33  34
ENDBRANCH  32  33
ENDBRANCH   4  32
TORSDOF 22
BEGIN_RES ARG D 557
REMARK  4 active torsions:
REMARK  status: ('A' for Active; 'I' for Inactive)
REMARK    1  A    between atoms: CA   and  CB  
REMARK    2  A    between atoms: CB   and  CG  
REMARK    3  A    between atoms: CG   and  CD  
REMARK    4  A    between atoms: CD   and  NE  
REMARK       I    between atoms: NE   and  CZ  
REMARK       I    between atoms: CZ   and  NH1 
REMARK       I    between atoms: CZ   and  NH2 
ROOT
ATOM      1  CA  ARG D 557     -26.217   2.705 -17.014  1.00 35.49     0.159 C 
ENDROOT
BRANCH   1   2
ATOM      2  CB  ARG D 557     -26.789   1.319 -17.183  1.00 35.49     0.034 C 
BRANCH   2   3
ATOM      3  CG  ARG D 557     -28.230   1.166 -16.947  1.00 35.49     0.027 C 
BRANCH   3   4
ATOM      4  CD  ARG D 557     -28.633  -0.254 -16.820  1.00 35.49     0.116 C 
BRANCH   4   5
ATOM      5  NE  ARG D 557     -27.642  -1.039 -16.131  1.00 35.49    -0.212 N 
ATOM      6  CZ  ARG D 557     -27.511  -2.344 -16.204  1.00 35.49     0.666 C 
ATOM      7  NH1 ARG D 557     -28.314  -3.099 -16.932  1.00 35.49    -0.235 N 
ATOM      8  NH2 ARG D 557     -26.541  -2.888 -15.527  1.00 35.49    -0.235 N 
ATOM      9  HH  ARG D 557     -28.957  -2.762 -17.386  1.00 35.49     0.174 HD
ATOM     10  HH  ARG D 557     -28.178  -3.945 -16.942  1.00 35.49     0.174 HD
ATOM     11  HH  ARG D 557     -26.034  -2.376 -15.072  1.00 35.49     0.174 HD
ATOM     12  HH  ARG D 557     -26.423  -3.728 -15.552  1.00 35.49     0.174 HD
ATOM     13  HE  ARG D 557     -27.128  -0.641 -15.583  1.00 35.49     0.178 HD
ENDBRANCH   4   5
ENDBRANCH   3   4
ENDBRANCH   2   3
ENDBRANCH   1   2
END_RES ARG D 557
BEGIN_RES GLU D 570
REMARK  3 active torsions:
REMARK  status: ('A' for Active; 'I' for Inactive)
REMARK    5  A    between atoms: CA   and  CB  
REMARK    6  A    between atoms: CB   and  CG  
REMARK    7  A    between atoms: CG   and  CD  
ROOT
ATOM     14  CA  GLU D 570     -18.033  -6.348 -13.375  1.00 32.92     0.160 C 
ENDROOT
BRANCH  14  15
ATOM     15  CB  GLU D 570     -19.500  -6.345 -13.794  1.00 32.92     0.043 C 
BRANCH  15  16
ATOM     16  CG  GLU D 570     -19.796  -6.311 -15.250  1.00 32.92     0.100 C 
BRANCH  16  17
ATOM     17  CD  GLU D 570     -20.752  -7.398 -15.682  1.00 32.92     0.185 C 
ATOM     18  OE1 GLU D 570     -20.441  -8.589 -15.491  1.00 32.92    -0.647 OA
ATOM     19  OE2 GLU D 570     -21.817  -7.055 -16.233  1.00 32.92    -0.647 OA
ENDBRANCH  16  17
ENDBRANCH  15  16
ENDBRANCH  14  15
END_RES GLU D 570
ENDMDL
MODEL 7
REMARK VINA RESULT:      -6.7      1.425      9.989
REMARK  22 active torsions:
REMARK  status: ('A' for Active; 'I' for Inactive)
REMARK    1  A    between atoms: O_2  and  C_3 
REMARK    2  A    between atoms: C_3  and  C_4 
REMARK    3  A    between atoms: C_5  and  O_39 
REMARK    4  A    between atoms: C_6  and  O_38 
REMARK    5  A    between atoms: C_7  and  O_37 
REMARK    6  A    between atoms: C_8  and  C_10 
REMARK    7  A    between atoms: C_10  and  O_11 
REMARK    8  A    between atoms: O_11  and  C_12 
REMARK    9  A    between atoms: C_12  and  C_13 
REMARK   10  A    between atoms: C_14  and  C_35 
REMARK   11  A    between atoms: C_16  and  C_21 
REMARK   12  A    between atoms: C_17  and  O_20 
REMARK   13  A    between atoms: C_18  and  O_19 
REMARK   14  A    between atoms: C_21  and  O_22 
REMARK   15  A    between atoms: O_22  and  C_23 
REMARK   16  A    between atoms: C_23  and  C_24 
REMARK   17  A    between atoms: C_25  and  C_33 
REMARK   18  A    between atoms: C_27  and  O_32 
REMARK   19  A    between atoms: C_28  and  O_31 
REMARK   20  A    between atoms: C_29  and  O_30 
REMARK   21  A    between atoms: C_33  and  O_34 
REMARK   22  A    between atoms: C_35  and  O_36 
ROOT
HETATM    1  C   UNL     1     -20.827  -4.698  -7.701  1.00  0.00     0.072 C 
HETATM    2  C   UNL     1     -22.283  -5.072  -8.018  1.00  0.00     0.154 C 
HETATM    3  O   UNL     1     -22.474  -5.483  -9.375  1.00  0.00    -0.373 OA
HETATM    4  C   UNL     1     -21.875  -4.694 -10.422  1.00  0.00     0.177 C 
HETATM    5  C   UNL     1     -20.392  -4.369 -10.154  1.00  0.00     0.178 C 
HETATM    6  C   UNL     1     -20.277  -3.738  -8.766  1.00  0.00     0.158 C 
ENDROOT
BRANCH   1   7
HETATM    7  C   UNL     1     -19.988  -5.981  -7.532  1.00  0.00     0.177 C 
BRANCH   7   8
HETATM    8  O   UNL     1     -19.867  -6.401  -6.176  1.00  0.00    -0.388 OA
BRANCH   8   9
HETATM    9  C   UNL     1     -21.039  -7.065  -5.682  1.00  0.00     0.202 C 
BRANCH   9  10
HETATM   10  C   UNL     1     -20.661  -7.866  -4.438  1.00  0.00     0.177 C 
HETATM   11  C   UNL     1     -19.349  -8.628  -4.652  1.00  0.00     0.180 C 
HETATM   12  C   UNL     1     -19.077  -9.524  -3.434  1.00  0.00     0.180 C 
HETATM   13  C   UNL     1     -20.290 -10.404  -3.080  1.00  0.00     0.180 C 
HETATM   14  C   UNL     1     -21.565  -9.558  -2.948  1.00  0.00     0.177 C 
HETATM   15  O   UNL     1     -21.728  -8.795  -4.160  1.00  0.00    -0.371 OA
BRANCH  11  16
HETATM   16  O   UNL     1     -19.403  -9.422  -5.851  1.00  0.00    -0.390 OA
HETATM   17  H   UNL     1     -19.720 -10.310  -5.593  1.00  0.00     0.210 HD
ENDBRANCH  11  16
BRANCH  12  18
HETATM   18  O   UNL     1     -17.936 -10.348  -3.686  1.00  0.00    -0.390 OA
HETATM   19  H   UNL     1     -17.283 -10.078  -3.005  1.00  0.00     0.210 HD
ENDBRANCH  12  18
BRANCH  13  20
HETATM   20  O   UNL     1     -20.465 -11.374  -4.141  1.00  0.00    -0.390 OA
HETATM   21  H   UNL     1     -20.023 -11.030  -4.941  1.00  0.00     0.210 HD
ENDBRANCH  13  20
BRANCH  14  22
HETATM   22  C   UNL     1     -21.624  -8.689  -1.678  1.00  0.00     0.201 C 
BRANCH  22  23
HETATM   23  O   UNL     1     -21.768  -9.556  -0.550  1.00  0.00    -0.393 OA
HETATM   24  C   UNL     1     -23.124  -9.864  -0.266  1.00  0.00     0.201 C 
ENDBRANCH  22  23
ENDBRANCH  14  22
ENDBRANCH   9  10
ENDBRANCH   8   9
ENDBRANCH   7   8
ENDBRANCH   1   7
BRANCH   2  25
HETATM   25  C   UNL     1     -23.282  -3.995  -7.562  1.00  0.00     0.196 C 
BRANCH  25  26
HETATM   26  O   UNL     1     -24.437  -3.978  -8.398  1.00  0.00    -0.398 OA
HETATM   27  H   UNL     1     -24.724  -4.895  -8.523  1.00  0.00     0.209 HD
ENDBRANCH  25  26
ENDBRANCH   2  25
BRANCH   6  28
HETATM   28  O   UNL     1     -18.943  -3.303  -8.514  1.00  0.00    -0.392 OA
HETATM   29  H   UNL     1     -18.323  -4.006  -8.805  1.00  0.00     0.210 HD
ENDBRANCH   6  28
BRANCH   5  30
HETATM   30  O   UNL     1     -19.793  -3.543 -11.151  1.00  0.00    -0.390 OA
HETATM   31  H   UNL     1     -18.950  -3.210 -10.793  1.00  0.00     0.210 HD
ENDBRANCH   5  30
BRANCH   4  32
HETATM   32  C   UNL     1     -22.757  -3.484 -10.796  1.00  0.00     0.202 C 
BRANCH  32  33
HETATM   33  O   UNL     1     -24.029  -3.805 -11.346  1.00  0.00    -0.388 OA
BRANCH  33  34
HETATM   34  C   UNL     1     -24.514  -2.809 -12.244  1.00  0.00     0.177 C 
BRANCH  34  35
HETATM   35  C   UNL     1     -24.776  -3.455 -13.607  1.00  0.00     0.072 C 
HETATM   36  C   UNL     1     -23.998  -4.770 -13.749  1.00  0.00     0.157 C 
HETATM   37  O   UNL     1     -22.582  -4.546 -13.869  1.00  0.00    -0.351 OA
HETATM   38  C   UNL     1     -22.145  -3.607 -14.835  1.00  0.00     0.288 C 
HETATM   39  C   UNL     1     -22.894  -2.261 -14.799  1.00  0.00     0.202 C 
HETATM   40  C   UNL     1     -24.410  -2.484 -14.734  1.00  0.00     0.160 C 
BRANCH  36  41
HETATM   41  C   UNL     1     -24.545  -5.648 -14.890  1.00  0.00     0.196 C 
BRANCH  41  42
HETATM   42  O   UNL     1     -24.225  -7.016 -14.668  1.00  0.00    -0.398 OA
HETATM   43  H   UNL     1     -23.449  -7.021 -14.074  1.00  0.00     0.209 HD
ENDBRANCH  41  42
ENDBRANCH  36  41
BRANCH  38  44
HETATM   44  O   UNL     1     -22.133  -4.180 -16.141  1.00  0.00    -0.369 OA
HETATM   45  H   UNL     1     -21.724  -5.049 -16.105  1.00  0.00     0.212 HD
ENDBRANCH  38  44
BRANCH  39  46
HETATM   46  O   UNL     1     -22.582  -1.436 -15.928  1.00  0.00    -0.388 OA
HETATM   47  H   UNL     1     -23.388  -0.940 -16.172  1.00  0.00     0.210 HD
ENDBRANCH  39  46
BRANCH  40  48
HETATM   48  O   UNL     1     -25.120  -1.255 -14.552  1.00  0.00    -0.392 OA
HETATM   49  H   UNL     1     -25.572  -1.027 -15.385  1.00  0.00     0.210 HD
ENDBRANCH  40  48
ENDBRANCH  34  35
ENDBRANCH  33  34
ENDBRANCH  32  33
ENDBRANCH   4  32
TORSDOF 22
BEGIN_RES ARG D 557
REMARK  4 active torsions:
REMARK  status: ('A' for Active; 'I' for Inactive)
REMARK    1  A    between atoms: CA   and  CB  
REMARK    2  A    between atoms: CB   and  CG  
REMARK    3  A    between atoms: CG   and  CD  
REMARK    4  A    between atoms: CD   and  NE  
REMARK       I    between atoms: NE   and  CZ  
REMARK       I    between atoms: CZ   and  NH1 
REMARK       I    between atoms: CZ   and  NH2 
ROOT
ATOM      1  CA  ARG D 557     -26.217   2.705 -17.014  1.00 35.49     0.159 C 
ENDROOT
BRANCH   1   2
ATOM      2  CB  ARG D 557     -26.789   1.319 -17.183  1.00 35.49     0.034 C 
BRANCH   2   3
ATOM      3  CG  ARG D 557     -28.234   1.225 -17.422  1.00 35.49     0.027 C 
BRANCH   3   4
ATOM      4  CD  ARG D 557     -28.892   0.244 -16.529  1.00 35.49     0.116 C 
BRANCH   4   5
ATOM      5  NE  ARG D 557     -28.026  -0.858 -16.203  1.00 35.49    -0.212 N 
ATOM      6  CZ  ARG D 557     -28.172  -2.097 -16.616  1.00 35.49     0.666 C 
ATOM      7  NH1 ARG D 557     -29.173  -2.474 -17.389  1.00 35.49    -0.235 N 
ATOM      8  NH2 ARG D 557     -27.278  -2.965 -16.239  1.00 35.49    -0.235 N 
ATOM      9  HH  ARG D 557     -29.772  -1.919 -17.651  1.00 35.49     0.174 HD
ATOM     10  HH  ARG D 557     -29.216  -3.295 -17.629  1.00 35.49     0.174 HD
ATOM     11  HH  ARG D 557     -26.638  -2.691 -15.746  1.00 35.49     0.174 HD
ATOM     12  HH  ARG D 557     -27.336  -3.773 -16.489  1.00 35.49     0.174 HD
ATOM     13  HE  ARG D 557     -27.395  -0.720 -15.650  1.00 35.49     0.178 HD
ENDBRANCH   4   5
ENDBRANCH   3   4
ENDBRANCH   2   3
ENDBRANCH   1   2
END_RES ARG D 557
BEGIN_RES GLU D 570
REMARK  3 active torsions:
REMARK  status: ('A' for Active; 'I' for Inactive)
REMARK    5  A    between atoms: CA   and  CB  
REMARK    6  A    between atoms: CB   and  CG  
REMARK    7  A    between atoms: CG   and  CD  
ROOT
ATOM     14  CA  GLU D 570     -18.033  -6.348 -13.375  1.00 32.92     0.160 C 
ENDROOT
BRANCH  14  15
ATOM     15  CB  GLU D 570     -19.500  -6.345 -13.794  1.00 32.92     0.043 C 
BRANCH  15  16
ATOM     16  CG  GLU D 570     -20.052  -7.602 -14.363  1.00 32.92     0.100 C 
BRANCH  16  17
ATOM     17  CD  GLU D 570     -20.813  -7.382 -15.649  1.00 32.92     0.185 C 
ATOM     18  OE1 GLU D 570     -20.504  -6.420 -16.379  1.00 32.92    -0.647 OA
ATOM     19  OE2 GLU D 570     -21.741  -8.169 -15.922  1.00 32.92    -0.647 OA
ENDBRANCH  16  17
ENDBRANCH  15  16
ENDBRANCH  14  15
END_RES GLU D 570
ENDMDL
MODEL 8
REMARK VINA RESULT:      -6.5      1.372      2.499
REMARK  22 active torsions:
REMARK  status: ('A' for Active; 'I' for Inactive)
REMARK    1  A    between atoms: O_2  and  C_3 
REMARK    2  A    between atoms: C_3  and  C_4 
REMARK    3  A    between atoms: C_5  and  O_39 
REMARK    4  A    between atoms: C_6  and  O_38 
REMARK    5  A    between atoms: C_7  and  O_37 
REMARK    6  A    between atoms: C_8  and  C_10 
REMARK    7  A    between atoms: C_10  and  O_11 
REMARK    8  A    between atoms: O_11  and  C_12 
REMARK    9  A    between atoms: C_12  and  C_13 
REMARK   10  A    between atoms: C_14  and  C_35 
REMARK   11  A    between atoms: C_16  and  C_21 
REMARK   12  A    between atoms: C_17  and  O_20 
REMARK   13  A    between atoms: C_18  and  O_19 
REMARK   14  A    between atoms: C_21  and  O_22 
REMARK   15  A    between atoms: O_22  and  C_23 
REMARK   16  A    between atoms: C_23  and  C_24 
REMARK   17  A    between atoms: C_25  and  C_33 
REMARK   18  A    between atoms: C_27  and  O_32 
REMARK   19  A    between atoms: C_28  and  O_31 
REMARK   20  A    between atoms: C_29  and  O_30 
REMARK   21  A    between atoms: C_33  and  O_34 
REMARK   22  A    between atoms: C_35  and  O_36 
ROOT
HETATM    1  C   UNL     1     -20.738  -4.168  -8.589  1.00  0.00     0.072 C 
HETATM    2  C   UNL     1     -19.781  -5.163  -7.913  1.00  0.00     0.154 C 
HETATM    3  O   UNL     1     -20.454  -6.283  -7.333  1.00  0.00    -0.373 OA
HETATM    4  C   UNL     1     -21.633  -6.041  -6.541  1.00  0.00     0.177 C 
HETATM    5  C   UNL     1     -22.639  -5.100  -7.235  1.00  0.00     0.178 C 
HETATM    6  C   UNL     1     -21.904  -3.826  -7.650  1.00  0.00     0.158 C 
ENDROOT
BRANCH   1   7
HETATM    7  C   UNL     1     -21.187  -4.729  -9.954  1.00  0.00     0.177 C 
BRANCH   7   8
HETATM    8  O   UNL     1     -22.054  -3.851 -10.666  1.00  0.00    -0.388 OA
BRANCH   8   9
HETATM    9  C   UNL     1     -23.390  -4.358 -10.800  1.00  0.00     0.202 C 
BRANCH   9  10
HETATM   10  C   UNL     1     -23.894  -4.048 -12.207  1.00  0.00     0.177 C 
HETATM   11  C   UNL     1     -23.704  -5.252 -13.136  1.00  0.00     0.180 C 
HETATM   12  C   UNL     1     -24.095  -4.855 -14.569  1.00  0.00     0.180 C 
HETATM   13  C   UNL     1     -23.390  -3.564 -15.024  1.00  0.00     0.180 C 
HETATM   14  C   UNL     1     -23.588  -2.437 -13.999  1.00  0.00     0.177 C 
HETATM   15  O   UNL     1     -23.155  -2.918 -12.711  1.00  0.00    -0.371 OA
BRANCH  11  16
HETATM   16  O   UNL     1     -22.344  -5.719 -13.104  1.00  0.00    -0.390 OA
HETATM   17  H   UNL     1     -22.236  -6.340 -13.851  1.00  0.00     0.210 HD
ENDBRANCH  11  16
BRANCH  12  18
HETATM   18  O   UNL     1     -23.783  -5.922 -15.468  1.00  0.00    -0.390 OA
HETATM   19  H   UNL     1     -24.146  -6.723 -15.034  1.00  0.00     0.210 HD
ENDBRANCH  12  18
BRANCH  13  20
HETATM   20  O   UNL     1     -21.978  -3.848 -15.160  1.00  0.00    -0.390 OA
HETATM   21  H   UNL     1     -21.662  -4.225 -14.316  1.00  0.00     0.210 HD
ENDBRANCH  13  20
BRANCH  14  22
HETATM   22  C   UNL     1     -25.008  -1.842 -13.972  1.00  0.00     0.201 C 
BRANCH  22  23
HETATM   23  O   UNL     1     -25.185  -1.056 -15.153  1.00  0.00    -0.393 OA
HETATM   24  C   UNL     1     -24.075  -0.216 -15.424  1.00  0.00     0.201 C 
ENDBRANCH  22  23
ENDBRANCH  14  22
ENDBRANCH   9  10
ENDBRANCH   8   9
ENDBRANCH   7   8
ENDBRANCH   1   7
BRANCH   2  25
HETATM   25  C   UNL     1     -18.800  -4.474  -6.949  1.00  0.00     0.196 C 
BRANCH  25  26
HETATM   26  O   UNL     1     -17.588  -4.122  -7.613  1.00  0.00    -0.398 OA
HETATM   27  H   UNL     1     -16.864  -4.217  -6.977  1.00  0.00     0.209 HD
ENDBRANCH  25  26
ENDBRANCH   2  25
BRANCH   6  28
HETATM   28  O   UNL     1     -22.812  -2.867  -8.188  1.00  0.00    -0.392 OA
HETATM   29  H   UNL     1     -23.202  -2.354  -7.448  1.00  0.00     0.210 HD
ENDBRANCH   6  28
BRANCH   5  30
HETATM   30  O   UNL     1     -23.790  -4.803  -6.447  1.00  0.00    -0.390 OA
HETATM   31  H   UNL     1     -23.498  -4.270  -5.686  1.00  0.00     0.210 HD
ENDBRANCH   5  30
BRANCH   4  32
HETATM   32  C   UNL     1     -21.274  -5.663  -5.089  1.00  0.00     0.202 C 
BRANCH  32  33
HETATM   33  O   UNL     1     -20.438  -6.590  -4.407  1.00  0.00    -0.388 OA
BRANCH  33  34
HETATM   34  C   UNL     1     -21.171  -7.610  -3.732  1.00  0.00     0.177 C 
BRANCH  34  35
HETATM   35  C   UNL     1     -20.217  -8.749  -3.364  1.00  0.00     0.072 C 
HETATM   36  C   UNL     1     -19.197  -8.993  -4.486  1.00  0.00     0.157 C 
HETATM   37  O   UNL     1     -19.810  -9.572  -5.650  1.00  0.00    -0.351 OA
HETATM   38  C   UNL     1     -20.622 -10.718  -5.465  1.00  0.00     0.288 C 
HETATM   39  C   UNL     1     -21.658 -10.586  -4.331  1.00  0.00     0.202 C 
HETATM   40  C   UNL     1     -21.005 -10.027  -3.061  1.00  0.00     0.160 C 
BRANCH  36  41
HETATM   41  C   UNL     1     -17.985  -9.808  -4.001  1.00  0.00     0.196 C 
BRANCH  41  42
HETATM   42  O   UNL     1     -17.453  -9.255  -2.803  1.00  0.00    -0.398 OA
HETATM   43  H   UNL     1     -17.126 -10.011  -2.277  1.00  0.00     0.209 HD
ENDBRANCH  41  42
ENDBRANCH  36  41
BRANCH  38  44
HETATM   44  O   UNL     1     -19.830 -11.896  -5.334  1.00  0.00    -0.369 OA
HETATM   45  H   UNL     1     -20.006 -12.483  -6.074  1.00  0.00     0.212 HD
ENDBRANCH  38  44
BRANCH  39  46
HETATM   46  O   UNL     1     -22.294 -11.834  -4.029  1.00  0.00    -0.388 OA
HETATM   47  H   UNL     1     -23.238 -11.657  -3.853  1.00  0.00     0.210 HD
ENDBRANCH  39  46
BRANCH  40  48
HETATM   48  O   UNL     1     -21.972  -9.757  -2.041  1.00  0.00    -0.392 OA
HETATM   49  H   UNL     1     -22.863  -9.804  -2.433  1.00  0.00     0.210 HD
ENDBRANCH  40  48
ENDBRANCH  34  35
ENDBRANCH  33  34
ENDBRANCH  32  33
ENDBRANCH   4  32
TORSDOF 22
BEGIN_RES ARG D 557
REMARK  4 active torsions:
REMARK  status: ('A' for Active; 'I' for Inactive)
REMARK    1  A    between atoms: CA   and  CB  
REMARK    2  A    between atoms: CB   and  CG  
REMARK    3  A    between atoms: CG   and  CD  
REMARK    4  A    between atoms: CD   and  NE  
REMARK       I    between atoms: NE   and  CZ  
REMARK       I    between atoms: CZ   and  NH1 
REMARK       I    between atoms: CZ   and  NH2 
ROOT
ATOM      1  CA  ARG D 557     -26.217   2.705 -17.014  1.00 35.49     0.159 C 
ENDROOT
BRANCH   1   2
ATOM      2  CB  ARG D 557     -26.789   1.319 -17.183  1.00 35.49     0.034 C 
BRANCH   2   3
ATOM      3  CG  ARG D 557     -28.229   1.227 -17.451  1.00 35.49     0.027 C 
BRANCH   3   4
ATOM      4  CD  ARG D 557     -28.911   0.272 -16.547  1.00 35.49     0.116 C 
BRANCH   4   5
ATOM      5  NE  ARG D 557     -28.096  -0.878 -16.258  1.00 35.49    -0.212 N 
ATOM      6  CZ  ARG D 557     -28.312  -2.101 -16.688  1.00 35.49     0.666 C 
ATOM      7  NH1 ARG D 557     -29.346  -2.413 -17.447  1.00 35.49    -0.235 N 
ATOM      8  NH2 ARG D 557     -27.455  -3.018 -16.344  1.00 35.49    -0.235 N 
ATOM      9  HH  ARG D 557     -29.921  -1.825 -17.687  1.00 35.49     0.174 HD
ATOM     10  HH  ARG D 557     -29.434  -3.227 -17.699  1.00 35.49     0.174 HD
ATOM     11  HH  ARG D 557     -26.793  -2.786 -15.860  1.00 35.49     0.174 HD
ATOM     12  HH  ARG D 557     -27.559  -3.818 -16.605  1.00 35.49     0.174 HD
ATOM     13  HE  ARG D 557     -27.448  -0.781 -15.716  1.00 35.49     0.178 HD
ENDBRANCH   4   5
ENDBRANCH   3   4
ENDBRANCH   2   3
ENDBRANCH   1   2
END_RES ARG D 557
BEGIN_RES GLU D 570
REMARK  3 active torsions:
REMARK  status: ('A' for Active; 'I' for Inactive)
REMARK    5  A    between atoms: CA   and  CB  
REMARK    6  A    between atoms: CB   and  CG  
REMARK    7  A    between atoms: CG   and  CD  
ROOT
ATOM     14  CA  GLU D 570     -18.033  -6.348 -13.375  1.00 32.92     0.160 C 
ENDROOT
BRANCH  14  15
ATOM     15  CB  GLU D 570     -19.500  -6.345 -13.794  1.00 32.92     0.043 C 
BRANCH  15  16
ATOM     16  CG  GLU D 570     -20.092  -7.638 -14.223  1.00 32.92     0.100 C 
BRANCH  16  17
ATOM     17  CD  GLU D 570     -20.719  -7.573 -15.596  1.00 32.92     0.185 C 
ATOM     18  OE1 GLU D 570     -21.159  -6.483 -16.009  1.00 32.92    -0.647 OA
ATOM     19  OE2 GLU D 570     -20.786  -8.627 -16.259  1.00 32.92    -0.647 OA
ENDBRANCH  16  17
ENDBRANCH  15  16
ENDBRANCH  14  15
END_RES GLU D 570
ENDMDL
MODEL 9
REMARK VINA RESULT:      -6.5      2.034      9.834
REMARK  22 active torsions:
REMARK  status: ('A' for Active; 'I' for Inactive)
REMARK    1  A    between atoms: O_2  and  C_3 
REMARK    2  A    between atoms: C_3  and  C_4 
REMARK    3  A    between atoms: C_5  and  O_39 
REMARK    4  A    between atoms: C_6  and  O_38 
REMARK    5  A    between atoms: C_7  and  O_37 
REMARK    6  A    between atoms: C_8  and  C_10 
REMARK    7  A    between atoms: C_10  and  O_11 
REMARK    8  A    between atoms: O_11  and  C_12 
REMARK    9  A    between atoms: C_12  and  C_13 
REMARK   10  A    between atoms: C_14  and  C_35 
REMARK   11  A    between atoms: C_16  and  C_21 
REMARK   12  A    between atoms: C_17  and  O_20 
REMARK   13  A    between atoms: C_18  and  O_19 
REMARK   14  A    between atoms: C_21  and  O_22 
REMARK   15  A    between atoms: O_22  and  C_23 
REMARK   16  A    between atoms: C_23  and  C_24 
REMARK   17  A    between atoms: C_25  and  C_33 
REMARK   18  A    between atoms: C_27  and  O_32 
REMARK   19  A    between atoms: C_28  and  O_31 
REMARK   20  A    between atoms: C_29  and  O_30 
REMARK   21  A    between atoms: C_33  and  O_34 
REMARK   22  A    between atoms: C_35  and  O_36 
ROOT
HETATM    1  C   UNL     1     -20.913  -4.688  -7.652  1.00  0.00     0.072 C 
HETATM    2  C   UNL     1     -22.357  -5.056  -8.026  1.00  0.00     0.154 C 
HETATM    3  O   UNL     1     -22.526  -5.323  -9.421  1.00  0.00    -0.373 OA
HETATM    4  C   UNL     1     -21.935  -4.414 -10.370  1.00  0.00     0.177 C 
HETATM    5  C   UNL     1     -20.462  -4.088 -10.051  1.00  0.00     0.178 C 
HETATM    6  C   UNL     1     -20.374  -3.608  -8.602  1.00  0.00     0.158 C 
ENDROOT
BRANCH   1   7
HETATM    7  C   UNL     1     -20.048  -5.964  -7.613  1.00  0.00     0.177 C 
BRANCH   7   8
HETATM    8  O   UNL     1     -20.624  -7.011  -6.837  1.00  0.00    -0.388 OA
BRANCH   8   9
HETATM    9  C   UNL     1     -20.139  -7.051  -5.488  1.00  0.00     0.202 C 
BRANCH   9  10
HETATM   10  C   UNL     1     -20.130  -8.502  -5.012  1.00  0.00     0.177 C 
HETATM   11  C   UNL     1     -18.736  -9.121  -5.162  1.00  0.00     0.180 C 
HETATM   12  C   UNL     1     -18.801 -10.614  -4.803  1.00  0.00     0.180 C 
HETATM   13  C   UNL     1     -19.922 -11.343  -5.566  1.00  0.00     0.180 C 
HETATM   14  C   UNL     1     -21.264 -10.613  -5.404  1.00  0.00     0.177 C 
HETATM   15  O   UNL     1     -21.082  -9.240  -5.804  1.00  0.00    -0.371 OA
BRANCH  11  16
HETATM   16  O   UNL     1     -18.237  -8.953  -6.501  1.00  0.00    -0.390 OA
HETATM   17  H   UNL     1     -18.949  -9.236  -7.109  1.00  0.00     0.210 HD
ENDBRANCH  11  16
BRANCH  12  18
HETATM   18  O   UNL     1     -17.542 -11.232  -5.080  1.00  0.00    -0.390 OA
HETATM   19  H   UNL     1     -16.879 -10.536  -4.888  1.00  0.00     0.210 HD
ENDBRANCH  12  18
BRANCH  13  20
HETATM   20  O   UNL     1     -19.560 -11.381  -6.966  1.00  0.00    -0.390 OA
HETATM   21  H   UNL     1     -18.587 -11.326  -7.030  1.00  0.00     0.210 HD
ENDBRANCH  13  20
BRANCH  14  22
HETATM   22  C   UNL     1     -21.903 -10.754  -4.011  1.00  0.00     0.201 C 
BRANCH  22  23
HETATM   23  O   UNL     1     -21.779 -12.119  -3.599  1.00  0.00    -0.393 OA
HETATM   24  C   UNL     1     -21.561 -12.251  -2.203  1.00  0.00     0.201 C 
ENDBRANCH  22  23
ENDBRANCH  14  22
ENDBRANCH   9  10
ENDBRANCH   8   9
ENDBRANCH   7   8
ENDBRANCH   1   7
BRANCH   2  25
HETATM   25  C   UNL     1     -23.384  -4.055  -7.468  1.00  0.00     0.196 C 
BRANCH  25  26
HETATM   26  O   UNL     1     -24.091  -4.608  -6.361  1.00  0.00    -0.398 OA
HETATM   27  H   UNL     1     -24.208  -3.906  -5.704  1.00  0.00     0.209 HD
ENDBRANCH  25  26
ENDBRANCH   2  25
BRANCH   6  28
HETATM   28  O   UNL     1     -19.052  -3.175  -8.290  1.00  0.00    -0.392 OA
HETATM   29  H   UNL     1     -18.971  -3.091  -7.316  1.00  0.00     0.210 HD
ENDBRANCH   6  28
BRANCH   5  30
HETATM   30  O   UNL     1     -19.872  -3.148 -10.947  1.00  0.00    -0.390 OA
HETATM   31  H   UNL     1     -20.153  -2.258 -10.670  1.00  0.00     0.210 HD
ENDBRANCH   5  30
BRANCH   4  32
HETATM   32  C   UNL     1     -22.839  -3.190 -10.623  1.00  0.00     0.202 C 
BRANCH  32  33
HETATM   33  O   UNL     1     -22.564  -2.465 -11.815  1.00  0.00    -0.388 OA
BRANCH  33  34
HETATM   34  C   UNL     1     -22.265  -3.310 -12.925  1.00  0.00     0.177 C 
BRANCH  34  35
HETATM   35  C   UNL     1     -23.057  -2.829 -14.144  1.00  0.00     0.072 C 
HETATM   36  C   UNL     1     -24.512  -2.522 -13.766  1.00  0.00     0.157 C 
HETATM   37  O   UNL     1     -25.253  -3.718 -13.469  1.00  0.00    -0.351 OA
HETATM   38  C   UNL     1     -25.200  -4.775 -14.410  1.00  0.00     0.288 C 
HETATM   39  C   UNL     1     -23.779  -5.136 -14.883  1.00  0.00     0.202 C 
HETATM   40  C   UNL     1     -22.996  -3.873 -15.263  1.00  0.00     0.160 C 
BRANCH  36  41
HETATM   41  C   UNL     1     -25.216  -1.652 -14.823  1.00  0.00     0.196 C 
BRANCH  41  42
HETATM   42  O   UNL     1     -24.841  -0.287 -14.682  1.00  0.00    -0.398 OA
HETATM   43  H   UNL     1     -25.675   0.220 -14.636  1.00  0.00     0.209 HD
ENDBRANCH  41  42
ENDBRANCH  36  41
BRANCH  38  44
HETATM   44  O   UNL     1     -26.085  -4.537 -15.503  1.00  0.00    -0.369 OA
HETATM   45  H   UNL     1     -25.636  -4.743 -16.328  1.00  0.00     0.212 HD
ENDBRANCH  38  44
BRANCH  39  46
HETATM   46  O   UNL     1     -23.788  -6.042 -15.993  1.00  0.00    -0.388 OA
HETATM   47  H   UNL     1     -23.543  -5.541 -16.794  1.00  0.00     0.210 HD
ENDBRANCH  39  46
BRANCH  40  48
HETATM   48  O   UNL     1     -21.628  -4.166 -15.565  1.00  0.00    -0.392 OA
HETATM   49  H   UNL     1     -21.318  -4.869 -14.966  1.00  0.00     0.210 HD
ENDBRANCH  40  48
ENDBRANCH  34  35
ENDBRANCH  33  34
ENDBRANCH  32  33
ENDBRANCH   4  32
TORSDOF 22
BEGIN_RES ARG D 557
REMARK  4 active torsions:
REMARK  status: ('A' for Active; 'I' for Inactive)
REMARK    1  A    between atoms: CA   and  CB  
REMARK    2  A    between atoms: CB   and  CG  
REMARK    3  A    between atoms: CG   and  CD  
REMARK    4  A    between atoms: CD   and  NE  
REMARK       I    between atoms: NE   and  CZ  
REMARK       I    between atoms: CZ   and  NH1 
REMARK       I    between atoms: CZ   and  NH2 
ROOT
ATOM      1  CA  ARG D 557     -26.217   2.705 -17.014  1.00 35.49     0.159 C 
ENDROOT
BRANCH   1   2
ATOM      2  CB  ARG D 557     -26.789   1.319 -17.183  1.00 35.49     0.034 C 
BRANCH   2   3
ATOM      3  CG  ARG D 557     -28.093   1.062 -16.560  1.00 35.49     0.027 C 
BRANCH   3   4
ATOM      4  CD  ARG D 557     -28.850  -0.004 -17.255  1.00 35.49     0.116 C 
BRANCH   4   5
ATOM      5  NE  ARG D 557     -28.324  -1.314 -16.976  1.00 35.49    -0.212 N 
ATOM      6  CZ  ARG D 557     -28.967  -2.449 -17.131  1.00 35.49     0.666 C 
ATOM      7  NH1 ARG D 557     -30.214  -2.505 -17.561  1.00 35.49    -0.235 N 
ATOM      8  NH2 ARG D 557     -28.326  -3.546 -16.848  1.00 35.49    -0.235 N 
ATOM      9  HH  ARG D 557     -30.655  -1.796 -17.755  1.00 35.49     0.174 HD
ATOM     10  HH  ARG D 557     -30.582  -3.274 -17.645  1.00 35.49     0.174 HD
ATOM     11  HH  ARG D 557     -27.519  -3.480 -16.579  1.00 35.49     0.174 HD
ATOM     12  HH  ARG D 557     -28.707  -4.298 -16.939  1.00 35.49     0.174 HD
ATOM     13  HE  ARG D 557     -27.551  -1.367 -16.626  1.00 35.49     0.178 HD
ENDBRANCH   4   5
ENDBRANCH   3   4
ENDBRANCH   2   3
ENDBRANCH   1   2
END_RES ARG D 557
BEGIN_RES GLU D 570
REMARK  3 active torsions:
REMARK  status: ('A' for Active; 'I' for Inactive)
REMARK    5  A    between atoms: CA   and  CB  
REMARK    6  A    between atoms: CB   and  CG  
REMARK    7  A    between atoms: CG   and  CD  
ROOT
ATOM     14  CA  GLU D 570     -18.033  -6.348 -13.375  1.00 32.92     0.160 C 
ENDROOT
BRANCH  14  15
ATOM     15  CB  GLU D 570     -19.500  -6.345 -13.794  1.00 32.92     0.043 C 
BRANCH  15  16
ATOM     16  CG  GLU D 570     -19.796  -6.298 -15.249  1.00 32.92     0.100 C 
BRANCH  16  17
ATOM     17  CD  GLU D 570     -20.656  -7.450 -15.713  1.00 32.92     0.185 C 
ATOM     18  OE1 GLU D 570     -20.545  -8.554 -15.148  1.00 32.92    -0.647 OA
ATOM     19  OE2 GLU D 570     -21.438  -7.250 -16.664  1.00 32.92    -0.647 OA
ENDBRANCH  16  17
ENDBRANCH  15  16
ENDBRANCH  14  15
END_RES GLU D 570
ENDMDL
