MODEL 1
REMARK VINA RESULT:      -8.3      0.000      0.000
REMARK  15 active torsions:
REMARK  status: ('A' for Active; 'I' for Inactive)
REMARK    1  A    between atoms: CA_2  and  C_3 
REMARK    2  A    between atoms: CA_2  and  N_6 
REMARK    3  A    between atoms: C_3  and  OXT_5 
REMARK       I    between atoms: N_6  and  C_9 
REMARK    4  A    between atoms: C_9  and  C_11 
REMARK    5  A    between atoms: C_11  and  C_12 
REMARK    6  A    between atoms: C_12  and  C_13 
REMARK    7  A    between atoms: C_13  and  C_14 
REMARK    8  A    between atoms: C_14  and  C_15 
REMARK    9  A    between atoms: C_15  and  N_16 
REMARK       I    between atoms: N_16  and  C_17 
REMARK   10  A    between atoms: C_17  and  C_19 
REMARK   11  A    between atoms: C_19  and  C_20 
REMARK   12  A    between atoms: C_19  and  N_28 
REMARK   13  A    between atoms: C_20  and  C_21 
REMARK   14  A    between atoms: C_21  and  C_22 
REMARK   15  A    between atoms: C_22  and  N_23 
REMARK       I    between atoms: C_25  and  N_26 
REMARK       I    between atoms: C_25  and  N_27 
REMARK       I    between atoms: N_28  and  C_29 
ROOT
HETATM    1  N   UNK A   0     -25.006  -5.929 -15.767  1.00  0.00    -0.359 N 
HETATM    2  C   UNK A   0     -26.144  -6.644 -16.085  1.00  0.00     0.240 C 
HETATM    3  O   UNK A   0     -26.599  -7.515 -15.346  1.00  0.00    -0.271 OA
HETATM    4  H   UNK A   0     -24.694  -5.200 -16.398  1.00  0.00     0.162 HD
ENDROOT
BRANCH   2   5
HETATM    5  C   UNK A   0     -26.868  -6.174 -17.370  1.00  0.00     0.176 C 
BRANCH   5   6
HETATM    6  C   UNK A   0     -25.976  -6.442 -18.599  1.00  0.00     0.036 C 
BRANCH   6   7
HETATM    7  C   UNK A   0     -26.760  -6.686 -19.890  1.00  0.00     0.022 C 
BRANCH   7   8
HETATM    8  C   UNK A   0     -25.890  -7.288 -20.988  1.00  0.00     0.121 C 
BRANCH   8   9
HETATM    9  N   UNK A   0     -24.605  -7.650 -20.394  1.00  0.00    -0.372 N 
HETATM   10  C   UNK A   0     -23.738  -8.227 -21.134  1.00  0.00     0.121 C 
HETATM   11  N   UNK A   0     -23.843  -8.599 -22.425  1.00  0.00    -0.279 NA
HETATM   12  N   UNK A   0     -22.522  -8.534 -20.636  1.00  0.00    -0.279 NA
HETATM   13  H   UNK A   0     -24.589  -8.140 -22.935  1.00  0.00     0.126 HD
HETATM   14  H   UNK A   0     -22.967  -8.578 -22.941  1.00  0.00     0.126 HD
HETATM   15  H   UNK A   0     -22.537  -8.559 -19.617  1.00  0.00     0.126 HD
HETATM   16  H   UNK A   0     -22.064  -9.333 -21.038  1.00  0.00     0.126 HD
ATOM     17  HN  UNK A   0     -24.406  -7.447 -19.415  1.00  0.00     0.161 HD
ENDBRANCH   8   9
ENDBRANCH   7   8
ENDBRANCH   6   7
ENDBRANCH   5   6
BRANCH   5  18
HETATM   18  N   UNK A   0     -28.142  -6.892 -17.449  1.00  0.00    -0.348 N 
HETATM   19  C   UNK A   0     -29.326  -6.311 -17.059  1.00  0.00     0.214 C 
HETATM   20  O   UNK A   0     -29.392  -5.216 -16.511  1.00  0.00    -0.274 OA
HETATM   21  C   UNK A   0     -30.562  -7.117 -17.357  1.00  0.00     0.117 C 
HETATM   22  H   UNK A   0     -28.155  -7.764 -17.964  1.00  0.00     0.163 HD
ENDBRANCH   5  18
ENDBRANCH   2   5
BRANCH   1  23
HETATM   23  C   UNK A   0     -24.173  -6.267 -14.629  1.00  0.00     0.122 C 
BRANCH  23  24
HETATM   24  C   UNK A   0     -23.369  -5.073 -14.109  1.00  0.00     0.020 C 
BRANCH  24  25
HETATM   25  C   UNK A   0     -23.408  -4.940 -12.575  1.00  0.00     0.002 C 
BRANCH  25  26
HETATM   26  C   UNK A   0     -23.238  -3.493 -12.106  1.00  0.00     0.009 C 
BRANCH  26  27
HETATM   27  C   UNK A   0     -21.787  -3.112 -11.802  1.00  0.00     0.103 C 
BRANCH  27  28
HETATM   28  C   UNK A   0     -21.245  -3.948 -10.654  1.00  0.00     0.218 C 
ATOM     29  N   ALA A   1     -21.925  -3.825  -9.466  1.00  0.00    -0.347 N 
ATOM     30  H   ALA A   1     -22.839  -3.386  -9.465  1.00  0.00     0.163 HD
HETATM   31  O   UNK A   0     -20.304  -4.733 -10.754  1.00  0.00    -0.274 OA
BRANCH  29  32
ATOM     32  CA  ALA A   1     -21.486  -4.530  -8.267  1.00  0.00     0.178 C 
ATOM     33  CB  ALA A   1     -20.291  -3.829  -7.637  1.00  0.00     0.043 C 
BRANCH  32  34
ATOM     34  C   ALA A   1     -22.647  -4.639  -7.280  1.00  0.00     0.163 C 
ATOM     35  O   ALA A   1     -22.560  -5.160  -6.183  1.00  0.00    -0.648 OA
BRANCH  34  36
ATOM     36  OXT ALA A   1     -23.809  -4.115  -7.739  1.00  0.00    -0.775 OA
ATOM     37  HXT ALA A   1     -24.541  -4.196  -7.087  1.00  0.00     0.167 HD
ENDBRANCH  34  36
ENDBRANCH  32  34
ENDBRANCH  29  32
ENDBRANCH  27  28
ENDBRANCH  26  27
ENDBRANCH  25  26
ENDBRANCH  24  25
ENDBRANCH  23  24
ENDBRANCH   1  23
TORSDOF 15
BEGIN_RES ARG D 557
REMARK  4 active torsions:
REMARK  status: ('A' for Active; 'I' for Inactive)
REMARK    1  A    between atoms: CA   and  CB  
REMARK    2  A    between atoms: CB   and  CG  
REMARK    3  A    between atoms: CG   and  CD  
REMARK    4  A    between atoms: CD   and  NE  
REMARK       I    between atoms: NE   and  CZ  
REMARK       I    between atoms: CZ   and  NH1 
REMARK       I    between atoms: CZ   and  NH2 
ROOT
ATOM      1  CA  ARG D 557     -26.217   2.705 -17.014  1.00 35.49     0.159 C 
ENDROOT
BRANCH   1   2
ATOM      2  CB  ARG D 557     -26.789   1.319 -17.183  1.00 35.49     0.034 C 
BRANCH   2   3
ATOM      3  CG  ARG D 557     -28.231   1.227 -17.444  1.00 35.49     0.027 C 
BRANCH   3   4
ATOM      4  CD  ARG D 557     -28.915   0.304 -16.510  1.00 35.49     0.116 C 
BRANCH   4   5
ATOM      5  NE  ARG D 557     -28.109  -0.846 -16.195  1.00 35.49    -0.212 N 
ATOM      6  CZ  ARG D 557     -28.288  -2.061 -16.663  1.00 35.49     0.666 C 
ATOM      7  NH1 ARG D 557     -29.271  -2.365 -17.490  1.00 35.49    -0.235 N 
ATOM      8  NH2 ARG D 557     -27.446  -2.979 -16.287  1.00 35.49    -0.235 N 
ATOM      9  HH  ARG D 557     -29.835  -1.776 -17.753  1.00 35.49     0.174 HD
ATOM     10  HH  ARG D 557     -29.337  -3.174 -17.765  1.00 35.49     0.174 HD
ATOM     11  HH  ARG D 557     -26.816  -2.753 -15.758  1.00 35.49     0.174 HD
ATOM     12  HH  ARG D 557     -27.527  -3.774 -16.571  1.00 35.49     0.174 HD
ATOM     13  HE  ARG D 557     -27.496  -0.757 -15.613  1.00 35.49     0.178 HD
ENDBRANCH   4   5
ENDBRANCH   3   4
ENDBRANCH   2   3
ENDBRANCH   1   2
END_RES ARG D 557
BEGIN_RES GLU D 570
REMARK  3 active torsions:
REMARK  status: ('A' for Active; 'I' for Inactive)
REMARK    5  A    between atoms: CA   and  CB  
REMARK    6  A    between atoms: CB   and  CG  
REMARK    7  A    between atoms: CG   and  CD  
ROOT
ATOM     14  CA  GLU D 570     -18.033  -6.348 -13.375  1.00 32.92     0.160 C 
ENDROOT
BRANCH  14  15
ATOM     15  CB  GLU D 570     -19.500  -6.345 -13.794  1.00 32.92     0.043 C 
BRANCH  15  16
ATOM     16  CG  GLU D 570     -20.093  -7.639 -14.221  1.00 32.92     0.100 C 
BRANCH  16  17
ATOM     17  CD  GLU D 570     -20.707  -7.579 -15.600  1.00 32.92     0.185 C 
ATOM     18  OE1 GLU D 570     -21.092  -8.635 -16.138  1.00 32.92    -0.647 OA
ATOM     19  OE2 GLU D 570     -20.790  -6.466 -16.155  1.00 32.92    -0.647 OA
ENDBRANCH  16  17
ENDBRANCH  15  16
ENDBRANCH  14  15
END_RES GLU D 570
ENDMDL
MODEL 2
REMARK VINA RESULT:      -8.3      2.068      4.126
REMARK  15 active torsions:
REMARK  status: ('A' for Active; 'I' for Inactive)
REMARK    1  A    between atoms: CA_2  and  C_3 
REMARK    2  A    between atoms: CA_2  and  N_6 
REMARK    3  A    between atoms: C_3  and  OXT_5 
REMARK       I    between atoms: N_6  and  C_9 
REMARK    4  A    between atoms: C_9  and  C_11 
REMARK    5  A    between atoms: C_11  and  C_12 
REMARK    6  A    between atoms: C_12  and  C_13 
REMARK    7  A    between atoms: C_13  and  C_14 
REMARK    8  A    between atoms: C_14  and  C_15 
REMARK    9  A    between atoms: C_15  and  N_16 
REMARK       I    between atoms: N_16  and  C_17 
REMARK   10  A    between atoms: C_17  and  C_19 
REMARK   11  A    between atoms: C_19  and  C_20 
REMARK   12  A    between atoms: C_19  and  N_28 
REMARK   13  A    between atoms: C_20  and  C_21 
REMARK   14  A    between atoms: C_21  and  C_22 
REMARK   15  A    between atoms: C_22  and  N_23 
REMARK       I    between atoms: C_25  and  N_26 
REMARK       I    between atoms: C_25  and  N_27 
REMARK       I    between atoms: N_28  and  C_29 
ROOT
HETATM    1  N   UNK A   0     -24.463  -6.047 -15.063  1.00  0.00    -0.359 N 
HETATM    2  C   UNK A   0     -25.675  -5.576 -15.529  1.00  0.00     0.240 C 
HETATM    3  O   UNK A   0     -25.981  -4.386 -15.475  1.00  0.00    -0.271 OA
HETATM    4  H   UNK A   0     -24.250  -7.033 -15.162  1.00  0.00     0.162 HD
ENDROOT
BRANCH   2   5
HETATM    5  C   UNK A   0     -26.555  -6.636 -16.235  1.00  0.00     0.176 C 
BRANCH   5   6
HETATM    6  C   UNK A   0     -28.025  -6.469 -15.799  1.00  0.00     0.036 C 
BRANCH   6   7
HETATM    7  C   UNK A   0     -29.035  -6.992 -16.823  1.00  0.00     0.022 C 
BRANCH   7   8
HETATM    8  C   UNK A   0     -29.810  -5.865 -17.497  1.00  0.00     0.121 C 
BRANCH   8   9
HETATM    9  N   UNK A   0     -31.103  -5.746 -16.828  1.00  0.00    -0.372 N 
HETATM   10  C   UNK A   0     -31.699  -4.617 -16.860  1.00  0.00     0.121 C 
HETATM   11  N   UNK A   0     -31.285  -3.459 -17.411  1.00  0.00    -0.279 NA
HETATM   12  N   UNK A   0     -32.917  -4.480 -16.294  1.00  0.00    -0.279 NA
HETATM   13  H   UNK A   0     -30.546  -3.561 -18.096  1.00  0.00     0.126 HD
HETATM   14  H   UNK A   0     -32.036  -2.865 -17.754  1.00  0.00     0.126 HD
HETATM   15  H   UNK A   0     -33.094  -5.220 -15.617  1.00  0.00     0.126 HD
HETATM   16  H   UNK A   0     -33.144  -3.566 -15.941  1.00  0.00     0.126 HD
ATOM     17  HN  UNK A   0     -31.519  -6.544 -16.348  1.00  0.00     0.161 HD
ENDBRANCH   8   9
ENDBRANCH   7   8
ENDBRANCH   6   7
ENDBRANCH   5   6
BRANCH   5  18
HETATM   18  N   UNK A   0     -26.387  -6.461 -17.680  1.00  0.00    -0.348 N 
HETATM   19  C   UNK A   0     -25.219  -6.806 -18.319  1.00  0.00     0.214 C 
HETATM   20  O   UNK A   0     -24.206  -7.165 -17.728  1.00  0.00    -0.274 OA
HETATM   21  C   UNK A   0     -25.264  -6.721 -19.821  1.00  0.00     0.117 C 
HETATM   22  H   UNK A   0     -27.213  -6.244 -18.223  1.00  0.00     0.163 HD
ENDBRANCH   5  18
ENDBRANCH   2   5
BRANCH   1  23
HETATM   23  C   UNK A   0     -23.538  -5.206 -14.328  1.00  0.00     0.122 C 
BRANCH  23  24
HETATM   24  C   UNK A   0     -23.454  -5.574 -12.844  1.00  0.00     0.020 C 
BRANCH  24  25
HETATM   25  C   UNK A   0     -23.531  -4.350 -11.913  1.00  0.00     0.002 C 
BRANCH  25  26
HETATM   26  C   UNK A   0     -23.318  -4.717 -10.442  1.00  0.00     0.009 C 
BRANCH  26  27
HETATM   27  C   UNK A   0     -22.408  -3.741  -9.691  1.00  0.00     0.103 C 
BRANCH  27  28
HETATM   28  C   UNK A   0     -21.344  -4.496  -8.912  1.00  0.00     0.218 C 
ATOM     29  N   ALA A   1     -21.737  -4.961  -7.680  1.00  0.00    -0.347 N 
ATOM     30  H   ALA A   1     -22.725  -4.978  -7.452  1.00  0.00     0.163 HD
HETATM   31  O   UNK A   0     -20.219  -4.746  -9.341  1.00  0.00    -0.274 OA
BRANCH  29  32
ATOM     32  CA  ALA A   1     -20.805  -5.659  -6.802  1.00  0.00     0.178 C 
ATOM     33  CB  ALA A   1     -19.937  -4.668  -6.040  1.00  0.00     0.043 C 
BRANCH  32  34
ATOM     34  C   ALA A   1     -21.579  -6.566  -5.846  1.00  0.00     0.163 C 
ATOM     35  O   ALA A   1     -22.370  -6.160  -5.015  1.00  0.00    -0.648 OA
BRANCH  34  36
ATOM     36  OXT ALA A   1     -21.294  -7.883  -5.987  1.00  0.00    -0.775 OA
ATOM     37  HXT ALA A   1     -21.640  -8.253  -6.830  1.00  0.00     0.167 HD
ENDBRANCH  34  36
ENDBRANCH  32  34
ENDBRANCH  29  32
ENDBRANCH  27  28
ENDBRANCH  26  27
ENDBRANCH  25  26
ENDBRANCH  24  25
ENDBRANCH  23  24
ENDBRANCH   1  23
TORSDOF 15
BEGIN_RES ARG D 557
REMARK  4 active torsions:
REMARK  status: ('A' for Active; 'I' for Inactive)
REMARK    1  A    between atoms: CA   and  CB  
REMARK    2  A    between atoms: CB   and  CG  
REMARK    3  A    between atoms: CG   and  CD  
REMARK    4  A    between atoms: CD   and  NE  
REMARK       I    between atoms: NE   and  CZ  
REMARK       I    between atoms: CZ   and  NH1 
REMARK       I    between atoms: CZ   and  NH2 
ROOT
ATOM      1  CA  ARG D 557     -26.217   2.705 -17.014  1.00 35.49     0.159 C 
ENDROOT
BRANCH   1   2
ATOM      2  CB  ARG D 557     -26.789   1.319 -17.183  1.00 35.49     0.034 C 
BRANCH   2   3
ATOM      3  CG  ARG D 557     -28.202   1.230 -17.570  1.00 35.49     0.027 C 
BRANCH   3   4
ATOM      4  CD  ARG D 557     -28.984   0.367 -16.655  1.00 35.49     0.116 C 
BRANCH   4   5
ATOM      5  NE  ARG D 557     -28.959  -1.014 -17.059  1.00 35.49    -0.212 N 
ATOM      6  CZ  ARG D 557     -28.115  -1.925 -16.627  1.00 35.49     0.666 C 
ATOM      7  NH1 ARG D 557     -27.160  -1.651 -15.758  1.00 35.49    -0.235 N 
ATOM      8  NH2 ARG D 557     -28.252  -3.135 -17.086  1.00 35.49    -0.235 N 
ATOM      9  HH  ARG D 557     -27.053  -0.862 -15.442  1.00 35.49     0.174 HD
ATOM     10  HH  ARG D 557     -26.641  -2.286 -15.511  1.00 35.49     0.174 HD
ATOM     11  HH  ARG D 557     -28.883  -3.284 -17.640  1.00 35.49     0.174 HD
ATOM     12  HH  ARG D 557     -27.729  -3.750 -16.828  1.00 35.49     0.174 HD
ATOM     13  HE  ARG D 557     -29.494  -1.261 -17.672  1.00 35.49     0.178 HD
ENDBRANCH   4   5
ENDBRANCH   3   4
ENDBRANCH   2   3
ENDBRANCH   1   2
END_RES ARG D 557
BEGIN_RES GLU D 570
REMARK  3 active torsions:
REMARK  status: ('A' for Active; 'I' for Inactive)
REMARK    5  A    between atoms: CA   and  CB  
REMARK    6  A    between atoms: CB   and  CG  
REMARK    7  A    between atoms: CG   and  CD  
ROOT
ATOM     14  CA  GLU D 570     -18.033  -6.348 -13.375  1.00 32.92     0.160 C 
ENDROOT
BRANCH  14  15
ATOM     15  CB  GLU D 570     -19.500  -6.345 -13.794  1.00 32.92     0.043 C 
BRANCH  15  16
ATOM     16  CG  GLU D 570     -20.084  -7.633 -14.251  1.00 32.92     0.100 C 
BRANCH  16  17
ATOM     17  CD  GLU D 570     -20.729  -7.537 -15.614  1.00 32.92     0.185 C 
ATOM     18  OE1 GLU D 570     -20.771  -6.431 -16.187  1.00 32.92    -0.647 OA
ATOM     19  OE2 GLU D 570     -21.213  -8.575 -16.106  1.00 32.92    -0.647 OA
ENDBRANCH  16  17
ENDBRANCH  15  16
ENDBRANCH  14  15
END_RES GLU D 570
ENDMDL
MODEL 3
REMARK VINA RESULT:      -8.1      1.854      3.566
REMARK  15 active torsions:
REMARK  status: ('A' for Active; 'I' for Inactive)
REMARK    1  A    between atoms: CA_2  and  C_3 
REMARK    2  A    between atoms: CA_2  and  N_6 
REMARK    3  A    between atoms: C_3  and  OXT_5 
REMARK       I    between atoms: N_6  and  C_9 
REMARK    4  A    between atoms: C_9  and  C_11 
REMARK    5  A    between atoms: C_11  and  C_12 
REMARK    6  A    between atoms: C_12  and  C_13 
REMARK    7  A    between atoms: C_13  and  C_14 
REMARK    8  A    between atoms: C_14  and  C_15 
REMARK    9  A    between atoms: C_15  and  N_16 
REMARK       I    between atoms: N_16  and  C_17 
REMARK   10  A    between atoms: C_17  and  C_19 
REMARK   11  A    between atoms: C_19  and  C_20 
REMARK   12  A    between atoms: C_19  and  N_28 
REMARK   13  A    between atoms: C_20  and  C_21 
REMARK   14  A    between atoms: C_21  and  C_22 
REMARK   15  A    between atoms: C_22  and  N_23 
REMARK       I    between atoms: C_25  and  N_26 
REMARK       I    between atoms: C_25  and  N_27 
REMARK       I    between atoms: N_28  and  C_29 
ROOT
HETATM    1  N   UNK A   0     -25.071  -7.139 -16.622  1.00  0.00    -0.359 N 
HETATM    2  C   UNK A   0     -24.465  -6.986 -17.853  1.00  0.00     0.240 C 
HETATM    3  O   UNK A   0     -23.250  -6.835 -17.972  1.00  0.00    -0.271 OA
HETATM    4  H   UNK A   0     -26.072  -7.293 -16.585  1.00  0.00     0.162 HD
ENDROOT
BRANCH   2   5
HETATM    5  C   UNK A   0     -25.411  -7.149 -19.068  1.00  0.00     0.176 C 
BRANCH   5   6
HETATM    6  C   UNK A   0     -26.460  -6.018 -19.067  1.00  0.00     0.036 C 
BRANCH   6   7
HETATM    7  C   UNK A   0     -27.874  -6.489 -19.415  1.00  0.00     0.022 C 
BRANCH   7   8
HETATM    8  C   UNK A   0     -28.861  -6.238 -18.280  1.00  0.00     0.121 C 
BRANCH   8   9
HETATM    9  N   UNK A   0     -28.573  -7.196 -17.215  1.00  0.00    -0.372 N 
HETATM   10  C   UNK A   0     -28.163  -6.747 -16.092  1.00  0.00     0.121 C 
HETATM   11  N   UNK A   0     -27.915  -5.472 -15.732  1.00  0.00    -0.279 NA
HETATM   12  N   UNK A   0     -27.932  -7.597 -15.069  1.00  0.00    -0.279 NA
HETATM   13  H   UNK A   0     -28.345  -4.776 -16.329  1.00  0.00     0.126 HD
HETATM   14  H   UNK A   0     -28.076  -5.275 -14.747  1.00  0.00     0.126 HD
HETATM   15  H   UNK A   0     -27.803  -8.550 -15.404  1.00  0.00     0.126 HD
HETATM   16  H   UNK A   0     -27.227  -7.317 -14.408  1.00  0.00     0.126 HD
ATOM     17  HN  UNK A   0     -28.695  -8.197 -17.366  1.00  0.00     0.161 HD
ENDBRANCH   8   9
ENDBRANCH   7   8
ENDBRANCH   6   7
ENDBRANCH   5   6
BRANCH   5  18
HETATM   18  N   UNK A   0     -24.586  -7.133 -20.278  1.00  0.00    -0.348 N 
HETATM   19  C   UNK A   0     -24.959  -7.808 -21.417  1.00  0.00     0.214 C 
HETATM   20  O   UNK A   0     -25.927  -8.560 -21.470  1.00  0.00    -0.274 OA
HETATM   21  C   UNK A   0     -24.092  -7.557 -22.621  1.00  0.00     0.117 C 
HETATM   22  H   UNK A   0     -23.824  -6.468 -20.314  1.00  0.00     0.163 HD
ENDBRANCH   5  18
ENDBRANCH   2   5
BRANCH   1  23
HETATM   23  C   UNK A   0     -24.348  -6.966 -15.377  1.00  0.00     0.122 C 
BRANCH  23  24
HETATM   24  C   UNK A   0     -24.355  -5.516 -14.886  1.00  0.00     0.020 C 
BRANCH  24  25
HETATM   25  C   UNK A   0     -23.296  -5.239 -13.803  1.00  0.00     0.002 C 
BRANCH  25  26
HETATM   26  C   UNK A   0     -23.268  -3.772 -13.369  1.00  0.00     0.009 C 
BRANCH  26  27
HETATM   27  C   UNK A   0     -24.048  -3.497 -12.081  1.00  0.00     0.103 C 
BRANCH  27  28
HETATM   28  C   UNK A   0     -23.500  -4.332 -10.936  1.00  0.00     0.218 C 
ATOM     29  N   ALA A   1     -22.431  -3.784 -10.269  1.00  0.00    -0.347 N 
ATOM     30  H   ALA A   1     -22.211  -2.804 -10.411  1.00  0.00     0.163 HD
HETATM   31  O   UNK A   0     -23.984  -5.400 -10.564  1.00  0.00    -0.274 OA
BRANCH  29  32
ATOM     32  CA  ALA A   1     -21.771  -4.498  -9.181  1.00  0.00     0.178 C 
ATOM     33  CB  ALA A   1     -20.263  -4.306  -9.247  1.00  0.00     0.043 C 
BRANCH  32  34
ATOM     34  C   ALA A   1     -22.330  -4.023  -7.840  1.00  0.00     0.163 C 
ATOM     35  O   ALA A   1     -23.378  -4.416  -7.363  1.00  0.00    -0.648 OA
BRANCH  34  36
ATOM     36  OXT ALA A   1     -21.558  -3.097  -7.221  1.00  0.00    -0.775 OA
ATOM     37  HXT ALA A   1     -22.090  -2.375  -6.817  1.00  0.00     0.167 HD
ENDBRANCH  34  36
ENDBRANCH  32  34
ENDBRANCH  29  32
ENDBRANCH  27  28
ENDBRANCH  26  27
ENDBRANCH  25  26
ENDBRANCH  24  25
ENDBRANCH  23  24
ENDBRANCH   1  23
TORSDOF 15
BEGIN_RES ARG D 557
REMARK  4 active torsions:
REMARK  status: ('A' for Active; 'I' for Inactive)
REMARK    1  A    between atoms: CA   and  CB  
REMARK    2  A    between atoms: CB   and  CG  
REMARK    3  A    between atoms: CG   and  CD  
REMARK    4  A    between atoms: CD   and  NE  
REMARK       I    between atoms: NE   and  CZ  
REMARK       I    between atoms: CZ   and  NH1 
REMARK       I    between atoms: CZ   and  NH2 
ROOT
ATOM      1  CA  ARG D 557     -26.217   2.705 -17.014  1.00 35.49     0.159 C 
ENDROOT
BRANCH   1   2
ATOM      2  CB  ARG D 557     -26.789   1.319 -17.183  1.00 35.49     0.034 C 
BRANCH   2   3
ATOM      3  CG  ARG D 557     -28.234   1.226 -17.425  1.00 35.49     0.027 C 
BRANCH   3   4
ATOM      4  CD  ARG D 557     -28.868   0.139 -16.643  1.00 35.49     0.116 C 
BRANCH   4   5
ATOM      5  NE  ARG D 557     -27.900  -0.785 -16.116  1.00 35.49    -0.212 N 
ATOM      6  CZ  ARG D 557     -27.822  -2.065 -16.407  1.00 35.49     0.666 C 
ATOM      7  NH1 ARG D 557     -28.664  -2.657 -17.233  1.00 35.49    -0.235 N 
ATOM      8  NH2 ARG D 557     -26.865  -2.749 -15.851  1.00 35.49    -0.235 N 
ATOM      9  HH  ARG D 557     -29.300  -2.225 -17.611  1.00 35.49     0.174 HD
ATOM     10  HH  ARG D 557     -28.563  -3.494 -17.387  1.00 35.49     0.174 HD
ATOM     11  HH  ARG D 557     -26.331  -2.339 -15.327  1.00 35.49     0.174 HD
ATOM     12  HH  ARG D 557     -26.780  -3.577 -16.017  1.00 35.49     0.174 HD
ATOM     13  HE  ARG D 557     -27.362  -0.504 -15.520  1.00 35.49     0.178 HD
ENDBRANCH   4   5
ENDBRANCH   3   4
ENDBRANCH   2   3
ENDBRANCH   1   2
END_RES ARG D 557
BEGIN_RES GLU D 570
REMARK  3 active torsions:
REMARK  status: ('A' for Active; 'I' for Inactive)
REMARK    5  A    between atoms: CA   and  CB  
REMARK    6  A    between atoms: CB   and  CG  
REMARK    7  A    between atoms: CG   and  CD  
ROOT
ATOM     14  CA  GLU D 570     -18.033  -6.348 -13.375  1.00 32.92     0.160 C 
ENDROOT
BRANCH  14  15
ATOM     15  CB  GLU D 570     -19.500  -6.345 -13.794  1.00 32.92     0.043 C 
BRANCH  15  16
ATOM     16  CG  GLU D 570     -20.096  -7.641 -14.208  1.00 32.92     0.100 C 
BRANCH  16  17
ATOM     17  CD  GLU D 570     -20.694  -7.598 -15.595  1.00 32.92     0.185 C 
ATOM     18  OE1 GLU D 570     -21.273  -8.610 -16.036  1.00 32.92    -0.647 OA
ATOM     19  OE2 GLU D 570     -20.567  -6.548 -16.255  1.00 32.92    -0.647 OA
ENDBRANCH  16  17
ENDBRANCH  15  16
ENDBRANCH  14  15
END_RES GLU D 570
ENDMDL
MODEL 4
REMARK VINA RESULT:      -8.1      5.258      8.915
REMARK  15 active torsions:
REMARK  status: ('A' for Active; 'I' for Inactive)
REMARK    1  A    between atoms: CA_2  and  C_3 
REMARK    2  A    between atoms: CA_2  and  N_6 
REMARK    3  A    between atoms: C_3  and  OXT_5 
REMARK       I    between atoms: N_6  and  C_9 
REMARK    4  A    between atoms: C_9  and  C_11 
REMARK    5  A    between atoms: C_11  and  C_12 
REMARK    6  A    between atoms: C_12  and  C_13 
REMARK    7  A    between atoms: C_13  and  C_14 
REMARK    8  A    between atoms: C_14  and  C_15 
REMARK    9  A    between atoms: C_15  and  N_16 
REMARK       I    between atoms: N_16  and  C_17 
REMARK   10  A    between atoms: C_17  and  C_19 
REMARK   11  A    between atoms: C_19  and  C_20 
REMARK   12  A    between atoms: C_19  and  N_28 
REMARK   13  A    between atoms: C_20  and  C_21 
REMARK   14  A    between atoms: C_21  and  C_22 
REMARK   15  A    between atoms: C_22  and  N_23 
REMARK       I    between atoms: C_25  and  N_26 
REMARK       I    between atoms: C_25  and  N_27 
REMARK       I    between atoms: N_28  and  C_29 
ROOT
HETATM    1  N   UNK A   0     -32.626  -4.670 -15.803  1.00  0.00    -0.359 N 
HETATM    2  C   UNK A   0     -31.765  -4.252 -16.798  1.00  0.00     0.240 C 
HETATM    3  O   UNK A   0     -32.019  -3.294 -17.526  1.00  0.00    -0.271 OA
HETATM    4  H   UNK A   0     -32.351  -5.446 -15.211  1.00  0.00     0.162 HD
ENDROOT
BRANCH   2   5
HETATM    5  C   UNK A   0     -30.408  -4.997 -16.837  1.00  0.00     0.176 C 
BRANCH   5   6
HETATM    6  C   UNK A   0     -29.880  -5.196 -15.402  1.00  0.00     0.036 C 
BRANCH   6   7
HETATM    7  C   UNK A   0     -28.805  -6.279 -15.285  1.00  0.00     0.022 C 
BRANCH   7   8
HETATM    8  C   UNK A   0     -27.436  -5.784 -15.743  1.00  0.00     0.121 C 
BRANCH   8   9
HETATM    9  N   UNK A   0     -26.665  -6.942 -16.187  1.00  0.00    -0.372 N 
HETATM   10  C   UNK A   0     -25.397  -6.920 -16.033  1.00  0.00     0.121 C 
HETATM   11  N   UNK A   0     -24.625  -5.935 -15.532  1.00  0.00    -0.279 NA
HETATM   12  N   UNK A   0     -24.655  -7.990 -16.386  1.00  0.00    -0.279 NA
HETATM   13  H   UNK A   0     -25.125  -5.248 -14.981  1.00  0.00     0.126 HD
HETATM   14  H   UNK A   0     -23.786  -6.260 -15.057  1.00  0.00     0.126 HD
HETATM   15  H   UNK A   0     -25.158  -8.587 -17.041  1.00  0.00     0.126 HD
HETATM   16  H   UNK A   0     -23.711  -7.802 -16.677  1.00  0.00     0.126 HD
ATOM     17  HN  UNK A   0     -27.127  -7.748 -16.608  1.00  0.00     0.161 HD
ENDBRANCH   8   9
ENDBRANCH   7   8
ENDBRANCH   6   7
ENDBRANCH   5   6
BRANCH   5  18
HETATM   18  N   UNK A   0     -30.622  -6.271 -17.527  1.00  0.00    -0.348 N 
HETATM   19  C   UNK A   0     -29.690  -6.789 -18.397  1.00  0.00     0.214 C 
HETATM   20  O   UNK A   0     -28.686  -6.180 -18.750  1.00  0.00    -0.274 OA
HETATM   21  C   UNK A   0     -29.983  -8.179 -18.892  1.00  0.00     0.117 C 
HETATM   22  H   UNK A   0     -31.392  -6.848 -17.213  1.00  0.00     0.163 HD
ENDBRANCH   5  18
ENDBRANCH   2   5
BRANCH   1  23
HETATM   23  C   UNK A   0     -33.960  -4.122 -15.654  1.00  0.00     0.122 C 
BRANCH  23  24
HETATM   24  C   UNK A   0     -34.166  -3.424 -14.307  1.00  0.00     0.020 C 
BRANCH  24  25
HETATM   25  C   UNK A   0     -33.898  -4.344 -13.102  1.00  0.00     0.002 C 
BRANCH  25  26
HETATM   26  C   UNK A   0     -33.097  -3.650 -11.999  1.00  0.00     0.009 C 
BRANCH  26  27
HETATM   27  C   UNK A   0     -33.846  -3.543 -10.668  1.00  0.00     0.103 C 
BRANCH  27  28
HETATM   28  C   UNK A   0     -35.233  -2.960 -10.883  1.00  0.00     0.218 C 
ATOM     29  N   ALA A   1     -35.264  -1.640 -11.262  1.00  0.00    -0.347 N 
ATOM     30  H   ALA A   1     -34.409  -1.200 -11.585  1.00  0.00     0.163 HD
HETATM   31  O   UNK A   0     -36.277  -3.605 -10.790  1.00  0.00    -0.274 OA
BRANCH  29  32
ATOM     32  CA  ALA A   1     -36.528  -0.937 -11.455  1.00  0.00     0.178 C 
ATOM     33  CB  ALA A   1     -36.686   0.177 -10.430  1.00  0.00     0.043 C 
BRANCH  32  34
ATOM     34  C   ALA A   1     -36.601  -0.392 -12.880  1.00  0.00     0.163 C 
ATOM     35  O   ALA A   1     -37.454  -0.712 -13.688  1.00  0.00    -0.648 OA
BRANCH  34  36
ATOM     36  OXT ALA A   1     -35.612   0.482 -13.185  1.00  0.00    -0.775 OA
ATOM     37  HXT ALA A   1     -34.838   0.397 -12.585  1.00  0.00     0.167 HD
ENDBRANCH  34  36
ENDBRANCH  32  34
ENDBRANCH  29  32
ENDBRANCH  27  28
ENDBRANCH  26  27
ENDBRANCH  25  26
ENDBRANCH  24  25
ENDBRANCH  23  24
ENDBRANCH   1  23
TORSDOF 15
BEGIN_RES ARG D 557
REMARK  4 active torsions:
REMARK  status: ('A' for Active; 'I' for Inactive)
REMARK    1  A    between atoms: CA   and  CB  
REMARK    2  A    between atoms: CB   and  CG  
REMARK    3  A    between atoms: CG   and  CD  
REMARK    4  A    between atoms: CD   and  NE  
REMARK       I    between atoms: NE   and  CZ  
REMARK       I    between atoms: CZ   and  NH1 
REMARK       I    between atoms: CZ   and  NH2 
ROOT
ATOM      1  CA  ARG D 557     -26.217   2.705 -17.014  1.00 35.49     0.159 C 
ENDROOT
BRANCH   1   2
ATOM      2  CB  ARG D 557     -26.789   1.319 -17.183  1.00 35.49     0.034 C 
BRANCH   2   3
ATOM      3  CG  ARG D 557     -25.864   0.195 -16.996  1.00 35.49     0.027 C 
BRANCH   3   4
ATOM      4  CD  ARG D 557     -26.239  -0.660 -15.847  1.00 35.49     0.116 C 
BRANCH   4   5
ATOM      5  NE  ARG D 557     -25.139  -0.870 -14.944  1.00 35.49    -0.212 N 
ATOM      6  CZ  ARG D 557     -24.839  -2.002 -14.348  1.00 35.49     0.666 C 
ATOM      7  NH1 ARG D 557     -25.553  -3.100 -14.512  1.00 35.49    -0.235 N 
ATOM      8  NH2 ARG D 557     -23.791  -2.015 -13.576  1.00 35.49    -0.235 N 
ATOM      9  HH  ARG D 557     -26.245  -3.115 -15.016  1.00 35.49     0.174 HD
ATOM     10  HH  ARG D 557     -25.308  -3.810 -14.099  1.00 35.49     0.174 HD
ATOM     11  HH  ARG D 557     -23.345  -1.293 -13.495  1.00 35.49     0.174 HD
ATOM     12  HH  ARG D 557     -23.564  -2.728 -13.178  1.00 35.49     0.174 HD
ATOM     13  HE  ARG D 557     -24.669  -0.196 -14.724  1.00 35.49     0.178 HD
ENDBRANCH   4   5
ENDBRANCH   3   4
ENDBRANCH   2   3
ENDBRANCH   1   2
END_RES ARG D 557
BEGIN_RES GLU D 570
REMARK  3 active torsions:
REMARK  status: ('A' for Active; 'I' for Inactive)
REMARK    5  A    between atoms: CA   and  CB  
REMARK    6  A    between atoms: CB   and  CG  
REMARK    7  A    between atoms: CG   and  CD  
ROOT
ATOM     14  CA  GLU D 570     -18.033  -6.348 -13.375  1.00 32.92     0.160 C 
ENDROOT
BRANCH  14  15
ATOM     15  CB  GLU D 570     -19.500  -6.345 -13.794  1.00 32.92     0.043 C 
BRANCH  15  16
ATOM     16  CG  GLU D 570     -20.436  -5.502 -13.005  1.00 32.92     0.100 C 
BRANCH  16  17
ATOM     17  CD  GLU D 570     -21.699  -5.159 -13.760  1.00 32.92     0.185 C 
ATOM     18  OE1 GLU D 570     -22.773  -5.073 -13.134  1.00 32.92    -0.647 OA
ATOM     19  OE2 GLU D 570     -21.616  -4.991 -14.992  1.00 32.92    -0.647 OA
ENDBRANCH  16  17
ENDBRANCH  15  16
ENDBRANCH  14  15
END_RES GLU D 570
ENDMDL
MODEL 5
REMARK VINA RESULT:      -8.1      3.178      5.682
REMARK  15 active torsions:
REMARK  status: ('A' for Active; 'I' for Inactive)
REMARK    1  A    between atoms: CA_2  and  C_3 
REMARK    2  A    between atoms: CA_2  and  N_6 
REMARK    3  A    between atoms: C_3  and  OXT_5 
REMARK       I    between atoms: N_6  and  C_9 
REMARK    4  A    between atoms: C_9  and  C_11 
REMARK    5  A    between atoms: C_11  and  C_12 
REMARK    6  A    between atoms: C_12  and  C_13 
REMARK    7  A    between atoms: C_13  and  C_14 
REMARK    8  A    between atoms: C_14  and  C_15 
REMARK    9  A    between atoms: C_15  and  N_16 
REMARK       I    between atoms: N_16  and  C_17 
REMARK   10  A    between atoms: C_17  and  C_19 
REMARK   11  A    between atoms: C_19  and  C_20 
REMARK   12  A    between atoms: C_19  and  N_28 
REMARK   13  A    between atoms: C_20  and  C_21 
REMARK   14  A    between atoms: C_21  and  C_22 
REMARK   15  A    between atoms: C_22  and  N_23 
REMARK       I    between atoms: C_25  and  N_26 
REMARK       I    between atoms: C_25  and  N_27 
REMARK       I    between atoms: N_28  and  C_29 
ROOT
HETATM    1  N   UNK A   0     -23.288  -3.783 -10.731  1.00  0.00    -0.359 N 
HETATM    2  C   UNK A   0     -22.409  -3.218 -11.635  1.00  0.00     0.240 C 
HETATM    3  O   UNK A   0     -21.364  -2.673 -11.281  1.00  0.00    -0.271 OA
HETATM    4  H   UNK A   0     -24.118  -4.248 -11.081  1.00  0.00     0.162 HD
ENDROOT
BRANCH   2   5
HETATM    5  C   UNK A   0     -22.776  -3.438 -13.123  1.00  0.00     0.176 C 
BRANCH   5   6
HETATM    6  C   UNK A   0     -23.448  -4.815 -13.296  1.00  0.00     0.036 C 
BRANCH   6   7
HETATM    7  C   UNK A   0     -23.227  -5.440 -14.675  1.00  0.00     0.022 C 
BRANCH   7   8
HETATM    8  C   UNK A   0     -24.228  -6.553 -14.971  1.00  0.00     0.121 C 
BRANCH   8   9
HETATM    9  N   UNK A   0     -23.848  -7.174 -16.237  1.00  0.00    -0.372 N 
HETATM   10  C   UNK A   0     -24.621  -7.019 -17.243  1.00  0.00     0.121 C 
HETATM   11  N   UNK A   0     -25.801  -6.371 -17.308  1.00  0.00    -0.279 NA
HETATM   12  N   UNK A   0     -24.281  -7.537 -18.442  1.00  0.00    -0.279 NA
HETATM   13  H   UNK A   0     -25.965  -5.718 -16.551  1.00  0.00     0.126 HD
HETATM   14  H   UNK A   0     -26.001  -5.953 -18.214  1.00  0.00     0.126 HD
HETATM   15  H   UNK A   0     -23.588  -8.277 -18.340  1.00  0.00     0.126 HD
HETATM   16  H   UNK A   0     -25.041  -7.795 -19.047  1.00  0.00     0.126 HD
ATOM     17  HN  UNK A   0     -22.988  -7.716 -16.317  1.00  0.00     0.161 HD
ENDBRANCH   8   9
ENDBRANCH   7   8
ENDBRANCH   6   7
ENDBRANCH   5   6
BRANCH   5  18
HETATM   18  N   UNK A   0     -23.658  -2.341 -13.529  1.00  0.00    -0.348 N 
HETATM   19  C   UNK A   0     -23.548  -1.744 -14.763  1.00  0.00     0.214 C 
HETATM   20  O   UNK A   0     -22.646  -1.992 -15.555  1.00  0.00    -0.274 OA
HETATM   21  C   UNK A   0     -24.630  -0.750 -15.089  1.00  0.00     0.117 C 
HETATM   22  H   UNK A   0     -24.465  -2.152 -12.947  1.00  0.00     0.163 HD
ENDBRANCH   5  18
ENDBRANCH   2   5
BRANCH   1  23
HETATM   23  C   UNK A   0     -23.129  -3.628  -9.298  1.00  0.00     0.122 C 
BRANCH  23  24
HETATM   24  C   UNK A   0     -22.240  -4.711  -8.681  1.00  0.00     0.020 C 
BRANCH  24  25
HETATM   25  C   UNK A   0     -21.880  -4.431  -7.210  1.00  0.00     0.002 C 
BRANCH  25  26
HETATM   26  C   UNK A   0     -20.913  -5.468  -6.634  1.00  0.00     0.009 C 
BRANCH  26  27
HETATM   27  C   UNK A   0     -20.560  -5.229  -5.163  1.00  0.00     0.103 C 
BRANCH  27  28
HETATM   28  C   UNK A   0     -21.253  -6.250  -4.276  1.00  0.00     0.218 C 
ATOM     29  N   ALA A   1     -20.648  -7.482  -4.216  1.00  0.00    -0.347 N 
ATOM     30  H   ALA A   1     -19.701  -7.584  -4.563  1.00  0.00     0.163 HD
HETATM   31  O   UNK A   0     -22.252  -6.013  -3.599  1.00  0.00    -0.274 OA
BRANCH  29  32
ATOM     32  CA  ALA A   1     -21.231  -8.573  -3.443  1.00  0.00     0.178 C 
ATOM     33  CB  ALA A   1     -21.409  -9.812  -4.309  1.00  0.00     0.043 C 
BRANCH  32  34
ATOM     34  C   ALA A   1     -20.352  -8.870  -2.228  1.00  0.00     0.163 C 
ATOM     35  O   ALA A   1     -19.394  -9.621  -2.248  1.00  0.00    -0.648 OA
BRANCH  34  36
ATOM     36  OXT ALA A   1     -20.742  -8.230  -1.099  1.00  0.00    -0.775 OA
ATOM     37  HXT ALA A   1     -21.148  -8.841  -0.443  1.00  0.00     0.167 HD
ENDBRANCH  34  36
ENDBRANCH  32  34
ENDBRANCH  29  32
ENDBRANCH  27  28
ENDBRANCH  26  27
ENDBRANCH  25  26
ENDBRANCH  24  25
ENDBRANCH  23  24
ENDBRANCH   1  23
TORSDOF 15
BEGIN_RES ARG D 557
REMARK  4 active torsions:
REMARK  status: ('A' for Active; 'I' for Inactive)
REMARK    1  A    between atoms: CA   and  CB  
REMARK    2  A    between atoms: CB   and  CG  
REMARK    3  A    between atoms: CG   and  CD  
REMARK    4  A    between atoms: CD   and  NE  
REMARK       I    between atoms: NE   and  CZ  
REMARK       I    between atoms: CZ   and  NH1 
REMARK       I    between atoms: CZ   and  NH2 
ROOT
ATOM      1  CA  ARG D 557     -26.217   2.705 -17.014  1.00 35.49     0.159 C 
ENDROOT
BRANCH   1   2
ATOM      2  CB  ARG D 557     -26.789   1.319 -17.183  1.00 35.49     0.034 C 
BRANCH   2   3
ATOM      3  CG  ARG D 557     -28.133   1.088 -16.640  1.00 35.49     0.027 C 
BRANCH   3   4
ATOM      4  CD  ARG D 557     -28.704  -0.206 -17.078  1.00 35.49     0.116 C 
BRANCH   4   5
ATOM      5  NE  ARG D 557     -27.973  -1.328 -16.551  1.00 35.49    -0.212 N 
ATOM      6  CZ  ARG D 557     -28.232  -2.594 -16.790  1.00 35.49     0.666 C 
ATOM      7  NH1 ARG D 557     -29.236  -2.980 -17.556  1.00 35.49    -0.235 N 
ATOM      8  NH2 ARG D 557     -27.451  -3.480 -16.244  1.00 35.49    -0.235 N 
ATOM      9  HH  ARG D 557     -29.762  -2.414 -17.927  1.00 35.49     0.174 HD
ATOM     10  HH  ARG D 557     -29.355  -3.820 -17.678  1.00 35.49     0.174 HD
ATOM     11  HH  ARG D 557     -26.806  -3.201 -15.761  1.00 35.49     0.174 HD
ATOM     12  HH  ARG D 557     -27.584  -4.307 -16.379  1.00 35.49     0.174 HD
ATOM     13  HE  ARG D 557     -27.354  -1.173 -15.989  1.00 35.49     0.178 HD
ENDBRANCH   4   5
ENDBRANCH   3   4
ENDBRANCH   2   3
ENDBRANCH   1   2
END_RES ARG D 557
BEGIN_RES GLU D 570
REMARK  3 active torsions:
REMARK  status: ('A' for Active; 'I' for Inactive)
REMARK    5  A    between atoms: CA   and  CB  
REMARK    6  A    between atoms: CB   and  CG  
REMARK    7  A    between atoms: CG   and  CD  
ROOT
ATOM     14  CA  GLU D 570     -18.033  -6.348 -13.375  1.00 32.92     0.160 C 
ENDROOT
BRANCH  14  15
ATOM     15  CB  GLU D 570     -19.500  -6.345 -13.794  1.00 32.92     0.043 C 
BRANCH  15  16
ATOM     16  CG  GLU D 570     -20.108  -7.648 -14.168  1.00 32.92     0.100 C 
BRANCH  16  17
ATOM     17  CD  GLU D 570     -20.621  -7.672 -15.589  1.00 32.92     0.185 C 
ATOM     18  OE1 GLU D 570     -21.099  -8.730 -16.042  1.00 32.92    -0.647 OA
ATOM     19  OE2 GLU D 570     -20.530  -6.627 -16.262  1.00 32.92    -0.647 OA
ENDBRANCH  16  17
ENDBRANCH  15  16
ENDBRANCH  14  15
END_RES GLU D 570
ENDMDL
MODEL 6
REMARK VINA RESULT:      -8.0      2.196      2.794
REMARK  15 active torsions:
REMARK  status: ('A' for Active; 'I' for Inactive)
REMARK    1  A    between atoms: CA_2  and  C_3 
REMARK    2  A    between atoms: CA_2  and  N_6 
REMARK    3  A    between atoms: C_3  and  OXT_5 
REMARK       I    between atoms: N_6  and  C_9 
REMARK    4  A    between atoms: C_9  and  C_11 
REMARK    5  A    between atoms: C_11  and  C_12 
REMARK    6  A    between atoms: C_12  and  C_13 
REMARK    7  A    between atoms: C_13  and  C_14 
REMARK    8  A    between atoms: C_14  and  C_15 
REMARK    9  A    between atoms: C_15  and  N_16 
REMARK       I    between atoms: N_16  and  C_17 
REMARK   10  A    between atoms: C_17  and  C_19 
REMARK   11  A    between atoms: C_19  and  C_20 
REMARK   12  A    between atoms: C_19  and  N_28 
REMARK   13  A    between atoms: C_20  and  C_21 
REMARK   14  A    between atoms: C_21  and  C_22 
REMARK   15  A    between atoms: C_22  and  N_23 
REMARK       I    between atoms: C_25  and  N_26 
REMARK       I    between atoms: C_25  and  N_27 
REMARK       I    between atoms: N_28  and  C_29 
ROOT
HETATM    1  N   UNK A   0     -26.726  -5.308 -16.080  1.00  0.00    -0.359 N 
HETATM    2  C   UNK A   0     -27.598  -4.344 -16.546  1.00  0.00     0.240 C 
HETATM    3  O   UNK A   0     -27.523  -3.167 -16.198  1.00  0.00    -0.271 OA
HETATM    4  H   UNK A   0     -26.813  -6.257 -16.425  1.00  0.00     0.162 HD
ENDROOT
BRANCH   2   5
HETATM    5  C   UNK A   0     -28.587  -4.834 -17.632  1.00  0.00     0.176 C 
BRANCH   5   6
HETATM    6  C   UNK A   0     -28.065  -6.142 -18.261  1.00  0.00     0.036 C 
BRANCH   6   7
HETATM    7  C   UNK A   0     -27.542  -5.973 -19.690  1.00  0.00     0.022 C 
BRANCH   7   8
HETATM    8  C   UNK A   0     -26.389  -6.923 -19.998  1.00  0.00     0.121 C 
BRANCH   8   9
HETATM    9  N   UNK A   0     -25.369  -6.739 -18.967  1.00  0.00    -0.372 N 
HETATM   10  C   UNK A   0     -24.212  -7.242 -19.165  1.00  0.00     0.121 C 
HETATM   11  N   UNK A   0     -23.778  -7.976 -20.209  1.00  0.00    -0.279 NA
HETATM   12  N   UNK A   0     -23.230  -7.054 -18.259  1.00  0.00    -0.279 NA
HETATM   13  H   UNK A   0     -24.348  -7.900 -21.042  1.00  0.00     0.126 HD
HETATM   14  H   UNK A   0     -22.789  -7.864 -20.419  1.00  0.00     0.126 HD
HETATM   15  H   UNK A   0     -23.612  -6.795 -17.350  1.00  0.00     0.126 HD
HETATM   16  H   UNK A   0     -22.535  -7.778 -18.197  1.00  0.00     0.126 HD
ATOM     17  HN  UNK A   0     -25.577  -6.223 -18.112  1.00  0.00     0.161 HD
ENDBRANCH   8   9
ENDBRANCH   7   8
ENDBRANCH   6   7
ENDBRANCH   5   6
BRANCH   5  18
HETATM   18  N   UNK A   0     -29.893  -5.015 -16.994  1.00  0.00    -0.348 N 
HETATM   19  C   UNK A   0     -30.947  -4.170 -17.251  1.00  0.00     0.214 C 
HETATM   20  O   UNK A   0     -30.846  -3.149 -17.924  1.00  0.00    -0.274 OA
HETATM   21  C   UNK A   0     -32.261  -4.587 -16.647  1.00  0.00     0.117 C 
HETATM   22  H   UNK A   0     -30.052  -5.881 -16.494  1.00  0.00     0.163 HD
ENDBRANCH   5  18
ENDBRANCH   2   5
BRANCH   1  23
HETATM   23  C   UNK A   0     -25.770  -5.039 -15.023  1.00  0.00     0.122 C 
BRANCH  23  24
HETATM   24  C   UNK A   0     -24.361  -5.535 -15.359  1.00  0.00     0.020 C 
BRANCH  24  25
HETATM   25  C   UNK A   0     -23.677  -6.256 -14.183  1.00  0.00     0.002 C 
BRANCH  25  26
HETATM   26  C   UNK A   0     -23.534  -5.363 -12.949  1.00  0.00     0.009 C 
BRANCH  26  27
HETATM   27  C   UNK A   0     -22.184  -4.647 -12.861  1.00  0.00     0.103 C 
BRANCH  27  28
HETATM   28  C   UNK A   0     -22.115  -3.790 -11.608  1.00  0.00     0.218 C 
ATOM     29  N   ALA A   1     -22.101  -4.484 -10.422  1.00  0.00    -0.347 N 
ATOM     30  H   ALA A   1     -21.918  -5.481 -10.436  1.00  0.00     0.163 HD
HETATM   31  O   UNK A   0     -22.019  -2.564 -11.613  1.00  0.00    -0.274 OA
BRANCH  29  32
ATOM     32  CA  ALA A   1     -22.087  -3.789  -9.139  1.00  0.00     0.178 C 
ATOM     33  CB  ALA A   1     -23.351  -4.093  -8.348  1.00  0.00     0.043 C 
BRANCH  32  34
ATOM     34  C   ALA A   1     -20.836  -4.182  -8.354  1.00  0.00     0.163 C 
ATOM     35  O   ALA A   1     -19.798  -4.552  -8.871  1.00  0.00    -0.648 OA
BRANCH  34  36
ATOM     36  OXT ALA A   1     -20.983  -4.100  -7.010  1.00  0.00    -0.775 OA
ATOM     37  HXT ALA A   1     -20.164  -3.793  -6.560  1.00  0.00     0.167 HD
ENDBRANCH  34  36
ENDBRANCH  32  34
ENDBRANCH  29  32
ENDBRANCH  27  28
ENDBRANCH  26  27
ENDBRANCH  25  26
ENDBRANCH  24  25
ENDBRANCH  23  24
ENDBRANCH   1  23
TORSDOF 15
BEGIN_RES ARG D 557
REMARK  4 active torsions:
REMARK  status: ('A' for Active; 'I' for Inactive)
REMARK    1  A    between atoms: CA   and  CB  
REMARK    2  A    between atoms: CB   and  CG  
REMARK    3  A    between atoms: CG   and  CD  
REMARK    4  A    between atoms: CD   and  NE  
REMARK       I    between atoms: NE   and  CZ  
REMARK       I    between atoms: CZ   and  NH1 
REMARK       I    between atoms: CZ   and  NH2 
ROOT
ATOM      1  CA  ARG D 557     -26.217   2.705 -17.014  1.00 35.49     0.159 C 
ENDROOT
BRANCH   1   2
ATOM      2  CB  ARG D 557     -26.789   1.319 -17.183  1.00 35.49     0.034 C 
BRANCH   2   3
ATOM      3  CG  ARG D 557     -25.834   0.204 -17.168  1.00 35.49     0.027 C 
BRANCH   3   4
ATOM      4  CD  ARG D 557     -24.750   0.403 -16.180  1.00 35.49     0.116 C 
BRANCH   4   5
ATOM      5  NE  ARG D 557     -24.925  -0.417 -15.010  1.00 35.49    -0.212 N 
ATOM      6  CZ  ARG D 557     -24.142  -1.406 -14.641  1.00 35.49     0.666 C 
ATOM      7  NH1 ARG D 557     -23.084  -1.772 -15.340  1.00 35.49    -0.235 N 
ATOM      8  NH2 ARG D 557     -24.441  -2.028 -13.538  1.00 35.49    -0.235 N 
ATOM      9  HH  ARG D 557     -22.867  -1.375 -16.068  1.00 35.49     0.174 HD
ATOM     10  HH  ARG D 557     -22.609  -2.423 -15.049  1.00 35.49     0.174 HD
ATOM     11  HH  ARG D 557     -25.126  -1.765 -13.103  1.00 35.49     0.174 HD
ATOM     12  HH  ARG D 557     -23.957  -2.669 -13.265  1.00 35.49     0.174 HD
ATOM     13  HE  ARG D 557     -25.623  -0.297 -14.540  1.00 35.49     0.178 HD
ENDBRANCH   4   5
ENDBRANCH   3   4
ENDBRANCH   2   3
ENDBRANCH   1   2
END_RES ARG D 557
BEGIN_RES GLU D 570
REMARK  3 active torsions:
REMARK  status: ('A' for Active; 'I' for Inactive)
REMARK    5  A    between atoms: CA   and  CB  
REMARK    6  A    between atoms: CB   and  CG  
REMARK    7  A    between atoms: CG   and  CD  
ROOT
ATOM     14  CA  GLU D 570     -18.033  -6.348 -13.375  1.00 32.92     0.160 C 
ENDROOT
BRANCH  14  15
ATOM     15  CB  GLU D 570     -19.500  -6.345 -13.794  1.00 32.92     0.043 C 
BRANCH  15  16
ATOM     16  CG  GLU D 570     -20.071  -7.621 -14.298  1.00 32.92     0.100 C 
BRANCH  16  17
ATOM     17  CD  GLU D 570     -20.708  -7.484 -15.661  1.00 32.92     0.185 C 
ATOM     18  OE1 GLU D 570     -20.728  -6.366 -16.210  1.00 32.92    -0.647 OA
ATOM     19  OE2 GLU D 570     -21.208  -8.503 -16.177  1.00 32.92    -0.647 OA
ENDBRANCH  16  17
ENDBRANCH  15  16
ENDBRANCH  14  15
END_RES GLU D 570
ENDMDL
MODEL 7
REMARK VINA RESULT:      -7.9      4.559     11.060
REMARK  15 active torsions:
REMARK  status: ('A' for Active; 'I' for Inactive)
REMARK    1  A    between atoms: CA_2  and  C_3 
REMARK    2  A    between atoms: CA_2  and  N_6 
REMARK    3  A    between atoms: C_3  and  OXT_5 
REMARK       I    between atoms: N_6  and  C_9 
REMARK    4  A    between atoms: C_9  and  C_11 
REMARK    5  A    between atoms: C_11  and  C_12 
REMARK    6  A    between atoms: C_12  and  C_13 
REMARK    7  A    between atoms: C_13  and  C_14 
REMARK    8  A    between atoms: C_14  and  C_15 
REMARK    9  A    between atoms: C_15  and  N_16 
REMARK       I    between atoms: N_16  and  C_17 
REMARK   10  A    between atoms: C_17  and  C_19 
REMARK   11  A    between atoms: C_19  and  C_20 
REMARK   12  A    between atoms: C_19  and  N_28 
REMARK   13  A    between atoms: C_20  and  C_21 
REMARK   14  A    between atoms: C_21  and  C_22 
REMARK   15  A    between atoms: C_22  and  N_23 
REMARK       I    between atoms: C_25  and  N_26 
REMARK       I    between atoms: C_25  and  N_27 
REMARK       I    between atoms: N_28  and  C_29 
ROOT
HETATM    1  N   UNK A   0     -20.644  -7.321  -6.392  1.00  0.00    -0.359 N 
HETATM    2  C   UNK A   0     -21.248  -7.847  -5.266  1.00  0.00     0.240 C 
HETATM    3  O   UNK A   0     -22.202  -7.298  -4.717  1.00  0.00    -0.271 OA
HETATM    4  H   UNK A   0     -19.882  -7.832  -6.822  1.00  0.00     0.162 HD
ENDROOT
BRANCH   2   5
HETATM    5  C   UNK A   0     -20.717  -9.236  -4.833  1.00  0.00     0.176 C 
BRANCH   5   6
HETATM    6  C   UNK A   0     -21.354  -9.642  -3.489  1.00  0.00     0.036 C 
BRANCH   6   7
HETATM    7  C   UNK A   0     -20.350  -9.755  -2.340  1.00  0.00     0.022 C 
BRANCH   7   8
HETATM    8  C   UNK A   0     -20.651  -8.773  -1.212  1.00  0.00     0.121 C 
BRANCH   8   9
HETATM    9  N   UNK A   0     -21.043  -7.502  -1.817  1.00  0.00    -0.372 N 
HETATM   10  C   UNK A   0     -22.059  -6.893  -1.339  1.00  0.00     0.121 C 
HETATM   11  N   UNK A   0     -22.880  -7.275  -0.340  1.00  0.00    -0.279 NA
HETATM   12  N   UNK A   0     -22.424  -5.693  -1.838  1.00  0.00    -0.279 NA
HETATM   13  H   UNK A   0     -22.498  -7.991   0.266  1.00  0.00     0.126 HD
HETATM   14  H   UNK A   0     -23.279  -6.506   0.192  1.00  0.00     0.126 HD
HETATM   15  H   UNK A   0     -22.034  -5.548  -2.769  1.00  0.00     0.126 HD
HETATM   16  H   UNK A   0     -23.402  -5.468  -1.786  1.00  0.00     0.126 HD
ATOM     17  HN  UNK A   0     -20.520  -7.112  -2.600  1.00  0.00     0.161 HD
ENDBRANCH   8   9
ENDBRANCH   7   8
ENDBRANCH   6   7
ENDBRANCH   5   6
BRANCH   5  18
HETATM   18  N   UNK A   0     -21.036 -10.185  -5.902  1.00  0.00    -0.348 N 
HETATM   19  C   UNK A   0     -20.381 -11.389  -6.020  1.00  0.00     0.214 C 
HETATM   20  O   UNK A   0     -19.416 -11.703  -5.330  1.00  0.00    -0.274 OA
HETATM   21  C   UNK A   0     -20.937 -12.319  -7.064  1.00  0.00     0.117 C 
HETATM   22  H   UNK A   0     -21.872 -10.012  -6.446  1.00  0.00     0.163 HD
ENDBRANCH   5  18
ENDBRANCH   2   5
BRANCH   1  23
HETATM   23  C   UNK A   0     -20.977  -6.007  -6.905  1.00  0.00     0.122 C 
BRANCH  23  24
HETATM   24  C   UNK A   0     -19.824  -5.009  -6.772  1.00  0.00     0.020 C 
BRANCH  24  25
HETATM   25  C   UNK A   0     -19.654  -4.112  -8.012  1.00  0.00     0.002 C 
BRANCH  25  26
HETATM   26  C   UNK A   0     -20.219  -4.752  -9.282  1.00  0.00     0.009 C 
BRANCH  26  27
HETATM   27  C   UNK A   0     -20.446  -3.757 -10.423  1.00  0.00     0.103 C 
BRANCH  27  28
HETATM   28  C   UNK A   0     -21.736  -4.077 -11.161  1.00  0.00     0.218 C 
ATOM     29  N   ALA A   1     -21.851  -3.519 -12.411  1.00  0.00    -0.347 N 
ATOM     30  H   ALA A   1     -21.027  -3.129 -12.854  1.00  0.00     0.163 HD
HETATM   31  O   UNK A   0     -22.613  -4.824 -10.730  1.00  0.00    -0.274 OA
BRANCH  29  32
ATOM     32  CA  ALA A   1     -23.057  -3.700 -13.212  1.00  0.00     0.178 C 
ATOM     33  CB  ALA A   1     -24.154  -2.748 -12.759  1.00  0.00     0.043 C 
BRANCH  32  34
ATOM     34  C   ALA A   1     -22.727  -3.500 -14.691  1.00  0.00     0.163 C 
ATOM     35  O   ALA A   1     -22.746  -2.419 -15.251  1.00  0.00    -0.648 OA
BRANCH  34  36
ATOM     36  OXT ALA A   1     -22.422  -4.646 -15.346  1.00  0.00    -0.775 OA
ATOM     37  HXT ALA A   1     -23.223  -5.139 -15.633  1.00  0.00     0.167 HD
ENDBRANCH  34  36
ENDBRANCH  32  34
ENDBRANCH  29  32
ENDBRANCH  27  28
ENDBRANCH  26  27
ENDBRANCH  25  26
ENDBRANCH  24  25
ENDBRANCH  23  24
ENDBRANCH   1  23
TORSDOF 15
BEGIN_RES ARG D 557
REMARK  4 active torsions:
REMARK  status: ('A' for Active; 'I' for Inactive)
REMARK    1  A    between atoms: CA   and  CB  
REMARK    2  A    between atoms: CB   and  CG  
REMARK    3  A    between atoms: CG   and  CD  
REMARK    4  A    between atoms: CD   and  NE  
REMARK       I    between atoms: NE   and  CZ  
REMARK       I    between atoms: CZ   and  NH1 
REMARK       I    between atoms: CZ   and  NH2 
ROOT
ATOM      1  CA  ARG D 557     -26.217   2.705 -17.014  1.00 35.49     0.159 C 
ENDROOT
BRANCH   1   2
ATOM      2  CB  ARG D 557     -26.789   1.319 -17.183  1.00 35.49     0.034 C 
BRANCH   2   3
ATOM      3  CG  ARG D 557     -28.183   1.124 -16.766  1.00 35.49     0.027 C 
BRANCH   3   4
ATOM      4  CD  ARG D 557     -28.575  -0.304 -16.757  1.00 35.49     0.116 C 
BRANCH   4   5
ATOM      5  NE  ARG D 557     -27.616  -1.125 -16.065  1.00 35.49    -0.212 N 
ATOM      6  CZ  ARG D 557     -27.514  -2.431 -16.160  1.00 35.49     0.666 C 
ATOM      7  NH1 ARG D 557     -28.320  -3.153 -16.917  1.00 35.49    -0.235 N 
ATOM      8  NH2 ARG D 557     -26.570  -3.011 -15.476  1.00 35.49    -0.235 N 
ATOM      9  HH  ARG D 557     -28.947  -2.792 -17.376  1.00 35.49     0.174 HD
ATOM     10  HH  ARG D 557     -28.204  -4.002 -16.941  1.00 35.49     0.174 HD
ATOM     11  HH  ARG D 557     -26.059  -2.519 -15.002  1.00 35.49     0.174 HD
ATOM     12  HH  ARG D 557     -26.470  -3.852 -15.515  1.00 35.49     0.174 HD
ATOM     13  HE  ARG D 557     -27.103  -0.750 -15.500  1.00 35.49     0.178 HD
ENDBRANCH   4   5
ENDBRANCH   3   4
ENDBRANCH   2   3
ENDBRANCH   1   2
END_RES ARG D 557
BEGIN_RES GLU D 570
REMARK  3 active torsions:
REMARK  status: ('A' for Active; 'I' for Inactive)
REMARK    5  A    between atoms: CA   and  CB  
REMARK    6  A    between atoms: CB   and  CG  
REMARK    7  A    between atoms: CG   and  CD  
ROOT
ATOM     14  CA  GLU D 570     -18.033  -6.348 -13.375  1.00 32.92     0.160 C 
ENDROOT
BRANCH  14  15
ATOM     15  CB  GLU D 570     -19.500  -6.345 -13.794  1.00 32.92     0.043 C 
BRANCH  15  16
ATOM     16  CG  GLU D 570     -20.087  -7.635 -14.239  1.00 32.92     0.100 C 
BRANCH  16  17
ATOM     17  CD  GLU D 570     -20.532  -7.614 -15.683  1.00 32.92     0.185 C 
ATOM     18  OE1 GLU D 570     -20.594  -6.522 -16.281  1.00 32.92    -0.647 OA
ATOM     19  OE2 GLU D 570     -20.837  -8.698 -16.217  1.00 32.92    -0.647 OA
ENDBRANCH  16  17
ENDBRANCH  15  16
ENDBRANCH  14  15
END_RES GLU D 570
ENDMDL
MODEL 8
REMARK VINA RESULT:      -7.8      4.012      7.081
REMARK  15 active torsions:
REMARK  status: ('A' for Active; 'I' for Inactive)
REMARK    1  A    between atoms: CA_2  and  C_3 
REMARK    2  A    between atoms: CA_2  and  N_6 
REMARK    3  A    between atoms: C_3  and  OXT_5 
REMARK       I    between atoms: N_6  and  C_9 
REMARK    4  A    between atoms: C_9  and  C_11 
REMARK    5  A    between atoms: C_11  and  C_12 
REMARK    6  A    between atoms: C_12  and  C_13 
REMARK    7  A    between atoms: C_13  and  C_14 
REMARK    8  A    between atoms: C_14  and  C_15 
REMARK    9  A    between atoms: C_15  and  N_16 
REMARK       I    between atoms: N_16  and  C_17 
REMARK   10  A    between atoms: C_17  and  C_19 
REMARK   11  A    between atoms: C_19  and  C_20 
REMARK   12  A    between atoms: C_19  and  N_28 
REMARK   13  A    between atoms: C_20  and  C_21 
REMARK   14  A    between atoms: C_21  and  C_22 
REMARK   15  A    between atoms: C_22  and  N_23 
REMARK       I    between atoms: C_25  and  N_26 
REMARK       I    between atoms: C_25  and  N_27 
REMARK       I    between atoms: N_28  and  C_29 
ROOT
HETATM    1  N   UNK A   0     -20.963  -4.463  -9.501  1.00  0.00    -0.359 N 
HETATM    2  C   UNK A   0     -20.938  -4.108 -10.836  1.00  0.00     0.240 C 
HETATM    3  O   UNK A   0     -19.899  -4.102 -11.494  1.00  0.00    -0.271 OA
HETATM    4  H   UNK A   0     -21.853  -4.481  -9.016  1.00  0.00     0.162 HD
ENDROOT
BRANCH   2   5
HETATM    5  C   UNK A   0     -22.329  -3.848 -11.465  1.00  0.00     0.176 C 
BRANCH   5   6
HETATM    6  C   UNK A   0     -22.712  -5.021 -12.389  1.00  0.00     0.036 C 
BRANCH   6   7
HETATM    7  C   UNK A   0     -23.007  -4.599 -13.831  1.00  0.00     0.022 C 
BRANCH   7   8
HETATM    8  C   UNK A   0     -22.574  -3.164 -14.111  1.00  0.00     0.121 C 
BRANCH   8   9
HETATM    9  N   UNK A   0     -23.770  -2.326 -14.109  1.00  0.00    -0.372 N 
HETATM   10  C   UNK A   0     -23.828  -1.351 -14.932  1.00  0.00     0.121 C 
HETATM   11  N   UNK A   0     -22.901  -0.940 -15.820  1.00  0.00    -0.279 NA
HETATM   12  N   UNK A   0     -24.936  -0.583 -14.993  1.00  0.00    -0.279 NA
HETATM   13  H   UNK A   0     -22.193  -1.631 -16.039  1.00  0.00     0.126 HD
HETATM   14  H   UNK A   0     -23.283  -0.514 -16.661  1.00  0.00     0.126 HD
HETATM   15  H   UNK A   0     -25.490  -0.669 -14.143  1.00  0.00     0.126 HD
HETATM   16  H   UNK A   0     -24.801   0.372 -15.276  1.00  0.00     0.126 HD
ATOM     17  HN  UNK A   0     -24.539  -2.514 -13.465  1.00  0.00     0.161 HD
ENDBRANCH   8   9
ENDBRANCH   7   8
ENDBRANCH   6   7
ENDBRANCH   5   6
BRANCH   5  18
HETATM   18  N   UNK A   0     -23.286  -3.677 -10.369  1.00  0.00    -0.348 N 
HETATM   19  C   UNK A   0     -24.597  -3.332 -10.600  1.00  0.00     0.214 C 
HETATM   20  O   UNK A   0     -25.030  -3.028 -11.707  1.00  0.00    -0.274 OA
HETATM   21  C   UNK A   0     -25.488  -3.359  -9.387  1.00  0.00     0.117 C 
HETATM   22  H   UNK A   0     -23.002  -3.990  -9.449  1.00  0.00     0.163 HD
ENDBRANCH   5  18
ENDBRANCH   2   5
BRANCH   1  23
HETATM   23  C   UNK A   0     -19.751  -4.689  -8.739  1.00  0.00     0.122 C 
BRANCH  23  24
HETATM   24  C   UNK A   0     -19.929  -4.408  -7.245  1.00  0.00     0.020 C 
BRANCH  24  25
HETATM   25  C   UNK A   0     -21.213  -5.028  -6.662  1.00  0.00     0.002 C 
BRANCH  25  26
HETATM   26  C   UNK A   0     -20.936  -6.292  -5.845  1.00  0.00     0.009 C 
BRANCH  26  27
HETATM   27  C   UNK A   0     -21.745  -6.375  -4.548  1.00  0.00     0.103 C 
BRANCH  27  28
HETATM   28  C   UNK A   0     -21.155  -7.421  -3.617  1.00  0.00     0.218 C 
ATOM     29  N   ALA A   1     -21.804  -7.571  -2.416  1.00  0.00    -0.347 N 
ATOM     30  H   ALA A   1     -22.727  -7.166  -2.300  1.00  0.00     0.163 HD
HETATM   31  O   UNK A   0     -20.201  -8.143  -3.903  1.00  0.00    -0.274 OA
BRANCH  29  32
ATOM     32  CA  ALA A   1     -21.318  -8.504  -1.404  1.00  0.00     0.178 C 
ATOM     33  CB  ALA A   1     -21.574  -7.962  -0.005  1.00  0.00     0.043 C 
BRANCH  32  34
ATOM     34  C   ALA A   1     -21.982  -9.866  -1.599  1.00  0.00     0.163 C 
ATOM     35  O   ALA A   1     -22.979 -10.229  -1.003  1.00  0.00    -0.648 OA
BRANCH  34  36
ATOM     36  OXT ALA A   1     -21.348 -10.662  -2.494  1.00  0.00    -0.775 OA
ATOM     37  HXT ALA A   1     -20.465 -10.311  -2.749  1.00  0.00     0.167 HD
ENDBRANCH  34  36
ENDBRANCH  32  34
ENDBRANCH  29  32
ENDBRANCH  27  28
ENDBRANCH  26  27
ENDBRANCH  25  26
ENDBRANCH  24  25
ENDBRANCH  23  24
ENDBRANCH   1  23
TORSDOF 15
BEGIN_RES ARG D 557
REMARK  4 active torsions:
REMARK  status: ('A' for Active; 'I' for Inactive)
REMARK    1  A    between atoms: CA   and  CB  
REMARK    2  A    between atoms: CB   and  CG  
REMARK    3  A    between atoms: CG   and  CD  
REMARK    4  A    between atoms: CD   and  NE  
REMARK       I    between atoms: NE   and  CZ  
REMARK       I    between atoms: CZ   and  NH1 
REMARK       I    between atoms: CZ   and  NH2 
ROOT
ATOM      1  CA  ARG D 557     -26.217   2.705 -17.014  1.00 35.49     0.159 C 
ENDROOT
BRANCH   1   2
ATOM      2  CB  ARG D 557     -26.789   1.319 -17.183  1.00 35.49     0.034 C 
BRANCH   2   3
ATOM      3  CG  ARG D 557     -28.235   1.225 -17.417  1.00 35.49     0.027 C 
BRANCH   3   4
ATOM      4  CD  ARG D 557     -28.899   0.290 -16.480  1.00 35.49     0.116 C 
BRANCH   4   5
ATOM      5  NE  ARG D 557     -29.240  -0.958 -17.110  1.00 35.49    -0.212 N 
ATOM      6  CZ  ARG D 557     -28.572  -2.084 -16.994  1.00 35.49     0.666 C 
ATOM      7  NH1 ARG D 557     -27.471  -2.185 -16.272  1.00 35.49    -0.235 N 
ATOM      8  NH2 ARG D 557     -29.038  -3.126 -17.619  1.00 35.49    -0.235 N 
ATOM      9  HH  ARG D 557     -27.147  -1.513 -15.850  1.00 35.49     0.174 HD
ATOM     10  HH  ARG D 557     -27.079  -2.946 -16.231  1.00 35.49     0.174 HD
ATOM     11  HH  ARG D 557     -29.755  -3.033 -18.072  1.00 35.49     0.174 HD
ATOM     12  HH  ARG D 557     -28.637  -3.871 -17.565  1.00 35.49     0.174 HD
ATOM     13  HE  ARG D 557     -29.894  -0.966 -17.652  1.00 35.49     0.178 HD
ENDBRANCH   4   5
ENDBRANCH   3   4
ENDBRANCH   2   3
ENDBRANCH   1   2
END_RES ARG D 557
BEGIN_RES GLU D 570
REMARK  3 active torsions:
REMARK  status: ('A' for Active; 'I' for Inactive)
REMARK    5  A    between atoms: CA   and  CB  
REMARK    6  A    between atoms: CB   and  CG  
REMARK    7  A    between atoms: CG   and  CD  
ROOT
ATOM     14  CA  GLU D 570     -18.033  -6.348 -13.375  1.00 32.92     0.160 C 
ENDROOT
BRANCH  14  15
ATOM     15  CB  GLU D 570     -19.500  -6.345 -13.794  1.00 32.92     0.043 C 
BRANCH  15  16
ATOM     16  CG  GLU D 570     -19.796  -6.281 -15.248  1.00 32.92     0.100 C 
BRANCH  16  17
ATOM     17  CD  GLU D 570     -20.810  -7.310 -15.690  1.00 32.92     0.185 C 
ATOM     18  OE1 GLU D 570     -21.893  -6.925 -16.172  1.00 32.92    -0.647 OA
ATOM     19  OE2 GLU D 570     -20.526  -8.514 -15.535  1.00 32.92    -0.647 OA
ENDBRANCH  16  17
ENDBRANCH  15  16
ENDBRANCH  14  15
END_RES GLU D 570
ENDMDL
MODEL 9
REMARK VINA RESULT:      -7.8      4.850      8.992
REMARK  15 active torsions:
REMARK  status: ('A' for Active; 'I' for Inactive)
REMARK    1  A    between atoms: CA_2  and  C_3 
REMARK    2  A    between atoms: CA_2  and  N_6 
REMARK    3  A    between atoms: C_3  and  OXT_5 
REMARK       I    between atoms: N_6  and  C_9 
REMARK    4  A    between atoms: C_9  and  C_11 
REMARK    5  A    between atoms: C_11  and  C_12 
REMARK    6  A    between atoms: C_12  and  C_13 
REMARK    7  A    between atoms: C_13  and  C_14 
REMARK    8  A    between atoms: C_14  and  C_15 
REMARK    9  A    between atoms: C_15  and  N_16 
REMARK       I    between atoms: N_16  and  C_17 
REMARK   10  A    between atoms: C_17  and  C_19 
REMARK   11  A    between atoms: C_19  and  C_20 
REMARK   12  A    between atoms: C_19  and  N_28 
REMARK   13  A    between atoms: C_20  and  C_21 
REMARK   14  A    between atoms: C_21  and  C_22 
REMARK   15  A    between atoms: C_22  and  N_23 
REMARK       I    between atoms: C_25  and  N_26 
REMARK       I    between atoms: C_25  and  N_27 
REMARK       I    between atoms: N_28  and  C_29 
ROOT
HETATM    1  N   UNK A   0     -21.095  -6.313  -7.141  1.00  0.00    -0.359 N 
HETATM    2  C   UNK A   0     -21.527  -5.019  -7.360  1.00  0.00     0.240 C 
HETATM    3  O   UNK A   0     -21.365  -4.125  -6.531  1.00  0.00    -0.271 OA
HETATM    4  H   UNK A   0     -21.226  -7.003  -7.872  1.00  0.00     0.162 HD
ENDROOT
BRANCH   2   5
HETATM    5  C   UNK A   0     -22.109  -4.759  -8.771  1.00  0.00     0.176 C 
BRANCH   5   6
HETATM    6  C   UNK A   0     -23.524  -4.158  -8.648  1.00  0.00     0.036 C 
BRANCH   6   7
HETATM    7  C   UNK A   0     -24.434  -4.477  -9.836  1.00  0.00     0.022 C 
BRANCH   7   8
HETATM    8  C   UNK A   0     -24.477  -3.340 -10.852  1.00  0.00     0.121 C 
BRANCH   8   9
HETATM    9  N   UNK A   0     -24.516  -3.932 -12.187  1.00  0.00    -0.372 N 
HETATM   10  C   UNK A   0     -24.112  -3.227 -13.173  1.00  0.00     0.121 C 
HETATM   11  N   UNK A   0     -23.668  -1.955 -13.176  1.00  0.00    -0.279 NA
HETATM   12  N   UNK A   0     -24.088  -3.755 -14.415  1.00  0.00    -0.279 NA
HETATM   13  H   UNK A   0     -23.377  -1.610 -12.269  1.00  0.00     0.126 HD
HETATM   14  H   UNK A   0     -22.976  -1.753 -13.894  1.00  0.00     0.126 HD
HETATM   15  H   UNK A   0     -24.701  -4.566 -14.482  1.00  0.00     0.126 HD
HETATM   16  H   UNK A   0     -24.210  -3.110 -15.176  1.00  0.00     0.126 HD
ATOM     17  HN  UNK A   0     -24.856  -4.883 -12.328  1.00  0.00     0.161 HD
ENDBRANCH   8   9
ENDBRANCH   7   8
ENDBRANCH   6   7
ENDBRANCH   5   6
BRANCH   5  18
HETATM   18  N   UNK A   0     -21.188  -3.861  -9.471  1.00  0.00    -0.348 N 
HETATM   19  C   UNK A   0     -21.008  -3.928 -10.833  1.00  0.00     0.214 C 
HETATM   20  O   UNK A   0     -21.499  -4.804 -11.537  1.00  0.00    -0.274 OA
HETATM   21  C   UNK A   0     -20.159  -2.832 -11.420  1.00  0.00     0.117 C 
HETATM   22  H   UNK A   0     -20.821  -3.073  -8.953  1.00  0.00     0.163 HD
ENDBRANCH   5  18
ENDBRANCH   2   5
BRANCH   1  23
HETATM   23  C   UNK A   0     -20.574  -6.748  -5.860  1.00  0.00     0.122 C 
BRANCH  23  24
HETATM   24  C   UNK A   0     -21.675  -7.191  -4.893  1.00  0.00     0.020 C 
BRANCH  24  25
HETATM   25  C   UNK A   0     -21.675  -6.398  -3.573  1.00  0.00     0.002 C 
BRANCH  25  26
HETATM   26  C   UNK A   0     -21.490  -7.295  -2.347  1.00  0.00     0.009 C 
BRANCH  26  27
HETATM   27  C   UNK A   0     -22.235  -6.801  -1.105  1.00  0.00     0.103 C 
BRANCH  27  28
HETATM   28  C   UNK A   0     -22.706  -7.975  -0.263  1.00  0.00     0.218 C 
ATOM     29  N   ALA A   1     -22.246  -9.207  -0.663  1.00  0.00    -0.347 N 
ATOM     30  H   ALA A   1     -21.477  -9.255  -1.323  1.00  0.00     0.163 HD
HETATM   31  O   UNK A   0     -23.401  -7.869   0.746  1.00  0.00    -0.274 OA
BRANCH  29  32
ATOM     32  CA  ALA A   1     -22.656 -10.427   0.023  1.00  0.00     0.178 C 
ATOM     33  CB  ALA A   1     -23.805 -11.099  -0.716  1.00  0.00     0.043 C 
BRANCH  32  34
ATOM     34  C   ALA A   1     -21.460 -11.369   0.158  1.00  0.00     0.163 C 
ATOM     35  O   ALA A   1     -20.432 -11.259  -0.484  1.00  0.00    -0.648 OA
BRANCH  34  36
ATOM     36  OXT ALA A   1     -21.646 -12.366   1.056  1.00  0.00    -0.775 OA
ATOM     37  HXT ALA A   1     -20.979 -13.083   0.965  1.00  0.00     0.167 HD
ENDBRANCH  34  36
ENDBRANCH  32  34
ENDBRANCH  29  32
ENDBRANCH  27  28
ENDBRANCH  26  27
ENDBRANCH  25  26
ENDBRANCH  24  25
ENDBRANCH  23  24
ENDBRANCH   1  23
TORSDOF 15
BEGIN_RES ARG D 557
REMARK  4 active torsions:
REMARK  status: ('A' for Active; 'I' for Inactive)
REMARK    1  A    between atoms: CA   and  CB  
REMARK    2  A    between atoms: CB   and  CG  
REMARK    3  A    between atoms: CG   and  CD  
REMARK    4  A    between atoms: CD   and  NE  
REMARK       I    between atoms: NE   and  CZ  
REMARK       I    between atoms: CZ   and  NH1 
REMARK       I    between atoms: CZ   and  NH2 
ROOT
ATOM      1  CA  ARG D 557     -26.217   2.705 -17.014  1.00 35.49     0.159 C 
ENDROOT
BRANCH   1   2
ATOM      2  CB  ARG D 557     -26.789   1.319 -17.183  1.00 35.49     0.034 C 
BRANCH   2   3
ATOM      3  CG  ARG D 557     -28.232   1.226 -17.438  1.00 35.49     0.027 C 
BRANCH   3   4
ATOM      4  CD  ARG D 557     -28.912   0.301 -16.503  1.00 35.49     0.116 C 
BRANCH   4   5
ATOM      5  NE  ARG D 557     -29.305  -0.926 -17.144  1.00 35.49    -0.212 N 
ATOM      6  CZ  ARG D 557     -28.683  -2.079 -17.042  1.00 35.49     0.666 C 
ATOM      7  NH1 ARG D 557     -27.584  -2.231 -16.326  1.00 35.49    -0.235 N 
ATOM      8  NH2 ARG D 557     -29.193  -3.094 -17.676  1.00 35.49    -0.235 N 
ATOM      9  HH  ARG D 557     -27.232  -1.577 -15.899  1.00 35.49     0.174 HD
ATOM     10  HH  ARG D 557     -27.223  -3.008 -16.295  1.00 35.49     0.174 HD
ATOM     11  HH  ARG D 557     -29.908  -2.968 -18.125  1.00 35.49     0.174 HD
ATOM     12  HH  ARG D 557     -28.822  -3.855 -17.632  1.00 35.49     0.174 HD
ATOM     13  HE  ARG D 557     -29.962  -0.902 -17.684  1.00 35.49     0.178 HD
ENDBRANCH   4   5
ENDBRANCH   3   4
ENDBRANCH   2   3
ENDBRANCH   1   2
END_RES ARG D 557
BEGIN_RES GLU D 570
REMARK  3 active torsions:
REMARK  status: ('A' for Active; 'I' for Inactive)
REMARK    5  A    between atoms: CA   and  CB  
REMARK    6  A    between atoms: CB   and  CG  
REMARK    7  A    between atoms: CG   and  CD  
ROOT
ATOM     14  CA  GLU D 570     -18.033  -6.348 -13.375  1.00 32.92     0.160 C 
ENDROOT
BRANCH  14  15
ATOM     15  CB  GLU D 570     -19.500  -6.345 -13.794  1.00 32.92     0.043 C 
BRANCH  15  16
ATOM     16  CG  GLU D 570     -19.816  -5.907 -15.178  1.00 32.92     0.100 C 
BRANCH  16  17
ATOM     17  CD  GLU D 570     -21.278  -5.580 -15.374  1.00 32.92     0.185 C 
ATOM     18  OE1 GLU D 570     -21.597  -4.709 -16.206  1.00 32.92    -0.647 OA
ATOM     19  OE2 GLU D 570     -22.112  -6.190 -14.676  1.00 32.92    -0.647 OA
ENDBRANCH  16  17
ENDBRANCH  15  16
ENDBRANCH  14  15
END_RES GLU D 570
ENDMDL
