MODEL 1
REMARK VINA RESULT:      -7.8      0.000      0.000
REMARK  12 active torsions:
REMARK  status: ('A' for Active; 'I' for Inactive)
REMARK    1  A    between atoms: CG_2  and  CB_4 
REMARK    2  A    between atoms: CB_4  and  CA_5 
REMARK    3  A    between atoms: CA_5  and  C_6 
REMARK    4  A    between atoms: CA_5  and  N_9 
REMARK    5  A    between atoms: C_6  and  OXT_8 
REMARK       I    between atoms: N_9  and  C_10 
REMARK    6  A    between atoms: C_10  and  CA_12 
REMARK    7  A    between atoms: CA_12  and  CB_13 
REMARK    8  A    between atoms: CA_12  and  N_21 
REMARK    9  A    between atoms: CB_13  and  CG_14 
REMARK   10  A    between atoms: CZ_17  and  OH_20 
REMARK       I    between atoms: N_21  and  C_26 
REMARK   11  A    between atoms: C_26  and  C_28 
REMARK       I    between atoms: N_32  and  C_33 
REMARK   12  A    between atoms: C_33  and  C_35 
REMARK       I    between atoms: N_39  and  C_40 
ROOT
ATOM      1  CA  TYR A   1     -20.918  -8.458  -4.478  1.00  0.00     0.180 C 
ENDROOT
BRANCH   1   2
ATOM      2  C   TYR A   1     -20.893  -9.046  -3.018  1.00  0.00     0.241 C 
ATOM      3  N   TYR A   1     -22.001  -9.747  -2.559  1.00  0.00    -0.345 N 
ATOM      4  H   TYR A   1     -22.664 -10.098  -3.241  1.00  0.00     0.163 HD
ATOM      5  O   TYR A   1     -19.883  -8.985  -2.313  1.00  0.00    -0.271 OA
BRANCH   3   6
ATOM      6  CA  TYR A   1     -22.063 -10.355  -1.200  1.00  0.00     0.182 C 
BRANCH   6   7
ATOM      7  CB  TYR A   1     -23.084  -9.607  -0.304  1.00  0.00     0.040 C 
BRANCH   7   8
ATOM      8  CG  TYR A   1     -22.565  -8.386   0.512  1.00  0.00    -0.020 A 
ATOM      9  CD1 TYR A   1     -21.192  -8.617   1.147  1.00  0.00     0.009 A 
ATOM     10  CD2 TYR A   1     -22.484  -7.141  -0.390  1.00  0.00     0.009 A 
ENDBRANCH   7   8
ENDBRANCH   6   7
BRANCH   6  11
ATOM     11  C   TYR A   1     -22.401 -11.862  -1.343  1.00  0.00     0.163 C 
ATOM     12  O   TYR A   1     -22.396 -12.673  -0.440  1.00  0.00    -0.648 OA
BRANCH  11  13
ATOM     13  OXT TYR A   1     -22.738 -12.197  -2.615  1.00  0.00    -0.775 OA
ATOM     14  HXT TYR A   1     -23.608 -12.667  -2.666  1.00  0.00     0.167 HD
ENDBRANCH  11  13
ENDBRANCH   6  11
ENDBRANCH   3   6
ENDBRANCH   1   2
BRANCH   1  15
ATOM     15  CB  TYR A   1     -20.375  -7.015  -4.556  1.00  0.00     0.073 C 
BRANCH  15  16
ATOM     16  CG  TYR A   1     -20.759  -6.231  -5.793  1.00  0.00    -0.056 A 
ATOM     17  CD1 TYR A   1     -19.857  -6.099  -6.859  1.00  0.00     0.010 A 
ATOM     18  CE1 TYR A   1     -20.200  -5.359  -7.995  1.00  0.00     0.037 A 
ATOM     19  CZ  TYR A   1     -21.450  -4.753  -8.066  1.00  0.00     0.065 A 
ATOM     20  CE2 TYR A   1     -22.367  -4.894  -7.034  1.00  0.00     0.037 A 
ATOM     21  CD2 TYR A   1     -22.027  -5.639  -5.904  1.00  0.00     0.010 A 
BRANCH  19  22
ATOM     22  OH  TYR A   1     -21.822  -4.007  -9.145  1.00  0.00    -0.361 OA
ATOM     23  HH  TYR A   1     -21.170  -4.136  -9.855  1.00  0.00     0.217 HD
ENDBRANCH  19  22
ENDBRANCH  15  16
ENDBRANCH   1  15
BRANCH   1  24
ATOM     24  N   TYR A   1     -20.259  -9.428  -5.410  1.00  0.00    -0.346 N 
HETATM   25  C   UNK A   0     -20.651 -10.753  -5.617  1.00  0.00     0.241 C 
HETATM   26  O   UNK A   0     -21.699 -11.195  -5.162  1.00  0.00    -0.271 OA
ATOM     27  H   TYR A   1     -19.356  -9.122  -5.757  1.00  0.00     0.163 HD
BRANCH  25  28
HETATM   28  C   UNK A   0     -19.676 -11.606  -6.517  1.00  0.00     0.179 C 
HETATM   29  C   UNK A   0     -20.541 -12.612  -7.321  1.00  0.00     0.037 C 
HETATM   30  C   UNK A   0     -19.539 -13.585  -7.925  1.00  0.00     0.022 C 
HETATM   31  C   UNK A   0     -18.409 -13.629  -6.924  1.00  0.00     0.127 C 
HETATM   32  N   UNK A   0     -18.623 -12.525  -5.998  1.00  0.00    -0.337 N 
HETATM   33  C   UNK A   0     -17.533 -12.268  -5.173  1.00  0.00     0.243 C 
HETATM   34  O   UNK A   0     -16.473 -12.885  -5.313  1.00  0.00    -0.271 OA
BRANCH  33  35
HETATM   35  C   UNK A   0     -17.692 -11.265  -4.034  1.00  0.00     0.179 C 
HETATM   36  C   UNK A   0     -16.860 -10.026  -4.373  1.00  0.00     0.037 C 
HETATM   37  C   UNK A   0     -15.927  -9.783  -3.189  1.00  0.00     0.022 C 
HETATM   38  C   UNK A   0     -16.369 -10.730  -2.097  1.00  0.00     0.127 C 
HETATM   39  N   UNK A   0     -17.145 -11.753  -2.754  1.00  0.00    -0.339 N 
HETATM   40  C   UNK A   0     -17.585 -12.823  -1.994  1.00  0.00     0.216 C 
HETATM   41  O   UNK A   0     -17.299 -12.921  -0.800  1.00  0.00    -0.274 OA
HETATM   42  C   UNK A   0     -18.362 -13.933  -2.655  1.00  0.00     0.117 C 
ENDBRANCH  33  35
ENDBRANCH  25  28
ENDBRANCH   1  24
TORSDOF 12
BEGIN_RES ARG D 557
REMARK  4 active torsions:
REMARK  status: ('A' for Active; 'I' for Inactive)
REMARK    1  A    between atoms: CA   and  CB  
REMARK    2  A    between atoms: CB   and  CG  
REMARK    3  A    between atoms: CG   and  CD  
REMARK    4  A    between atoms: CD   and  NE  
REMARK       I    between atoms: NE   and  CZ  
REMARK       I    between atoms: CZ   and  NH1 
REMARK       I    between atoms: CZ   and  NH2 
ROOT
ATOM      1  CA  ARG D 557     -26.217   2.705 -17.014  1.00 35.49     0.159 C 
ENDROOT
BRANCH   1   2
ATOM      2  CB  ARG D 557     -26.789   1.319 -17.183  1.00 35.49     0.034 C 
BRANCH   2   3
ATOM      3  CG  ARG D 557     -25.926   0.196 -16.795  1.00 35.49     0.027 C 
BRANCH   3   4
ATOM      4  CD  ARG D 557     -26.669  -0.863 -16.075  1.00 35.49     0.116 C 
BRANCH   4   5
ATOM      5  NE  ARG D 557     -25.858  -1.511 -15.077  1.00 35.49    -0.212 N 
ATOM      6  CZ  ARG D 557     -25.904  -2.785 -14.760  1.00 35.49     0.666 C 
ATOM      7  NH1 ARG D 557     -26.739  -3.630 -15.335  1.00 35.49    -0.235 N 
ATOM      8  NH2 ARG D 557     -25.079  -3.206 -13.845  1.00 35.49    -0.235 N 
ATOM      9  HH  ARG D 557     -27.289  -3.376 -15.941  1.00 35.49     0.174 HD
ATOM     10  HH  ARG D 557     -26.722  -4.451 -15.089  1.00 35.49     0.174 HD
ATOM     11  HH  ARG D 557     -24.546  -2.639 -13.496  1.00 35.49     0.174 HD
ATOM     12  HH  ARG D 557     -25.076  -4.022 -13.616  1.00 35.49     0.174 HD
ATOM     13  HE  ARG D 557     -25.342  -1.026 -14.606  1.00 35.49     0.178 HD
ENDBRANCH   4   5
ENDBRANCH   3   4
ENDBRANCH   2   3
ENDBRANCH   1   2
END_RES ARG D 557
BEGIN_RES GLU D 570
REMARK  3 active torsions:
REMARK  status: ('A' for Active; 'I' for Inactive)
REMARK    5  A    between atoms: CA   and  CB  
REMARK    6  A    between atoms: CB   and  CG  
REMARK    7  A    between atoms: CG   and  CD  
ROOT
ATOM     14  CA  GLU D 570     -18.033  -6.348 -13.375  1.00 32.92     0.160 C 
ENDROOT
BRANCH  14  15
ATOM     15  CB  GLU D 570     -19.500  -6.345 -13.794  1.00 32.92     0.043 C 
BRANCH  15  16
ATOM     16  CG  GLU D 570     -20.442  -5.530 -12.983  1.00 32.92     0.100 C 
BRANCH  16  17
ATOM     17  CD  GLU D 570     -21.731  -5.224 -13.709  1.00 32.92     0.185 C 
ATOM     18  OE1 GLU D 570     -22.159  -6.036 -14.552  1.00 32.92    -0.647 OA
ATOM     19  OE2 GLU D 570     -22.311  -4.153 -13.444  1.00 32.92    -0.647 OA
ENDBRANCH  16  17
ENDBRANCH  15  16
ENDBRANCH  14  15
END_RES GLU D 570
ENDMDL
MODEL 2
REMARK VINA RESULT:      -7.6      2.057      6.052
REMARK  12 active torsions:
REMARK  status: ('A' for Active; 'I' for Inactive)
REMARK    1  A    between atoms: CG_2  and  CB_4 
REMARK    2  A    between atoms: CB_4  and  CA_5 
REMARK    3  A    between atoms: CA_5  and  C_6 
REMARK    4  A    between atoms: CA_5  and  N_9 
REMARK    5  A    between atoms: C_6  and  OXT_8 
REMARK       I    between atoms: N_9  and  C_10 
REMARK    6  A    between atoms: C_10  and  CA_12 
REMARK    7  A    between atoms: CA_12  and  CB_13 
REMARK    8  A    between atoms: CA_12  and  N_21 
REMARK    9  A    between atoms: CB_13  and  CG_14 
REMARK   10  A    between atoms: CZ_17  and  OH_20 
REMARK       I    between atoms: N_21  and  C_26 
REMARK   11  A    between atoms: C_26  and  C_28 
REMARK       I    between atoms: N_32  and  C_33 
REMARK   12  A    between atoms: C_33  and  C_35 
REMARK       I    between atoms: N_39  and  C_40 
ROOT
ATOM      1  CA  TYR A   1     -20.324  -7.588  -4.978  1.00  0.00     0.180 C 
ENDROOT
BRANCH   1   2
ATOM      2  C   TYR A   1     -20.345  -6.768  -6.321  1.00  0.00     0.241 C 
ATOM      3  N   TYR A   1     -21.395  -5.888  -6.552  1.00  0.00    -0.345 N 
ATOM      4  H   TYR A   1     -21.955  -5.590  -5.761  1.00  0.00     0.163 HD
ATOM      5  O   TYR A   1     -19.408  -6.815  -7.123  1.00  0.00    -0.271 OA
BRANCH   3   6
ATOM      6  CA  TYR A   1     -21.491  -5.056  -7.785  1.00  0.00     0.182 C 
BRANCH   6   7
ATOM      7  CB  TYR A   1     -22.970  -4.735  -8.122  1.00  0.00     0.040 C 
BRANCH   7   8
ATOM      8  CG  TYR A   1     -23.322  -4.449  -9.612  1.00  0.00    -0.020 A 
ATOM      9  CD1 TYR A   1     -24.617  -3.653  -9.790  1.00  0.00     0.009 A 
ATOM     10  CD2 TYR A   1     -22.176  -3.677 -10.290  1.00  0.00     0.009 A 
ENDBRANCH   7   8
ENDBRANCH   6   7
BRANCH   6  11
ATOM     11  C   TYR A   1     -20.641  -3.774  -7.590  1.00  0.00     0.163 C 
ATOM     12  O   TYR A   1     -19.491  -3.630  -7.949  1.00  0.00    -0.648 OA
BRANCH  11  13
ATOM     13  OXT TYR A   1     -21.337  -2.783  -6.976  1.00  0.00    -0.775 OA
ATOM     14  HXT TYR A   1     -22.152  -2.526  -7.475  1.00  0.00     0.167 HD
ENDBRANCH  11  13
ENDBRANCH   6  11
ENDBRANCH   3   6
ENDBRANCH   1   2
BRANCH   1  15
ATOM     15  CB  TYR A   1     -21.737  -7.886  -4.431  1.00  0.00     0.073 C 
BRANCH  15  16
ATOM     16  CG  TYR A   1     -21.873  -7.897  -2.923  1.00  0.00    -0.056 A 
ATOM     17  CD1 TYR A   1     -22.110  -6.705  -2.223  1.00  0.00     0.010 A 
ATOM     18  CE1 TYR A   1     -22.215  -6.707  -0.829  1.00  0.00     0.037 A 
ATOM     19  CZ  TYR A   1     -22.088  -7.905  -0.133  1.00  0.00     0.065 A 
ATOM     20  CE2 TYR A   1     -21.880  -9.099  -0.809  1.00  0.00     0.037 A 
ATOM     21  CD2 TYR A   1     -21.783  -9.098  -2.201  1.00  0.00     0.010 A 
BRANCH  19  22
ATOM     22  OH  TYR A   1     -22.166  -7.953   1.227  1.00  0.00    -0.361 OA
ATOM     23  HH  TYR A   1     -23.097  -8.061   1.484  1.00  0.00     0.217 HD
ENDBRANCH  19  22
ENDBRANCH  15  16
ENDBRANCH   1  15
BRANCH   1  24
ATOM     24  N   TYR A   1     -19.451  -8.794  -5.151  1.00  0.00    -0.346 N 
HETATM   25  C   UNK A   0     -18.563  -9.299  -4.198  1.00  0.00     0.241 C 
HETATM   26  O   UNK A   0     -18.545  -8.882  -3.046  1.00  0.00    -0.271 OA
ATOM     27  H   TYR A   1     -19.391  -9.128  -6.107  1.00  0.00     0.163 HD
BRANCH  25  28
HETATM   28  C   UNK A   0     -17.635 -10.470  -4.704  1.00  0.00     0.179 C 
HETATM   29  C   UNK A   0     -16.721  -9.896  -5.818  1.00  0.00     0.037 C 
HETATM   30  C   UNK A   0     -16.079 -11.118  -6.459  1.00  0.00     0.022 C 
HETATM   31  C   UNK A   0     -17.115 -12.207  -6.310  1.00  0.00     0.127 C 
HETATM   32  N   UNK A   0     -18.119 -11.710  -5.378  1.00  0.00    -0.337 N 
HETATM   33  C   UNK A   0     -19.002 -12.687  -4.933  1.00  0.00     0.243 C 
HETATM   34  O   UNK A   0     -18.853 -13.870  -5.256  1.00  0.00    -0.271 OA
BRANCH  33  35
HETATM   35  C   UNK A   0     -20.211 -12.266  -4.103  1.00  0.00     0.179 C 
HETATM   36  C   UNK A   0     -20.030 -12.817  -2.687  1.00  0.00     0.037 C 
HETATM   37  C   UNK A   0     -21.286 -13.625  -2.365  1.00  0.00     0.022 C 
HETATM   38  C   UNK A   0     -22.263 -13.358  -3.486  1.00  0.00     0.127 C 
HETATM   39  N   UNK A   0     -21.475 -12.853  -4.583  1.00  0.00    -0.339 N 
HETATM   40  C   UNK A   0     -22.113 -12.628  -5.792  1.00  0.00     0.216 C 
HETATM   41  O   UNK A   0     -23.309 -12.880  -5.941  1.00  0.00    -0.274 OA
HETATM   42  C   UNK A   0     -21.313 -12.143  -6.973  1.00  0.00     0.117 C 
ENDBRANCH  33  35
ENDBRANCH  25  28
ENDBRANCH   1  24
TORSDOF 12
BEGIN_RES ARG D 557
REMARK  4 active torsions:
REMARK  status: ('A' for Active; 'I' for Inactive)
REMARK    1  A    between atoms: CA   and  CB  
REMARK    2  A    between atoms: CB   and  CG  
REMARK    3  A    between atoms: CG   and  CD  
REMARK    4  A    between atoms: CD   and  NE  
REMARK       I    between atoms: NE   and  CZ  
REMARK       I    between atoms: CZ   and  NH1 
REMARK       I    between atoms: CZ   and  NH2 
ROOT
ATOM      1  CA  ARG D 557     -26.217   2.705 -17.014  1.00 35.49     0.159 C 
ENDROOT
BRANCH   1   2
ATOM      2  CB  ARG D 557     -26.789   1.319 -17.183  1.00 35.49     0.034 C 
BRANCH   2   3
ATOM      3  CG  ARG D 557     -25.837   0.202 -17.148  1.00 35.49     0.027 C 
BRANCH   3   4
ATOM      4  CD  ARG D 557     -24.764   0.407 -16.148  1.00 35.49     0.116 C 
BRANCH   4   5
ATOM      5  NE  ARG D 557     -24.921  -0.450 -15.002  1.00 35.49    -0.212 N 
ATOM      6  CZ  ARG D 557     -24.112  -1.426 -14.657  1.00 35.49     0.666 C 
ATOM      7  NH1 ARG D 557     -23.040  -1.742 -15.360  1.00 35.49    -0.235 N 
ATOM      8  NH2 ARG D 557     -24.397  -2.087 -13.573  1.00 35.49    -0.235 N 
ATOM      9  HH  ARG D 557     -22.832  -1.319 -16.076  1.00 35.49     0.174 HD
ATOM     10  HH  ARG D 557     -22.547  -2.387 -15.085  1.00 35.49     0.174 HD
ATOM     11  HH  ARG D 557     -25.092  -1.857 -13.135  1.00 35.49     0.174 HD
ATOM     12  HH  ARG D 557     -23.897  -2.722 -13.316  1.00 35.49     0.174 HD
ATOM     13  HE  ARG D 557     -25.625  -0.364 -14.533  1.00 35.49     0.178 HD
ENDBRANCH   4   5
ENDBRANCH   3   4
ENDBRANCH   2   3
ENDBRANCH   1   2
END_RES ARG D 557
BEGIN_RES GLU D 570
REMARK  3 active torsions:
REMARK  status: ('A' for Active; 'I' for Inactive)
REMARK    5  A    between atoms: CA   and  CB  
REMARK    6  A    between atoms: CB   and  CG  
REMARK    7  A    between atoms: CG   and  CD  
ROOT
ATOM     14  CA  GLU D 570     -18.033  -6.348 -13.375  1.00 32.92     0.160 C 
ENDROOT
BRANCH  14  15
ATOM     15  CB  GLU D 570     -19.500  -6.345 -13.794  1.00 32.92     0.043 C 
BRANCH  15  16
ATOM     16  CG  GLU D 570     -20.407  -5.391 -13.105  1.00 32.92     0.100 C 
BRANCH  16  17
ATOM     17  CD  GLU D 570     -21.538  -4.913 -13.985  1.00 32.92     0.185 C 
ATOM     18  OE1 GLU D 570     -21.443  -5.048 -15.220  1.00 32.92    -0.647 OA
ATOM     19  OE2 GLU D 570     -22.523  -4.382 -13.435  1.00 32.92    -0.647 OA
ENDBRANCH  16  17
ENDBRANCH  15  16
ENDBRANCH  14  15
END_RES GLU D 570
ENDMDL
MODEL 3
REMARK VINA RESULT:      -7.5      2.383      5.758
REMARK  12 active torsions:
REMARK  status: ('A' for Active; 'I' for Inactive)
REMARK    1  A    between atoms: CG_2  and  CB_4 
REMARK    2  A    between atoms: CB_4  and  CA_5 
REMARK    3  A    between atoms: CA_5  and  C_6 
REMARK    4  A    between atoms: CA_5  and  N_9 
REMARK    5  A    between atoms: C_6  and  OXT_8 
REMARK       I    between atoms: N_9  and  C_10 
REMARK    6  A    between atoms: C_10  and  CA_12 
REMARK    7  A    between atoms: CA_12  and  CB_13 
REMARK    8  A    between atoms: CA_12  and  N_21 
REMARK    9  A    between atoms: CB_13  and  CG_14 
REMARK   10  A    between atoms: CZ_17  and  OH_20 
REMARK       I    between atoms: N_21  and  C_26 
REMARK   11  A    between atoms: C_26  and  C_28 
REMARK       I    between atoms: N_32  and  C_33 
REMARK   12  A    between atoms: C_33  and  C_35 
REMARK       I    between atoms: N_39  and  C_40 
ROOT
ATOM      1  CA  TYR A   1     -18.949 -11.434  -0.749  1.00  0.00     0.180 C 
ENDROOT
BRANCH   1   2
ATOM      2  C   TYR A   1     -19.381 -11.169  -2.239  1.00  0.00     0.241 C 
ATOM      3  N   TYR A   1     -18.868 -10.058  -2.897  1.00  0.00    -0.345 N 
ATOM      4  H   TYR A   1     -18.038  -9.615  -2.518  1.00  0.00     0.163 HD
ATOM      5  O   TYR A   1     -20.081 -11.970  -2.862  1.00  0.00    -0.271 OA
BRANCH   3   6
ATOM      6  CA  TYR A   1     -19.204  -9.735  -4.313  1.00  0.00     0.182 C 
BRANCH   6   7
ATOM      7  CB  TYR A   1     -19.786  -8.303  -4.431  1.00  0.00     0.040 C 
BRANCH   7   8
ATOM      8  CG  TYR A   1     -21.210  -8.056  -3.849  1.00  0.00    -0.020 A 
ATOM      9  CD1 TYR A   1     -21.199  -7.337  -2.498  1.00  0.00     0.009 A 
ATOM     10  CD2 TYR A   1     -22.051  -7.229  -4.837  1.00  0.00     0.009 A 
ENDBRANCH   7   8
ENDBRANCH   6   7
BRANCH   6  11
ATOM     11  C   TYR A   1     -17.934  -9.926  -5.183  1.00  0.00     0.163 C 
ATOM     12  O   TYR A   1     -17.908  -9.940  -6.397  1.00  0.00    -0.648 OA
BRANCH  11  13
ATOM     13  OXT TYR A   1     -16.810 -10.058  -4.433  1.00  0.00    -0.775 OA
ATOM     14  HXT TYR A   1     -16.106  -9.409  -4.687  1.00  0.00     0.167 HD
ENDBRANCH  11  13
ENDBRANCH   6  11
ENDBRANCH   3   6
ENDBRANCH   1   2
BRANCH   1  15
ATOM     15  CB  TYR A   1     -20.146 -11.709   0.187  1.00  0.00     0.073 C 
BRANCH  15  16
ATOM     16  CG  TYR A   1     -21.166 -10.596   0.299  1.00  0.00    -0.056 A 
ATOM     17  CD1 TYR A   1     -22.456 -10.759  -0.224  1.00  0.00     0.010 A 
ATOM     18  CE1 TYR A   1     -23.395  -9.726  -0.141  1.00  0.00     0.037 A 
ATOM     19  CZ  TYR A   1     -23.043  -8.528   0.471  1.00  0.00     0.065 A 
ATOM     20  CE2 TYR A   1     -21.780  -8.356   1.020  1.00  0.00     0.037 A 
ATOM     21  CD2 TYR A   1     -20.846  -9.390   0.944  1.00  0.00     0.010 A 
BRANCH  19  22
ATOM     22  OH  TYR A   1     -23.919  -7.487   0.560  1.00  0.00    -0.361 OA
ATOM     23  HH  TYR A   1     -23.492  -6.688   0.208  1.00  0.00     0.217 HD
ENDBRANCH  19  22
ENDBRANCH  15  16
ENDBRANCH   1  15
BRANCH   1  24
ATOM     24  N   TYR A   1     -17.880 -12.484  -0.726  1.00  0.00    -0.346 N 
HETATM   25  C   UNK A   0     -16.593 -12.347  -1.250  1.00  0.00     0.241 C 
HETATM   26  O   UNK A   0     -16.165 -11.266  -1.637  1.00  0.00    -0.271 OA
ATOM     27  H   TYR A   1     -18.213 -13.409  -0.472  1.00  0.00     0.163 HD
BRANCH  25  28
HETATM   28  C   UNK A   0     -15.729 -13.666  -1.254  1.00  0.00     0.179 C 
HETATM   29  C   UNK A   0     -14.651 -13.523  -0.147  1.00  0.00     0.037 C 
HETATM   30  C   UNK A   0     -13.683 -14.669  -0.399  1.00  0.00     0.022 C 
HETATM   31  C   UNK A   0     -13.733 -14.880  -1.894  1.00  0.00     0.127 C 
HETATM   32  N   UNK A   0     -14.876 -14.124  -2.388  1.00  0.00    -0.337 N 
HETATM   33  C   UNK A   0     -15.217 -14.420  -3.704  1.00  0.00     0.243 C 
HETATM   34  O   UNK A   0     -14.631 -15.313  -4.324  1.00  0.00    -0.271 OA
BRANCH  33  35
HETATM   35  C   UNK A   0     -16.272 -13.568  -4.402  1.00  0.00     0.179 C 
HETATM   36  C   UNK A   0     -17.530 -14.422  -4.580  1.00  0.00     0.037 C 
HETATM   37  C   UNK A   0     -17.883 -14.381  -6.066  1.00  0.00     0.022 C 
HETATM   38  C   UNK A   0     -16.978 -13.345  -6.691  1.00  0.00     0.127 C 
HETATM   39  N   UNK A   0     -15.884 -13.170  -5.767  1.00  0.00    -0.339 N 
HETATM   40  C   UNK A   0     -14.837 -12.347  -6.149  1.00  0.00     0.216 C 
HETATM   41  O   UNK A   0     -14.820 -11.804  -7.254  1.00  0.00    -0.274 OA
HETATM   42  C   UNK A   0     -13.656 -12.176  -5.229  1.00  0.00     0.117 C 
ENDBRANCH  33  35
ENDBRANCH  25  28
ENDBRANCH   1  24
TORSDOF 12
BEGIN_RES ARG D 557
REMARK  4 active torsions:
REMARK  status: ('A' for Active; 'I' for Inactive)
REMARK    1  A    between atoms: CA   and  CB  
REMARK    2  A    between atoms: CB   and  CG  
REMARK    3  A    between atoms: CG   and  CD  
REMARK    4  A    between atoms: CD   and  NE  
REMARK       I    between atoms: NE   and  CZ  
REMARK       I    between atoms: CZ   and  NH1 
REMARK       I    between atoms: CZ   and  NH2 
ROOT
ATOM      1  CA  ARG D 557     -26.217   2.705 -17.014  1.00 35.49     0.159 C 
ENDROOT
BRANCH   1   2
ATOM      2  CB  ARG D 557     -26.789   1.319 -17.183  1.00 35.49     0.034 C 
BRANCH   2   3
ATOM      3  CG  ARG D 557     -25.836   0.203 -17.157  1.00 35.49     0.027 C 
BRANCH   3   4
ATOM      4  CD  ARG D 557     -24.770   0.395 -16.146  1.00 35.49     0.116 C 
BRANCH   4   5
ATOM      5  NE  ARG D 557     -24.943  -0.466 -15.006  1.00 35.49    -0.212 N 
ATOM      6  CZ  ARG D 557     -24.138  -1.443 -14.652  1.00 35.49     0.666 C 
ATOM      7  NH1 ARG D 557     -23.056  -1.755 -15.340  1.00 35.49    -0.235 N 
ATOM      8  NH2 ARG D 557     -24.439  -2.108 -13.574  1.00 35.49    -0.235 N 
ATOM      9  HH  ARG D 557     -22.838  -1.329 -16.051  1.00 35.49     0.174 HD
ATOM     10  HH  ARG D 557     -22.567  -2.400 -15.060  1.00 35.49     0.174 HD
ATOM     11  HH  ARG D 557     -25.140  -1.879 -13.145  1.00 35.49     0.174 HD
ATOM     12  HH  ARG D 557     -23.942  -2.742 -13.312  1.00 35.49     0.174 HD
ATOM     13  HE  ARG D 557     -25.654  -0.382 -14.546  1.00 35.49     0.178 HD
ENDBRANCH   4   5
ENDBRANCH   3   4
ENDBRANCH   2   3
ENDBRANCH   1   2
END_RES ARG D 557
BEGIN_RES GLU D 570
REMARK  3 active torsions:
REMARK  status: ('A' for Active; 'I' for Inactive)
REMARK    5  A    between atoms: CA   and  CB  
REMARK    6  A    between atoms: CB   and  CG  
REMARK    7  A    between atoms: CG   and  CD  
ROOT
ATOM     14  CA  GLU D 570     -18.033  -6.348 -13.375  1.00 32.92     0.160 C 
ENDROOT
BRANCH  14  15
ATOM     15  CB  GLU D 570     -19.500  -6.345 -13.794  1.00 32.92     0.043 C 
BRANCH  15  16
ATOM     16  CG  GLU D 570     -20.435  -5.501 -13.006  1.00 32.92     0.100 C 
BRANCH  16  17
ATOM     17  CD  GLU D 570     -21.569  -4.945 -13.836  1.00 32.92     0.185 C 
ATOM     18  OE1 GLU D 570     -21.590  -5.171 -15.061  1.00 32.92    -0.647 OA
ATOM     19  OE2 GLU D 570     -22.437  -4.262 -13.257  1.00 32.92    -0.647 OA
ENDBRANCH  16  17
ENDBRANCH  15  16
ENDBRANCH  14  15
END_RES GLU D 570
ENDMDL
MODEL 4
REMARK VINA RESULT:      -7.5      1.845      2.987
REMARK  12 active torsions:
REMARK  status: ('A' for Active; 'I' for Inactive)
REMARK    1  A    between atoms: CG_2  and  CB_4 
REMARK    2  A    between atoms: CB_4  and  CA_5 
REMARK    3  A    between atoms: CA_5  and  C_6 
REMARK    4  A    between atoms: CA_5  and  N_9 
REMARK    5  A    between atoms: C_6  and  OXT_8 
REMARK       I    between atoms: N_9  and  C_10 
REMARK    6  A    between atoms: C_10  and  CA_12 
REMARK    7  A    between atoms: CA_12  and  CB_13 
REMARK    8  A    between atoms: CA_12  and  N_21 
REMARK    9  A    between atoms: CB_13  and  CG_14 
REMARK   10  A    between atoms: CZ_17  and  OH_20 
REMARK       I    between atoms: N_21  and  C_26 
REMARK   11  A    between atoms: C_26  and  C_28 
REMARK       I    between atoms: N_32  and  C_33 
REMARK   12  A    between atoms: C_33  and  C_35 
REMARK       I    between atoms: N_39  and  C_40 
ROOT
ATOM      1  CA  TYR A   1     -20.773  -8.467  -4.332  1.00  0.00     0.180 C 
ENDROOT
BRANCH   1   2
ATOM      2  C   TYR A   1     -21.636  -9.216  -3.250  1.00  0.00     0.241 C 
ATOM      3  N   TYR A   1     -21.678  -8.708  -1.957  1.00  0.00    -0.345 N 
ATOM      4  H   TYR A   1     -21.395  -7.746  -1.810  1.00  0.00     0.163 HD
ATOM      5  O   TYR A   1     -22.348 -10.180  -3.543  1.00  0.00    -0.271 OA
BRANCH   3   6
ATOM      6  CA  TYR A   1     -22.481  -9.337  -0.870  1.00  0.00     0.182 C 
BRANCH   6   7
ATOM      7  CB  TYR A   1     -21.901 -10.722  -0.484  1.00  0.00     0.040 C 
BRANCH   7   8
ATOM      8  CG  TYR A   1     -22.873 -11.754   0.162  1.00  0.00    -0.020 A 
ATOM      9  CD1 TYR A   1     -23.711 -12.523  -0.861  1.00  0.00     0.009 A 
ATOM     10  CD2 TYR A   1     -22.084 -12.767   1.010  1.00  0.00     0.009 A 
ENDBRANCH   7   8
ENDBRANCH   6   7
BRANCH   6  11
ATOM     11  C   TYR A   1     -22.534  -8.365   0.337  1.00  0.00     0.163 C 
ATOM     12  O   TYR A   1     -21.617  -8.137   1.098  1.00  0.00    -0.648 OA
BRANCH  11  13
ATOM     13  OXT TYR A   1     -23.741  -7.753   0.454  1.00  0.00    -0.775 OA
ATOM     14  HXT TYR A   1     -23.902  -7.092  -0.266  1.00  0.00     0.167 HD
ENDBRANCH  11  13
ENDBRANCH   6  11
ENDBRANCH   3   6
ENDBRANCH   1   2
BRANCH   1  15
ATOM     15  CB  TYR A   1     -20.617  -6.959  -4.041  1.00  0.00     0.073 C 
BRANCH  15  16
ATOM     16  CG  TYR A   1     -21.066  -6.024  -5.144  1.00  0.00    -0.056 A 
ATOM     17  CD1 TYR A   1     -20.160  -5.128  -5.728  1.00  0.00     0.010 A 
ATOM     18  CE1 TYR A   1     -20.575  -4.248  -6.733  1.00  0.00     0.037 A 
ATOM     19  CZ  TYR A   1     -21.899  -4.268  -7.157  1.00  0.00     0.065 A 
ATOM     20  CE2 TYR A   1     -22.806  -5.166  -6.611  1.00  0.00     0.037 A 
ATOM     21  CD2 TYR A   1     -22.389  -6.050  -5.614  1.00  0.00     0.010 A 
BRANCH  19  22
ATOM     22  OH  TYR A   1     -22.354  -3.418  -8.121  1.00  0.00    -0.361 OA
ATOM     23  HH  TYR A   1     -23.200  -3.038  -7.830  1.00  0.00     0.217 HD
ENDBRANCH  19  22
ENDBRANCH  15  16
ENDBRANCH   1  15
BRANCH   1  24
ATOM     24  N   TYR A   1     -19.483  -9.205  -4.529  1.00  0.00    -0.346 N 
HETATM   25  C   UNK A   0     -18.457  -9.315  -3.587  1.00  0.00     0.241 C 
HETATM   26  O   UNK A   0     -18.601  -8.945  -2.428  1.00  0.00    -0.271 OA
ATOM     27  H   TYR A   1     -19.300  -9.470  -5.491  1.00  0.00     0.163 HD
BRANCH  25  28
HETATM   28  C   UNK A   0     -17.135  -9.994  -4.116  1.00  0.00     0.179 C 
HETATM   29  C   UNK A   0     -17.152  -9.907  -5.665  1.00  0.00     0.037 C 
HETATM   30  C   UNK A   0     -16.026 -10.827  -6.115  1.00  0.00     0.022 C 
HETATM   31  C   UNK A   0     -15.970 -11.899  -5.053  1.00  0.00     0.127 C 
HETATM   32  N   UNK A   0     -16.786 -11.433  -3.940  1.00  0.00    -0.337 N 
HETATM   33  C   UNK A   0     -16.631 -12.183  -2.779  1.00  0.00     0.243 C 
HETATM   34  O   UNK A   0     -15.799 -13.094  -2.721  1.00  0.00    -0.271 OA
BRANCH  33  35
HETATM   35  C   UNK A   0     -17.562 -11.918  -1.600  1.00  0.00     0.179 C 
HETATM   36  C   UNK A   0     -16.715 -11.878  -0.326  1.00  0.00     0.037 C 
HETATM   37  C   UNK A   0     -17.327 -12.888   0.643  1.00  0.00     0.022 C 
HETATM   38  C   UNK A   0     -18.630 -13.337   0.022  1.00  0.00     0.127 C 
HETATM   39  N   UNK A   0     -18.535 -13.003  -1.378  1.00  0.00    -0.339 N 
HETATM   40  C   UNK A   0     -19.562 -13.411  -2.213  1.00  0.00     0.216 C 
HETATM   41  O   UNK A   0     -20.513 -14.066  -1.786  1.00  0.00    -0.274 OA
HETATM   42  C   UNK A   0     -19.476 -13.119  -3.689  1.00  0.00     0.117 C 
ENDBRANCH  33  35
ENDBRANCH  25  28
ENDBRANCH   1  24
TORSDOF 12
BEGIN_RES ARG D 557
REMARK  4 active torsions:
REMARK  status: ('A' for Active; 'I' for Inactive)
REMARK    1  A    between atoms: CA   and  CB  
REMARK    2  A    between atoms: CB   and  CG  
REMARK    3  A    between atoms: CG   and  CD  
REMARK    4  A    between atoms: CD   and  NE  
REMARK       I    between atoms: NE   and  CZ  
REMARK       I    between atoms: CZ   and  NH1 
REMARK       I    between atoms: CZ   and  NH2 
ROOT
ATOM      1  CA  ARG D 557     -26.217   2.705 -17.014  1.00 35.49     0.159 C 
ENDROOT
BRANCH   1   2
ATOM      2  CB  ARG D 557     -26.789   1.319 -17.183  1.00 35.49     0.034 C 
BRANCH   2   3
ATOM      3  CG  ARG D 557     -25.840   0.201 -17.122  1.00 35.49     0.027 C 
BRANCH   3   4
ATOM      4  CD  ARG D 557     -24.769   0.423 -16.124  1.00 35.49     0.116 C 
BRANCH   4   5
ATOM      5  NE  ARG D 557     -24.880  -0.471 -15.001  1.00 35.49    -0.212 N 
ATOM      6  CZ  ARG D 557     -24.036  -1.430 -14.697  1.00 35.49     0.666 C 
ATOM      7  NH1 ARG D 557     -22.966  -1.691 -15.425  1.00 35.49    -0.235 N 
ATOM      8  NH2 ARG D 557     -24.283  -2.131 -13.628  1.00 35.49    -0.235 N 
ATOM      9  HH  ARG D 557     -22.783  -1.241 -16.131  1.00 35.49     0.174 HD
ATOM     10  HH  ARG D 557     -22.449  -2.328 -15.176  1.00 35.49     0.174 HD
ATOM     11  HH  ARG D 557     -24.977  -1.935 -13.173  1.00 35.49     0.174 HD
ATOM     12  HH  ARG D 557     -23.758  -2.756 -13.397  1.00 35.49     0.174 HD
ATOM     13  HE  ARG D 557     -25.579  -0.421 -14.519  1.00 35.49     0.178 HD
ENDBRANCH   4   5
ENDBRANCH   3   4
ENDBRANCH   2   3
ENDBRANCH   1   2
END_RES ARG D 557
BEGIN_RES GLU D 570
REMARK  3 active torsions:
REMARK  status: ('A' for Active; 'I' for Inactive)
REMARK    5  A    between atoms: CA   and  CB  
REMARK    6  A    between atoms: CB   and  CG  
REMARK    7  A    between atoms: CG   and  CD  
ROOT
ATOM     14  CA  GLU D 570     -18.033  -6.348 -13.375  1.00 32.92     0.160 C 
ENDROOT
BRANCH  14  15
ATOM     15  CB  GLU D 570     -19.500  -6.345 -13.794  1.00 32.92     0.043 C 
BRANCH  15  16
ATOM     16  CG  GLU D 570     -20.441  -5.529 -12.984  1.00 32.92     0.100 C 
BRANCH  16  17
ATOM     17  CD  GLU D 570     -21.660  -5.091 -13.762  1.00 32.92     0.185 C 
ATOM     18  OE1 GLU D 570     -22.710  -4.829 -13.145  1.00 32.92    -0.647 OA
ATOM     19  OE2 GLU D 570     -21.569  -5.024 -15.004  1.00 32.92    -0.647 OA
ENDBRANCH  16  17
ENDBRANCH  15  16
ENDBRANCH  14  15
END_RES GLU D 570
ENDMDL
MODEL 5
REMARK VINA RESULT:      -7.4      1.851      3.441
REMARK  12 active torsions:
REMARK  status: ('A' for Active; 'I' for Inactive)
REMARK    1  A    between atoms: CG_2  and  CB_4 
REMARK    2  A    between atoms: CB_4  and  CA_5 
REMARK    3  A    between atoms: CA_5  and  C_6 
REMARK    4  A    between atoms: CA_5  and  N_9 
REMARK    5  A    between atoms: C_6  and  OXT_8 
REMARK       I    between atoms: N_9  and  C_10 
REMARK    6  A    between atoms: C_10  and  CA_12 
REMARK    7  A    between atoms: CA_12  and  CB_13 
REMARK    8  A    between atoms: CA_12  and  N_21 
REMARK    9  A    between atoms: CB_13  and  CG_14 
REMARK   10  A    between atoms: CZ_17  and  OH_20 
REMARK       I    between atoms: N_21  and  C_26 
REMARK   11  A    between atoms: C_26  and  C_28 
REMARK       I    between atoms: N_32  and  C_33 
REMARK   12  A    between atoms: C_33  and  C_35 
REMARK       I    between atoms: N_39  and  C_40 
ROOT
ATOM      1  CA  TYR A   1     -20.239  -8.597  -5.452  1.00  0.00     0.180 C 
ENDROOT
BRANCH   1   2
ATOM      2  C   TYR A   1     -21.143  -8.855  -4.190  1.00  0.00     0.241 C 
ATOM      3  N   TYR A   1     -20.960  -8.065  -3.062  1.00  0.00    -0.345 N 
ATOM      4  H   TYR A   1     -20.465  -7.186  -3.167  1.00  0.00     0.163 HD
ATOM      5  O   TYR A   1     -22.068  -9.671  -4.211  1.00  0.00    -0.271 OA
BRANCH   3   6
ATOM      6  CA  TYR A   1     -21.779  -8.222  -1.827  1.00  0.00     0.182 C 
BRANCH   6   7
ATOM      7  CB  TYR A   1     -20.954  -8.892  -0.697  1.00  0.00     0.040 C 
BRANCH   7   8
ATOM      8  CG  TYR A   1     -21.518 -10.206  -0.078  1.00  0.00    -0.020 A 
ATOM      9  CD1 TYR A   1     -21.675 -11.339  -1.093  1.00  0.00     0.009 A 
ATOM     10  CD2 TYR A   1     -20.603 -10.690   1.061  1.00  0.00     0.009 A 
ENDBRANCH   7   8
ENDBRANCH   6   7
BRANCH   6  11
ATOM     11  C   TYR A   1     -22.325  -6.832  -1.409  1.00  0.00     0.163 C 
ATOM     12  O   TYR A   1     -22.266  -5.823  -2.080  1.00  0.00    -0.648 OA
BRANCH  11  13
ATOM     13  OXT TYR A   1     -22.916  -6.856  -0.187  1.00  0.00    -0.775 OA
ATOM     14  HXT TYR A   1     -23.733  -7.416  -0.172  1.00  0.00     0.167 HD
ENDBRANCH  11  13
ENDBRANCH   6  11
ENDBRANCH   3   6
ENDBRANCH   1   2
BRANCH   1  15
ATOM     15  CB  TYR A   1     -19.696  -7.153  -5.521  1.00  0.00     0.073 C 
BRANCH  15  16
ATOM     16  CG  TYR A   1     -20.511  -6.179  -6.346  1.00  0.00    -0.056 A 
ATOM     17  CD1 TYR A   1     -20.014  -5.689  -7.561  1.00  0.00     0.010 A 
ATOM     18  CE1 TYR A   1     -20.754  -4.774  -8.317  1.00  0.00     0.037 A 
ATOM     19  CZ  TYR A   1     -21.996  -4.352  -7.857  1.00  0.00     0.065 A 
ATOM     20  CE2 TYR A   1     -22.519  -4.846  -6.670  1.00  0.00     0.037 A 
ATOM     21  CD2 TYR A   1     -21.783  -5.765  -5.920  1.00  0.00     0.010 A 
BRANCH  19  22
ATOM     22  OH  TYR A   1     -22.746  -3.448  -8.550  1.00  0.00    -0.361 OA
ATOM     23  HH  TYR A   1     -22.679  -2.584  -8.111  1.00  0.00     0.217 HD
ENDBRANCH  19  22
ENDBRANCH  15  16
ENDBRANCH   1  15
BRANCH   1  24
ATOM     24  N   TYR A   1     -19.192  -9.665  -5.534  1.00  0.00    -0.346 N 
HETATM   25  C   UNK A   0     -18.217  -9.924  -4.568  1.00  0.00     0.241 C 
HETATM   26  O   UNK A   0     -18.241  -9.391  -3.465  1.00  0.00    -0.271 OA
ATOM     27  H   TYR A   1     -19.099 -10.085  -6.453  1.00  0.00     0.163 HD
BRANCH  25  28
HETATM   28  C   UNK A   0     -17.127 -10.986  -4.986  1.00  0.00     0.179 C 
HETATM   29  C   UNK A   0     -16.187 -10.310  -6.019  1.00  0.00     0.037 C 
HETATM   30  C   UNK A   0     -15.364 -11.452  -6.596  1.00  0.00     0.022 C 
HETATM   31  C   UNK A   0     -16.284 -12.648  -6.533  1.00  0.00     0.127 C 
HETATM   32  N   UNK A   0     -17.413 -12.267  -5.694  1.00  0.00    -0.337 N 
HETATM   33  C   UNK A   0     -18.220 -13.337  -5.323  1.00  0.00     0.243 C 
HETATM   34  O   UNK A   0     -17.916 -14.495  -5.627  1.00  0.00    -0.271 OA
BRANCH  33  35
HETATM   35  C   UNK A   0     -19.535 -13.053  -4.603  1.00  0.00     0.179 C 
HETATM   36  C   UNK A   0     -19.397 -13.533  -3.156  1.00  0.00     0.037 C 
HETATM   37  C   UNK A   0     -20.559 -14.489  -2.895  1.00  0.00     0.022 C 
HETATM   38  C   UNK A   0     -21.472 -14.387  -4.096  1.00  0.00     0.127 C 
HETATM   39  N   UNK A   0     -20.671 -13.817  -5.152  1.00  0.00    -0.339 N 
HETATM   40  C   UNK A   0     -21.235 -13.715  -6.412  1.00  0.00     0.216 C 
HETATM   41  O   UNK A   0     -22.373 -14.127  -6.640  1.00  0.00    -0.274 OA
HETATM   42  C   UNK A   0     -20.414 -13.165  -7.550  1.00  0.00     0.117 C 
ENDBRANCH  33  35
ENDBRANCH  25  28
ENDBRANCH   1  24
TORSDOF 12
BEGIN_RES ARG D 557
REMARK  4 active torsions:
REMARK  status: ('A' for Active; 'I' for Inactive)
REMARK    1  A    between atoms: CA   and  CB  
REMARK    2  A    between atoms: CB   and  CG  
REMARK    3  A    between atoms: CG   and  CD  
REMARK    4  A    between atoms: CD   and  NE  
REMARK       I    between atoms: NE   and  CZ  
REMARK       I    between atoms: CZ   and  NH1 
REMARK       I    between atoms: CZ   and  NH2 
ROOT
ATOM      1  CA  ARG D 557     -26.217   2.705 -17.014  1.00 35.49     0.159 C 
ENDROOT
BRANCH   1   2
ATOM      2  CB  ARG D 557     -26.789   1.319 -17.183  1.00 35.49     0.034 C 
BRANCH   2   3
ATOM      3  CG  ARG D 557     -25.835   0.204 -17.165  1.00 35.49     0.027 C 
BRANCH   3   4
ATOM      4  CD  ARG D 557     -24.754   0.402 -16.173  1.00 35.49     0.116 C 
BRANCH   4   5
ATOM      5  NE  ARG D 557     -24.915  -0.441 -15.018  1.00 35.49    -0.212 N 
ATOM      6  CZ  ARG D 557     -24.114  -1.421 -14.664  1.00 35.49     0.666 C 
ATOM      7  NH1 ARG D 557     -23.046  -1.752 -15.366  1.00 35.49    -0.235 N 
ATOM      8  NH2 ARG D 557     -24.403  -2.068 -13.572  1.00 35.49    -0.235 N 
ATOM      9  HH  ARG D 557     -22.836  -1.338 -16.086  1.00 35.49     0.174 HD
ATOM     10  HH  ARG D 557     -22.559  -2.399 -15.085  1.00 35.49     0.174 HD
ATOM     11  HH  ARG D 557     -25.095  -1.827 -13.135  1.00 35.49     0.174 HD
ATOM     12  HH  ARG D 557     -23.907  -2.704 -13.310  1.00 35.49     0.174 HD
ATOM     13  HE  ARG D 557     -25.618  -0.345 -14.548  1.00 35.49     0.178 HD
ENDBRANCH   4   5
ENDBRANCH   3   4
ENDBRANCH   2   3
ENDBRANCH   1   2
END_RES ARG D 557
BEGIN_RES GLU D 570
REMARK  3 active torsions:
REMARK  status: ('A' for Active; 'I' for Inactive)
REMARK    5  A    between atoms: CA   and  CB  
REMARK    6  A    between atoms: CB   and  CG  
REMARK    7  A    between atoms: CG   and  CD  
ROOT
ATOM     14  CA  GLU D 570     -18.033  -6.348 -13.375  1.00 32.92     0.160 C 
ENDROOT
BRANCH  14  15
ATOM     15  CB  GLU D 570     -19.500  -6.345 -13.794  1.00 32.92     0.043 C 
BRANCH  15  16
ATOM     16  CG  GLU D 570     -20.440  -5.522 -12.990  1.00 32.92     0.100 C 
BRANCH  16  17
ATOM     17  CD  GLU D 570     -21.709  -5.180 -13.735  1.00 32.92     0.185 C 
ATOM     18  OE1 GLU D 570     -22.057  -5.891 -14.696  1.00 32.92    -0.647 OA
ATOM     19  OE2 GLU D 570     -22.354  -4.179 -13.363  1.00 32.92    -0.647 OA
ENDBRANCH  16  17
ENDBRANCH  15  16
ENDBRANCH  14  15
END_RES GLU D 570
ENDMDL
MODEL 6
REMARK VINA RESULT:      -7.3      1.829      2.630
REMARK  12 active torsions:
REMARK  status: ('A' for Active; 'I' for Inactive)
REMARK    1  A    between atoms: CG_2  and  CB_4 
REMARK    2  A    between atoms: CB_4  and  CA_5 
REMARK    3  A    between atoms: CA_5  and  C_6 
REMARK    4  A    between atoms: CA_5  and  N_9 
REMARK    5  A    between atoms: C_6  and  OXT_8 
REMARK       I    between atoms: N_9  and  C_10 
REMARK    6  A    between atoms: C_10  and  CA_12 
REMARK    7  A    between atoms: CA_12  and  CB_13 
REMARK    8  A    between atoms: CA_12  and  N_21 
REMARK    9  A    between atoms: CB_13  and  CG_14 
REMARK   10  A    between atoms: CZ_17  and  OH_20 
REMARK       I    between atoms: N_21  and  C_26 
REMARK   11  A    between atoms: C_26  and  C_28 
REMARK       I    between atoms: N_32  and  C_33 
REMARK   12  A    between atoms: C_33  and  C_35 
REMARK       I    between atoms: N_39  and  C_40 
ROOT
ATOM      1  CA  TYR A   1     -20.476  -8.605  -5.430  1.00  0.00     0.180 C 
ENDROOT
BRANCH   1   2
ATOM      2  C   TYR A   1     -21.264  -8.892  -4.099  1.00  0.00     0.241 C 
ATOM      3  N   TYR A   1     -21.125  -8.010  -3.034  1.00  0.00    -0.345 N 
ATOM      4  H   TYR A   1     -20.759  -7.083  -3.223  1.00  0.00     0.163 HD
ATOM      5  O   TYR A   1     -22.072  -9.820  -4.011  1.00  0.00    -0.271 OA
BRANCH   3   6
ATOM      6  CA  TYR A   1     -21.844  -8.188  -1.741  1.00  0.00     0.182 C 
BRANCH   6   7
ATOM      7  CB  TYR A   1     -20.938  -8.887  -0.695  1.00  0.00     0.040 C 
BRANCH   7   8
ATOM      8  CG  TYR A   1     -21.632  -9.789   0.369  1.00  0.00    -0.020 A 
ATOM      9  CD1 TYR A   1     -22.925 -10.435  -0.132  1.00  0.00     0.009 A 
ATOM     10  CD2 TYR A   1     -20.673 -10.901   0.828  1.00  0.00     0.009 A 
ENDBRANCH   7   8
ENDBRANCH   6   7
BRANCH   6  11
ATOM     11  C   TYR A   1     -22.344  -6.803  -1.253  1.00  0.00     0.163 C 
ATOM     12  O   TYR A   1     -22.628  -6.521  -0.107  1.00  0.00    -0.648 OA
BRANCH  11  13
ATOM     13  OXT TYR A   1     -22.413  -5.895  -2.261  1.00  0.00    -0.775 OA
ATOM     14  HXT TYR A   1     -23.252  -5.971  -2.782  1.00  0.00     0.167 HD
ENDBRANCH  11  13
ENDBRANCH   6  11
ENDBRANCH   3   6
ENDBRANCH   1   2
BRANCH   1  15
ATOM     15  CB  TYR A   1     -19.883  -7.180  -5.486  1.00  0.00     0.073 C 
BRANCH  15  16
ATOM     16  CG  TYR A   1     -20.638  -6.183  -6.339  1.00  0.00    -0.056 A 
ATOM     17  CD1 TYR A   1     -20.078  -5.698  -7.528  1.00  0.00     0.010 A 
ATOM     18  CE1 TYR A   1     -20.763  -4.762  -8.309  1.00  0.00     0.037 A 
ATOM     19  CZ  TYR A   1     -22.014  -4.313  -7.900  1.00  0.00     0.065 A 
ATOM     20  CE2 TYR A   1     -22.599  -4.801  -6.739  1.00  0.00     0.037 A 
ATOM     21  CD2 TYR A   1     -21.918  -5.742  -5.965  1.00  0.00     0.010 A 
BRANCH  19  22
ATOM     22  OH  TYR A   1     -22.712  -3.388  -8.618  1.00  0.00    -0.361 OA
ATOM     23  HH  TYR A   1     -23.576  -3.763  -8.857  1.00  0.00     0.217 HD
ENDBRANCH  19  22
ENDBRANCH  15  16
ENDBRANCH   1  15
BRANCH   1  24
ATOM     24  N   TYR A   1     -19.486  -9.706  -5.663  1.00  0.00    -0.346 N 
HETATM   25  C   UNK A   0     -18.382  -9.991  -4.856  1.00  0.00     0.241 C 
HETATM   26  O   UNK A   0     -18.220  -9.451  -3.768  1.00  0.00    -0.271 OA
ATOM     27  H   TYR A   1     -19.549 -10.133  -6.581  1.00  0.00     0.163 HD
BRANCH  25  28
HETATM   28  C   UNK A   0     -17.402 -11.088  -5.427  1.00  0.00     0.179 C 
HETATM   29  C   UNK A   0     -17.915 -11.486  -6.836  1.00  0.00     0.037 C 
HETATM   30  C   UNK A   0     -17.124 -12.734  -7.196  1.00  0.00     0.022 C 
HETATM   31  C   UNK A   0     -16.857 -13.405  -5.870  1.00  0.00     0.127 C 
HETATM   32  N   UNK A   0     -17.198 -12.440  -4.833  1.00  0.00    -0.337 N 
HETATM   33  C   UNK A   0     -16.765 -12.807  -3.563  1.00  0.00     0.243 C 
HETATM   34  O   UNK A   0     -16.081 -13.821  -3.395  1.00  0.00    -0.271 OA
BRANCH  33  35
HETATM   35  C   UNK A   0     -17.218 -11.980  -2.363  1.00  0.00     0.179 C 
HETATM   36  C   UNK A   0     -15.980 -11.329  -1.742  1.00  0.00     0.037 C 
HETATM   37  C   UNK A   0     -15.970 -11.719  -0.265  1.00  0.00     0.022 C 
HETATM   38  C   UNK A   0     -17.295 -12.396   0.005  1.00  0.00     0.127 C 
HETATM   39  N   UNK A   0     -17.801 -12.799  -1.284  1.00  0.00    -0.339 N 
HETATM   40  C   UNK A   0     -18.963 -13.550  -1.319  1.00  0.00     0.216 C 
HETATM   41  O   UNK A   0     -19.535 -13.894  -0.284  1.00  0.00    -0.274 OA
HETATM   42  C   UNK A   0     -19.499 -14.026  -2.645  1.00  0.00     0.117 C 
ENDBRANCH  33  35
ENDBRANCH  25  28
ENDBRANCH   1  24
TORSDOF 12
BEGIN_RES ARG D 557
REMARK  4 active torsions:
REMARK  status: ('A' for Active; 'I' for Inactive)
REMARK    1  A    between atoms: CA   and  CB  
REMARK    2  A    between atoms: CB   and  CG  
REMARK    3  A    between atoms: CG   and  CD  
REMARK    4  A    between atoms: CD   and  NE  
REMARK       I    between atoms: NE   and  CZ  
REMARK       I    between atoms: CZ   and  NH1 
REMARK       I    between atoms: CZ   and  NH2 
ROOT
ATOM      1  CA  ARG D 557     -26.217   2.705 -17.014  1.00 35.49     0.159 C 
ENDROOT
BRANCH   1   2
ATOM      2  CB  ARG D 557     -26.789   1.319 -17.183  1.00 35.49     0.034 C 
BRANCH   2   3
ATOM      3  CG  ARG D 557     -28.231   1.226 -17.441  1.00 35.49     0.027 C 
BRANCH   3   4
ATOM      4  CD  ARG D 557     -28.914   0.304 -16.505  1.00 35.49     0.116 C 
BRANCH   4   5
ATOM      5  NE  ARG D 557     -28.135  -0.878 -16.244  1.00 35.49    -0.212 N 
ATOM      6  CZ  ARG D 557     -28.378  -2.079 -16.718  1.00 35.49     0.666 C 
ATOM      7  NH1 ARG D 557     -29.409  -2.336 -17.502  1.00 35.49    -0.235 N 
ATOM      8  NH2 ARG D 557     -27.552  -3.031 -16.394  1.00 35.49    -0.235 N 
ATOM      9  HH  ARG D 557     -29.964  -1.724 -17.730  1.00 35.49     0.174 HD
ATOM     10  HH  ARG D 557     -29.516  -3.138 -17.783  1.00 35.49     0.174 HD
ATOM     11  HH  ARG D 557     -26.891  -2.834 -15.893  1.00 35.49     0.174 HD
ATOM     12  HH  ARG D 557     -27.674  -3.819 -16.684  1.00 35.49     0.174 HD
ATOM     13  HE  ARG D 557     -27.492  -0.818 -15.690  1.00 35.49     0.178 HD
ENDBRANCH   4   5
ENDBRANCH   3   4
ENDBRANCH   2   3
ENDBRANCH   1   2
END_RES ARG D 557
BEGIN_RES GLU D 570
REMARK  3 active torsions:
REMARK  status: ('A' for Active; 'I' for Inactive)
REMARK    5  A    between atoms: CA   and  CB  
REMARK    6  A    between atoms: CB   and  CG  
REMARK    7  A    between atoms: CG   and  CD  
ROOT
ATOM     14  CA  GLU D 570     -18.033  -6.348 -13.375  1.00 32.92     0.160 C 
ENDROOT
BRANCH  14  15
ATOM     15  CB  GLU D 570     -19.500  -6.345 -13.794  1.00 32.92     0.043 C 
BRANCH  15  16
ATOM     16  CG  GLU D 570     -20.441  -5.528 -12.985  1.00 32.92     0.100 C 
BRANCH  16  17
ATOM     17  CD  GLU D 570     -21.706  -5.175 -13.732  1.00 32.92     0.185 C 
ATOM     18  OE1 GLU D 570     -21.646  -4.961 -14.958  1.00 32.92    -0.647 OA
ATOM     19  OE2 GLU D 570     -22.766  -5.094 -13.080  1.00 32.92    -0.647 OA
ENDBRANCH  16  17
ENDBRANCH  15  16
ENDBRANCH  14  15
END_RES GLU D 570
ENDMDL
MODEL 7
REMARK VINA RESULT:      -7.3      2.084      5.589
REMARK  12 active torsions:
REMARK  status: ('A' for Active; 'I' for Inactive)
REMARK    1  A    between atoms: CG_2  and  CB_4 
REMARK    2  A    between atoms: CB_4  and  CA_5 
REMARK    3  A    between atoms: CA_5  and  C_6 
REMARK    4  A    between atoms: CA_5  and  N_9 
REMARK    5  A    between atoms: C_6  and  OXT_8 
REMARK       I    between atoms: N_9  and  C_10 
REMARK    6  A    between atoms: C_10  and  CA_12 
REMARK    7  A    between atoms: CA_12  and  CB_13 
REMARK    8  A    between atoms: CA_12  and  N_21 
REMARK    9  A    between atoms: CB_13  and  CG_14 
REMARK   10  A    between atoms: CZ_17  and  OH_20 
REMARK       I    between atoms: N_21  and  C_26 
REMARK   11  A    between atoms: C_26  and  C_28 
REMARK       I    between atoms: N_32  and  C_33 
REMARK   12  A    between atoms: C_33  and  C_35 
REMARK       I    between atoms: N_39  and  C_40 
ROOT
ATOM      1  CA  TYR A   1     -18.316  -9.764  -5.947  1.00  0.00     0.180 C 
ENDROOT
BRANCH   1   2
ATOM      2  C   TYR A   1     -19.068  -8.730  -5.029  1.00  0.00     0.241 C 
ATOM      3  N   TYR A   1     -19.769  -7.690  -5.626  1.00  0.00    -0.345 N 
ATOM      4  H   TYR A   1     -20.012  -7.775  -6.607  1.00  0.00     0.163 HD
ATOM      5  O   TYR A   1     -19.130  -8.876  -3.806  1.00  0.00    -0.271 OA
BRANCH   3   6
ATOM      6  CA  TYR A   1     -20.526  -6.673  -4.841  1.00  0.00     0.182 C 
BRANCH   6   7
ATOM      7  CB  TYR A   1     -20.362  -5.261  -5.461  1.00  0.00     0.040 C 
BRANCH   7   8
ATOM      8  CG  TYR A   1     -20.464  -5.140  -7.010  1.00  0.00    -0.020 A 
ATOM      9  CD1 TYR A   1     -21.645  -4.287  -7.478  1.00  0.00     0.009 A 
ATOM     10  CD2 TYR A   1     -19.168  -4.538  -7.582  1.00  0.00     0.009 A 
ENDBRANCH   7   8
ENDBRANCH   6   7
BRANCH   6  11
ATOM     11  C   TYR A   1     -22.011  -7.110  -4.761  1.00  0.00     0.163 C 
ATOM     12  O   TYR A   1     -22.968  -6.393  -4.968  1.00  0.00    -0.648 OA
BRANCH  11  13
ATOM     13  OXT TYR A   1     -22.146  -8.425  -4.446  1.00  0.00    -0.775 OA
ATOM     14  HXT TYR A   1     -21.312  -8.815  -4.083  1.00  0.00     0.167 HD
ENDBRANCH  11  13
ENDBRANCH   6  11
ENDBRANCH   3   6
ENDBRANCH   1   2
BRANCH   1  15
ATOM     15  CB  TYR A   1     -16.789  -9.773  -5.722  1.00  0.00     0.073 C 
BRANCH  15  16
ATOM     16  CG  TYR A   1     -16.299 -10.597  -4.550  1.00  0.00    -0.056 A 
ATOM     17  CD1 TYR A   1     -16.073 -11.973  -4.694  1.00  0.00     0.010 A 
ATOM     18  CE1 TYR A   1     -15.640 -12.741  -3.609  1.00  0.00     0.037 A 
ATOM     19  CZ  TYR A   1     -15.429 -12.130  -2.377  1.00  0.00     0.065 A 
ATOM     20  CE2 TYR A   1     -15.621 -10.765  -2.220  1.00  0.00     0.037 A 
ATOM     21  CD2 TYR A   1     -16.045  -9.997  -3.306  1.00  0.00     0.010 A 
BRANCH  19  22
ATOM     22  OH  TYR A   1     -15.025 -12.841  -1.286  1.00  0.00    -0.361 OA
ATOM     23  HH  TYR A   1     -14.869 -12.226  -0.551  1.00  0.00     0.217 HD
ENDBRANCH  19  22
ENDBRANCH  15  16
ENDBRANCH   1  15
BRANCH   1  24
ATOM     24  N   TYR A   1     -18.977 -11.104  -5.822  1.00  0.00    -0.346 N 
HETATM   25  C   UNK A   0     -20.346 -11.350  -5.946  1.00  0.00     0.241 C 
HETATM   26  O   UNK A   0     -21.124 -10.491  -6.343  1.00  0.00    -0.271 OA
ATOM     27  H   TYR A   1     -18.379 -11.826  -5.434  1.00  0.00     0.163 HD
BRANCH  25  28
HETATM   28  C   UNK A   0     -20.795 -12.820  -5.590  1.00  0.00     0.179 C 
HETATM   29  C   UNK A   0     -21.756 -13.300  -6.710  1.00  0.00     0.037 C 
HETATM   30  C   UNK A   0     -22.377 -14.577  -6.165  1.00  0.00     0.022 C 
HETATM   31  C   UNK A   0     -22.414 -14.367  -4.669  1.00  0.00     0.127 C 
HETATM   32  N   UNK A   0     -21.588 -13.201  -4.387  1.00  0.00    -0.337 N 
HETATM   33  C   UNK A   0     -21.307 -13.029  -3.035  1.00  0.00     0.243 C 
HETATM   34  O   UNK A   0     -21.672 -13.864  -2.201  1.00  0.00    -0.271 OA
BRANCH  33  35
HETATM   35  C   UNK A   0     -20.611 -11.748  -2.584  1.00  0.00     0.179 C 
HETATM   36  C   UNK A   0     -19.149 -12.084  -2.281  1.00  0.00     0.037 C 
HETATM   37  C   UNK A   0     -18.874 -11.608  -0.856  1.00  0.00     0.022 C 
HETATM   38  C   UNK A   0     -20.088 -10.813  -0.431  1.00  0.00     0.127 C 
HETATM   39  N   UNK A   0     -21.150 -11.212  -1.321  1.00  0.00    -0.339 N 
HETATM   40  C   UNK A   0     -22.420 -10.713  -1.081  1.00  0.00     0.216 C 
HETATM   41  O   UNK A   0     -22.648  -9.978  -0.120  1.00  0.00    -0.274 OA
HETATM   42  C   UNK A   0     -23.563 -11.142  -1.964  1.00  0.00     0.117 C 
ENDBRANCH  33  35
ENDBRANCH  25  28
ENDBRANCH   1  24
TORSDOF 12
BEGIN_RES ARG D 557
REMARK  4 active torsions:
REMARK  status: ('A' for Active; 'I' for Inactive)
REMARK    1  A    between atoms: CA   and  CB  
REMARK    2  A    between atoms: CB   and  CG  
REMARK    3  A    between atoms: CG   and  CD  
REMARK    4  A    between atoms: CD   and  NE  
REMARK       I    between atoms: NE   and  CZ  
REMARK       I    between atoms: CZ   and  NH1 
REMARK       I    between atoms: CZ   and  NH2 
ROOT
ATOM      1  CA  ARG D 557     -26.217   2.705 -17.014  1.00 35.49     0.159 C 
ENDROOT
BRANCH   1   2
ATOM      2  CB  ARG D 557     -26.789   1.319 -17.183  1.00 35.49     0.034 C 
BRANCH   2   3
ATOM      3  CG  ARG D 557     -25.838   0.202 -17.139  1.00 35.49     0.027 C 
BRANCH   3   4
ATOM      4  CD  ARG D 557     -24.750   0.425 -16.159  1.00 35.49     0.116 C 
BRANCH   4   5
ATOM      5  NE  ARG D 557     -24.864  -0.441 -15.016  1.00 35.49    -0.212 N 
ATOM      6  CZ  ARG D 557     -24.031  -1.406 -14.697  1.00 35.49     0.666 C 
ATOM      7  NH1 ARG D 557     -22.972  -1.699 -15.428  1.00 35.49    -0.235 N 
ATOM      8  NH2 ARG D 557     -24.278  -2.078 -13.610  1.00 35.49    -0.235 N 
ATOM      9  HH  ARG D 557     -22.789  -1.269 -16.146  1.00 35.49     0.174 HD
ATOM     10  HH  ARG D 557     -22.463  -2.338 -15.170  1.00 35.49     0.174 HD
ATOM     11  HH  ARG D 557     -24.965  -1.861 -13.153  1.00 35.49     0.174 HD
ATOM     12  HH  ARG D 557     -23.761  -2.705 -13.369  1.00 35.49     0.174 HD
ATOM     13  HE  ARG D 557     -25.557  -0.369 -14.528  1.00 35.49     0.178 HD
ENDBRANCH   4   5
ENDBRANCH   3   4
ENDBRANCH   2   3
ENDBRANCH   1   2
END_RES ARG D 557
BEGIN_RES GLU D 570
REMARK  3 active torsions:
REMARK  status: ('A' for Active; 'I' for Inactive)
REMARK    5  A    between atoms: CA   and  CB  
REMARK    6  A    between atoms: CB   and  CG  
REMARK    7  A    between atoms: CG   and  CD  
ROOT
ATOM     14  CA  GLU D 570     -18.033  -6.348 -13.375  1.00 32.92     0.160 C 
ENDROOT
BRANCH  14  15
ATOM     15  CB  GLU D 570     -19.500  -6.345 -13.794  1.00 32.92     0.043 C 
BRANCH  15  16
ATOM     16  CG  GLU D 570     -19.830  -5.782 -15.129  1.00 32.92     0.100 C 
BRANCH  16  17
ATOM     17  CD  GLU D 570     -21.304  -5.501 -15.303  1.00 32.92     0.185 C 
ATOM     18  OE1 GLU D 570     -21.657  -4.506 -15.964  1.00 32.92    -0.647 OA
ATOM     19  OE2 GLU D 570     -22.115  -6.276 -14.757  1.00 32.92    -0.647 OA
ENDBRANCH  16  17
ENDBRANCH  15  16
ENDBRANCH  14  15
END_RES GLU D 570
ENDMDL
MODEL 8
REMARK VINA RESULT:      -7.3      2.524      4.950
REMARK  12 active torsions:
REMARK  status: ('A' for Active; 'I' for Inactive)
REMARK    1  A    between atoms: CG_2  and  CB_4 
REMARK    2  A    between atoms: CB_4  and  CA_5 
REMARK    3  A    between atoms: CA_5  and  C_6 
REMARK    4  A    between atoms: CA_5  and  N_9 
REMARK    5  A    between atoms: C_6  and  OXT_8 
REMARK       I    between atoms: N_9  and  C_10 
REMARK    6  A    between atoms: C_10  and  CA_12 
REMARK    7  A    between atoms: CA_12  and  CB_13 
REMARK    8  A    between atoms: CA_12  and  N_21 
REMARK    9  A    between atoms: CB_13  and  CG_14 
REMARK   10  A    between atoms: CZ_17  and  OH_20 
REMARK       I    between atoms: N_21  and  C_26 
REMARK   11  A    between atoms: C_26  and  C_28 
REMARK       I    between atoms: N_32  and  C_33 
REMARK   12  A    between atoms: C_33  and  C_35 
REMARK       I    between atoms: N_39  and  C_40 
ROOT
ATOM      1  CA  TYR A   1     -20.515 -11.171  -3.882  1.00  0.00     0.180 C 
ENDROOT
BRANCH   1   2
ATOM      2  C   TYR A   1     -21.430 -10.224  -3.021  1.00  0.00     0.241 C 
ATOM      3  N   TYR A   1     -20.973  -8.947  -2.717  1.00  0.00    -0.345 N 
ATOM      4  H   TYR A   1     -20.216  -8.563  -3.271  1.00  0.00     0.163 HD
ATOM      5  O   TYR A   1     -22.574 -10.549  -2.694  1.00  0.00    -0.271 OA
BRANCH   3   6
ATOM      6  CA  TYR A   1     -21.775  -7.973  -1.923  1.00  0.00     0.182 C 
BRANCH   6   7
ATOM      7  CB  TYR A   1     -21.221  -7.845  -0.481  1.00  0.00     0.040 C 
BRANCH   7   8
ATOM      8  CG  TYR A   1     -21.884  -8.720   0.624  1.00  0.00    -0.020 A 
ATOM      9  CD1 TYR A   1     -23.358  -9.028   0.354  1.00  0.00     0.009 A 
ATOM     10  CD2 TYR A   1     -21.124 -10.049   0.775  1.00  0.00     0.009 A 
ENDBRANCH   7   8
ENDBRANCH   6   7
BRANCH   6  11
ATOM     11  C   TYR A   1     -21.789  -6.614  -2.670  1.00  0.00     0.163 C 
ATOM     12  O   TYR A   1     -21.296  -6.403  -3.759  1.00  0.00    -0.648 OA
BRANCH  11  13
ATOM     13  OXT TYR A   1     -22.449  -5.651  -1.976  1.00  0.00    -0.775 OA
ATOM     14  HXT TYR A   1     -22.105  -5.545  -1.053  1.00  0.00     0.167 HD
ENDBRANCH  11  13
ENDBRANCH   6  11
ENDBRANCH   3   6
ENDBRANCH   1   2
BRANCH   1  15
ATOM     15  CB  TYR A   1     -20.130 -10.562  -5.248  1.00  0.00     0.073 C 
BRANCH  15  16
ATOM     16  CG  TYR A   1     -19.790 -11.552  -6.341  1.00  0.00    -0.056 A 
ATOM     17  CD1 TYR A   1     -20.788 -12.359  -6.904  1.00  0.00     0.010 A 
ATOM     18  CE1 TYR A   1     -20.475 -13.290  -7.900  1.00  0.00     0.037 A 
ATOM     19  CZ  TYR A   1     -19.160 -13.411  -8.335  1.00  0.00     0.065 A 
ATOM     20  CE2 TYR A   1     -18.161 -12.603  -7.810  1.00  0.00     0.037 A 
ATOM     21  CD2 TYR A   1     -18.476 -11.668  -6.822  1.00  0.00     0.010 A 
BRANCH  19  22
ATOM     22  OH  TYR A   1     -18.803 -14.316  -9.290  1.00  0.00    -0.361 OA
ATOM     23  HH  TYR A   1     -19.325 -14.147 -10.093  1.00  0.00     0.217 HD
ENDBRANCH  19  22
ENDBRANCH  15  16
ENDBRANCH   1  15
BRANCH   1  24
ATOM     24  N   TYR A   1     -19.355 -11.626  -3.049  1.00  0.00    -0.346 N 
HETATM   25  C   UNK A   0     -18.924 -12.947  -2.907  1.00  0.00     0.241 C 
HETATM   26  O   UNK A   0     -19.370 -13.851  -3.603  1.00  0.00    -0.271 OA
ATOM     27  H   TYR A   1     -19.001 -10.921  -2.411  1.00  0.00     0.163 HD
BRANCH  25  28
HETATM   28  C   UNK A   0     -17.793 -13.168  -1.830  1.00  0.00     0.179 C 
HETATM   29  C   UNK A   0     -18.296 -12.564  -0.492  1.00  0.00     0.037 C 
HETATM   30  C   UNK A   0     -17.068 -12.538   0.406  1.00  0.00     0.022 C 
HETATM   31  C   UNK A   0     -15.911 -12.346  -0.546  1.00  0.00     0.127 C 
HETATM   32  N   UNK A   0     -16.429 -12.568  -1.890  1.00  0.00    -0.337 N 
HETATM   33  C   UNK A   0     -15.439 -12.685  -2.859  1.00  0.00     0.243 C 
HETATM   34  O   UNK A   0     -14.244 -12.684  -2.547  1.00  0.00    -0.271 OA
BRANCH  33  35
HETATM   35  C   UNK A   0     -15.848 -12.732  -4.329  1.00  0.00     0.179 C 
HETATM   36  C   UNK A   0     -15.165 -13.940  -4.973  1.00  0.00     0.037 C 
HETATM   37  C   UNK A   0     -14.398 -13.419  -6.186  1.00  0.00     0.022 C 
HETATM   38  C   UNK A   0     -14.814 -11.976  -6.365  1.00  0.00     0.127 C 
HETATM   39  N   UNK A   0     -15.371 -11.568  -5.099  1.00  0.00    -0.339 N 
HETATM   40  C   UNK A   0     -15.734 -10.241  -4.947  1.00  0.00     0.216 C 
HETATM   41  O   UNK A   0     -15.559  -9.421  -5.849  1.00  0.00    -0.274 OA
HETATM   42  C   UNK A   0     -16.280  -9.768  -3.624  1.00  0.00     0.117 C 
ENDBRANCH  33  35
ENDBRANCH  25  28
ENDBRANCH   1  24
TORSDOF 12
BEGIN_RES ARG D 557
REMARK  4 active torsions:
REMARK  status: ('A' for Active; 'I' for Inactive)
REMARK    1  A    between atoms: CA   and  CB  
REMARK    2  A    between atoms: CB   and  CG  
REMARK    3  A    between atoms: CG   and  CD  
REMARK    4  A    between atoms: CD   and  NE  
REMARK       I    between atoms: NE   and  CZ  
REMARK       I    between atoms: CZ   and  NH1 
REMARK       I    between atoms: CZ   and  NH2 
ROOT
ATOM      1  CA  ARG D 557     -26.217   2.705 -17.014  1.00 35.49     0.159 C 
ENDROOT
BRANCH   1   2
ATOM      2  CB  ARG D 557     -26.789   1.319 -17.183  1.00 35.49     0.034 C 
BRANCH   2   3
ATOM      3  CG  ARG D 557     -28.236   1.225 -17.413  1.00 35.49     0.027 C 
BRANCH   3   4
ATOM      4  CD  ARG D 557     -28.896   0.285 -16.478  1.00 35.49     0.116 C 
BRANCH   4   5
ATOM      5  NE  ARG D 557     -29.306  -0.930 -17.131  1.00 35.49    -0.212 N 
ATOM      6  CZ  ARG D 557     -28.696  -2.091 -17.046  1.00 35.49     0.666 C 
ATOM      7  NH1 ARG D 557     -27.594  -2.263 -16.339  1.00 35.49    -0.235 N 
ATOM      8  NH2 ARG D 557     -29.221  -3.094 -17.688  1.00 35.49    -0.235 N 
ATOM      9  HH  ARG D 557     -27.233  -1.618 -15.907  1.00 35.49     0.174 HD
ATOM     10  HH  ARG D 557     -27.242  -3.044 -16.318  1.00 35.49     0.174 HD
ATOM     11  HH  ARG D 557     -29.937  -2.955 -18.131  1.00 35.49     0.174 HD
ATOM     12  HH  ARG D 557     -28.858  -3.859 -17.655  1.00 35.49     0.174 HD
ATOM     13  HE  ARG D 557     -29.966  -0.893 -17.666  1.00 35.49     0.178 HD
ENDBRANCH   4   5
ENDBRANCH   3   4
ENDBRANCH   2   3
ENDBRANCH   1   2
END_RES ARG D 557
BEGIN_RES GLU D 570
REMARK  3 active torsions:
REMARK  status: ('A' for Active; 'I' for Inactive)
REMARK    5  A    between atoms: CA   and  CB  
REMARK    6  A    between atoms: CB   and  CG  
REMARK    7  A    between atoms: CG   and  CD  
ROOT
ATOM     14  CA  GLU D 570     -18.033  -6.348 -13.375  1.00 32.92     0.160 C 
ENDROOT
BRANCH  14  15
ATOM     15  CB  GLU D 570     -19.500  -6.345 -13.794  1.00 32.92     0.043 C 
BRANCH  15  16
ATOM     16  CG  GLU D 570     -20.440  -5.520 -12.991  1.00 32.92     0.100 C 
BRANCH  16  17
ATOM     17  CD  GLU D 570     -21.739  -5.240 -13.709  1.00 32.92     0.185 C 
ATOM     18  OE1 GLU D 570     -22.188  -6.090 -14.502  1.00 32.92    -0.647 OA
ATOM     19  OE2 GLU D 570     -22.305  -4.151 -13.489  1.00 32.92    -0.647 OA
ENDBRANCH  16  17
ENDBRANCH  15  16
ENDBRANCH  14  15
END_RES GLU D 570
ENDMDL
MODEL 9
REMARK VINA RESULT:      -7.0      2.411      5.521
REMARK  12 active torsions:
REMARK  status: ('A' for Active; 'I' for Inactive)
REMARK    1  A    between atoms: CG_2  and  CB_4 
REMARK    2  A    between atoms: CB_4  and  CA_5 
REMARK    3  A    between atoms: CA_5  and  C_6 
REMARK    4  A    between atoms: CA_5  and  N_9 
REMARK    5  A    between atoms: C_6  and  OXT_8 
REMARK       I    between atoms: N_9  and  C_10 
REMARK    6  A    between atoms: C_10  and  CA_12 
REMARK    7  A    between atoms: CA_12  and  CB_13 
REMARK    8  A    between atoms: CA_12  and  N_21 
REMARK    9  A    between atoms: CB_13  and  CG_14 
REMARK   10  A    between atoms: CZ_17  and  OH_20 
REMARK       I    between atoms: N_21  and  C_26 
REMARK   11  A    between atoms: C_26  and  C_28 
REMARK       I    between atoms: N_32  and  C_33 
REMARK   12  A    between atoms: C_33  and  C_35 
REMARK       I    between atoms: N_39  and  C_40 
ROOT
ATOM      1  CA  TYR A   1     -19.115 -11.035  -1.929  1.00  0.00     0.180 C 
ENDROOT
BRANCH   1   2
ATOM      2  C   TYR A   1     -20.474 -10.248  -2.020  1.00  0.00     0.241 C 
ATOM      3  N   TYR A   1     -20.453  -8.862  -1.935  1.00  0.00    -0.345 N 
ATOM      4  H   TYR A   1     -19.573  -8.384  -2.095  1.00  0.00     0.163 HD
ATOM      5  O   TYR A   1     -21.540 -10.822  -2.261  1.00  0.00    -0.271 OA
BRANCH   3   6
ATOM      6  CA  TYR A   1     -21.686  -8.030  -2.028  1.00  0.00     0.182 C 
BRANCH   6   7
ATOM      7  CB  TYR A   1     -21.919  -7.235  -0.718  1.00  0.00     0.040 C 
BRANCH   7   8
ATOM      8  CG  TYR A   1     -22.454  -8.023   0.515  1.00  0.00    -0.020 A 
ATOM      9  CD1 TYR A   1     -23.375  -9.185   0.141  1.00  0.00     0.009 A 
ATOM     10  CD2 TYR A   1     -21.280  -8.574   1.343  1.00  0.00     0.009 A 
ENDBRANCH   7   8
ENDBRANCH   6   7
BRANCH   6  11
ATOM     11  C   TYR A   1     -21.568  -7.102  -3.265  1.00  0.00     0.163 C 
ATOM     12  O   TYR A   1     -20.886  -7.318  -4.245  1.00  0.00    -0.648 OA
BRANCH  11  13
ATOM     13  OXT TYR A   1     -22.346  -5.994  -3.155  1.00  0.00    -0.775 OA
ATOM     14  HXT TYR A   1     -21.814  -5.160  -3.111  1.00  0.00     0.167 HD
ENDBRANCH  11  13
ENDBRANCH   6  11
ENDBRANCH   3   6
ENDBRANCH   1   2
BRANCH   1  15
ATOM     15  CB  TYR A   1     -19.145 -12.174  -0.886  1.00  0.00     0.073 C 
BRANCH  15  16
ATOM     16  CG  TYR A   1     -17.821 -12.502  -0.228  1.00  0.00    -0.056 A 
ATOM     17  CD1 TYR A   1     -16.678 -11.741  -0.513  1.00  0.00     0.010 A 
ATOM     18  CE1 TYR A   1     -15.449 -12.053   0.076  1.00  0.00     0.037 A 
ATOM     19  CZ  TYR A   1     -15.364 -13.127   0.956  1.00  0.00     0.065 A 
ATOM     20  CE2 TYR A   1     -16.489 -13.875   1.273  1.00  0.00     0.037 A 
ATOM     21  CD2 TYR A   1     -17.717 -13.558   0.691  1.00  0.00     0.010 A 
BRANCH  19  22
ATOM     22  OH  TYR A   1     -14.184 -13.480   1.541  1.00  0.00    -0.361 OA
ATOM     23  HH  TYR A   1     -13.776 -12.687   1.927  1.00  0.00     0.217 HD
ENDBRANCH  19  22
ENDBRANCH  15  16
ENDBRANCH   1  15
BRANCH   1  24
ATOM     24  N   TYR A   1     -18.697 -11.457  -3.305  1.00  0.00    -0.346 N 
HETATM   25  C   UNK A   0     -18.246 -10.604  -4.315  1.00  0.00     0.241 C 
HETATM   26  O   UNK A   0     -17.991  -9.425  -4.100  1.00  0.00    -0.271 OA
ATOM     27  H   TYR A   1     -18.951 -12.410  -3.542  1.00  0.00     0.163 HD
BRANCH  25  28
HETATM   28  C   UNK A   0     -18.044 -11.285  -5.724  1.00  0.00     0.179 C 
HETATM   29  C   UNK A   0     -19.449 -11.504  -6.344  1.00  0.00     0.037 C 
HETATM   30  C   UNK A   0     -19.207 -12.417  -7.536  1.00  0.00     0.022 C 
HETATM   31  C   UNK A   0     -18.018 -13.256  -7.131  1.00  0.00     0.127 C 
HETATM   32  N   UNK A   0     -17.451 -12.636  -5.940  1.00  0.00    -0.337 N 
HETATM   33  C   UNK A   0     -16.200 -13.134  -5.592  1.00  0.00     0.243 C 
HETATM   34  O   UNK A   0     -15.625 -13.960  -6.308  1.00  0.00    -0.271 OA
BRANCH  33  35
HETATM   35  C   UNK A   0     -15.580 -12.706  -4.265  1.00  0.00     0.179 C 
HETATM   36  C   UNK A   0     -14.217 -12.075  -4.559  1.00  0.00     0.037 C 
HETATM   37  C   UNK A   0     -13.192 -12.823  -3.708  1.00  0.00     0.022 C 
HETATM   38  C   UNK A   0     -13.981 -13.715  -2.778  1.00  0.00     0.127 C 
HETATM   39  N   UNK A   0     -15.291 -13.841  -3.370  1.00  0.00    -0.339 N 
HETATM   40  C   UNK A   0     -16.193 -14.706  -2.773  1.00  0.00     0.216 C 
HETATM   41  O   UNK A   0     -15.882 -15.374  -1.786  1.00  0.00    -0.274 OA
HETATM   42  C   UNK A   0     -17.555 -14.897  -3.388  1.00  0.00     0.117 C 
ENDBRANCH  33  35
ENDBRANCH  25  28
ENDBRANCH   1  24
TORSDOF 12
BEGIN_RES ARG D 557
REMARK  4 active torsions:
REMARK  status: ('A' for Active; 'I' for Inactive)
REMARK    1  A    between atoms: CA   and  CB  
REMARK    2  A    between atoms: CB   and  CG  
REMARK    3  A    between atoms: CG   and  CD  
REMARK    4  A    between atoms: CD   and  NE  
REMARK       I    between atoms: NE   and  CZ  
REMARK       I    between atoms: CZ   and  NH1 
REMARK       I    between atoms: CZ   and  NH2 
ROOT
ATOM      1  CA  ARG D 557     -26.217   2.705 -17.014  1.00 35.49     0.159 C 
ENDROOT
BRANCH   1   2
ATOM      2  CB  ARG D 557     -26.789   1.319 -17.183  1.00 35.49     0.034 C 
BRANCH   2   3
ATOM      3  CG  ARG D 557     -28.150   1.100 -16.678  1.00 35.49     0.027 C 
BRANCH   3   4
ATOM      4  CD  ARG D 557     -28.788  -0.096 -17.276  1.00 35.49     0.116 C 
BRANCH   4   5
ATOM      5  NE  ARG D 557     -28.171  -1.318 -16.832  1.00 35.49    -0.212 N 
ATOM      6  CZ  ARG D 557     -28.642  -2.530 -17.024  1.00 35.49     0.666 C 
ATOM      7  NH1 ARG D 557     -29.779  -2.757 -17.657  1.00 35.49    -0.235 N 
ATOM      8  NH2 ARG D 557     -27.939  -3.526 -16.570  1.00 35.49    -0.235 N 
ATOM      9  HH  ARG D 557     -30.257  -2.116 -17.966  1.00 35.49     0.174 HD
ATOM     10  HH  ARG D 557     -30.035  -3.568 -17.755  1.00 35.49     0.174 HD
ATOM     11  HH  ARG D 557     -27.206  -3.350 -16.173  1.00 35.49     0.174 HD
ATOM     12  HH  ARG D 557     -28.209  -4.323 -16.679  1.00 35.49     0.174 HD
ATOM     13  HE  ARG D 557     -27.471  -1.261 -16.352  1.00 35.49     0.178 HD
ENDBRANCH   4   5
ENDBRANCH   3   4
ENDBRANCH   2   3
ENDBRANCH   1   2
END_RES ARG D 557
BEGIN_RES GLU D 570
REMARK  3 active torsions:
REMARK  status: ('A' for Active; 'I' for Inactive)
REMARK    5  A    between atoms: CA   and  CB  
REMARK    6  A    between atoms: CB   and  CG  
REMARK    7  A    between atoms: CG   and  CD  
ROOT
ATOM     14  CA  GLU D 570     -18.033  -6.348 -13.375  1.00 32.92     0.160 C 
ENDROOT
BRANCH  14  15
ATOM     15  CB  GLU D 570     -19.500  -6.345 -13.794  1.00 32.92     0.043 C 
BRANCH  15  16
ATOM     16  CG  GLU D 570     -20.446  -5.549 -12.970  1.00 32.92     0.100 C 
BRANCH  16  17
ATOM     17  CD  GLU D 570     -21.726  -5.216 -13.699  1.00 32.92     0.185 C 
ATOM     18  OE1 GLU D 570     -22.322  -4.157 -13.422  1.00 32.92    -0.647 OA
ATOM     19  OE2 GLU D 570     -22.147  -6.030 -14.544  1.00 32.92    -0.647 OA
ENDBRANCH  16  17
ENDBRANCH  15  16
ENDBRANCH  14  15
END_RES GLU D 570
ENDMDL
