MODEL 1
REMARK VINA RESULT:      -8.9      0.000      0.000
REMARK  18 active torsions:
REMARK  status: ('A' for Active; 'I' for Inactive)
REMARK    1  A    between atoms: CG_2  and  CB_4 
REMARK    2  A    between atoms: CB_4  and  CA_5 
REMARK    3  A    between atoms: CA_5  and  C_6 
REMARK    4  A    between atoms: CA_5  and  N_9 
REMARK    5  A    between atoms: C_6  and  OXT_8 
REMARK       I    between atoms: N_9  and  C_12 
REMARK    6  A    between atoms: C_12  and  CA_14 
REMARK    7  A    between atoms: CA_14  and  CB_15 
REMARK    8  A    between atoms: CA_14  and  N_22 
REMARK    9  A    between atoms: CB_15  and  CG_16 
REMARK       I    between atoms: N_22  and  C_24 
REMARK   10  A    between atoms: C_24  and  CA_26 
REMARK   11  A    between atoms: CA_26  and  N_27 
REMARK       I    between atoms: N_27  and  C_29 
REMARK   12  A    between atoms: C_29  and  CA_31 
REMARK   13  A    between atoms: CA_31  and  N_33 
REMARK       I    between atoms: N_33  and  C_35 
REMARK   14  A    between atoms: C_35  and  CA_37 
REMARK   15  A    between atoms: CA_37  and  CB_38 
REMARK   16  A    between atoms: CA_37  and  N_46 
REMARK   17  A    between atoms: CB_38  and  CG_39 
REMARK   18  A    between atoms: CZ_42  and  OH_45 
ROOT
ATOM      1  N   PHE A   4     -20.679 -11.936  -2.095  1.00  0.00    -0.346 N 
ATOM      2  H   PHE A   4     -20.501 -10.954  -2.307  1.00  0.00     0.163 HD
ATOM      3  C   GLY A   3     -21.468 -12.670  -2.963  1.00  0.00     0.236 C 
ATOM      4  O   GLY A   3     -21.629 -13.882  -2.851  1.00  0.00    -0.272 OA
ENDROOT
BRANCH   3   5
ATOM      5  CA  GLY A   3     -22.133 -11.872  -4.099  1.00  0.00     0.225 C 
BRANCH   5   6
ATOM      6  N   GLY A   3     -22.172 -10.442  -3.827  1.00  0.00    -0.351 N 
ATOM      7  C   ALA A   2     -21.450  -9.539  -4.569  1.00  0.00     0.240 C 
ATOM      8  O   ALA A   2     -20.770  -9.910  -5.528  1.00  0.00    -0.271 OA
ATOM      9  H   GLY A   3     -22.746 -10.103  -3.055  1.00  0.00     0.163 HD
BRANCH   7  10
ATOM     10  CA  ALA A   2     -21.568  -8.057  -4.146  1.00  0.00     0.172 C 
ATOM     11  CB  ALA A   2     -20.875  -7.848  -2.805  1.00  0.00     0.042 C 
BRANCH  10  12
ATOM     12  N   ALA A   2     -20.967  -7.169  -5.147  1.00  0.00    -0.346 N 
ATOM     13  C   TYR A   1     -21.651  -6.118  -5.694  1.00  0.00     0.251 C 
ATOM     14  O   TYR A   1     -22.815  -5.897  -5.384  1.00  0.00    -0.271 OA
ATOM     15  H   ALA A   2     -20.057  -7.390  -5.539  1.00  0.00     0.163 HD
BRANCH  13  16
ATOM     16  CA  TYR A   1     -20.842  -5.268  -6.732  1.00  0.00     0.313 C 
BRANCH  16  17
ATOM     17  CB  TYR A   1     -21.671  -4.091  -7.290  1.00  0.00     0.083 C 
BRANCH  17  18
ATOM     18  CG  TYR A   1     -21.719  -3.994  -8.795  1.00  0.00    -0.056 A 
ATOM     19  CD1 TYR A   1     -22.939  -3.757  -9.449  1.00  0.00     0.010 A 
ATOM     20  CE1 TYR A   1     -22.978  -3.578 -10.831  1.00  0.00     0.037 A 
ATOM     21  CZ  TYR A   1     -21.798  -3.657 -11.562  1.00  0.00     0.065 A 
ATOM     22  CE2 TYR A   1     -20.588  -3.933 -10.938  1.00  0.00     0.037 A 
ATOM     23  CD2 TYR A   1     -20.547  -4.101  -9.554  1.00  0.00     0.010 A 
BRANCH  21  24
ATOM     24  OH  TYR A   1     -21.785  -3.448 -12.909  1.00  0.00    -0.361 OA
ATOM     25  HH  TYR A   1     -22.683  -3.591 -13.247  1.00  0.00     0.217 HD
ENDBRANCH  21  24
ENDBRANCH  17  18
ENDBRANCH  16  17
BRANCH  16  26
ATOM     26  N   TYR A   1     -19.583  -4.769  -6.108  1.00  0.00     0.092 N 
ATOM     27  H1  TYR A   1     -19.741  -3.815  -5.785  1.00  0.00     0.313 HD
ATOM     28  H2  TYR A   1     -18.865  -4.692  -6.830  1.00  0.00     0.313 HD
ENDBRANCH  16  26
ENDBRANCH  13  16
ENDBRANCH  10  12
ENDBRANCH   7  10
ENDBRANCH   5   6
ENDBRANCH   3   5
BRANCH   1  29
ATOM     29  CA  PHE A   4     -20.037 -12.513  -0.902  1.00  0.00     0.180 C 
BRANCH  29  30
ATOM     30  C   PHE A   4     -18.587 -11.979  -0.745  1.00  0.00     0.241 C 
ATOM     31  N   LEU A   5     -17.961 -11.525  -1.893  1.00  0.00    -0.345 N 
ATOM     32  H   LEU A   5     -18.536 -11.314  -2.704  1.00  0.00     0.163 HD
ATOM     33  O   PHE A   4     -18.010 -11.900   0.346  1.00  0.00    -0.271 OA
BRANCH  31  34
ATOM     34  CA  LEU A   5     -16.578 -10.995  -1.898  1.00  0.00     0.182 C 
BRANCH  34  35
ATOM     35  CB  LEU A   5     -15.575 -12.083  -2.375  1.00  0.00     0.040 C 
BRANCH  35  36
ATOM     36  CG  LEU A   5     -15.352 -12.197  -3.907  1.00  0.00    -0.020 C 
ATOM     37  CD1 LEU A   5     -13.884 -12.429  -4.263  1.00  0.00     0.009 C 
ATOM     38  CD2 LEU A   5     -16.165 -13.337  -4.545  1.00  0.00     0.009 C 
ENDBRANCH  35  36
ENDBRANCH  34  35
BRANCH  34  39
ATOM     39  C   LEU A   5     -16.558  -9.724  -2.770  1.00  0.00     0.163 C 
ATOM     40  O   LEU A   5     -15.604  -8.975  -2.897  1.00  0.00    -0.648 OA
BRANCH  39  41
ATOM     41  OXT LEU A   5     -17.737  -9.485  -3.404  1.00  0.00    -0.775 OA
ATOM     42  HXT LEU A   5     -18.481  -9.299  -2.785  1.00  0.00     0.167 HD
ENDBRANCH  39  41
ENDBRANCH  34  39
ENDBRANCH  31  34
ENDBRANCH  29  30
BRANCH  29  43
ATOM     43  CB  PHE A   4     -20.837 -12.262   0.395  1.00  0.00     0.073 C 
BRANCH  43  44
ATOM     44  CG  PHE A   4     -21.545 -10.923   0.429  1.00  0.00    -0.056 A 
ATOM     45  CD1 PHE A   4     -22.858 -10.813  -0.044  1.00  0.00     0.007 A 
ATOM     46  CE1 PHE A   4     -23.509  -9.575  -0.053  1.00  0.00     0.001 A 
ATOM     47  CZ  PHE A   4     -22.848  -8.441   0.403  1.00  0.00     0.000 A 
ATOM     48  CE2 PHE A   4     -21.540  -8.540   0.880  1.00  0.00     0.001 A 
ATOM     49  CD2 PHE A   4     -20.897  -9.772   0.895  1.00  0.00     0.007 A 
ENDBRANCH  43  44
ENDBRANCH  29  43
ENDBRANCH   1  29
TORSDOF 18
BEGIN_RES ARG D 557
REMARK  4 active torsions:
REMARK  status: ('A' for Active; 'I' for Inactive)
REMARK    1  A    between atoms: CA   and  CB  
REMARK    2  A    between atoms: CB   and  CG  
REMARK    3  A    between atoms: CG   and  CD  
REMARK    4  A    between atoms: CD   and  NE  
REMARK       I    between atoms: NE   and  CZ  
REMARK       I    between atoms: CZ   and  NH1 
REMARK       I    between atoms: CZ   and  NH2 
ROOT
ATOM      1  CA  ARG D 557     -26.217   2.705 -17.014  1.00 35.49     0.159 C 
ENDROOT
BRANCH   1   2
ATOM      2  CB  ARG D 557     -26.789   1.319 -17.183  1.00 35.49     0.034 C 
BRANCH   2   3
ATOM      3  CG  ARG D 557     -25.835   0.204 -17.166  1.00 35.49     0.027 C 
BRANCH   3   4
ATOM      4  CD  ARG D 557     -24.759   0.396 -16.167  1.00 35.49     0.116 C 
BRANCH   4   5
ATOM      5  NE  ARG D 557     -24.918  -0.467 -15.026  1.00 35.49    -0.212 N 
ATOM      6  CZ  ARG D 557     -24.099  -1.433 -14.674  1.00 35.49     0.666 C 
ATOM      7  NH1 ARG D 557     -23.014  -1.730 -15.365  1.00 35.49    -0.235 N 
ATOM      8  NH2 ARG D 557     -24.389  -2.102 -13.596  1.00 35.49    -0.235 N 
ATOM      9  HH  ARG D 557     -22.803  -1.301 -16.076  1.00 35.49     0.174 HD
ATOM     10  HH  ARG D 557     -22.516  -2.369 -15.086  1.00 35.49     0.174 HD
ATOM     11  HH  ARG D 557     -25.092  -1.883 -13.166  1.00 35.49     0.174 HD
ATOM     12  HH  ARG D 557     -23.882  -2.730 -13.335  1.00 35.49     0.174 HD
ATOM     13  HE  ARG D 557     -25.629  -0.393 -14.566  1.00 35.49     0.178 HD
ENDBRANCH   4   5
ENDBRANCH   3   4
ENDBRANCH   2   3
ENDBRANCH   1   2
END_RES ARG D 557
BEGIN_RES GLU D 570
REMARK  3 active torsions:
REMARK  status: ('A' for Active; 'I' for Inactive)
REMARK    5  A    between atoms: CA   and  CB  
REMARK    6  A    between atoms: CB   and  CG  
REMARK    7  A    between atoms: CG   and  CD  
ROOT
ATOM     14  CA  GLU D 570     -18.033  -6.348 -13.375  1.00 32.92     0.160 C 
ENDROOT
BRANCH  14  15
ATOM     15  CB  GLU D 570     -19.500  -6.345 -13.794  1.00 32.92     0.043 C 
BRANCH  15  16
ATOM     16  CG  GLU D 570     -19.813  -5.931 -15.186  1.00 32.92     0.100 C 
BRANCH  16  17
ATOM     17  CD  GLU D 570     -21.287  -5.684 -15.410  1.00 32.92     0.185 C 
ATOM     18  OE1 GLU D 570     -21.668  -4.540 -15.726  1.00 32.92    -0.647 OA
ATOM     19  OE2 GLU D 570     -22.071  -6.640 -15.250  1.00 32.92    -0.647 OA
ENDBRANCH  16  17
ENDBRANCH  15  16
ENDBRANCH  14  15
END_RES GLU D 570
ENDMDL
MODEL 2
REMARK VINA RESULT:      -8.8      1.298      1.754
REMARK  18 active torsions:
REMARK  status: ('A' for Active; 'I' for Inactive)
REMARK    1  A    between atoms: CG_2  and  CB_4 
REMARK    2  A    between atoms: CB_4  and  CA_5 
REMARK    3  A    between atoms: CA_5  and  C_6 
REMARK    4  A    between atoms: CA_5  and  N_9 
REMARK    5  A    between atoms: C_6  and  OXT_8 
REMARK       I    between atoms: N_9  and  C_12 
REMARK    6  A    between atoms: C_12  and  CA_14 
REMARK    7  A    between atoms: CA_14  and  CB_15 
REMARK    8  A    between atoms: CA_14  and  N_22 
REMARK    9  A    between atoms: CB_15  and  CG_16 
REMARK       I    between atoms: N_22  and  C_24 
REMARK   10  A    between atoms: C_24  and  CA_26 
REMARK   11  A    between atoms: CA_26  and  N_27 
REMARK       I    between atoms: N_27  and  C_29 
REMARK   12  A    between atoms: C_29  and  CA_31 
REMARK   13  A    between atoms: CA_31  and  N_33 
REMARK       I    between atoms: N_33  and  C_35 
REMARK   14  A    between atoms: C_35  and  CA_37 
REMARK   15  A    between atoms: CA_37  and  CB_38 
REMARK   16  A    between atoms: CA_37  and  N_46 
REMARK   17  A    between atoms: CB_38  and  CG_39 
REMARK   18  A    between atoms: CZ_42  and  OH_45 
ROOT
ATOM      1  N   PHE A   4     -20.578 -11.835  -1.928  1.00  0.00    -0.346 N 
ATOM      2  H   PHE A   4     -20.367 -10.867  -2.171  1.00  0.00     0.163 HD
ATOM      3  C   GLY A   3     -21.284 -12.608  -2.833  1.00  0.00     0.236 C 
ATOM      4  O   GLY A   3     -21.471 -13.811  -2.675  1.00  0.00    -0.272 OA
ENDROOT
BRANCH   3   5
ATOM      5  CA  GLY A   3     -21.821 -11.866  -4.070  1.00  0.00     0.225 C 
BRANCH   5   6
ATOM      6  N   GLY A   3     -21.965 -10.434  -3.843  1.00  0.00    -0.351 N 
ATOM      7  C   ALA A   2     -21.342  -9.504  -4.638  1.00  0.00     0.240 C 
ATOM      8  O   ALA A   2     -20.665  -9.854  -5.607  1.00  0.00    -0.271 OA
ATOM      9  H   GLY A   3     -22.539 -10.115  -3.063  1.00  0.00     0.163 HD
BRANCH   7  10
ATOM     10  CA  ALA A   2     -21.564  -8.023  -4.259  1.00  0.00     0.172 C 
ATOM     11  CB  ALA A   2     -20.949  -7.743  -2.892  1.00  0.00     0.042 C 
BRANCH  10  12
ATOM     12  N   ALA A   2     -20.967  -7.124  -5.253  1.00  0.00    -0.346 N 
ATOM     13  C   TYR A   1     -21.640  -6.047  -5.760  1.00  0.00     0.251 C 
ATOM     14  O   TYR A   1     -22.791  -5.809  -5.419  1.00  0.00    -0.271 OA
ATOM     15  H   ALA A   2     -20.070  -7.355  -5.670  1.00  0.00     0.163 HD
BRANCH  13  16
ATOM     16  CA  TYR A   1     -20.836  -5.189  -6.796  1.00  0.00     0.313 C 
BRANCH  16  17
ATOM     17  CB  TYR A   1     -21.665  -4.003  -7.334  1.00  0.00     0.083 C 
BRANCH  17  18
ATOM     18  CG  TYR A   1     -21.768  -3.919  -8.838  1.00  0.00    -0.056 A 
ATOM     19  CD1 TYR A   1     -23.005  -3.653  -9.447  1.00  0.00     0.010 A 
ATOM     20  CE1 TYR A   1     -23.092  -3.487 -10.829  1.00  0.00     0.037 A 
ATOM     21  CZ  TYR A   1     -21.944  -3.607 -11.604  1.00  0.00     0.065 A 
ATOM     22  CE2 TYR A   1     -20.719  -3.912 -11.023  1.00  0.00     0.037 A 
ATOM     23  CD2 TYR A   1     -20.630  -4.067  -9.640  1.00  0.00     0.010 A 
BRANCH  21  24
ATOM     24  OH  TYR A   1     -21.977  -3.412 -12.952  1.00  0.00    -0.361 OA
ATOM     25  HH  TYR A   1     -22.734  -2.841 -13.157  1.00  0.00     0.217 HD
ENDBRANCH  21  24
ENDBRANCH  17  18
ENDBRANCH  16  17
BRANCH  16  26
ATOM     26  N   TYR A   1     -19.569  -4.703  -6.179  1.00  0.00     0.092 N 
ATOM     27  H1  TYR A   1     -19.792  -4.285  -5.276  1.00  0.00     0.313 HD
ATOM     28  H2  TYR A   1     -19.198  -3.938  -6.745  1.00  0.00     0.313 HD
ENDBRANCH  16  26
ENDBRANCH  13  16
ENDBRANCH  10  12
ENDBRANCH   7  10
ENDBRANCH   5   6
ENDBRANCH   3   5
BRANCH   1  29
ATOM     29  CA  PHE A   4     -20.068 -12.353  -0.648  1.00  0.00     0.180 C 
BRANCH  29  30
ATOM     30  C   PHE A   4     -18.654 -12.971  -0.829  1.00  0.00     0.241 C 
ATOM     31  N   LEU A   5     -17.577 -12.111  -0.706  1.00  0.00    -0.345 N 
ATOM     32  H   LEU A   5     -17.726 -11.213  -0.255  1.00  0.00     0.163 HD
ATOM     33  O   PHE A   4     -18.463 -14.177  -1.021  1.00  0.00    -0.271 OA
BRANCH  31  34
ATOM     34  CA  LEU A   5     -16.172 -12.556  -0.859  1.00  0.00     0.182 C 
BRANCH  34  35
ATOM     35  CB  LEU A   5     -15.451 -11.726  -1.957  1.00  0.00     0.040 C 
BRANCH  35  36
ATOM     36  CG  LEU A   5     -16.358 -10.919  -2.926  1.00  0.00    -0.020 C 
ATOM     37  CD1 LEU A   5     -16.077  -9.418  -2.867  1.00  0.00     0.009 C 
ATOM     38  CD2 LEU A   5     -16.204 -11.358  -4.392  1.00  0.00     0.009 C 
ENDBRANCH  35  36
ENDBRANCH  34  35
BRANCH  34  39
ATOM     39  C   LEU A   5     -15.490 -12.465   0.520  1.00  0.00     0.163 C 
ATOM     40  O   LEU A   5     -14.479 -13.065   0.845  1.00  0.00    -0.648 OA
BRANCH  39  41
ATOM     41  OXT LEU A   5     -16.134 -11.638   1.388  1.00  0.00    -0.775 OA
ATOM     42  HXT LEU A   5     -15.538 -11.255   2.074  1.00  0.00     0.167 HD
ENDBRANCH  39  41
ENDBRANCH  34  39
ENDBRANCH  31  34
ENDBRANCH  29  30
BRANCH  29  43
ATOM     43  CB  PHE A   4     -20.040 -11.285   0.468  1.00  0.00     0.073 C 
BRANCH  43  44
ATOM     44  CG  PHE A   4     -21.229 -10.348   0.449  1.00  0.00    -0.056 A 
ATOM     45  CD1 PHE A   4     -22.496 -10.830   0.099  1.00  0.00     0.007 A 
ATOM     46  CE1 PHE A   4     -23.595  -9.968   0.040  1.00  0.00     0.001 A 
ATOM     47  CZ  PHE A   4     -23.432  -8.617   0.325  1.00  0.00     0.000 A 
ATOM     48  CE2 PHE A   4     -22.173  -8.126   0.679  1.00  0.00     0.001 A 
ATOM     49  CD2 PHE A   4     -21.084  -8.987   0.743  1.00  0.00     0.007 A 
ENDBRANCH  43  44
ENDBRANCH  29  43
ENDBRANCH   1  29
TORSDOF 18
BEGIN_RES ARG D 557
REMARK  4 active torsions:
REMARK  status: ('A' for Active; 'I' for Inactive)
REMARK    1  A    between atoms: CA   and  CB  
REMARK    2  A    between atoms: CB   and  CG  
REMARK    3  A    between atoms: CG   and  CD  
REMARK    4  A    between atoms: CD   and  NE  
REMARK       I    between atoms: NE   and  CZ  
REMARK       I    between atoms: CZ   and  NH1 
REMARK       I    between atoms: CZ   and  NH2 
ROOT
ATOM      1  CA  ARG D 557     -26.217   2.705 -17.014  1.00 35.49     0.159 C 
ENDROOT
BRANCH   1   2
ATOM      2  CB  ARG D 557     -26.789   1.319 -17.183  1.00 35.49     0.034 C 
BRANCH   2   3
ATOM      3  CG  ARG D 557     -25.910   0.195 -16.838  1.00 35.49     0.027 C 
BRANCH   3   4
ATOM      4  CD  ARG D 557     -26.632  -0.891 -16.137  1.00 35.49     0.116 C 
BRANCH   4   5
ATOM      5  NE  ARG D 557     -25.829  -1.501 -15.110  1.00 35.49    -0.212 N 
ATOM      6  CZ  ARG D 557     -25.862  -2.767 -14.759  1.00 35.49     0.666 C 
ATOM      7  NH1 ARG D 557     -26.677  -3.638 -15.325  1.00 35.49    -0.235 N 
ATOM      8  NH2 ARG D 557     -25.047  -3.151 -13.820  1.00 35.49    -0.235 N 
ATOM      9  HH  ARG D 557     -27.220  -3.408 -15.946  1.00 35.49     0.174 HD
ATOM     10  HH  ARG D 557     -26.653  -4.452 -15.056  1.00 35.49     0.174 HD
ATOM     11  HH  ARG D 557     -24.527  -2.568 -13.478  1.00 35.49     0.174 HD
ATOM     12  HH  ARG D 557     -25.037  -3.961 -13.569  1.00 35.49     0.174 HD
ATOM     13  HE  ARG D 557     -25.327  -0.997 -14.644  1.00 35.49     0.178 HD
ENDBRANCH   4   5
ENDBRANCH   3   4
ENDBRANCH   2   3
ENDBRANCH   1   2
END_RES ARG D 557
BEGIN_RES GLU D 570
REMARK  3 active torsions:
REMARK  status: ('A' for Active; 'I' for Inactive)
REMARK    5  A    between atoms: CA   and  CB  
REMARK    6  A    between atoms: CB   and  CG  
REMARK    7  A    between atoms: CG   and  CD  
ROOT
ATOM     14  CA  GLU D 570     -18.033  -6.348 -13.375  1.00 32.92     0.160 C 
ENDROOT
BRANCH  14  15
ATOM     15  CB  GLU D 570     -19.500  -6.345 -13.794  1.00 32.92     0.043 C 
BRANCH  15  16
ATOM     16  CG  GLU D 570     -19.810  -5.977 -15.200  1.00 32.92     0.100 C 
BRANCH  16  17
ATOM     17  CD  GLU D 570     -21.264  -5.628 -15.411  1.00 32.92     0.185 C 
ATOM     18  OE1 GLU D 570     -21.618  -5.141 -16.502  1.00 32.92    -0.647 OA
ATOM     19  OE2 GLU D 570     -22.056  -5.827 -14.468  1.00 32.92    -0.647 OA
ENDBRANCH  16  17
ENDBRANCH  15  16
ENDBRANCH  14  15
END_RES GLU D 570
ENDMDL
MODEL 3
REMARK VINA RESULT:      -8.5      1.809      2.517
REMARK  18 active torsions:
REMARK  status: ('A' for Active; 'I' for Inactive)
REMARK    1  A    between atoms: CG_2  and  CB_4 
REMARK    2  A    between atoms: CB_4  and  CA_5 
REMARK    3  A    between atoms: CA_5  and  C_6 
REMARK    4  A    between atoms: CA_5  and  N_9 
REMARK    5  A    between atoms: C_6  and  OXT_8 
REMARK       I    between atoms: N_9  and  C_12 
REMARK    6  A    between atoms: C_12  and  CA_14 
REMARK    7  A    between atoms: CA_14  and  CB_15 
REMARK    8  A    between atoms: CA_14  and  N_22 
REMARK    9  A    between atoms: CB_15  and  CG_16 
REMARK       I    between atoms: N_22  and  C_24 
REMARK   10  A    between atoms: C_24  and  CA_26 
REMARK   11  A    between atoms: CA_26  and  N_27 
REMARK       I    between atoms: N_27  and  C_29 
REMARK   12  A    between atoms: C_29  and  CA_31 
REMARK   13  A    between atoms: CA_31  and  N_33 
REMARK       I    between atoms: N_33  and  C_35 
REMARK   14  A    between atoms: C_35  and  CA_37 
REMARK   15  A    between atoms: CA_37  and  CB_38 
REMARK   16  A    between atoms: CA_37  and  N_46 
REMARK   17  A    between atoms: CB_38  and  CG_39 
REMARK   18  A    between atoms: CZ_42  and  OH_45 
ROOT
ATOM      1  N   PHE A   4     -19.067 -10.836  -1.473  1.00  0.00    -0.346 N 
ATOM      2  H   PHE A   4     -18.525 -10.047  -1.119  1.00  0.00     0.163 HD
ATOM      3  C   GLY A   3     -19.286 -10.934  -2.835  1.00  0.00     0.236 C 
ATOM      4  O   GLY A   3     -19.818 -11.910  -3.354  1.00  0.00    -0.272 OA
ENDROOT
BRANCH   3   5
ATOM      5  CA  GLY A   3     -18.810  -9.735  -3.676  1.00  0.00     0.225 C 
BRANCH   5   6
ATOM      6  N   GLY A   3     -19.891  -8.812  -3.994  1.00  0.00    -0.351 N 
ATOM      7  C   ALA A   2     -20.425  -7.964  -3.054  1.00  0.00     0.240 C 
ATOM      8  O   ALA A   2     -19.973  -7.927  -1.908  1.00  0.00    -0.271 OA
ATOM      9  H   GLY A   3     -20.268  -8.803  -4.941  1.00  0.00     0.163 HD
BRANCH   7  10
ATOM     10  CA  ALA A   2     -21.585  -7.061  -3.530  1.00  0.00     0.172 C 
ATOM     11  CB  ALA A   2     -22.115  -6.244  -2.357  1.00  0.00     0.042 C 
BRANCH  10  12
ATOM     12  N   ALA A   2     -21.149  -6.153  -4.596  1.00  0.00    -0.346 N 
ATOM     13  C   TYR A   1     -21.136  -6.526  -5.912  1.00  0.00     0.251 C 
ATOM     14  O   TYR A   1     -21.465  -7.657  -6.247  1.00  0.00    -0.271 OA
ATOM     15  H   ALA A   2     -20.738  -5.255  -4.360  1.00  0.00     0.163 HD
BRANCH  13  16
ATOM     16  CA  TYR A   1     -20.659  -5.418  -6.912  1.00  0.00     0.313 C 
BRANCH  16  17
ATOM     17  CB  TYR A   1     -21.816  -4.491  -7.345  1.00  0.00     0.083 C 
BRANCH  17  18
ATOM     18  CG  TYR A   1     -21.829  -4.119  -8.808  1.00  0.00    -0.056 A 
ATOM     19  CD1 TYR A   1     -20.658  -4.225  -9.575  1.00  0.00     0.010 A 
ATOM     20  CE1 TYR A   1     -20.683  -3.969 -10.945  1.00  0.00     0.037 A 
ATOM     21  CZ  TYR A   1     -21.877  -3.585 -11.545  1.00  0.00     0.065 A 
ATOM     22  CE2 TYR A   1     -23.036  -3.433 -10.795  1.00  0.00     0.037 A 
ATOM     23  CD2 TYR A   1     -23.014  -3.701  -9.426  1.00  0.00     0.010 A 
BRANCH  21  24
ATOM     24  OH  TYR A   1     -21.955  -3.363 -12.887  1.00  0.00    -0.361 OA
ATOM     25  HH  TYR A   1     -21.735  -4.191 -13.344  1.00  0.00     0.217 HD
ENDBRANCH  21  24
ENDBRANCH  17  18
ENDBRANCH  16  17
BRANCH  16  26
ATOM     26  N   TYR A   1     -19.555  -4.624  -6.301  1.00  0.00     0.092 N 
ATOM     27  H1  TYR A   1     -19.963  -3.816  -5.830  1.00  0.00     0.313 HD
ATOM     28  H2  TYR A   1     -18.976  -4.235  -7.047  1.00  0.00     0.313 HD
ENDBRANCH  16  26
ENDBRANCH  13  16
ENDBRANCH  10  12
ENDBRANCH   7  10
ENDBRANCH   5   6
ENDBRANCH   3   5
BRANCH   1  29
ATOM     29  CA  PHE A   4     -19.534 -11.842  -0.505  1.00  0.00     0.180 C 
BRANCH  29  30
ATOM     30  C   PHE A   4     -18.433 -12.905  -0.242  1.00  0.00     0.241 C 
ATOM     31  N   LEU A   5     -17.134 -12.551  -0.563  1.00  0.00    -0.345 N 
ATOM     32  H   LEU A   5     -16.922 -11.566  -0.694  1.00  0.00     0.163 HD
ATOM     33  O   PHE A   4     -18.663 -14.004   0.276  1.00  0.00    -0.271 OA
BRANCH  31  34
ATOM     34  CA  LEU A   5     -15.982 -13.463  -0.374  1.00  0.00     0.182 C 
BRANCH  34  35
ATOM     35  CB  LEU A   5     -15.051 -13.437  -1.618  1.00  0.00     0.040 C 
BRANCH  35  36
ATOM     36  CG  LEU A   5     -13.722 -14.232  -1.507  1.00  0.00    -0.020 C 
ATOM     37  CD1 LEU A   5     -13.957 -15.733  -1.350  1.00  0.00     0.009 C 
ATOM     38  CD2 LEU A   5     -12.806 -14.035  -2.728  1.00  0.00     0.009 C 
ENDBRANCH  35  36
ENDBRANCH  34  35
BRANCH  34  39
ATOM     39  C   LEU A   5     -15.267 -13.063   0.931  1.00  0.00     0.163 C 
ATOM     40  O   LEU A   5     -14.973 -11.923   1.250  1.00  0.00    -0.648 OA
BRANCH  39  41
ATOM     41  OXT LEU A   5     -14.964 -14.122   1.730  1.00  0.00    -0.775 OA
ATOM     42  HXT LEU A   5     -14.129 -14.577   1.472  1.00  0.00     0.167 HD
ENDBRANCH  39  41
ENDBRANCH  34  39
ENDBRANCH  31  34
ENDBRANCH  29  30
BRANCH  29  43
ATOM     43  CB  PHE A   4     -20.003 -11.224   0.831  1.00  0.00     0.073 C 
BRANCH  43  44
ATOM     44  CG  PHE A   4     -21.143 -10.239   0.683  1.00  0.00    -0.056 A 
ATOM     45  CD1 PHE A   4     -22.291 -10.597  -0.032  1.00  0.00     0.007 A 
ATOM     46  CE1 PHE A   4     -23.335  -9.683  -0.208  1.00  0.00     0.001 A 
ATOM     47  CZ  PHE A   4     -23.233  -8.404   0.324  1.00  0.00     0.000 A 
ATOM     48  CE2 PHE A   4     -22.094  -8.036   1.044  1.00  0.00     0.001 A 
ATOM     49  CD2 PHE A   4     -21.061  -8.949   1.223  1.00  0.00     0.007 A 
ENDBRANCH  43  44
ENDBRANCH  29  43
ENDBRANCH   1  29
TORSDOF 18
BEGIN_RES ARG D 557
REMARK  4 active torsions:
REMARK  status: ('A' for Active; 'I' for Inactive)
REMARK    1  A    between atoms: CA   and  CB  
REMARK    2  A    between atoms: CB   and  CG  
REMARK    3  A    between atoms: CG   and  CD  
REMARK    4  A    between atoms: CD   and  NE  
REMARK       I    between atoms: NE   and  CZ  
REMARK       I    between atoms: CZ   and  NH1 
REMARK       I    between atoms: CZ   and  NH2 
ROOT
ATOM      1  CA  ARG D 557     -26.217   2.705 -17.014  1.00 35.49     0.159 C 
ENDROOT
BRANCH   1   2
ATOM      2  CB  ARG D 557     -26.789   1.319 -17.183  1.00 35.49     0.034 C 
BRANCH   2   3
ATOM      3  CG  ARG D 557     -25.915   0.195 -16.825  1.00 35.49     0.027 C 
BRANCH   3   4
ATOM      4  CD  ARG D 557     -26.635  -0.865 -16.084  1.00 35.49     0.116 C 
BRANCH   4   5
ATOM      5  NE  ARG D 557     -25.810  -1.480 -15.077  1.00 35.49    -0.212 N 
ATOM      6  CZ  ARG D 557     -25.840  -2.746 -14.727  1.00 35.49     0.666 C 
ATOM      7  NH1 ARG D 557     -26.673  -3.613 -15.273  1.00 35.49    -0.235 N 
ATOM      8  NH2 ARG D 557     -25.004  -3.135 -13.809  1.00 35.49    -0.235 N 
ATOM      9  HH  ARG D 557     -27.230  -3.380 -15.880  1.00 35.49     0.174 HD
ATOM     10  HH  ARG D 557     -26.645  -4.427 -15.006  1.00 35.49     0.174 HD
ATOM     11  HH  ARG D 557     -24.473  -2.555 -13.479  1.00 35.49     0.174 HD
ATOM     12  HH  ARG D 557     -24.991  -3.946 -13.560  1.00 35.49     0.174 HD
ATOM     13  HE  ARG D 557     -25.294  -0.979 -14.623  1.00 35.49     0.178 HD
ENDBRANCH   4   5
ENDBRANCH   3   4
ENDBRANCH   2   3
ENDBRANCH   1   2
END_RES ARG D 557
BEGIN_RES GLU D 570
REMARK  3 active torsions:
REMARK  status: ('A' for Active; 'I' for Inactive)
REMARK    5  A    between atoms: CA   and  CB  
REMARK    6  A    between atoms: CB   and  CG  
REMARK    7  A    between atoms: CG   and  CD  
ROOT
ATOM     14  CA  GLU D 570     -18.033  -6.348 -13.375  1.00 32.92     0.160 C 
ENDROOT
BRANCH  14  15
ATOM     15  CB  GLU D 570     -19.500  -6.345 -13.794  1.00 32.92     0.043 C 
BRANCH  15  16
ATOM     16  CG  GLU D 570     -19.807  -6.009 -15.208  1.00 32.92     0.100 C 
BRANCH  16  17
ATOM     17  CD  GLU D 570     -21.242  -5.582 -15.414  1.00 32.92     0.185 C 
ATOM     18  OE1 GLU D 570     -22.066  -5.769 -14.499  1.00 32.92    -0.647 OA
ATOM     19  OE2 GLU D 570     -21.548  -5.070 -16.509  1.00 32.92    -0.647 OA
ENDBRANCH  16  17
ENDBRANCH  15  16
ENDBRANCH  14  15
END_RES GLU D 570
ENDMDL
MODEL 4
REMARK VINA RESULT:      -8.4      1.458      1.735
REMARK  18 active torsions:
REMARK  status: ('A' for Active; 'I' for Inactive)
REMARK    1  A    between atoms: CG_2  and  CB_4 
REMARK    2  A    between atoms: CB_4  and  CA_5 
REMARK    3  A    between atoms: CA_5  and  C_6 
REMARK    4  A    between atoms: CA_5  and  N_9 
REMARK    5  A    between atoms: C_6  and  OXT_8 
REMARK       I    between atoms: N_9  and  C_12 
REMARK    6  A    between atoms: C_12  and  CA_14 
REMARK    7  A    between atoms: CA_14  and  CB_15 
REMARK    8  A    between atoms: CA_14  and  N_22 
REMARK    9  A    between atoms: CB_15  and  CG_16 
REMARK       I    between atoms: N_22  and  C_24 
REMARK   10  A    between atoms: C_24  and  CA_26 
REMARK   11  A    between atoms: CA_26  and  N_27 
REMARK       I    between atoms: N_27  and  C_29 
REMARK   12  A    between atoms: C_29  and  CA_31 
REMARK   13  A    between atoms: CA_31  and  N_33 
REMARK       I    between atoms: N_33  and  C_35 
REMARK   14  A    between atoms: C_35  and  CA_37 
REMARK   15  A    between atoms: CA_37  and  CB_38 
REMARK   16  A    between atoms: CA_37  and  N_46 
REMARK   17  A    between atoms: CB_38  and  CG_39 
REMARK   18  A    between atoms: CZ_42  and  OH_45 
ROOT
ATOM      1  N   PHE A   4     -20.515 -12.005  -2.257  1.00  0.00    -0.346 N 
ATOM      2  H   PHE A   4     -20.464 -10.993  -2.368  1.00  0.00     0.163 HD
ATOM      3  C   GLY A   3     -21.244 -12.737  -3.178  1.00  0.00     0.236 C 
ATOM      4  O   GLY A   3     -21.255 -13.964  -3.192  1.00  0.00    -0.272 OA
ENDROOT
BRANCH   3   5
ATOM      5  CA  GLY A   3     -22.043 -11.914  -4.204  1.00  0.00     0.225 C 
BRANCH   5   6
ATOM      6  N   GLY A   3     -22.069 -10.494  -3.882  1.00  0.00    -0.351 N 
ATOM      7  C   ALA A   2     -21.463  -9.554  -4.681  1.00  0.00     0.240 C 
ATOM      8  O   ALA A   2     -20.908  -9.882  -5.732  1.00  0.00    -0.271 OA
ATOM      9  H   GLY A   3     -22.542 -10.190  -3.032  1.00  0.00     0.163 HD
BRANCH   7  10
ATOM     10  CA  ALA A   2     -21.549  -8.089  -4.197  1.00  0.00     0.172 C 
ATOM     11  CB  ALA A   2     -20.780  -7.933  -2.890  1.00  0.00     0.042 C 
BRANCH  10  12
ATOM     12  N   ALA A   2     -20.998  -7.167  -5.197  1.00  0.00    -0.346 N 
ATOM     13  C   TYR A   1     -21.719  -6.115  -5.692  1.00  0.00     0.251 C 
ATOM     14  O   TYR A   1     -22.874  -5.921  -5.335  1.00  0.00    -0.271 OA
ATOM     15  H   ALA A   2     -20.099  -7.362  -5.626  1.00  0.00     0.163 HD
BRANCH  13  16
ATOM     16  CA  TYR A   1     -20.961  -5.225  -6.736  1.00  0.00     0.313 C 
BRANCH  16  17
ATOM     17  CB  TYR A   1     -21.864  -4.115  -7.316  1.00  0.00     0.083 C 
BRANCH  17  18
ATOM     18  CG  TYR A   1     -21.861  -4.003  -8.821  1.00  0.00    -0.056 A 
ATOM     19  CD1 TYR A   1     -23.045  -3.689  -9.508  1.00  0.00     0.010 A 
ATOM     20  CE1 TYR A   1     -23.032  -3.497 -10.889  1.00  0.00     0.037 A 
ATOM     21  CZ  TYR A   1     -21.837  -3.640 -11.586  1.00  0.00     0.065 A 
ATOM     22  CE2 TYR A   1     -20.665  -3.991 -10.929  1.00  0.00     0.037 A 
ATOM     23  CD2 TYR A   1     -20.675  -4.173  -9.546  1.00  0.00     0.010 A 
BRANCH  21  24
ATOM     24  OH  TYR A   1     -21.771  -3.422 -12.930  1.00  0.00    -0.361 OA
ATOM     25  HH  TYR A   1     -21.420  -4.223 -13.350  1.00  0.00     0.217 HD
ENDBRANCH  21  24
ENDBRANCH  17  18
ENDBRANCH  16  17
BRANCH  16  26
ATOM     26  N   TYR A   1     -19.743  -4.633  -6.112  1.00  0.00     0.092 N 
ATOM     27  H1  TYR A   1     -19.559  -3.734  -6.556  1.00  0.00     0.313 HD
ATOM     28  H2  TYR A   1     -18.938  -5.217  -6.342  1.00  0.00     0.313 HD
ENDBRANCH  16  26
ENDBRANCH  13  16
ENDBRANCH  10  12
ENDBRANCH   7  10
ENDBRANCH   5   6
ENDBRANCH   3   5
BRANCH   1  29
ATOM     29  CA  PHE A   4     -19.764 -12.619  -1.150  1.00  0.00     0.180 C 
BRANCH  29  30
ATOM     30  C   PHE A   4     -18.275 -12.179  -1.185  1.00  0.00     0.241 C 
ATOM     31  N   LEU A   5     -17.689 -12.057  -2.433  1.00  0.00    -0.345 N 
ATOM     32  H   LEU A   5     -18.295 -11.997  -3.246  1.00  0.00     0.163 HD
ATOM     33  O   PHE A   4     -17.630 -11.892  -0.169  1.00  0.00    -0.271 OA
BRANCH  31  34
ATOM     34  CA  LEU A   5     -16.276 -11.654  -2.621  1.00  0.00     0.182 C 
BRANCH  34  35
ATOM     35  CB  LEU A   5     -15.511 -12.713  -3.463  1.00  0.00     0.040 C 
BRANCH  35  36
ATOM     36  CG  LEU A   5     -13.998 -12.450  -3.699  1.00  0.00    -0.020 C 
ATOM     37  CD1 LEU A   5     -13.122 -13.569  -3.137  1.00  0.00     0.009 C 
ATOM     38  CD2 LEU A   5     -13.646 -12.295  -5.188  1.00  0.00     0.009 C 
ENDBRANCH  35  36
ENDBRANCH  34  35
BRANCH  34  39
ATOM     39  C   LEU A   5     -16.263 -10.248  -3.254  1.00  0.00     0.163 C 
ATOM     40  O   LEU A   5     -15.964  -9.219  -2.672  1.00  0.00    -0.648 OA
BRANCH  39  41
ATOM     41  OXT LEU A   5     -16.637 -10.239  -4.562  1.00  0.00    -0.775 OA
ATOM     42  HXT LEU A   5     -17.511  -9.809  -4.713  1.00  0.00     0.167 HD
ENDBRANCH  39  41
ENDBRANCH  34  39
ENDBRANCH  31  34
ENDBRANCH  29  30
BRANCH  29  43
ATOM     43  CB  PHE A   4     -20.374 -12.313   0.236  1.00  0.00     0.073 C 
BRANCH  43  44
ATOM     44  CG  PHE A   4     -21.317 -11.129   0.243  1.00  0.00    -0.056 A 
ATOM     45  CD1 PHE A   4     -22.655 -11.297  -0.131  1.00  0.00     0.007 A 
ATOM     46  CE1 PHE A   4     -23.527 -10.204  -0.166  1.00  0.00     0.001 A 
ATOM     47  CZ  PHE A   4     -23.064  -8.937   0.166  1.00  0.00     0.000 A 
ATOM     48  CE2 PHE A   4     -21.732  -8.758   0.545  1.00  0.00     0.001 A 
ATOM     49  CD2 PHE A   4     -20.869  -9.847   0.585  1.00  0.00     0.007 A 
ENDBRANCH  43  44
ENDBRANCH  29  43
ENDBRANCH   1  29
TORSDOF 18
BEGIN_RES ARG D 557
REMARK  4 active torsions:
REMARK  status: ('A' for Active; 'I' for Inactive)
REMARK    1  A    between atoms: CA   and  CB  
REMARK    2  A    between atoms: CB   and  CG  
REMARK    3  A    between atoms: CG   and  CD  
REMARK    4  A    between atoms: CD   and  NE  
REMARK       I    between atoms: NE   and  CZ  
REMARK       I    between atoms: CZ   and  NH1 
REMARK       I    between atoms: CZ   and  NH2 
ROOT
ATOM      1  CA  ARG D 557     -26.217   2.705 -17.014  1.00 35.49     0.159 C 
ENDROOT
BRANCH   1   2
ATOM      2  CB  ARG D 557     -26.789   1.319 -17.183  1.00 35.49     0.034 C 
BRANCH   2   3
ATOM      3  CG  ARG D 557     -28.232   1.226 -17.433  1.00 35.49     0.027 C 
BRANCH   3   4
ATOM      4  CD  ARG D 557     -28.907   0.290 -16.505  1.00 35.49     0.116 C 
BRANCH   4   5
ATOM      5  NE  ARG D 557     -28.112  -0.881 -16.243  1.00 35.49    -0.212 N 
ATOM      6  CZ  ARG D 557     -28.346  -2.088 -16.706  1.00 35.49     0.666 C 
ATOM      7  NH1 ARG D 557     -29.382  -2.363 -17.477  1.00 35.49    -0.235 N 
ATOM      8  NH2 ARG D 557     -27.506  -3.028 -16.382  1.00 35.49    -0.235 N 
ATOM      9  HH  ARG D 557     -29.946  -1.759 -17.704  1.00 35.49     0.174 HD
ATOM     10  HH  ARG D 557     -29.482  -3.168 -17.752  1.00 35.49     0.174 HD
ATOM     11  HH  ARG D 557     -26.843  -2.820 -15.889  1.00 35.49     0.174 HD
ATOM     12  HH  ARG D 557     -27.622  -3.819 -16.666  1.00 35.49     0.174 HD
ATOM     13  HE  ARG D 557     -27.465  -0.809 -15.695  1.00 35.49     0.178 HD
ENDBRANCH   4   5
ENDBRANCH   3   4
ENDBRANCH   2   3
ENDBRANCH   1   2
END_RES ARG D 557
BEGIN_RES GLU D 570
REMARK  3 active torsions:
REMARK  status: ('A' for Active; 'I' for Inactive)
REMARK    5  A    between atoms: CA   and  CB  
REMARK    6  A    between atoms: CB   and  CG  
REMARK    7  A    between atoms: CG   and  CD  
ROOT
ATOM     14  CA  GLU D 570     -18.033  -6.348 -13.375  1.00 32.92     0.160 C 
ENDROOT
BRANCH  14  15
ATOM     15  CB  GLU D 570     -19.500  -6.345 -13.794  1.00 32.92     0.043 C 
BRANCH  15  16
ATOM     16  CG  GLU D 570     -19.806  -6.032 -15.214  1.00 32.92     0.100 C 
BRANCH  16  17
ATOM     17  CD  GLU D 570     -21.247  -5.637 -15.433  1.00 32.92     0.185 C 
ATOM     18  OE1 GLU D 570     -22.085  -5.885 -14.544  1.00 32.92    -0.647 OA
ATOM     19  OE2 GLU D 570     -21.546  -5.089 -16.512  1.00 32.92    -0.647 OA
ENDBRANCH  16  17
ENDBRANCH  15  16
ENDBRANCH  14  15
END_RES GLU D 570
ENDMDL
MODEL 5
REMARK VINA RESULT:      -8.2      2.402      3.588
REMARK  18 active torsions:
REMARK  status: ('A' for Active; 'I' for Inactive)
REMARK    1  A    between atoms: CG_2  and  CB_4 
REMARK    2  A    between atoms: CB_4  and  CA_5 
REMARK    3  A    between atoms: CA_5  and  C_6 
REMARK    4  A    between atoms: CA_5  and  N_9 
REMARK    5  A    between atoms: C_6  and  OXT_8 
REMARK       I    between atoms: N_9  and  C_12 
REMARK    6  A    between atoms: C_12  and  CA_14 
REMARK    7  A    between atoms: CA_14  and  CB_15 
REMARK    8  A    between atoms: CA_14  and  N_22 
REMARK    9  A    between atoms: CB_15  and  CG_16 
REMARK       I    between atoms: N_22  and  C_24 
REMARK   10  A    between atoms: C_24  and  CA_26 
REMARK   11  A    between atoms: CA_26  and  N_27 
REMARK       I    between atoms: N_27  and  C_29 
REMARK   12  A    between atoms: C_29  and  CA_31 
REMARK   13  A    between atoms: CA_31  and  N_33 
REMARK       I    between atoms: N_33  and  C_35 
REMARK   14  A    between atoms: C_35  and  CA_37 
REMARK   15  A    between atoms: CA_37  and  CB_38 
REMARK   16  A    between atoms: CA_37  and  N_46 
REMARK   17  A    between atoms: CB_38  and  CG_39 
REMARK   18  A    between atoms: CZ_42  and  OH_45 
ROOT
ATOM      1  N   PHE A   4     -18.832 -11.475  -0.880  1.00  0.00    -0.346 N 
ATOM      2  H   PHE A   4     -19.010 -10.616  -0.359  1.00  0.00     0.163 HD
ATOM      3  C   GLY A   3     -19.888 -12.089  -1.529  1.00  0.00     0.236 C 
ATOM      4  O   GLY A   3     -19.740 -13.051  -2.276  1.00  0.00    -0.272 OA
ENDROOT
BRANCH   3   5
ATOM      5  CA  GLY A   3     -21.279 -11.484  -1.263  1.00  0.00     0.225 C 
BRANCH   5   6
ATOM      6  N   GLY A   3     -21.336 -10.061  -1.573  1.00  0.00    -0.351 N 
ATOM      7  C   ALA A   2     -21.680  -9.600  -2.821  1.00  0.00     0.240 C 
ATOM      8  O   ALA A   2     -21.996 -10.384  -3.718  1.00  0.00    -0.271 OA
ATOM      9  H   GLY A   3     -21.104  -9.389  -0.843  1.00  0.00     0.163 HD
BRANCH   7  10
ATOM     10  CA  ALA A   2     -21.671  -8.067  -3.009  1.00  0.00     0.172 C 
ATOM     11  CB  ALA A   2     -20.815  -7.421  -1.925  1.00  0.00     0.042 C 
BRANCH  10  12
ATOM     12  N   ALA A   2     -21.146  -7.696  -4.327  1.00  0.00    -0.346 N 
ATOM     13  C   TYR A   1     -21.774  -6.786  -5.133  1.00  0.00     0.251 C 
ATOM     14  O   TYR A   1     -22.826  -6.264  -4.788  1.00  0.00    -0.271 OA
ATOM     15  H   ALA A   2     -20.355  -8.199  -4.717  1.00  0.00     0.163 HD
BRANCH  13  16
ATOM     16  CA  TYR A   1     -21.057  -6.500  -6.496  1.00  0.00     0.313 C 
BRANCH  16  17
ATOM     17  CB  TYR A   1     -20.954  -4.989  -6.792  1.00  0.00     0.083 C 
BRANCH  17  18
ATOM     18  CG  TYR A   1     -21.136  -4.601  -8.239  1.00  0.00    -0.056 A 
ATOM     19  CD1 TYR A   1     -22.355  -4.057  -8.677  1.00  0.00     0.010 A 
ATOM     20  CE1 TYR A   1     -22.501  -3.616  -9.991  1.00  0.00     0.037 A 
ATOM     21  CZ  TYR A   1     -21.434  -3.738 -10.874  1.00  0.00     0.065 A 
ATOM     22  CE2 TYR A   1     -20.235  -4.312 -10.470  1.00  0.00     0.037 A 
ATOM     23  CD2 TYR A   1     -20.085  -4.743  -9.153  1.00  0.00     0.010 A 
BRANCH  21  24
ATOM     24  OH  TYR A   1     -21.521  -3.282 -12.155  1.00  0.00    -0.361 OA
ATOM     25  HH  TYR A   1     -22.384  -3.545 -12.513  1.00  0.00     0.217 HD
ENDBRANCH  21  24
ENDBRANCH  17  18
ENDBRANCH  16  17
BRANCH  16  26
ATOM     26  N   TYR A   1     -19.704  -7.126  -6.500  1.00  0.00     0.092 N 
ATOM     27  H1  TYR A   1     -19.810  -8.120  -6.705  1.00  0.00     0.313 HD
ATOM     28  H2  TYR A   1     -19.319  -7.087  -5.555  1.00  0.00     0.313 HD
ENDBRANCH  16  26
ENDBRANCH  13  16
ENDBRANCH  10  12
ENDBRANCH   7  10
ENDBRANCH   5   6
ENDBRANCH   3   5
BRANCH   1  29
ATOM     29  CA  PHE A   4     -17.447 -11.970  -0.943  1.00  0.00     0.180 C 
BRANCH  29  30
ATOM     30  C   PHE A   4     -16.660 -11.258  -2.077  1.00  0.00     0.241 C 
ATOM     31  N   LEU A   5     -17.234 -11.267  -3.337  1.00  0.00    -0.345 N 
ATOM     32  H   LEU A   5     -18.223 -11.487  -3.413  1.00  0.00     0.163 HD
ATOM     33  O   PHE A   4     -15.596 -10.657  -1.888  1.00  0.00    -0.271 OA
BRANCH  31  34
ATOM     34  CA  LEU A   5     -16.597 -10.635  -4.515  1.00  0.00     0.182 C 
BRANCH  34  35
ATOM     35  CB  LEU A   5     -15.936 -11.709  -5.423  1.00  0.00     0.040 C 
BRANCH  35  36
ATOM     36  CG  LEU A   5     -14.387 -11.807  -5.369  1.00  0.00    -0.020 C 
ATOM     37  CD1 LEU A   5     -13.901 -12.623  -4.173  1.00  0.00     0.009 C 
ATOM     38  CD2 LEU A   5     -13.786 -12.442  -6.634  1.00  0.00     0.009 C 
ENDBRANCH  35  36
ENDBRANCH  34  35
BRANCH  34  39
ATOM     39  C   LEU A   5     -17.666  -9.796  -5.242  1.00  0.00     0.163 C 
ATOM     40  O   LEU A   5     -17.750  -9.659  -6.451  1.00  0.00    -0.648 OA
BRANCH  39  41
ATOM     41  OXT LEU A   5     -18.540  -9.184  -4.398  1.00  0.00    -0.775 OA
ATOM     42  HXT LEU A   5     -19.245  -9.787  -4.065  1.00  0.00     0.167 HD
ENDBRANCH  39  41
ENDBRANCH  34  39
ENDBRANCH  31  34
ENDBRANCH  29  30
BRANCH  29  43
ATOM     43  CB  PHE A   4     -16.691 -11.825   0.396  1.00  0.00     0.073 C 
BRANCH  43  44
ATOM     44  CG  PHE A   4     -16.581 -13.117   1.179  1.00  0.00    -0.056 A 
ATOM     45  CD1 PHE A   4     -17.411 -14.199   0.866  1.00  0.00     0.007 A 
ATOM     46  CE1 PHE A   4     -17.346 -15.384   1.606  1.00  0.00     0.001 A 
ATOM     47  CZ  PHE A   4     -16.455 -15.491   2.667  1.00  0.00     0.000 A 
ATOM     48  CE2 PHE A   4     -15.618 -14.419   2.986  1.00  0.00     0.001 A 
ATOM     49  CD2 PHE A   4     -15.681 -13.245   2.245  1.00  0.00     0.007 A 
ENDBRANCH  43  44
ENDBRANCH  29  43
ENDBRANCH   1  29
TORSDOF 18
BEGIN_RES ARG D 557
REMARK  4 active torsions:
REMARK  status: ('A' for Active; 'I' for Inactive)
REMARK    1  A    between atoms: CA   and  CB  
REMARK    2  A    between atoms: CB   and  CG  
REMARK    3  A    between atoms: CG   and  CD  
REMARK    4  A    between atoms: CD   and  NE  
REMARK       I    between atoms: NE   and  CZ  
REMARK       I    between atoms: CZ   and  NH1 
REMARK       I    between atoms: CZ   and  NH2 
ROOT
ATOM      1  CA  ARG D 557     -26.217   2.705 -17.014  1.00 35.49     0.159 C 
ENDROOT
BRANCH   1   2
ATOM      2  CB  ARG D 557     -26.789   1.319 -17.183  1.00 35.49     0.034 C 
BRANCH   2   3
ATOM      3  CG  ARG D 557     -28.239   1.223 -17.388  1.00 35.49     0.027 C 
BRANCH   3   4
ATOM      4  CD  ARG D 557     -28.880   0.271 -16.452  1.00 35.49     0.116 C 
BRANCH   4   5
ATOM      5  NE  ARG D 557     -29.275  -0.949 -17.106  1.00 35.49    -0.212 N 
ATOM      6  CZ  ARG D 557     -28.642  -2.099 -17.033  1.00 35.49     0.666 C 
ATOM      7  NH1 ARG D 557     -27.531  -2.254 -16.337  1.00 35.49    -0.235 N 
ATOM      8  NH2 ARG D 557     -29.156  -3.108 -17.674  1.00 35.49    -0.235 N 
ATOM      9  HH  ARG D 557     -27.177  -1.604 -15.905  1.00 35.49     0.174 HD
ATOM     10  HH  ARG D 557     -27.164  -3.028 -16.324  1.00 35.49     0.174 HD
ATOM     11  HH  ARG D 557     -29.878  -2.980 -18.109  1.00 35.49     0.174 HD
ATOM     12  HH  ARG D 557     -28.778  -3.867 -17.647  1.00 35.49     0.174 HD
ATOM     13  HE  ARG D 557     -29.940  -0.922 -17.634  1.00 35.49     0.178 HD
ENDBRANCH   4   5
ENDBRANCH   3   4
ENDBRANCH   2   3
ENDBRANCH   1   2
END_RES ARG D 557
BEGIN_RES GLU D 570
REMARK  3 active torsions:
REMARK  status: ('A' for Active; 'I' for Inactive)
REMARK    5  A    between atoms: CA   and  CB  
REMARK    6  A    between atoms: CB   and  CG  
REMARK    7  A    between atoms: CG   and  CD  
ROOT
ATOM     14  CA  GLU D 570     -18.033  -6.348 -13.375  1.00 32.92     0.160 C 
ENDROOT
BRANCH  14  15
ATOM     15  CB  GLU D 570     -19.500  -6.345 -13.794  1.00 32.92     0.043 C 
BRANCH  15  16
ATOM     16  CG  GLU D 570     -19.815  -5.918 -15.182  1.00 32.92     0.100 C 
BRANCH  16  17
ATOM     17  CD  GLU D 570     -21.252  -5.484 -15.354  1.00 32.92     0.185 C 
ATOM     18  OE1 GLU D 570     -21.785  -4.791 -14.466  1.00 32.92    -0.647 OA
ATOM     19  OE2 GLU D 570     -21.856  -5.855 -16.379  1.00 32.92    -0.647 OA
ENDBRANCH  16  17
ENDBRANCH  15  16
ENDBRANCH  14  15
END_RES GLU D 570
ENDMDL
MODEL 6
REMARK VINA RESULT:      -8.1      3.607     11.766
REMARK  18 active torsions:
REMARK  status: ('A' for Active; 'I' for Inactive)
REMARK    1  A    between atoms: CG_2  and  CB_4 
REMARK    2  A    between atoms: CB_4  and  CA_5 
REMARK    3  A    between atoms: CA_5  and  C_6 
REMARK    4  A    between atoms: CA_5  and  N_9 
REMARK    5  A    between atoms: C_6  and  OXT_8 
REMARK       I    between atoms: N_9  and  C_12 
REMARK    6  A    between atoms: C_12  and  CA_14 
REMARK    7  A    between atoms: CA_14  and  CB_15 
REMARK    8  A    between atoms: CA_14  and  N_22 
REMARK    9  A    between atoms: CB_15  and  CG_16 
REMARK       I    between atoms: N_22  and  C_24 
REMARK   10  A    between atoms: C_24  and  CA_26 
REMARK   11  A    between atoms: CA_26  and  N_27 
REMARK       I    between atoms: N_27  and  C_29 
REMARK   12  A    between atoms: C_29  and  CA_31 
REMARK   13  A    between atoms: CA_31  and  N_33 
REMARK       I    between atoms: N_33  and  C_35 
REMARK   14  A    between atoms: C_35  and  CA_37 
REMARK   15  A    between atoms: CA_37  and  CB_38 
REMARK   16  A    between atoms: CA_37  and  N_46 
REMARK   17  A    between atoms: CB_38  and  CG_39 
REMARK   18  A    between atoms: CZ_42  and  OH_45 
ROOT
ATOM      1  N   PHE A   4     -21.409  -4.848 -11.816  1.00  0.00    -0.346 N 
ATOM      2  H   PHE A   4     -21.407  -5.858 -11.673  1.00  0.00     0.163 HD
ATOM      3  C   GLY A   3     -20.555  -4.068 -11.057  1.00  0.00     0.236 C 
ATOM      4  O   GLY A   3     -20.405  -2.865 -11.252  1.00  0.00    -0.272 OA
ENDROOT
BRANCH   3   5
ATOM      5  CA  GLY A   3     -19.786  -4.805  -9.946  1.00  0.00     0.225 C 
BRANCH   5   6
ATOM      6  N   GLY A   3     -20.476  -4.758  -8.664  1.00  0.00    -0.351 N 
ATOM      7  C   ALA A   2     -19.802  -4.589  -7.479  1.00  0.00     0.240 C 
ATOM      8  O   ALA A   2     -18.580  -4.427  -7.465  1.00  0.00    -0.271 OA
ATOM      9  H   GLY A   3     -21.490  -4.864  -8.646  1.00  0.00     0.163 HD
BRANCH   7  10
ATOM     10  CA  ALA A   2     -20.664  -4.587  -6.197  1.00  0.00     0.172 C 
ATOM     11  CB  ALA A   2     -22.137  -4.720  -6.567  1.00  0.00     0.042 C 
BRANCH  10  12
ATOM     12  N   ALA A   2     -20.287  -5.687  -5.302  1.00  0.00    -0.346 N 
ATOM     13  C   TYR A   1     -20.492  -6.998  -5.632  1.00  0.00     0.251 C 
ATOM     14  O   TYR A   1     -21.030  -7.303  -6.688  1.00  0.00    -0.271 OA
ATOM     15  H   ALA A   2     -19.965  -5.486  -4.360  1.00  0.00     0.163 HD
BRANCH  13  16
ATOM     16  CA  TYR A   1     -20.008  -8.035  -4.561  1.00  0.00     0.313 C 
BRANCH  16  17
ATOM     17  CB  TYR A   1     -21.162  -8.929  -4.057  1.00  0.00     0.083 C 
BRANCH  17  18
ATOM     18  CG  TYR A   1     -21.662  -8.614  -2.668  1.00  0.00    -0.056 A 
ATOM     19  CD1 TYR A   1     -21.752  -7.281  -2.236  1.00  0.00     0.010 A 
ATOM     20  CE1 TYR A   1     -22.295  -6.977  -0.988  1.00  0.00     0.037 A 
ATOM     21  CZ  TYR A   1     -22.728  -8.009  -0.164  1.00  0.00     0.065 A 
ATOM     22  CE2 TYR A   1     -22.608  -9.336  -0.557  1.00  0.00     0.037 A 
ATOM     23  CD2 TYR A   1     -22.075  -9.640  -1.809  1.00  0.00     0.010 A 
BRANCH  21  24
ATOM     24  OH  TYR A   1     -23.302  -7.755   1.046  1.00  0.00    -0.361 OA
ATOM     25  HH  TYR A   1     -24.251  -7.946   0.977  1.00  0.00     0.217 HD
ENDBRANCH  21  24
ENDBRANCH  17  18
ENDBRANCH  16  17
BRANCH  16  26
ATOM     26  N   TYR A   1     -18.908  -8.870  -5.123  1.00  0.00     0.092 N 
ATOM     27  H1  TYR A   1     -18.809  -8.646  -6.113  1.00  0.00     0.313 HD
ATOM     28  H2  TYR A   1     -19.191  -9.851  -5.096  1.00  0.00     0.313 HD
ENDBRANCH  16  26
ENDBRANCH  13  16
ENDBRANCH  10  12
ENDBRANCH   7  10
ENDBRANCH   5   6
ENDBRANCH   3   5
BRANCH   1  29
ATOM     29  CA  PHE A   4     -22.290  -4.301 -12.861  1.00  0.00     0.180 C 
BRANCH  29  30
ATOM     30  C   PHE A   4     -23.350  -5.351 -13.293  1.00  0.00     0.241 C 
ATOM     31  N   LEU A   5     -23.473  -5.592 -14.650  1.00  0.00    -0.345 N 
ATOM     32  H   LEU A   5     -22.720  -5.293 -15.262  1.00  0.00     0.163 HD
ATOM     33  O   PHE A   4     -24.030  -5.997 -12.486  1.00  0.00    -0.271 OA
BRANCH  31  34
ATOM     34  CA  LEU A   5     -24.445  -6.560 -15.209  1.00  0.00     0.182 C 
BRANCH  34  35
ATOM     35  CB  LEU A   5     -25.788  -5.855 -15.548  1.00  0.00     0.040 C 
BRANCH  35  36
ATOM     36  CG  LEU A   5     -26.858  -6.713 -16.276  1.00  0.00    -0.020 C 
ATOM     37  CD1 LEU A   5     -28.207  -6.687 -15.558  1.00  0.00     0.009 C 
ATOM     38  CD2 LEU A   5     -27.100  -6.262 -17.726  1.00  0.00     0.009 C 
ENDBRANCH  35  36
ENDBRANCH  34  35
BRANCH  34  39
ATOM     39  C   LEU A   5     -23.791  -7.243 -16.426  1.00  0.00     0.163 C 
ATOM     40  O   LEU A   5     -23.369  -6.665 -17.413  1.00  0.00    -0.648 OA
BRANCH  39  41
ATOM     41  OXT LEU A   5     -23.727  -8.597 -16.317  1.00  0.00    -0.775 OA
ATOM     42  HXT LEU A   5     -22.830  -8.925 -16.073  1.00  0.00     0.167 HD
ENDBRANCH  39  41
ENDBRANCH  34  39
ENDBRANCH  31  34
ENDBRANCH  29  30
BRANCH  29  43
ATOM     43  CB  PHE A   4     -22.987  -2.989 -12.438  1.00  0.00     0.073 C 
BRANCH  43  44
ATOM     44  CG  PHE A   4     -23.984  -2.470 -13.453  1.00  0.00    -0.056 A 
ATOM     45  CD1 PHE A   4     -23.592  -1.510 -14.393  1.00  0.00     0.007 A 
ATOM     46  CE1 PHE A   4     -24.513  -0.996 -15.311  1.00  0.00     0.001 A 
ATOM     47  CZ  PHE A   4     -25.832  -1.434 -15.290  1.00  0.00     0.000 A 
ATOM     48  CE2 PHE A   4     -26.233  -2.394 -14.359  1.00  0.00     0.001 A 
ATOM     49  CD2 PHE A   4     -25.314  -2.909 -13.452  1.00  0.00     0.007 A 
ENDBRANCH  43  44
ENDBRANCH  29  43
ENDBRANCH   1  29
TORSDOF 18
BEGIN_RES ARG D 557
REMARK  4 active torsions:
REMARK  status: ('A' for Active; 'I' for Inactive)
REMARK    1  A    between atoms: CA   and  CB  
REMARK    2  A    between atoms: CB   and  CG  
REMARK    3  A    between atoms: CG   and  CD  
REMARK    4  A    between atoms: CD   and  NE  
REMARK       I    between atoms: NE   and  CZ  
REMARK       I    between atoms: CZ   and  NH1 
REMARK       I    between atoms: CZ   and  NH2 
ROOT
ATOM      1  CA  ARG D 557     -26.217   2.705 -17.014  1.00 35.49     0.159 C 
ENDROOT
BRANCH   1   2
ATOM      2  CB  ARG D 557     -26.789   1.319 -17.183  1.00 35.49     0.034 C 
BRANCH   2   3
ATOM      3  CG  ARG D 557     -28.178   1.120 -16.751  1.00 35.49     0.027 C 
BRANCH   3   4
ATOM      4  CD  ARG D 557     -28.861   0.056 -17.521  1.00 35.49     0.116 C 
BRANCH   4   5
ATOM      5  NE  ARG D 557     -28.334  -1.251 -17.225  1.00 35.49    -0.212 N 
ATOM      6  CZ  ARG D 557     -29.021  -2.371 -17.209  1.00 35.49     0.666 C 
ATOM      7  NH1 ARG D 557     -30.317  -2.411 -17.458  1.00 35.49    -0.235 N 
ATOM      8  NH2 ARG D 557     -28.374  -3.468 -16.941  1.00 35.49    -0.235 N 
ATOM      9  HH  ARG D 557     -30.762  -1.702 -17.639  1.00 35.49     0.174 HD
ATOM     10  HH  ARG D 557     -30.712  -3.171 -17.436  1.00 35.49     0.174 HD
ATOM     11  HH  ARG D 557     -27.536  -3.412 -16.792  1.00 35.49     0.174 HD
ATOM     12  HH  ARG D 557     -28.783  -4.211 -16.926  1.00 35.49     0.174 HD
ATOM     13  HE  ARG D 557     -27.521  -1.307 -16.983  1.00 35.49     0.178 HD
ENDBRANCH   4   5
ENDBRANCH   3   4
ENDBRANCH   2   3
ENDBRANCH   1   2
END_RES ARG D 557
BEGIN_RES GLU D 570
REMARK  3 active torsions:
REMARK  status: ('A' for Active; 'I' for Inactive)
REMARK    5  A    between atoms: CA   and  CB  
REMARK    6  A    between atoms: CB   and  CG  
REMARK    7  A    between atoms: CG   and  CD  
ROOT
ATOM     14  CA  GLU D 570     -18.033  -6.348 -13.375  1.00 32.92     0.160 C 
ENDROOT
BRANCH  14  15
ATOM     15  CB  GLU D 570     -19.500  -6.345 -13.794  1.00 32.92     0.043 C 
BRANCH  15  16
ATOM     16  CG  GLU D 570     -20.087  -7.635 -14.241  1.00 32.92     0.100 C 
BRANCH  16  17
ATOM     17  CD  GLU D 570     -20.407  -7.657 -15.717  1.00 32.92     0.185 C 
ATOM     18  OE1 GLU D 570     -20.353  -6.593 -16.364  1.00 32.92    -0.647 OA
ATOM     19  OE2 GLU D 570     -20.731  -8.746 -16.229  1.00 32.92    -0.647 OA
ENDBRANCH  16  17
ENDBRANCH  15  16
ENDBRANCH  14  15
END_RES GLU D 570
ENDMDL
MODEL 7
REMARK VINA RESULT:      -8.1      2.281      4.951
REMARK  18 active torsions:
REMARK  status: ('A' for Active; 'I' for Inactive)
REMARK    1  A    between atoms: CG_2  and  CB_4 
REMARK    2  A    between atoms: CB_4  and  CA_5 
REMARK    3  A    between atoms: CA_5  and  C_6 
REMARK    4  A    between atoms: CA_5  and  N_9 
REMARK    5  A    between atoms: C_6  and  OXT_8 
REMARK       I    between atoms: N_9  and  C_12 
REMARK    6  A    between atoms: C_12  and  CA_14 
REMARK    7  A    between atoms: CA_14  and  CB_15 
REMARK    8  A    between atoms: CA_14  and  N_22 
REMARK    9  A    between atoms: CB_15  and  CG_16 
REMARK       I    between atoms: N_22  and  C_24 
REMARK   10  A    between atoms: C_24  and  CA_26 
REMARK   11  A    between atoms: CA_26  and  N_27 
REMARK       I    between atoms: N_27  and  C_29 
REMARK   12  A    between atoms: C_29  and  CA_31 
REMARK   13  A    between atoms: CA_31  and  N_33 
REMARK       I    between atoms: N_33  and  C_35 
REMARK   14  A    between atoms: C_35  and  CA_37 
REMARK   15  A    between atoms: CA_37  and  CB_38 
REMARK   16  A    between atoms: CA_37  and  N_46 
REMARK   17  A    between atoms: CB_38  and  CG_39 
REMARK   18  A    between atoms: CZ_42  and  OH_45 
ROOT
ATOM      1  N   PHE A   4     -19.340 -10.577  -3.062  1.00  0.00    -0.346 N 
ATOM      2  H   PHE A   4     -19.655  -9.615  -3.187  1.00  0.00     0.163 HD
ATOM      3  C   GLY A   3     -19.823 -11.299  -1.985  1.00  0.00     0.236 C 
ATOM      4  O   GLY A   3     -19.594 -12.495  -1.832  1.00  0.00    -0.272 OA
ENDROOT
BRANCH   3   5
ATOM      5  CA  GLY A   3     -20.682 -10.509  -0.981  1.00  0.00     0.225 C 
BRANCH   5   6
ATOM      6  N   GLY A   3     -21.480  -9.474  -1.624  1.00  0.00    -0.351 N 
ATOM      7  C   ALA A   2     -21.020  -8.189  -1.779  1.00  0.00     0.240 C 
ATOM      8  O   ALA A   2     -19.885  -7.877  -1.413  1.00  0.00    -0.271 OA
ATOM      9  H   GLY A   3     -22.414  -9.710  -1.959  1.00  0.00     0.163 HD
BRANCH   7  10
ATOM     10  CA  ALA A   2     -21.989  -7.193  -2.453  1.00  0.00     0.172 C 
ATOM     11  CB  ALA A   2     -22.163  -5.964  -1.566  1.00  0.00     0.042 C 
BRANCH  10  12
ATOM     12  N   ALA A   2     -21.492  -6.775  -3.768  1.00  0.00    -0.346 N 
ATOM     13  C   TYR A   1     -21.346  -7.654  -4.806  1.00  0.00     0.251 C 
ATOM     14  O   TYR A   1     -21.602  -8.843  -4.662  1.00  0.00    -0.271 OA
ATOM     15  H   ALA A   2     -21.137  -5.833  -3.900  1.00  0.00     0.163 HD
BRANCH  13  16
ATOM     16  CA  TYR A   1     -20.821  -7.024  -6.141  1.00  0.00     0.313 C 
BRANCH  16  17
ATOM     17  CB  TYR A   1     -20.972  -5.488  -6.156  1.00  0.00     0.083 C 
BRANCH  17  18
ATOM     18  CG  TYR A   1     -21.391  -4.895  -7.479  1.00  0.00    -0.056 A 
ATOM     19  CD1 TYR A   1     -22.709  -4.448  -7.667  1.00  0.00     0.010 A 
ATOM     20  CE1 TYR A   1     -23.081  -3.819  -8.854  1.00  0.00     0.037 A 
ATOM     21  CZ  TYR A   1     -22.139  -3.656  -9.863  1.00  0.00     0.065 A 
ATOM     22  CE2 TYR A   1     -20.841  -4.129  -9.712  1.00  0.00     0.037 A 
ATOM     23  CD2 TYR A   1     -20.466  -4.748  -8.520  1.00  0.00     0.010 A 
BRANCH  21  24
ATOM     24  OH  TYR A   1     -22.448  -3.011 -11.023  1.00  0.00    -0.361 OA
ATOM     25  HH  TYR A   1     -22.688  -2.096 -10.806  1.00  0.00     0.217 HD
ENDBRANCH  21  24
ENDBRANCH  17  18
ENDBRANCH  16  17
BRANCH  16  26
ATOM     26  N   TYR A   1     -19.398  -7.411  -6.361  1.00  0.00     0.092 N 
ATOM     27  H1  TYR A   1     -19.078  -6.978  -7.227  1.00  0.00     0.313 HD
ATOM     28  H2  TYR A   1     -19.352  -8.417  -6.531  1.00  0.00     0.313 HD
ENDBRANCH  16  26
ENDBRANCH  13  16
ENDBRANCH  10  12
ENDBRANCH   7  10
ENDBRANCH   5   6
ENDBRANCH   3   5
BRANCH   1  29
ATOM     29  CA  PHE A   4     -18.431 -11.143  -4.072  1.00  0.00     0.180 C 
BRANCH  29  30
ATOM     30  C   PHE A   4     -19.181 -11.388  -5.411  1.00  0.00     0.241 C 
ATOM     31  N   LEU A   5     -19.821 -12.607  -5.553  1.00  0.00    -0.345 N 
ATOM     32  H   LEU A   5     -20.000 -13.158  -4.718  1.00  0.00     0.163 HD
ATOM     33  O   PHE A   4     -19.266 -10.538  -6.304  1.00  0.00    -0.271 OA
BRANCH  31  34
ATOM     34  CA  LEU A   5     -20.568 -12.984  -6.775  1.00  0.00     0.182 C 
BRANCH  34  35
ATOM     35  CB  LEU A   5     -19.871 -14.168  -7.502  1.00  0.00     0.040 C 
BRANCH  35  36
ATOM     36  CG  LEU A   5     -18.533 -13.848  -8.222  1.00  0.00    -0.020 C 
ATOM     37  CD1 LEU A   5     -17.318 -14.145  -7.345  1.00  0.00     0.009 C 
ATOM     38  CD2 LEU A   5     -18.358 -14.636  -9.532  1.00  0.00     0.009 C 
ENDBRANCH  35  36
ENDBRANCH  34  35
BRANCH  34  39
ATOM     39  C   LEU A   5     -22.023 -13.291  -6.368  1.00  0.00     0.163 C 
ATOM     40  O   LEU A   5     -22.762 -12.526  -5.771  1.00  0.00    -0.648 OA
BRANCH  39  41
ATOM     41  OXT LEU A   5     -22.435 -14.536  -6.730  1.00  0.00    -0.775 OA
ATOM     42  HXT LEU A   5     -22.908 -15.014  -6.009  1.00  0.00     0.167 HD
ENDBRANCH  39  41
ENDBRANCH  34  39
ENDBRANCH  31  34
ENDBRANCH  29  30
BRANCH  29  43
ATOM     43  CB  PHE A   4     -17.182 -10.268  -4.319  1.00  0.00     0.073 C 
BRANCH  43  44
ATOM     44  CG  PHE A   4     -15.954 -11.056  -4.724  1.00  0.00    -0.056 A 
ATOM     45  CD1 PHE A   4     -15.141 -11.639  -3.745  1.00  0.00     0.007 A 
ATOM     46  CE1 PHE A   4     -13.983 -12.337  -4.104  1.00  0.00     0.001 A 
ATOM     47  CZ  PHE A   4     -13.629 -12.450  -5.443  1.00  0.00     0.000 A 
ATOM     48  CE2 PHE A   4     -14.434 -11.875  -6.428  1.00  0.00     0.001 A 
ATOM     49  CD2 PHE A   4     -15.588 -11.188  -6.069  1.00  0.00     0.007 A 
ENDBRANCH  43  44
ENDBRANCH  29  43
ENDBRANCH   1  29
TORSDOF 18
BEGIN_RES ARG D 557
REMARK  4 active torsions:
REMARK  status: ('A' for Active; 'I' for Inactive)
REMARK    1  A    between atoms: CA   and  CB  
REMARK    2  A    between atoms: CB   and  CG  
REMARK    3  A    between atoms: CG   and  CD  
REMARK    4  A    between atoms: CD   and  NE  
REMARK       I    between atoms: NE   and  CZ  
REMARK       I    between atoms: CZ   and  NH1 
REMARK       I    between atoms: CZ   and  NH2 
ROOT
ATOM      1  CA  ARG D 557     -26.217   2.705 -17.014  1.00 35.49     0.159 C 
ENDROOT
BRANCH   1   2
ATOM      2  CB  ARG D 557     -26.789   1.319 -17.183  1.00 35.49     0.034 C 
BRANCH   2   3
ATOM      3  CG  ARG D 557     -25.879   0.194 -16.936  1.00 35.49     0.027 C 
BRANCH   3   4
ATOM      4  CD  ARG D 557     -26.347  -0.680 -15.836  1.00 35.49     0.116 C 
BRANCH   4   5
ATOM      5  NE  ARG D 557     -25.312  -0.938 -14.871  1.00 35.49    -0.212 N 
ATOM      6  CZ  ARG D 557     -25.028  -2.108 -14.343  1.00 35.49     0.666 C 
ATOM      7  NH1 ARG D 557     -25.699  -3.204 -14.646  1.00 35.49    -0.235 N 
ATOM      8  NH2 ARG D 557     -24.040  -2.162 -13.498  1.00 35.49    -0.235 N 
ATOM      9  HH  ARG D 557     -26.352  -3.192 -15.201  1.00 35.49     0.174 HD
ATOM     10  HH  ARG D 557     -25.467  -3.939 -14.272  1.00 35.49     0.174 HD
ATOM     11  HH  ARG D 557     -23.620  -1.439 -13.327  1.00 35.49     0.174 HD
ATOM     12  HH  ARG D 557     -23.825  -2.899 -13.139  1.00 35.49     0.174 HD
ATOM     13  HE  ARG D 557     -24.877  -0.275 -14.564  1.00 35.49     0.178 HD
ENDBRANCH   4   5
ENDBRANCH   3   4
ENDBRANCH   2   3
ENDBRANCH   1   2
END_RES ARG D 557
BEGIN_RES GLU D 570
REMARK  3 active torsions:
REMARK  status: ('A' for Active; 'I' for Inactive)
REMARK    5  A    between atoms: CA   and  CB  
REMARK    6  A    between atoms: CB   and  CG  
REMARK    7  A    between atoms: CG   and  CD  
ROOT
ATOM     14  CA  GLU D 570     -18.033  -6.348 -13.375  1.00 32.92     0.160 C 
ENDROOT
BRANCH  14  15
ATOM     15  CB  GLU D 570     -19.500  -6.345 -13.794  1.00 32.92     0.043 C 
BRANCH  15  16
ATOM     16  CG  GLU D 570     -20.444  -5.539 -12.977  1.00 32.92     0.100 C 
BRANCH  16  17
ATOM     17  CD  GLU D 570     -21.693  -5.150 -13.732  1.00 32.92     0.185 C 
ATOM     18  OE1 GLU D 570     -22.763  -5.020 -13.107  1.00 32.92    -0.647 OA
ATOM     19  OE2 GLU D 570     -21.605  -4.990 -14.966  1.00 32.92    -0.647 OA
ENDBRANCH  16  17
ENDBRANCH  15  16
ENDBRANCH  14  15
END_RES GLU D 570
ENDMDL
MODEL 8
REMARK VINA RESULT:      -8.0      1.838      4.539
REMARK  18 active torsions:
REMARK  status: ('A' for Active; 'I' for Inactive)
REMARK    1  A    between atoms: CG_2  and  CB_4 
REMARK    2  A    between atoms: CB_4  and  CA_5 
REMARK    3  A    between atoms: CA_5  and  C_6 
REMARK    4  A    between atoms: CA_5  and  N_9 
REMARK    5  A    between atoms: C_6  and  OXT_8 
REMARK       I    between atoms: N_9  and  C_12 
REMARK    6  A    between atoms: C_12  and  CA_14 
REMARK    7  A    between atoms: CA_14  and  CB_15 
REMARK    8  A    between atoms: CA_14  and  N_22 
REMARK    9  A    between atoms: CB_15  and  CG_16 
REMARK       I    between atoms: N_22  and  C_24 
REMARK   10  A    between atoms: C_24  and  CA_26 
REMARK   11  A    between atoms: CA_26  and  N_27 
REMARK       I    between atoms: N_27  and  C_29 
REMARK   12  A    between atoms: C_29  and  CA_31 
REMARK   13  A    between atoms: CA_31  and  N_33 
REMARK       I    between atoms: N_33  and  C_35 
REMARK   14  A    between atoms: C_35  and  CA_37 
REMARK   15  A    between atoms: CA_37  and  CB_38 
REMARK   16  A    between atoms: CA_37  and  N_46 
REMARK   17  A    between atoms: CB_38  and  CG_39 
REMARK   18  A    between atoms: CZ_42  and  OH_45 
ROOT
ATOM      1  N   PHE A   4     -18.091 -11.208  -2.857  1.00  0.00    -0.346 N 
ATOM      2  H   PHE A   4     -18.756 -11.731  -3.427  1.00  0.00     0.163 HD
ATOM      3  C   GLY A   3     -17.436 -10.129  -3.423  1.00  0.00     0.236 C 
ATOM      4  O   GLY A   3     -16.718  -9.373  -2.775  1.00  0.00    -0.272 OA
ENDROOT
BRANCH   3   5
ATOM      5  CA  GLY A   3     -17.670  -9.921  -4.930  1.00  0.00     0.225 C 
BRANCH   5   6
ATOM      6  N   GLY A   3     -18.647  -8.876  -5.204  1.00  0.00    -0.351 N 
ATOM      7  C   ALA A   2     -19.983  -9.036  -4.925  1.00  0.00     0.240 C 
ATOM      8  O   ALA A   2     -20.397 -10.065  -4.387  1.00  0.00    -0.271 OA
ATOM      9  H   GLY A   3     -18.330  -8.004  -5.626  1.00  0.00     0.163 HD
BRANCH   7  10
ATOM     10  CA  ALA A   2     -20.905  -7.853  -5.296  1.00  0.00     0.172 C 
ATOM     11  CB  ALA A   2     -21.194  -7.017  -4.054  1.00  0.00     0.042 C 
BRANCH  10  12
ATOM     12  N   ALA A   2     -20.292  -7.002  -6.322  1.00  0.00    -0.346 N 
ATOM     13  C   TYR A   1     -20.933  -5.914  -6.845  1.00  0.00     0.251 C 
ATOM     14  O   TYR A   1     -22.069  -5.625  -6.492  1.00  0.00    -0.271 OA
ATOM     15  H   ALA A   2     -19.411  -7.277  -6.747  1.00  0.00     0.163 HD
BRANCH  13  16
ATOM     16  CA  TYR A   1     -20.116  -5.113  -7.916  1.00  0.00     0.313 C 
BRANCH  16  17
ATOM     17  CB  TYR A   1     -20.922  -3.931  -8.497  1.00  0.00     0.083 C 
BRANCH  17  18
ATOM     18  CG  TYR A   1     -21.621  -4.210  -9.806  1.00  0.00    -0.056 A 
ATOM     19  CD1 TYR A   1     -22.937  -4.701  -9.813  1.00  0.00     0.010 A 
ATOM     20  CE1 TYR A   1     -23.619  -4.877 -11.017  1.00  0.00     0.037 A 
ATOM     21  CZ  TYR A   1     -22.977  -4.582 -12.214  1.00  0.00     0.065 A 
ATOM     22  CE2 TYR A   1     -21.661  -4.136 -12.228  1.00  0.00     0.037 A 
ATOM     23  CD2 TYR A   1     -20.982  -3.949 -11.024  1.00  0.00     0.010 A 
BRANCH  21  24
ATOM     24  OH  TYR A   1     -23.620  -4.701 -13.410  1.00  0.00    -0.361 OA
ATOM     25  HH  TYR A   1     -23.112  -5.312 -13.967  1.00  0.00     0.217 HD
ENDBRANCH  21  24
ENDBRANCH  17  18
ENDBRANCH  16  17
BRANCH  16  26
ATOM     26  N   TYR A   1     -18.837  -4.629  -7.322  1.00  0.00     0.092 N 
ATOM     27  H1  TYR A   1     -18.891  -4.742  -6.309  1.00  0.00     0.313 HD
ATOM     28  H2  TYR A   1     -18.760  -3.623  -7.477  1.00  0.00     0.313 HD
ENDBRANCH  16  26
ENDBRANCH  13  16
ENDBRANCH  10  12
ENDBRANCH   7  10
ENDBRANCH   5   6
ENDBRANCH   3   5
BRANCH   1  29
ATOM     29  CA  PHE A   4     -17.916 -11.614  -1.453  1.00  0.00     0.180 C 
BRANCH  29  30
ATOM     30  C   PHE A   4     -19.211 -11.344  -0.637  1.00  0.00     0.241 C 
ATOM     31  N   LEU A   5     -20.311 -10.890  -1.344  1.00  0.00    -0.345 N 
ATOM     32  H   LEU A   5     -20.315 -11.005  -2.353  1.00  0.00     0.163 HD
ATOM     33  O   PHE A   4     -19.304 -11.565   0.576  1.00  0.00    -0.271 OA
BRANCH  31  34
ATOM     34  CA  LEU A   5     -21.609 -10.585  -0.700  1.00  0.00     0.182 C 
BRANCH  34  35
ATOM     35  CB  LEU A   5     -22.180  -9.240  -1.228  1.00  0.00     0.040 C 
BRANCH  35  36
ATOM     36  CG  LEU A   5     -22.172  -8.044  -0.237  1.00  0.00    -0.020 C 
ATOM     37  CD1 LEU A   5     -22.320  -6.701  -0.949  1.00  0.00     0.009 C 
ATOM     38  CD2 LEU A   5     -23.291  -8.133   0.814  1.00  0.00     0.009 C 
ENDBRANCH  35  36
ENDBRANCH  34  35
BRANCH  34  39
ATOM     39  C   LEU A   5     -22.551 -11.782  -0.936  1.00  0.00     0.163 C 
ATOM     40  O   LEU A   5     -22.540 -12.500  -1.921  1.00  0.00    -0.648 OA
BRANCH  39  41
ATOM     41  OXT LEU A   5     -23.440 -11.978   0.075  1.00  0.00    -0.775 OA
ATOM     42  HXT LEU A   5     -23.978 -11.178   0.280  1.00  0.00     0.167 HD
ENDBRANCH  39  41
ENDBRANCH  34  39
ENDBRANCH  31  34
ENDBRANCH  29  30
BRANCH  29  43
ATOM     43  CB  PHE A   4     -17.491 -13.091  -1.298  1.00  0.00     0.073 C 
BRANCH  43  44
ATOM     44  CG  PHE A   4     -16.900 -13.419   0.057  1.00  0.00    -0.056 A 
ATOM     45  CD1 PHE A   4     -17.324 -14.560   0.748  1.00  0.00     0.007 A 
ATOM     46  CE1 PHE A   4     -16.814 -14.855   2.017  1.00  0.00     0.001 A 
ATOM     47  CZ  PHE A   4     -15.884 -14.006   2.604  1.00  0.00     0.000 A 
ATOM     48  CE2 PHE A   4     -15.451 -12.866   1.922  1.00  0.00     0.001 A 
ATOM     49  CD2 PHE A   4     -15.954 -12.580   0.659  1.00  0.00     0.007 A 
ENDBRANCH  43  44
ENDBRANCH  29  43
ENDBRANCH   1  29
TORSDOF 18
BEGIN_RES ARG D 557
REMARK  4 active torsions:
REMARK  status: ('A' for Active; 'I' for Inactive)
REMARK    1  A    between atoms: CA   and  CB  
REMARK    2  A    between atoms: CB   and  CG  
REMARK    3  A    between atoms: CG   and  CD  
REMARK    4  A    between atoms: CD   and  NE  
REMARK       I    between atoms: NE   and  CZ  
REMARK       I    between atoms: CZ   and  NH1 
REMARK       I    between atoms: CZ   and  NH2 
ROOT
ATOM      1  CA  ARG D 557     -26.217   2.705 -17.014  1.00 35.49     0.159 C 
ENDROOT
BRANCH   1   2
ATOM      2  CB  ARG D 557     -26.789   1.319 -17.183  1.00 35.49     0.034 C 
BRANCH   2   3
ATOM      3  CG  ARG D 557     -25.832   0.206 -17.196  1.00 35.49     0.027 C 
BRANCH   3   4
ATOM      4  CD  ARG D 557     -24.766   0.367 -16.181  1.00 35.49     0.116 C 
BRANCH   4   5
ATOM      5  NE  ARG D 557     -25.002  -0.441 -15.014  1.00 35.49    -0.212 N 
ATOM      6  CZ  ARG D 557     -24.261  -1.450 -14.615  1.00 35.49     0.666 C 
ATOM      7  NH1 ARG D 557     -23.191  -1.850 -15.278  1.00 35.49    -0.235 N 
ATOM      8  NH2 ARG D 557     -24.613  -2.058 -13.519  1.00 35.49    -0.235 N 
ATOM      9  HH  ARG D 557     -22.940  -1.463 -16.000  1.00 35.49     0.174 HD
ATOM     10  HH  ARG D 557     -22.745  -2.513 -14.969  1.00 35.49     0.174 HD
ATOM     11  HH  ARG D 557     -25.304  -1.773 -13.108  1.00 35.49     0.174 HD
ATOM     12  HH  ARG D 557     -24.157  -2.711 -13.229  1.00 35.49     0.174 HD
ATOM     13  HE  ARG D 557     -25.712  -0.299 -14.567  1.00 35.49     0.178 HD
ENDBRANCH   4   5
ENDBRANCH   3   4
ENDBRANCH   2   3
ENDBRANCH   1   2
END_RES ARG D 557
BEGIN_RES GLU D 570
REMARK  3 active torsions:
REMARK  status: ('A' for Active; 'I' for Inactive)
REMARK    5  A    between atoms: CA   and  CB  
REMARK    6  A    between atoms: CB   and  CG  
REMARK    7  A    between atoms: CG   and  CD  
ROOT
ATOM     14  CA  GLU D 570     -18.033  -6.348 -13.375  1.00 32.92     0.160 C 
ENDROOT
BRANCH  14  15
ATOM     15  CB  GLU D 570     -19.500  -6.345 -13.794  1.00 32.92     0.043 C 
BRANCH  15  16
ATOM     16  CG  GLU D 570     -19.811  -5.962 -15.195  1.00 32.92     0.100 C 
BRANCH  16  17
ATOM     17  CD  GLU D 570     -21.284  -5.721 -15.428  1.00 32.92     0.185 C 
ATOM     18  OE1 GLU D 570     -22.086  -6.658 -15.249  1.00 32.92    -0.647 OA
ATOM     19  OE2 GLU D 570     -21.639  -4.588 -15.808  1.00 32.92    -0.647 OA
ENDBRANCH  16  17
ENDBRANCH  15  16
ENDBRANCH  14  15
END_RES GLU D 570
ENDMDL
MODEL 9
REMARK VINA RESULT:      -8.0      2.288      8.178
REMARK  18 active torsions:
REMARK  status: ('A' for Active; 'I' for Inactive)
REMARK    1  A    between atoms: CG_2  and  CB_4 
REMARK    2  A    between atoms: CB_4  and  CA_5 
REMARK    3  A    between atoms: CA_5  and  C_6 
REMARK    4  A    between atoms: CA_5  and  N_9 
REMARK    5  A    between atoms: C_6  and  OXT_8 
REMARK       I    between atoms: N_9  and  C_12 
REMARK    6  A    between atoms: C_12  and  CA_14 
REMARK    7  A    between atoms: CA_14  and  CB_15 
REMARK    8  A    between atoms: CA_14  and  N_22 
REMARK    9  A    between atoms: CB_15  and  CG_16 
REMARK       I    between atoms: N_22  and  C_24 
REMARK   10  A    between atoms: C_24  and  CA_26 
REMARK   11  A    between atoms: CA_26  and  N_27 
REMARK       I    between atoms: N_27  and  C_29 
REMARK   12  A    between atoms: C_29  and  CA_31 
REMARK   13  A    between atoms: CA_31  and  N_33 
REMARK       I    between atoms: N_33  and  C_35 
REMARK   14  A    between atoms: C_35  and  CA_37 
REMARK   15  A    between atoms: CA_37  and  CB_38 
REMARK   16  A    between atoms: CA_37  and  N_46 
REMARK   17  A    between atoms: CB_38  and  CG_39 
REMARK   18  A    between atoms: CZ_42  and  OH_45 
ROOT
ATOM      1  N   PHE A   4     -21.281  -8.176  -4.732  1.00  0.00    -0.346 N 
ATOM      2  H   PHE A   4     -22.235  -8.366  -5.037  1.00  0.00     0.163 HD
ATOM      3  C   GLY A   3     -20.301  -9.118  -4.993  1.00  0.00     0.236 C 
ATOM      4  O   GLY A   3     -19.111  -8.916  -4.773  1.00  0.00    -0.272 OA
ENDROOT
BRANCH   3   5
ATOM      5  CA  GLY A   3     -20.794 -10.448  -5.591  1.00  0.00     0.225 C 
BRANCH   5   6
ATOM      6  N   GLY A   3     -19.717 -11.225  -6.189  1.00  0.00    -0.351 N 
ATOM      7  C   ALA A   2     -19.948 -12.421  -6.825  1.00  0.00     0.240 C 
ATOM      8  O   ALA A   2     -21.093 -12.860  -6.949  1.00  0.00    -0.271 OA
ATOM      9  H   GLY A   3     -18.762 -10.874  -6.123  1.00  0.00     0.163 HD
BRANCH   7  10
ATOM     10  CA  ALA A   2     -18.704 -13.146  -7.386  1.00  0.00     0.172 C 
ATOM     11  CB  ALA A   2     -18.769 -13.175  -8.909  1.00  0.00     0.042 C 
BRANCH  10  12
ATOM     12  N   ALA A   2     -17.466 -12.482  -6.965  1.00  0.00    -0.346 N 
ATOM     13  C   TYR A   1     -16.634 -13.020  -6.022  1.00  0.00     0.251 C 
ATOM     14  O   TYR A   1     -16.913 -14.075  -5.467  1.00  0.00    -0.271 OA
ATOM     15  H   ALA A   2     -17.259 -11.543  -7.292  1.00  0.00     0.163 HD
BRANCH  13  16
ATOM     16  CA  TYR A   1     -15.348 -12.179  -5.714  1.00  0.00     0.313 C 
BRANCH  16  17
ATOM     17  CB  TYR A   1     -14.513 -12.794  -4.571  1.00  0.00     0.083 C 
BRANCH  17  18
ATOM     18  CG  TYR A   1     -15.021 -12.511  -3.178  1.00  0.00    -0.056 A 
ATOM     19  CD1 TYR A   1     -14.919 -13.490  -2.176  1.00  0.00     0.010 A 
ATOM     20  CE1 TYR A   1     -15.305 -13.205  -0.867  1.00  0.00     0.037 A 
ATOM     21  CZ  TYR A   1     -15.813 -11.947  -0.564  1.00  0.00     0.065 A 
ATOM     22  CE2 TYR A   1     -15.961 -10.980  -1.551  1.00  0.00     0.037 A 
ATOM     23  CD2 TYR A   1     -15.565 -11.261  -2.858  1.00  0.00     0.010 A 
BRANCH  21  24
ATOM     24  OH  TYR A   1     -16.164 -11.613   0.710  1.00  0.00    -0.361 OA
ATOM     25  HH  TYR A   1     -15.577 -12.088   1.320  1.00  0.00     0.217 HD
ENDBRANCH  21  24
ENDBRANCH  17  18
ENDBRANCH  16  17
BRANCH  16  26
ATOM     26  N   TYR A   1     -14.523 -12.043  -6.948  1.00  0.00     0.092 N 
ATOM     27  H1  TYR A   1     -14.778 -11.171  -7.411  1.00  0.00     0.313 HD
ATOM     28  H2  TYR A   1     -14.784 -12.781  -7.604  1.00  0.00     0.313 HD
ENDBRANCH  16  26
ENDBRANCH  13  16
ENDBRANCH  10  12
ENDBRANCH   7  10
ENDBRANCH   5   6
ENDBRANCH   3   5
BRANCH   1  29
ATOM     29  CA  PHE A   4     -21.007  -6.885  -4.080  1.00  0.00     0.180 C 
BRANCH  29  30
ATOM     30  C   PHE A   4     -20.941  -5.742  -5.129  1.00  0.00     0.241 C 
ATOM     31  N   LEU A   5     -21.784  -5.848  -6.222  1.00  0.00    -0.345 N 
ATOM     32  H   LEU A   5     -22.568  -6.491  -6.165  1.00  0.00     0.163 HD
ATOM     33  O   PHE A   4     -20.220  -4.746  -4.999  1.00  0.00    -0.271 OA
BRANCH  31  34
ATOM     34  CA  LEU A   5     -21.825  -4.838  -7.305  1.00  0.00     0.182 C 
BRANCH  34  35
ATOM     35  CB  LEU A   5     -21.136  -5.381  -8.587  1.00  0.00     0.040 C 
BRANCH  35  36
ATOM     36  CG  LEU A   5     -20.033  -4.485  -9.215  1.00  0.00    -0.020 C 
ATOM     37  CD1 LEU A   5     -20.601  -3.496 -10.232  1.00  0.00     0.009 C 
ATOM     38  CD2 LEU A   5     -19.258  -3.670  -8.166  1.00  0.00     0.009 C 
ENDBRANCH  35  36
ENDBRANCH  34  35
BRANCH  34  39
ATOM     39  C   LEU A   5     -23.298  -4.439  -7.527  1.00  0.00     0.163 C 
ATOM     40  O   LEU A   5     -23.765  -4.038  -8.580  1.00  0.00    -0.648 OA
BRANCH  39  41
ATOM     41  OXT LEU A   5     -24.066  -4.562  -6.412  1.00  0.00    -0.775 OA
ATOM     42  HXT LEU A   5     -24.926  -5.013  -6.580  1.00  0.00     0.167 HD
ENDBRANCH  39  41
ENDBRANCH  34  39
ENDBRANCH  31  34
ENDBRANCH  29  30
BRANCH  29  43
ATOM     43  CB  PHE A   4     -22.033  -6.535  -2.980  1.00  0.00     0.073 C 
BRANCH  43  44
ATOM     44  CG  PHE A   4     -21.828  -7.295  -1.686  1.00  0.00    -0.056 A 
ATOM     45  CD1 PHE A   4     -20.853  -8.297  -1.609  1.00  0.00     0.007 A 
ATOM     46  CE1 PHE A   4     -20.679  -9.032  -0.433  1.00  0.00     0.001 A 
ATOM     47  CZ  PHE A   4     -21.483  -8.774   0.671  1.00  0.00     0.000 A 
ATOM     48  CE2 PHE A   4     -22.456  -7.774   0.608  1.00  0.00     0.001 A 
ATOM     49  CD2 PHE A   4     -22.622  -7.040  -0.561  1.00  0.00     0.007 A 
ENDBRANCH  43  44
ENDBRANCH  29  43
ENDBRANCH   1  29
TORSDOF 18
BEGIN_RES ARG D 557
REMARK  4 active torsions:
REMARK  status: ('A' for Active; 'I' for Inactive)
REMARK    1  A    between atoms: CA   and  CB  
REMARK    2  A    between atoms: CB   and  CG  
REMARK    3  A    between atoms: CG   and  CD  
REMARK    4  A    between atoms: CD   and  NE  
REMARK       I    between atoms: NE   and  CZ  
REMARK       I    between atoms: CZ   and  NH1 
REMARK       I    between atoms: CZ   and  NH2 
ROOT
ATOM      1  CA  ARG D 557     -26.217   2.705 -17.014  1.00 35.49     0.159 C 
ENDROOT
BRANCH   1   2
ATOM      2  CB  ARG D 557     -26.789   1.319 -17.183  1.00 35.49     0.034 C 
BRANCH   2   3
ATOM      3  CG  ARG D 557     -25.843   0.199 -17.100  1.00 35.49     0.027 C 
BRANCH   3   4
ATOM      4  CD  ARG D 557     -24.765   0.443 -16.115  1.00 35.49     0.116 C 
BRANCH   4   5
ATOM      5  NE  ARG D 557     -24.848  -0.448 -14.988  1.00 35.49    -0.212 N 
ATOM      6  CZ  ARG D 557     -23.988  -1.397 -14.694  1.00 35.49     0.666 C 
ATOM      7  NH1 ARG D 557     -22.927  -1.648 -15.439  1.00 35.49    -0.235 N 
ATOM      8  NH2 ARG D 557     -24.209  -2.097 -13.620  1.00 35.49    -0.235 N 
ATOM      9  HH  ARG D 557     -22.760  -1.199 -16.149  1.00 35.49     0.174 HD
ATOM     10  HH  ARG D 557     -22.399  -2.278 -15.197  1.00 35.49     0.174 HD
ATOM     11  HH  ARG D 557     -24.898  -1.907 -13.154  1.00 35.49     0.174 HD
ATOM     12  HH  ARG D 557     -23.674  -2.715 -13.395  1.00 35.49     0.174 HD
ATOM     13  HE  ARG D 557     -25.539  -0.404 -14.495  1.00 35.49     0.178 HD
ENDBRANCH   4   5
ENDBRANCH   3   4
ENDBRANCH   2   3
ENDBRANCH   1   2
END_RES ARG D 557
BEGIN_RES GLU D 570
REMARK  3 active torsions:
REMARK  status: ('A' for Active; 'I' for Inactive)
REMARK    5  A    between atoms: CA   and  CB  
REMARK    6  A    between atoms: CB   and  CG  
REMARK    7  A    between atoms: CG   and  CD  
ROOT
ATOM     14  CA  GLU D 570     -18.033  -6.348 -13.375  1.00 32.92     0.160 C 
ENDROOT
BRANCH  14  15
ATOM     15  CB  GLU D 570     -19.500  -6.345 -13.794  1.00 32.92     0.043 C 
BRANCH  15  16
ATOM     16  CG  GLU D 570     -20.446  -5.548 -12.970  1.00 32.92     0.100 C 
BRANCH  16  17
ATOM     17  CD  GLU D 570     -21.655  -5.082 -13.746  1.00 32.92     0.185 C 
ATOM     18  OE1 GLU D 570     -22.695  -4.788 -13.127  1.00 32.92    -0.647 OA
ATOM     19  OE2 GLU D 570     -21.567  -5.027 -14.989  1.00 32.92    -0.647 OA
ENDBRANCH  16  17
ENDBRANCH  15  16
ENDBRANCH  14  15
END_RES GLU D 570
ENDMDL
