MODEL 1
REMARK VINA RESULT:      -7.8      0.000      0.000
REMARK WARNING: 32 MAX_TORS EXCEEDED!!!
REMARK  43 active torsions:
REMARK  status: ('A' for Active; 'I' for Inactive)
REMARK    1  A    between atoms: C_2  and  C_3 
REMARK    2  A    between atoms: C_3  and  C_4 
REMARK    3  A    between atoms: C_4  and  C_5 
REMARK    4  A    between atoms: C_5  and  C_6 
REMARK    5  A    between atoms: C_6  and  C_7 
REMARK    6  A    between atoms: C_7  and  C_8 
REMARK    7  A    between atoms: C_8  and  C_9 
REMARK    8  A    between atoms: C_9  and  C_10 
REMARK    9  A    between atoms: C_10  and  C_11 
REMARK   10  A    between atoms: C_11  and  C_12 
REMARK   11  A    between atoms: C_12  and  C_13 
REMARK   12  A    between atoms: C_13  and  C_14 
REMARK   13  A    between atoms: C_14  and  C_15 
REMARK   14  A    between atoms: C_15  and  C_16 
REMARK   15  A    between atoms: C_16  and  C_17 
REMARK   16  A    between atoms: C_17  and  C_18 
REMARK       I    between atoms: C_18  and  N_20 
REMARK   17  A    between atoms: N_20  and  C_21 
REMARK   18  A    between atoms: N_20  and  C_24 
REMARK   19  A    between atoms: C_21  and  C_22 
REMARK   20  A    between atoms: C_22  and  O_23 
REMARK   21  A    between atoms: C_24  and  C_25 
REMARK   22  A    between atoms: C_25  and  C_26 
REMARK   23  A    between atoms: C_25  and  O_50 
REMARK   24  A    between atoms: C_26  and  N_27 
REMARK   25  A    between atoms: N_27  and  C_28 
REMARK       I    between atoms: N_27  and  C_31 
REMARK   26  A    between atoms: C_28  and  C_29 
REMARK   27  A    between atoms: C_29  and  O_30 
REMARK   28  A    between atoms: C_31  and  C_33 
REMARK   29  A    between atoms: C_33  and  C_34 
REMARK   30  A    between atoms: C_34  and  C_35 
REMARK   31  A    between atoms: C_35  and  C_36 
REMARK   32  A    between atoms: C_36  and  C_37 
REMARK   33  A    between atoms: C_37  and  C_38 
REMARK   34  A    between atoms: C_38  and  C_39 
REMARK   35  A    between atoms: C_39  and  C_40 
REMARK   36  A    between atoms: C_40  and  C_41 
REMARK   37  A    between atoms: C_41  and  C_42 
REMARK   38  A    between atoms: C_42  and  C_43 
REMARK   39  A    between atoms: C_43  and  C_44 
REMARK   40  A    between atoms: C_44  and  C_45 
REMARK   41  A    between atoms: C_45  and  C_46 
REMARK   42  A    between atoms: C_46  and  C_47 
REMARK   43  A    between atoms: C_47  and  C_48 
ROOT
HETATM    1  C   UNL     1     -24.810  -5.688 -15.330  1.00  0.00     0.154 C 
ENDROOT
BRANCH   1   2
HETATM    2  C   UNL     1     -26.129  -6.226 -15.939  1.00  0.00     0.159 C 
BRANCH   2   3
HETATM    3  N   UNL     1     -26.430  -6.411 -17.388  1.00  0.00    -0.348 N 
HETATM    4  C   UNL     1     -27.819  -6.262 -17.760  1.00  0.00     0.219 C 
HETATM    5  O   UNL     1     -28.236  -6.169 -18.905  1.00  0.00    -0.273 OA
BRANCH   4   6
HETATM    6  C   UNL     1     -28.751  -6.241 -16.546  1.00  0.00     0.103 C 
BRANCH   6   7
HETATM    7  C   UNL     1     -30.228  -6.341 -16.787  1.00  0.00     0.009 C 
BRANCH   7   8
HETATM    8  C   UNL     1     -30.947  -5.095 -16.331  1.00  0.00     0.000 C 
BRANCH   8   9
HETATM    9  C   UNL     1     -32.221  -5.044 -17.122  1.00  0.00     0.000 C 
BRANCH   9  10
HETATM   10  C   UNL     1     -32.919  -3.729 -16.914  1.00  0.00     0.000 C 
BRANCH  10  11
HETATM   11  C   UNL     1     -34.112  -4.036 -16.049  1.00  0.00     0.000 C 
BRANCH  11  12
HETATM   12  C   UNL     1     -34.690  -2.758 -15.519  1.00  0.00     0.000 C 
BRANCH  12  13
HETATM   13  C   UNL     1     -35.032  -1.886 -16.702  1.00  0.00     0.000 C 
BRANCH  13  14
HETATM   14  C   UNL     1     -35.983  -0.808 -16.249  1.00  0.00     0.000 C 
BRANCH  14  15
HETATM   15  C   UNL     1     -35.241   0.169 -15.367  1.00  0.00     0.000 C 
BRANCH  15  16
HETATM   16  C   UNL     1     -35.982   0.314 -14.055  1.00  0.00     0.000 C 
BRANCH  16  17
HETATM   17  C   UNL     1     -35.008   0.185 -12.900  1.00  0.00     0.000 C 
BRANCH  17  18
HETATM   18  C   UNL     1     -35.622  -0.663 -11.801  1.00  0.00     0.000 C 
BRANCH  18  19
HETATM   19  C   UNL     1     -35.082  -2.083 -11.870  1.00  0.00     0.000 C 
BRANCH  19  20
HETATM   20  C   UNL     1     -33.737  -2.172 -11.162  1.00  0.00    -0.000 C 
BRANCH  20  21
HETATM   21  C   UNL     1     -33.248  -3.615 -11.108  1.00  0.00    -0.005 C 
HETATM   22  C   UNL     1     -34.398  -4.562 -10.818  1.00  0.00     0.005 C 
ENDBRANCH  20  21
ENDBRANCH  19  20
ENDBRANCH  18  19
ENDBRANCH  17  18
ENDBRANCH  16  17
ENDBRANCH  15  16
ENDBRANCH  14  15
ENDBRANCH  13  14
ENDBRANCH  12  13
ENDBRANCH  11  12
ENDBRANCH  10  11
ENDBRANCH   9  10
ENDBRANCH   8   9
ENDBRANCH   7   8
ENDBRANCH   6   7
ENDBRANCH   4   6
BRANCH   3  23
HETATM   23  C   UNL     1     -25.355  -6.470 -18.380  1.00  0.00     0.151 C 
BRANCH  23  24
HETATM   24  C   UNL     1     -24.027  -7.281 -18.249  1.00  0.00     0.183 C 
BRANCH  24  25
HETATM   25  O   UNL     1     -22.793  -6.578 -18.346  1.00  0.00    -0.399 OA
HETATM   26  H   UNL     1     -22.323  -6.955 -19.111  1.00  0.00     0.209 HD
ENDBRANCH  24  25
ENDBRANCH  23  24
ENDBRANCH   3  23
ENDBRANCH   2   3
ENDBRANCH   1   2
BRANCH   1  27
HETATM   27  C   UNL     1     -25.057  -4.530 -14.319  1.00  0.00     0.159 C 
BRANCH  27  28
HETATM   28  N   UNL     1     -23.842  -3.715 -14.004  1.00  0.00    -0.348 N 
HETATM   29  C   UNL     1     -23.181  -4.120 -12.816  1.00  0.00     0.219 C 
HETATM   30  O   UNL     1     -23.512  -5.128 -12.183  1.00  0.00    -0.273 OA
BRANCH  28  31
HETATM   31  C   UNL     1     -23.733  -2.361 -14.610  1.00  0.00     0.151 C 
BRANCH  31  32
HETATM   32  C   UNL     1     -24.993  -1.473 -14.652  1.00  0.00     0.183 C 
BRANCH  32  33
HETATM   33  O   UNL     1     -24.645  -0.130 -14.976  1.00  0.00    -0.399 OA
HETATM   34  H   UNL     1     -23.818  -0.124 -15.478  1.00  0.00     0.209 HD
ENDBRANCH  32  33
ENDBRANCH  31  32
ENDBRANCH  28  31
BRANCH  29  35
HETATM   35  C   UNL     1     -22.016  -3.329 -12.249  1.00  0.00     0.103 C 
BRANCH  35  36
HETATM   36  C   UNL     1     -21.767  -3.607 -10.763  1.00  0.00     0.009 C 
BRANCH  36  37
HETATM   37  C   UNL     1     -20.293  -3.825 -10.377  1.00  0.00     0.000 C 
BRANCH  37  38
HETATM   38  C   UNL     1     -20.188  -4.846  -9.244  1.00  0.00     0.000 C 
BRANCH  38  39
HETATM   39  C   UNL     1     -19.650  -4.230  -7.954  1.00  0.00     0.000 C 
BRANCH  39  40
HETATM   40  C   UNL     1     -20.754  -4.197  -6.904  1.00  0.00     0.000 C 
BRANCH  40  41
HETATM   41  C   UNL     1     -20.332  -4.927  -5.639  1.00  0.00     0.000 C 
BRANCH  41  42
HETATM   42  C   UNL     1     -21.482  -5.776  -5.118  1.00  0.00     0.000 C 
BRANCH  42  43
HETATM   43  C   UNL     1     -21.052  -7.229  -5.002  1.00  0.00     0.000 C 
BRANCH  43  44
HETATM   44  C   UNL     1     -20.782  -7.588  -3.550  1.00  0.00     0.000 C 
BRANCH  44  45
HETATM   45  C   UNL     1     -21.440  -6.572  -2.629  1.00  0.00     0.000 C 
BRANCH  45  46
HETATM   46  C   UNL     1     -22.074  -7.270  -1.436  1.00  0.00     0.000 C 
BRANCH  46  47
HETATM   47  C   UNL     1     -21.028  -8.069  -0.669  1.00  0.00     0.000 C 
BRANCH  47  48
HETATM   48  C   UNL     1     -21.696  -9.073   0.257  1.00  0.00     0.000 C 
BRANCH  48  49
HETATM   49  C   UNL     1     -23.206  -8.990   0.139  1.00  0.00    -0.000 C 
BRANCH  49  50
HETATM   50  C   UNL     1     -23.817 -10.373  -0.084  1.00  0.00    -0.005 C 
HETATM   51  C   UNL     1     -23.291 -11.005  -1.360  1.00  0.00     0.005 C 
ENDBRANCH  49  50
ENDBRANCH  48  49
ENDBRANCH  47  48
ENDBRANCH  46  47
ENDBRANCH  45  46
ENDBRANCH  44  45
ENDBRANCH  43  44
ENDBRANCH  42  43
ENDBRANCH  41  42
ENDBRANCH  40  41
ENDBRANCH  39  40
ENDBRANCH  38  39
ENDBRANCH  37  38
ENDBRANCH  36  37
ENDBRANCH  35  36
ENDBRANCH  29  35
ENDBRANCH  27  28
ENDBRANCH   1  27
BRANCH   1  52
HETATM   52  O   UNL     1     -24.187  -6.703 -14.584  1.00  0.00    -0.392 OA
HETATM   53  H   UNL     1     -24.911  -6.978 -13.992  1.00  0.00     0.210 HD
ENDBRANCH   1  52
TORSDOF 43
BEGIN_RES ARG D 557
REMARK  4 active torsions:
REMARK  status: ('A' for Active; 'I' for Inactive)
REMARK    1  A    between atoms: CA   and  CB  
REMARK    2  A    between atoms: CB   and  CG  
REMARK    3  A    between atoms: CG   and  CD  
REMARK    4  A    between atoms: CD   and  NE  
REMARK       I    between atoms: NE   and  CZ  
REMARK       I    between atoms: CZ   and  NH1 
REMARK       I    between atoms: CZ   and  NH2 
ROOT
ATOM      1  CA  ARG D 557     -26.217   2.705 -17.014  1.00 35.49     0.159 C 
ENDROOT
BRANCH   1   2
ATOM      2  CB  ARG D 557     -26.789   1.319 -17.183  1.00 35.49     0.034 C 
BRANCH   2   3
ATOM      3  CG  ARG D 557     -28.228   1.227 -17.458  1.00 35.49     0.027 C 
BRANCH   3   4
ATOM      4  CD  ARG D 557     -28.929   0.336 -16.506  1.00 35.49     0.116 C 
BRANCH   4   5
ATOM      5  NE  ARG D 557     -28.170  -0.851 -16.214  1.00 35.49    -0.212 N 
ATOM      6  CZ  ARG D 557     -28.390  -2.046 -16.715  1.00 35.49     0.666 C 
ATOM      7  NH1 ARG D 557     -29.376  -2.291 -17.558  1.00 35.49    -0.235 N 
ATOM      8  NH2 ARG D 557     -27.586  -3.005 -16.356  1.00 35.49    -0.235 N 
ATOM      9  HH  ARG D 557     -29.915  -1.675 -17.810  1.00 35.49     0.174 HD
ATOM     10  HH  ARG D 557     -29.469  -3.090 -17.854  1.00 35.49     0.174 HD
ATOM     11  HH  ARG D 557     -26.954  -2.816 -15.816  1.00 35.49     0.174 HD
ATOM     12  HH  ARG D 557     -27.694  -3.788 -16.661  1.00 35.49     0.174 HD
ATOM     13  HE  ARG D 557     -27.559  -0.800 -15.624  1.00 35.49     0.178 HD
ENDBRANCH   4   5
ENDBRANCH   3   4
ENDBRANCH   2   3
ENDBRANCH   1   2
END_RES ARG D 557
BEGIN_RES GLU D 570
REMARK  3 active torsions:
REMARK  status: ('A' for Active; 'I' for Inactive)
REMARK    5  A    between atoms: CA   and  CB  
REMARK    6  A    between atoms: CB   and  CG  
REMARK    7  A    between atoms: CG   and  CD  
ROOT
ATOM     14  CA  GLU D 570     -18.033  -6.348 -13.375  1.00 32.92     0.160 C 
ENDROOT
BRANCH  14  15
ATOM     15  CB  GLU D 570     -19.500  -6.345 -13.794  1.00 32.92     0.043 C 
BRANCH  15  16
ATOM     16  CG  GLU D 570     -20.029  -7.573 -14.443  1.00 32.92     0.100 C 
BRANCH  16  17
ATOM     17  CD  GLU D 570     -21.097  -7.282 -15.471  1.00 32.92     0.185 C 
ATOM     18  OE1 GLU D 570     -21.335  -6.098 -15.779  1.00 32.92    -0.647 OA
ATOM     19  OE2 GLU D 570     -21.714  -8.248 -15.962  1.00 32.92    -0.647 OA
ENDBRANCH  16  17
ENDBRANCH  15  16
ENDBRANCH  14  15
END_RES GLU D 570
ENDMDL
MODEL 2
REMARK VINA RESULT:      -7.5      1.139      2.404
REMARK WARNING: 32 MAX_TORS EXCEEDED!!!
REMARK  43 active torsions:
REMARK  status: ('A' for Active; 'I' for Inactive)
REMARK    1  A    between atoms: C_2  and  C_3 
REMARK    2  A    between atoms: C_3  and  C_4 
REMARK    3  A    between atoms: C_4  and  C_5 
REMARK    4  A    between atoms: C_5  and  C_6 
REMARK    5  A    between atoms: C_6  and  C_7 
REMARK    6  A    between atoms: C_7  and  C_8 
REMARK    7  A    between atoms: C_8  and  C_9 
REMARK    8  A    between atoms: C_9  and  C_10 
REMARK    9  A    between atoms: C_10  and  C_11 
REMARK   10  A    between atoms: C_11  and  C_12 
REMARK   11  A    between atoms: C_12  and  C_13 
REMARK   12  A    between atoms: C_13  and  C_14 
REMARK   13  A    between atoms: C_14  and  C_15 
REMARK   14  A    between atoms: C_15  and  C_16 
REMARK   15  A    between atoms: C_16  and  C_17 
REMARK   16  A    between atoms: C_17  and  C_18 
REMARK       I    between atoms: C_18  and  N_20 
REMARK   17  A    between atoms: N_20  and  C_21 
REMARK   18  A    between atoms: N_20  and  C_24 
REMARK   19  A    between atoms: C_21  and  C_22 
REMARK   20  A    between atoms: C_22  and  O_23 
REMARK   21  A    between atoms: C_24  and  C_25 
REMARK   22  A    between atoms: C_25  and  C_26 
REMARK   23  A    between atoms: C_25  and  O_50 
REMARK   24  A    between atoms: C_26  and  N_27 
REMARK   25  A    between atoms: N_27  and  C_28 
REMARK       I    between atoms: N_27  and  C_31 
REMARK   26  A    between atoms: C_28  and  C_29 
REMARK   27  A    between atoms: C_29  and  O_30 
REMARK   28  A    between atoms: C_31  and  C_33 
REMARK   29  A    between atoms: C_33  and  C_34 
REMARK   30  A    between atoms: C_34  and  C_35 
REMARK   31  A    between atoms: C_35  and  C_36 
REMARK   32  A    between atoms: C_36  and  C_37 
REMARK   33  A    between atoms: C_37  and  C_38 
REMARK   34  A    between atoms: C_38  and  C_39 
REMARK   35  A    between atoms: C_39  and  C_40 
REMARK   36  A    between atoms: C_40  and  C_41 
REMARK   37  A    between atoms: C_41  and  C_42 
REMARK   38  A    between atoms: C_42  and  C_43 
REMARK   39  A    between atoms: C_43  and  C_44 
REMARK   40  A    between atoms: C_44  and  C_45 
REMARK   41  A    between atoms: C_45  and  C_46 
REMARK   42  A    between atoms: C_46  and  C_47 
REMARK   43  A    between atoms: C_47  and  C_48 
ROOT
HETATM    1  C   UNL     1     -25.042  -5.985 -15.588  1.00  0.00     0.154 C 
ENDROOT
BRANCH   1   2
HETATM    2  C   UNL     1     -26.374  -6.338 -16.293  1.00  0.00     0.159 C 
BRANCH   2   3
HETATM    3  N   UNL     1     -26.644  -6.298 -17.759  1.00  0.00    -0.348 N 
HETATM    4  C   UNL     1     -28.000  -5.966 -18.135  1.00  0.00     0.219 C 
HETATM    5  O   UNL     1     -28.369  -5.680 -19.264  1.00  0.00    -0.273 OA
BRANCH   4   6
HETATM    6  C   UNL     1     -28.965  -6.016 -16.948  1.00  0.00     0.103 C 
BRANCH   6   7
HETATM    7  C   UNL     1     -30.072  -7.028 -16.981  1.00  0.00     0.009 C 
BRANCH   7   8
HETATM    8  C   UNL     1     -31.374  -6.407 -17.424  1.00  0.00     0.000 C 
BRANCH   8   9
HETATM    9  C   UNL     1     -31.335  -4.986 -16.941  1.00  0.00     0.000 C 
BRANCH   9  10
HETATM   10  C   UNL     1     -32.722  -4.497 -16.630  1.00  0.00     0.000 C 
BRANCH  10  11
HETATM   11  C   UNL     1     -32.822  -4.494 -15.128  1.00  0.00     0.000 C 
BRANCH  11  12
HETATM   12  C   UNL     1     -34.190  -4.035 -14.718  1.00  0.00     0.000 C 
BRANCH  12  13
HETATM   13  C   UNL     1     -34.375  -4.393 -13.263  1.00  0.00     0.000 C 
BRANCH  13  14
HETATM   14  C   UNL     1     -33.140  -3.983 -12.503  1.00  0.00     0.000 C 
BRANCH  14  15
HETATM   15  C   UNL     1     -33.438  -4.009 -11.022  1.00  0.00     0.000 C 
BRANCH  15  16
HETATM   16  C   UNL     1     -33.866  -2.627 -10.579  1.00  0.00     0.000 C 
BRANCH  16  17
HETATM   17  C   UNL     1     -35.375  -2.503 -10.676  1.00  0.00     0.000 C 
BRANCH  17  18
HETATM   18  C   UNL     1     -35.748  -1.098 -11.113  1.00  0.00     0.000 C 
BRANCH  18  19
HETATM   19  C   UNL     1     -34.959  -0.707 -12.354  1.00  0.00     0.000 C 
BRANCH  19  20
HETATM   20  C   UNL     1     -35.818  -0.871 -13.600  1.00  0.00    -0.000 C 
BRANCH  20  21
HETATM   21  C   UNL     1     -35.342   0.056 -14.711  1.00  0.00    -0.005 C 
HETATM   22  C   UNL     1     -34.729   1.318 -14.134  1.00  0.00     0.005 C 
ENDBRANCH  20  21
ENDBRANCH  19  20
ENDBRANCH  18  19
ENDBRANCH  17  18
ENDBRANCH  16  17
ENDBRANCH  15  16
ENDBRANCH  14  15
ENDBRANCH  13  14
ENDBRANCH  12  13
ENDBRANCH  11  12
ENDBRANCH  10  11
ENDBRANCH   9  10
ENDBRANCH   8   9
ENDBRANCH   7   8
ENDBRANCH   6   7
ENDBRANCH   4   6
BRANCH   3  23
HETATM   23  C   UNL     1     -25.547  -6.329 -18.728  1.00  0.00     0.151 C 
BRANCH  23  24
HETATM   24  C   UNL     1     -24.359  -7.340 -18.739  1.00  0.00     0.183 C 
BRANCH  24  25
HETATM   25  O   UNL     1     -23.160  -6.983 -18.060  1.00  0.00    -0.399 OA
HETATM   26  H   UNL     1     -23.433  -6.598 -17.207  1.00  0.00     0.209 HD
ENDBRANCH  24  25
ENDBRANCH  23  24
ENDBRANCH   3  23
ENDBRANCH   2   3
ENDBRANCH   1   2
BRANCH   1  27
HETATM   27  C   UNL     1     -25.252  -5.045 -14.365  1.00  0.00     0.159 C 
BRANCH  27  28
HETATM   28  N   UNL     1     -24.038  -4.265 -13.968  1.00  0.00    -0.348 N 
HETATM   29  C   UNL     1     -23.306  -4.859 -12.908  1.00  0.00     0.219 C 
HETATM   30  O   UNL     1     -23.582  -5.974 -12.454  1.00  0.00    -0.273 OA
BRANCH  28  31
HETATM   31  C   UNL     1     -23.988  -2.821 -14.322  1.00  0.00     0.151 C 
BRANCH  31  32
HETATM   32  C   UNL     1     -22.793  -2.311 -15.151  1.00  0.00     0.183 C 
BRANCH  32  33
HETATM   33  O   UNL     1     -22.050  -3.405 -15.679  1.00  0.00    -0.399 OA
HETATM   34  H   UNL     1     -22.560  -3.830 -16.383  1.00  0.00     0.209 HD
ENDBRANCH  32  33
ENDBRANCH  31  32
ENDBRANCH  28  31
BRANCH  29  35
HETATM   35  C   UNL     1     -22.127  -4.150 -12.266  1.00  0.00     0.103 C 
BRANCH  35  36
HETATM   36  C   UNL     1     -22.469  -3.523 -10.910  1.00  0.00     0.009 C 
BRANCH  36  37
HETATM   37  C   UNL     1     -21.672  -4.076  -9.715  1.00  0.00     0.000 C 
BRANCH  37  38
HETATM   38  C   UNL     1     -22.495  -3.961  -8.431  1.00  0.00     0.000 C 
BRANCH  38  39
HETATM   39  C   UNL     1     -21.618  -3.841  -7.187  1.00  0.00     0.000 C 
BRANCH  39  40
HETATM   40  C   UNL     1     -20.872  -5.150  -6.959  1.00  0.00     0.000 C 
BRANCH  40  41
HETATM   41  C   UNL     1     -20.360  -5.250  -5.531  1.00  0.00     0.000 C 
BRANCH  41  42
HETATM   42  C   UNL     1     -21.204  -6.239  -4.742  1.00  0.00     0.000 C 
BRANCH  42  43
HETATM   43  C   UNL     1     -20.800  -7.664  -5.081  1.00  0.00     0.000 C 
BRANCH  43  44
HETATM   44  C   UNL     1     -21.733  -8.655  -4.404  1.00  0.00     0.000 C 
BRANCH  44  45
HETATM   45  C   UNL     1     -20.981  -9.437  -3.338  1.00  0.00     0.000 C 
BRANCH  45  46
HETATM   46  C   UNL     1     -21.951 -10.246  -2.492  1.00  0.00     0.000 C 
BRANCH  46  47
HETATM   47  C   UNL     1     -21.673 -10.031  -1.010  1.00  0.00     0.000 C 
BRANCH  47  48
HETATM   48  C   UNL     1     -22.974  -9.871  -0.240  1.00  0.00     0.000 C 
BRANCH  48  49
HETATM   49  C   UNL     1     -23.187  -8.424   0.161  1.00  0.00    -0.000 C 
BRANCH  49  50
HETATM   50  C   UNL     1     -21.963  -7.574  -0.177  1.00  0.00    -0.005 C 
HETATM   51  C   UNL     1     -22.315  -6.473  -1.161  1.00  0.00     0.005 C 
ENDBRANCH  49  50
ENDBRANCH  48  49
ENDBRANCH  47  48
ENDBRANCH  46  47
ENDBRANCH  45  46
ENDBRANCH  44  45
ENDBRANCH  43  44
ENDBRANCH  42  43
ENDBRANCH  41  42
ENDBRANCH  40  41
ENDBRANCH  39  40
ENDBRANCH  38  39
ENDBRANCH  37  38
ENDBRANCH  36  37
ENDBRANCH  35  36
ENDBRANCH  29  35
ENDBRANCH  27  28
ENDBRANCH   1  27
BRANCH   1  52
HETATM   52  O   UNL     1     -24.464  -7.153 -15.060  1.00  0.00    -0.392 OA
HETATM   53  H   UNL     1     -25.226  -7.555 -14.605  1.00  0.00     0.210 HD
ENDBRANCH   1  52
TORSDOF 43
BEGIN_RES ARG D 557
REMARK  4 active torsions:
REMARK  status: ('A' for Active; 'I' for Inactive)
REMARK    1  A    between atoms: CA   and  CB  
REMARK    2  A    between atoms: CB   and  CG  
REMARK    3  A    between atoms: CG   and  CD  
REMARK    4  A    between atoms: CD   and  NE  
REMARK       I    between atoms: NE   and  CZ  
REMARK       I    between atoms: CZ   and  NH1 
REMARK       I    between atoms: CZ   and  NH2 
ROOT
ATOM      1  CA  ARG D 557     -26.217   2.705 -17.014  1.00 35.49     0.159 C 
ENDROOT
BRANCH   1   2
ATOM      2  CB  ARG D 557     -26.789   1.319 -17.183  1.00 35.49     0.034 C 
BRANCH   2   3
ATOM      3  CG  ARG D 557     -28.232   1.226 -17.439  1.00 35.49     0.027 C 
BRANCH   3   4
ATOM      4  CD  ARG D 557     -28.910   0.293 -16.511  1.00 35.49     0.116 C 
BRANCH   4   5
ATOM      5  NE  ARG D 557     -28.062  -0.805 -16.129  1.00 35.49    -0.212 N 
ATOM      6  CZ  ARG D 557     -28.146  -2.035 -16.584  1.00 35.49     0.666 C 
ATOM      7  NH1 ARG D 557     -29.061  -2.406 -17.460  1.00 35.49    -0.235 N 
ATOM      8  NH2 ARG D 557     -27.278  -2.899 -16.142  1.00 35.49    -0.235 N 
ATOM      9  HH  ARG D 557     -29.640  -1.853 -17.766  1.00 35.49     0.174 HD
ATOM     10  HH  ARG D 557     -29.065  -3.221 -17.723  1.00 35.49     0.174 HD
ATOM     11  HH  ARG D 557     -26.694  -2.629 -15.582  1.00 35.49     0.174 HD
ATOM     12  HH  ARG D 557     -27.298  -3.701 -16.416  1.00 35.49     0.174 HD
ATOM     13  HE  ARG D 557     -27.490  -0.672 -15.513  1.00 35.49     0.178 HD
ENDBRANCH   4   5
ENDBRANCH   3   4
ENDBRANCH   2   3
ENDBRANCH   1   2
END_RES ARG D 557
BEGIN_RES GLU D 570
REMARK  3 active torsions:
REMARK  status: ('A' for Active; 'I' for Inactive)
REMARK    5  A    between atoms: CA   and  CB  
REMARK    6  A    between atoms: CB   and  CG  
REMARK    7  A    between atoms: CG   and  CD  
ROOT
ATOM     14  CA  GLU D 570     -18.033  -6.348 -13.375  1.00 32.92     0.160 C 
ENDROOT
BRANCH  14  15
ATOM     15  CB  GLU D 570     -19.500  -6.345 -13.794  1.00 32.92     0.043 C 
BRANCH  15  16
ATOM     16  CG  GLU D 570     -20.080  -7.630 -14.263  1.00 32.92     0.100 C 
BRANCH  16  17
ATOM     17  CD  GLU D 570     -21.027  -7.458 -15.429  1.00 32.92     0.185 C 
ATOM     18  OE1 GLU D 570     -21.201  -8.411 -16.212  1.00 32.92    -0.647 OA
ATOM     19  OE2 GLU D 570     -21.587  -6.353 -15.569  1.00 32.92    -0.647 OA
ENDBRANCH  16  17
ENDBRANCH  15  16
ENDBRANCH  14  15
END_RES GLU D 570
ENDMDL
MODEL 3
REMARK VINA RESULT:      -7.3      1.446      2.164
REMARK WARNING: 32 MAX_TORS EXCEEDED!!!
REMARK  43 active torsions:
REMARK  status: ('A' for Active; 'I' for Inactive)
REMARK    1  A    between atoms: C_2  and  C_3 
REMARK    2  A    between atoms: C_3  and  C_4 
REMARK    3  A    between atoms: C_4  and  C_5 
REMARK    4  A    between atoms: C_5  and  C_6 
REMARK    5  A    between atoms: C_6  and  C_7 
REMARK    6  A    between atoms: C_7  and  C_8 
REMARK    7  A    between atoms: C_8  and  C_9 
REMARK    8  A    between atoms: C_9  and  C_10 
REMARK    9  A    between atoms: C_10  and  C_11 
REMARK   10  A    between atoms: C_11  and  C_12 
REMARK   11  A    between atoms: C_12  and  C_13 
REMARK   12  A    between atoms: C_13  and  C_14 
REMARK   13  A    between atoms: C_14  and  C_15 
REMARK   14  A    between atoms: C_15  and  C_16 
REMARK   15  A    between atoms: C_16  and  C_17 
REMARK   16  A    between atoms: C_17  and  C_18 
REMARK       I    between atoms: C_18  and  N_20 
REMARK   17  A    between atoms: N_20  and  C_21 
REMARK   18  A    between atoms: N_20  and  C_24 
REMARK   19  A    between atoms: C_21  and  C_22 
REMARK   20  A    between atoms: C_22  and  O_23 
REMARK   21  A    between atoms: C_24  and  C_25 
REMARK   22  A    between atoms: C_25  and  C_26 
REMARK   23  A    between atoms: C_25  and  O_50 
REMARK   24  A    between atoms: C_26  and  N_27 
REMARK   25  A    between atoms: N_27  and  C_28 
REMARK       I    between atoms: N_27  and  C_31 
REMARK   26  A    between atoms: C_28  and  C_29 
REMARK   27  A    between atoms: C_29  and  O_30 
REMARK   28  A    between atoms: C_31  and  C_33 
REMARK   29  A    between atoms: C_33  and  C_34 
REMARK   30  A    between atoms: C_34  and  C_35 
REMARK   31  A    between atoms: C_35  and  C_36 
REMARK   32  A    between atoms: C_36  and  C_37 
REMARK   33  A    between atoms: C_37  and  C_38 
REMARK   34  A    between atoms: C_38  and  C_39 
REMARK   35  A    between atoms: C_39  and  C_40 
REMARK   36  A    between atoms: C_40  and  C_41 
REMARK   37  A    between atoms: C_41  and  C_42 
REMARK   38  A    between atoms: C_42  and  C_43 
REMARK   39  A    between atoms: C_43  and  C_44 
REMARK   40  A    between atoms: C_44  and  C_45 
REMARK   41  A    between atoms: C_45  and  C_46 
REMARK   42  A    between atoms: C_46  and  C_47 
REMARK   43  A    between atoms: C_47  and  C_48 
ROOT
HETATM    1  C   UNL     1     -24.436  -4.889 -14.370  1.00  0.00     0.154 C 
ENDROOT
BRANCH   1   2
HETATM    2  C   UNL     1     -25.753  -5.058 -15.167  1.00  0.00     0.159 C 
BRANCH   2   3
HETATM    3  N   UNL     1     -25.995  -5.997 -16.301  1.00  0.00    -0.348 N 
HETATM    4  C   UNL     1     -27.180  -5.735 -17.086  1.00  0.00     0.219 C 
HETATM    5  O   UNL     1     -27.440  -6.250 -18.163  1.00  0.00    -0.273 OA
BRANCH   4   6
HETATM    6  C   UNL     1     -28.115  -4.726 -16.414  1.00  0.00     0.103 C 
BRANCH   6   7
HETATM    7  C   UNL     1     -28.714  -3.644 -17.264  1.00  0.00     0.009 C 
BRANCH   7   8
HETATM    8  C   UNL     1     -30.083  -4.032 -17.767  1.00  0.00     0.000 C 
BRANCH   8   9
HETATM    9  C   UNL     1     -30.727  -4.800 -16.651  1.00  0.00     0.000 C 
BRANCH   9  10
HETATM   10  C   UNL     1     -32.199  -4.965 -16.906  1.00  0.00     0.000 C 
BRANCH  10  11
HETATM   11  C   UNL     1     -32.725  -3.577 -17.157  1.00  0.00     0.000 C 
BRANCH  11  12
HETATM   12  C   UNL     1     -34.080  -3.433 -16.532  1.00  0.00     0.000 C 
BRANCH  12  13
HETATM   13  C   UNL     1     -34.648  -2.106 -16.973  1.00  0.00     0.000 C 
BRANCH  13  14
HETATM   14  C   UNL     1     -35.604  -1.614 -15.917  1.00  0.00     0.000 C 
BRANCH  14  15
HETATM   15  C   UNL     1     -35.799  -0.125 -16.081  1.00  0.00     0.000 C 
BRANCH  15  16
HETATM   16  C   UNL     1     -35.054   0.597 -14.979  1.00  0.00     0.000 C 
BRANCH  16  17
HETATM   17  C   UNL     1     -35.766   0.388 -13.656  1.00  0.00     0.000 C 
BRANCH  17  18
HETATM   18  C   UNL     1     -34.788  -0.138 -12.621  1.00  0.00     0.000 C 
BRANCH  18  19
HETATM   19  C   UNL     1     -35.283  -1.461 -12.056  1.00  0.00     0.000 C 
BRANCH  19  20
HETATM   20  C   UNL     1     -34.344  -2.591 -12.455  1.00  0.00    -0.000 C 
BRANCH  20  21
HETATM   21  C   UNL     1     -33.462  -3.002 -11.283  1.00  0.00    -0.005 C 
HETATM   22  C   UNL     1     -33.137  -4.483 -11.346  1.00  0.00     0.005 C 
ENDBRANCH  20  21
ENDBRANCH  19  20
ENDBRANCH  18  19
ENDBRANCH  17  18
ENDBRANCH  16  17
ENDBRANCH  15  16
ENDBRANCH  14  15
ENDBRANCH  13  14
ENDBRANCH  12  13
ENDBRANCH  11  12
ENDBRANCH  10  11
ENDBRANCH   9  10
ENDBRANCH   8   9
ENDBRANCH   7   8
ENDBRANCH   6   7
ENDBRANCH   4   6
BRANCH   3  23
HETATM   23  C   UNL     1     -24.959  -6.938 -16.733  1.00  0.00     0.151 C 
BRANCH  23  24
HETATM   24  C   UNL     1     -24.302  -6.994 -18.148  1.00  0.00     0.183 C 
BRANCH  24  25
HETATM   25  O   UNL     1     -22.882  -6.964 -18.235  1.00  0.00    -0.399 OA
HETATM   26  H   UNL     1     -22.656  -7.289 -19.126  1.00  0.00     0.209 HD
ENDBRANCH  24  25
ENDBRANCH  23  24
ENDBRANCH   3  23
ENDBRANCH   2   3
ENDBRANCH   1   2
BRANCH   1  27
HETATM   27  C   UNL     1     -24.594  -3.911 -13.170  1.00  0.00     0.159 C 
BRANCH  27  28
HETATM   28  N   UNL     1     -23.557  -4.069 -12.103  1.00  0.00    -0.348 N 
HETATM   29  C   UNL     1     -22.230  -4.100 -12.604  1.00  0.00     0.219 C 
HETATM   30  O   UNL     1     -21.964  -3.887 -13.791  1.00  0.00    -0.273 OA
BRANCH  28  31
HETATM   31  C   UNL     1     -23.978  -4.645 -10.797  1.00  0.00     0.151 C 
BRANCH  31  32
HETATM   32  C   UNL     1     -24.399  -3.679  -9.672  1.00  0.00     0.183 C 
BRANCH  32  33
HETATM   33  O   UNL     1     -25.792  -3.390  -9.758  1.00  0.00    -0.399 OA
HETATM   34  H   UNL     1     -26.030  -3.230 -10.682  1.00  0.00     0.209 HD
ENDBRANCH  32  33
ENDBRANCH  31  32
ENDBRANCH  28  31
BRANCH  29  35
HETATM   35  C   UNL     1     -21.049  -4.398 -11.698  1.00  0.00     0.103 C 
BRANCH  35  36
HETATM   36  C   UNL     1     -20.624  -3.195 -10.848  1.00  0.00     0.009 C 
BRANCH  36  37
HETATM   37  C   UNL     1     -20.373  -3.501  -9.361  1.00  0.00     0.000 C 
BRANCH  37  38
HETATM   38  C   UNL     1     -20.625  -4.982  -9.075  1.00  0.00     0.000 C 
BRANCH  38  39
HETATM   39  C   UNL     1     -21.602  -5.193  -7.921  1.00  0.00     0.000 C 
BRANCH  39  40
HETATM   40  C   UNL     1     -21.237  -4.268  -6.766  1.00  0.00     0.000 C 
BRANCH  40  41
HETATM   41  C   UNL     1     -20.048  -4.804  -5.986  1.00  0.00     0.000 C 
BRANCH  41  42
HETATM   42  C   UNL     1     -20.528  -5.539  -4.744  1.00  0.00     0.000 C 
BRANCH  42  43
HETATM   43  C   UNL     1     -20.849  -6.986  -5.081  1.00  0.00     0.000 C 
BRANCH  43  44
HETATM   44  C   UNL     1     -21.643  -7.629  -3.955  1.00  0.00     0.000 C 
BRANCH  44  45
HETATM   45  C   UNL     1     -21.670  -6.711  -2.743  1.00  0.00     0.000 C 
BRANCH  45  46
HETATM   46  C   UNL     1     -21.533  -7.520  -1.463  1.00  0.00     0.000 C 
BRANCH  46  47
HETATM   47  C   UNL     1     -22.547  -7.053  -0.426  1.00  0.00     0.000 C 
BRANCH  47  48
HETATM   48  C   UNL     1     -23.006  -8.218   0.435  1.00  0.00     0.000 C 
BRANCH  48  49
HETATM   49  C   UNL     1     -22.474  -9.530  -0.108  1.00  0.00    -0.000 C 
BRANCH  49  50
HETATM   50  C   UNL     1     -23.601 -10.545  -0.297  1.00  0.00    -0.005 C 
HETATM   51  C   UNL     1     -23.541 -11.182  -1.674  1.00  0.00     0.005 C 
ENDBRANCH  49  50
ENDBRANCH  48  49
ENDBRANCH  47  48
ENDBRANCH  46  47
ENDBRANCH  45  46
ENDBRANCH  44  45
ENDBRANCH  43  44
ENDBRANCH  42  43
ENDBRANCH  41  42
ENDBRANCH  40  41
ENDBRANCH  39  40
ENDBRANCH  38  39
ENDBRANCH  37  38
ENDBRANCH  36  37
ENDBRANCH  35  36
ENDBRANCH  29  35
ENDBRANCH  27  28
ENDBRANCH   1  27
BRANCH   1  52
HETATM   52  O   UNL     1     -24.071  -6.120 -13.798  1.00  0.00    -0.392 OA
HETATM   53  H   UNL     1     -24.889  -6.636 -13.916  1.00  0.00     0.210 HD
ENDBRANCH   1  52
TORSDOF 43
BEGIN_RES ARG D 557
REMARK  4 active torsions:
REMARK  status: ('A' for Active; 'I' for Inactive)
REMARK    1  A    between atoms: CA   and  CB  
REMARK    2  A    between atoms: CB   and  CG  
REMARK    3  A    between atoms: CG   and  CD  
REMARK    4  A    between atoms: CD   and  NE  
REMARK       I    between atoms: NE   and  CZ  
REMARK       I    between atoms: CZ   and  NH1 
REMARK       I    between atoms: CZ   and  NH2 
ROOT
ATOM      1  CA  ARG D 557     -26.217   2.705 -17.014  1.00 35.49     0.159 C 
ENDROOT
BRANCH   1   2
ATOM      2  CB  ARG D 557     -26.789   1.319 -17.183  1.00 35.49     0.034 C 
BRANCH   2   3
ATOM      3  CG  ARG D 557     -26.958   0.521 -15.963  1.00 35.49     0.027 C 
BRANCH   3   4
ATOM      4  CD  ARG D 557     -26.431  -0.855 -16.111  1.00 35.49     0.116 C 
BRANCH   4   5
ATOM      5  NE  ARG D 557     -25.451  -1.172 -15.105  1.00 35.49    -0.212 N 
ATOM      6  CZ  ARG D 557     -24.205  -0.753 -15.089  1.00 35.49     0.666 C 
ATOM      7  NH1 ARG D 557     -23.703   0.017 -16.036  1.00 35.49    -0.235 N 
ATOM      8  NH2 ARG D 557     -23.462  -1.122 -14.086  1.00 35.49    -0.235 N 
ATOM      9  HH  ARG D 557     -24.175   0.274 -16.703  1.00 35.49     0.174 HD
ATOM     10  HH  ARG D 557     -22.884   0.261 -15.970  1.00 35.49     0.174 HD
ATOM     11  HH  ARG D 557     -23.815  -1.614 -13.486  1.00 35.49     0.174 HD
ATOM     12  HH  ARG D 557     -22.654  -0.869 -14.039  1.00 35.49     0.174 HD
ATOM     13  HE  ARG D 557     -25.669  -1.723 -14.495  1.00 35.49     0.178 HD
ENDBRANCH   4   5
ENDBRANCH   3   4
ENDBRANCH   2   3
ENDBRANCH   1   2
END_RES ARG D 557
BEGIN_RES GLU D 570
REMARK  3 active torsions:
REMARK  status: ('A' for Active; 'I' for Inactive)
REMARK    5  A    between atoms: CA   and  CB  
REMARK    6  A    between atoms: CB   and  CG  
REMARK    7  A    between atoms: CG   and  CD  
ROOT
ATOM     14  CA  GLU D 570     -18.033  -6.348 -13.375  1.00 32.92     0.160 C 
ENDROOT
BRANCH  14  15
ATOM     15  CB  GLU D 570     -19.500  -6.345 -13.794  1.00 32.92     0.043 C 
BRANCH  15  16
ATOM     16  CG  GLU D 570     -20.082  -7.631 -14.259  1.00 32.92     0.100 C 
BRANCH  16  17
ATOM     17  CD  GLU D 570     -21.042  -7.460 -15.413  1.00 32.92     0.185 C 
ATOM     18  OE1 GLU D 570     -21.490  -6.324 -15.665  1.00 32.92    -0.647 OA
ATOM     19  OE2 GLU D 570     -21.364  -8.475 -16.061  1.00 32.92    -0.647 OA
ENDBRANCH  16  17
ENDBRANCH  15  16
ENDBRANCH  14  15
END_RES GLU D 570
ENDMDL
MODEL 4
REMARK VINA RESULT:      -7.3      4.627     11.228
REMARK WARNING: 32 MAX_TORS EXCEEDED!!!
REMARK  43 active torsions:
REMARK  status: ('A' for Active; 'I' for Inactive)
REMARK    1  A    between atoms: C_2  and  C_3 
REMARK    2  A    between atoms: C_3  and  C_4 
REMARK    3  A    between atoms: C_4  and  C_5 
REMARK    4  A    between atoms: C_5  and  C_6 
REMARK    5  A    between atoms: C_6  and  C_7 
REMARK    6  A    between atoms: C_7  and  C_8 
REMARK    7  A    between atoms: C_8  and  C_9 
REMARK    8  A    between atoms: C_9  and  C_10 
REMARK    9  A    between atoms: C_10  and  C_11 
REMARK   10  A    between atoms: C_11  and  C_12 
REMARK   11  A    between atoms: C_12  and  C_13 
REMARK   12  A    between atoms: C_13  and  C_14 
REMARK   13  A    between atoms: C_14  and  C_15 
REMARK   14  A    between atoms: C_15  and  C_16 
REMARK   15  A    between atoms: C_16  and  C_17 
REMARK   16  A    between atoms: C_17  and  C_18 
REMARK       I    between atoms: C_18  and  N_20 
REMARK   17  A    between atoms: N_20  and  C_21 
REMARK   18  A    between atoms: N_20  and  C_24 
REMARK   19  A    between atoms: C_21  and  C_22 
REMARK   20  A    between atoms: C_22  and  O_23 
REMARK   21  A    between atoms: C_24  and  C_25 
REMARK   22  A    between atoms: C_25  and  C_26 
REMARK   23  A    between atoms: C_25  and  O_50 
REMARK   24  A    between atoms: C_26  and  N_27 
REMARK   25  A    between atoms: N_27  and  C_28 
REMARK       I    between atoms: N_27  and  C_31 
REMARK   26  A    between atoms: C_28  and  C_29 
REMARK   27  A    between atoms: C_29  and  O_30 
REMARK   28  A    between atoms: C_31  and  C_33 
REMARK   29  A    between atoms: C_33  and  C_34 
REMARK   30  A    between atoms: C_34  and  C_35 
REMARK   31  A    between atoms: C_35  and  C_36 
REMARK   32  A    between atoms: C_36  and  C_37 
REMARK   33  A    between atoms: C_37  and  C_38 
REMARK   34  A    between atoms: C_38  and  C_39 
REMARK   35  A    between atoms: C_39  and  C_40 
REMARK   36  A    between atoms: C_40  and  C_41 
REMARK   37  A    between atoms: C_41  and  C_42 
REMARK   38  A    between atoms: C_42  and  C_43 
REMARK   39  A    between atoms: C_43  and  C_44 
REMARK   40  A    between atoms: C_44  and  C_45 
REMARK   41  A    between atoms: C_45  and  C_46 
REMARK   42  A    between atoms: C_46  and  C_47 
REMARK   43  A    between atoms: C_47  and  C_48 
ROOT
HETATM    1  C   UNL     1     -21.973  -6.794  -2.919  1.00  0.00     0.154 C 
ENDROOT
BRANCH   1   2
HETATM    2  C   UNL     1     -21.187  -6.172  -4.100  1.00  0.00     0.159 C 
BRANCH   2   3
HETATM    3  N   UNL     1     -20.728  -6.873  -5.334  1.00  0.00    -0.348 N 
HETATM    4  C   UNL     1     -20.247  -6.018  -6.395  1.00  0.00     0.219 C 
HETATM    5  O   UNL     1     -19.643  -6.398  -7.387  1.00  0.00    -0.273 OA
BRANCH   4   6
HETATM    6  C   UNL     1     -20.584  -4.544  -6.157  1.00  0.00     0.103 C 
BRANCH   6   7
HETATM    7  C   UNL     1     -21.044  -3.727  -7.328  1.00  0.00     0.009 C 
BRANCH   7   8
HETATM    8  C   UNL     1     -22.368  -4.220  -7.859  1.00  0.00     0.000 C 
BRANCH   8   9
HETATM    9  C   UNL     1     -22.261  -4.151  -9.354  1.00  0.00     0.000 C 
BRANCH   9  10
HETATM   10  C   UNL     1     -20.828  -3.980  -9.773  1.00  0.00     0.000 C 
BRANCH  10  11
HETATM   11  C   UNL     1     -20.877  -3.525 -11.208  1.00  0.00     0.000 C 
BRANCH  11  12
HETATM   12  C   UNL     1     -22.235  -2.965 -11.510  1.00  0.00     0.000 C 
BRANCH  12  13
HETATM   13  C   UNL     1     -22.570  -3.323 -12.937  1.00  0.00     0.000 C 
BRANCH  13  14
HETATM   14  C   UNL     1     -22.334  -4.798 -13.133  1.00  0.00     0.000 C 
BRANCH  14  15
HETATM   15  C   UNL     1     -23.665  -5.499 -13.272  1.00  0.00     0.000 C 
BRANCH  15  16
HETATM   16  C   UNL     1     -24.105  -5.446 -14.719  1.00  0.00     0.000 C 
BRANCH  16  17
HETATM   17  C   UNL     1     -24.020  -6.831 -15.331  1.00  0.00     0.000 C 
BRANCH  17  18
HETATM   18  C   UNL     1     -25.113  -7.003 -16.371  1.00  0.00     0.000 C 
BRANCH  18  19
HETATM   19  C   UNL     1     -26.323  -6.157 -16.005  1.00  0.00     0.000 C 
BRANCH  19  20
HETATM   20  C   UNL     1     -27.471  -7.046 -15.547  1.00  0.00    -0.000 C 
BRANCH  20  21
HETATM   21  C   UNL     1     -28.794  -6.293 -15.603  1.00  0.00    -0.005 C 
HETATM   22  C   UNL     1     -29.483  -6.513 -16.937  1.00  0.00     0.005 C 
ENDBRANCH  20  21
ENDBRANCH  19  20
ENDBRANCH  18  19
ENDBRANCH  17  18
ENDBRANCH  16  17
ENDBRANCH  15  16
ENDBRANCH  14  15
ENDBRANCH  13  14
ENDBRANCH  12  13
ENDBRANCH  11  12
ENDBRANCH  10  11
ENDBRANCH   9  10
ENDBRANCH   8   9
ENDBRANCH   7   8
ENDBRANCH   6   7
ENDBRANCH   4   6
BRANCH   3  23
HETATM   23  C   UNL     1     -20.535  -8.325  -5.347  1.00  0.00     0.151 C 
BRANCH  23  24
HETATM   24  C   UNL     1     -19.168  -9.071  -5.251  1.00  0.00     0.183 C 
BRANCH  24  25
HETATM   25  O   UNL     1     -18.320  -9.079  -6.394  1.00  0.00    -0.399 OA
HETATM   26  H   UNL     1     -18.853  -8.734  -7.133  1.00  0.00     0.209 HD
ENDBRANCH  24  25
ENDBRANCH  23  24
ENDBRANCH   3  23
ENDBRANCH   2   3
ENDBRANCH   1   2
BRANCH   1  27
HETATM   27  C   UNL     1     -21.032  -7.422  -1.849  1.00  0.00     0.159 C 
BRANCH  27  28
HETATM   28  N   UNL     1     -21.452  -8.777  -1.375  1.00  0.00    -0.348 N 
HETATM   29  C   UNL     1     -22.397  -8.738  -0.317  1.00  0.00     0.219 C 
HETATM   30  O   UNL     1     -22.910  -7.686   0.076  1.00  0.00    -0.273 OA
BRANCH  28  31
HETATM   31  C   UNL     1     -20.554  -9.928  -1.661  1.00  0.00     0.151 C 
BRANCH  31  32
HETATM   32  C   UNL     1     -21.002 -10.964  -2.710  1.00  0.00     0.183 C 
BRANCH  32  33
HETATM   33  O   UNL     1     -22.205 -10.542  -3.345  1.00  0.00    -0.399 OA
HETATM   34  H   UNL     1     -22.240  -9.575  -3.358  1.00  0.00     0.209 HD
ENDBRANCH  32  33
ENDBRANCH  31  32
ENDBRANCH  28  31
BRANCH  29  35
HETATM   35  C   UNL     1     -22.837 -10.003   0.398  1.00  0.00     0.103 C 
BRANCH  35  36
HETATM   36  C   UNL     1     -23.934 -10.767  -0.353  1.00  0.00     0.009 C 
BRANCH  36  37
HETATM   37  C   UNL     1     -23.717 -12.288  -0.457  1.00  0.00     0.000 C 
BRANCH  37  38
HETATM   38  C   UNL     1     -23.253 -12.849   0.888  1.00  0.00     0.000 C 
BRANCH  38  39
HETATM   39  C   UNL     1     -21.994 -13.704   0.756  1.00  0.00     0.000 C 
BRANCH  39  40
HETATM   40  C   UNL     1     -20.779 -12.803   0.578  1.00  0.00     0.000 C 
BRANCH  40  41
HETATM   41  C   UNL     1     -19.593 -13.578   0.028  1.00  0.00     0.000 C 
BRANCH  41  42
HETATM   42  C   UNL     1     -19.574 -14.984   0.608  1.00  0.00     0.000 C 
BRANCH  42  43
HETATM   43  C   UNL     1     -18.403 -15.143   1.562  1.00  0.00     0.000 C 
BRANCH  43  44
HETATM   44  C   UNL     1     -17.108 -14.721   0.887  1.00  0.00     0.000 C 
BRANCH  44  45
HETATM   45  C   UNL     1     -16.325 -13.785   1.795  1.00  0.00     0.000 C 
BRANCH  45  46
HETATM   46  C   UNL     1     -16.006 -12.487   1.070  1.00  0.00     0.000 C 
BRANCH  46  47
HETATM   47  C   UNL     1     -16.136 -12.673  -0.436  1.00  0.00     0.000 C 
BRANCH  47  48
HETATM   48  C   UNL     1     -15.775 -11.389  -1.166  1.00  0.00     0.000 C 
BRANCH  48  49
HETATM   49  C   UNL     1     -16.945 -10.893  -1.993  1.00  0.00    -0.000 C 
BRANCH  49  50
HETATM   50  C   UNL     1     -16.551  -9.677  -2.830  1.00  0.00    -0.005 C 
HETATM   51  C   UNL     1     -15.755 -10.090  -4.055  1.00  0.00     0.005 C 
ENDBRANCH  49  50
ENDBRANCH  48  49
ENDBRANCH  47  48
ENDBRANCH  46  47
ENDBRANCH  45  46
ENDBRANCH  44  45
ENDBRANCH  43  44
ENDBRANCH  42  43
ENDBRANCH  41  42
ENDBRANCH  40  41
ENDBRANCH  39  40
ENDBRANCH  38  39
ENDBRANCH  37  38
ENDBRANCH  36  37
ENDBRANCH  35  36
ENDBRANCH  29  35
ENDBRANCH  27  28
ENDBRANCH   1  27
BRANCH   1  52
HETATM   52  O   UNL     1     -22.682  -5.787  -2.242  1.00  0.00    -0.392 OA
HETATM   53  H   UNL     1     -22.254  -4.984  -2.591  1.00  0.00     0.210 HD
ENDBRANCH   1  52
TORSDOF 43
BEGIN_RES ARG D 557
REMARK  4 active torsions:
REMARK  status: ('A' for Active; 'I' for Inactive)
REMARK    1  A    between atoms: CA   and  CB  
REMARK    2  A    between atoms: CB   and  CG  
REMARK    3  A    between atoms: CG   and  CD  
REMARK    4  A    between atoms: CD   and  NE  
REMARK       I    between atoms: NE   and  CZ  
REMARK       I    between atoms: CZ   and  NH1 
REMARK       I    between atoms: CZ   and  NH2 
ROOT
ATOM      1  CA  ARG D 557     -26.217   2.705 -17.014  1.00 35.49     0.159 C 
ENDROOT
BRANCH   1   2
ATOM      2  CB  ARG D 557     -26.789   1.319 -17.183  1.00 35.49     0.034 C 
BRANCH   2   3
ATOM      3  CG  ARG D 557     -28.241   1.178 -17.016  1.00 35.49     0.027 C 
BRANCH   3   4
ATOM      4  CD  ARG D 557     -28.628  -0.175 -16.557  1.00 35.49     0.116 C 
BRANCH   4   5
ATOM      5  NE  ARG D 557     -27.554  -0.841 -15.867  1.00 35.49    -0.212 N 
ATOM      6  CZ  ARG D 557     -27.266  -2.121 -15.949  1.00 35.49     0.666 C 
ATOM      7  NH1 ARG D 557     -27.966  -2.960 -16.690  1.00 35.49    -0.235 N 
ATOM      8  NH2 ARG D 557     -26.242  -2.550 -15.269  1.00 35.49    -0.235 N 
ATOM      9  HH  ARG D 557     -28.642  -2.699 -17.147  1.00 35.49     0.174 HD
ATOM     10  HH  ARG D 557     -27.729  -3.783 -16.706  1.00 35.49     0.174 HD
ATOM     11  HH  ARG D 557     -25.804  -1.984 -14.806  1.00 35.49     0.174 HD
ATOM     12  HH  ARG D 557     -26.023  -3.368 -15.300  1.00 35.49     0.174 HD
ATOM     13  HE  ARG D 557     -27.096  -0.390 -15.311  1.00 35.49     0.178 HD
ENDBRANCH   4   5
ENDBRANCH   3   4
ENDBRANCH   2   3
ENDBRANCH   1   2
END_RES ARG D 557
BEGIN_RES GLU D 570
REMARK  3 active torsions:
REMARK  status: ('A' for Active; 'I' for Inactive)
REMARK    5  A    between atoms: CA   and  CB  
REMARK    6  A    between atoms: CB   and  CG  
REMARK    7  A    between atoms: CG   and  CD  
ROOT
ATOM     14  CA  GLU D 570     -18.033  -6.348 -13.375  1.00 32.92     0.160 C 
ENDROOT
BRANCH  14  15
ATOM     15  CB  GLU D 570     -19.500  -6.345 -13.794  1.00 32.92     0.043 C 
BRANCH  15  16
ATOM     16  CG  GLU D 570     -19.959  -7.439 -14.688  1.00 32.92     0.100 C 
BRANCH  16  17
ATOM     17  CD  GLU D 570     -20.552  -6.933 -15.982  1.00 32.92     0.185 C 
ATOM     18  OE1 GLU D 570     -20.569  -5.707 -16.202  1.00 32.92    -0.647 OA
ATOM     19  OE2 GLU D 570     -21.021  -7.771 -16.778  1.00 32.92    -0.647 OA
ENDBRANCH  16  17
ENDBRANCH  15  16
ENDBRANCH  14  15
END_RES GLU D 570
ENDMDL
MODEL 5
REMARK VINA RESULT:      -7.2      7.233     15.015
REMARK WARNING: 32 MAX_TORS EXCEEDED!!!
REMARK  43 active torsions:
REMARK  status: ('A' for Active; 'I' for Inactive)
REMARK    1  A    between atoms: C_2  and  C_3 
REMARK    2  A    between atoms: C_3  and  C_4 
REMARK    3  A    between atoms: C_4  and  C_5 
REMARK    4  A    between atoms: C_5  and  C_6 
REMARK    5  A    between atoms: C_6  and  C_7 
REMARK    6  A    between atoms: C_7  and  C_8 
REMARK    7  A    between atoms: C_8  and  C_9 
REMARK    8  A    between atoms: C_9  and  C_10 
REMARK    9  A    between atoms: C_10  and  C_11 
REMARK   10  A    between atoms: C_11  and  C_12 
REMARK   11  A    between atoms: C_12  and  C_13 
REMARK   12  A    between atoms: C_13  and  C_14 
REMARK   13  A    between atoms: C_14  and  C_15 
REMARK   14  A    between atoms: C_15  and  C_16 
REMARK   15  A    between atoms: C_16  and  C_17 
REMARK   16  A    between atoms: C_17  and  C_18 
REMARK       I    between atoms: C_18  and  N_20 
REMARK   17  A    between atoms: N_20  and  C_21 
REMARK   18  A    between atoms: N_20  and  C_24 
REMARK   19  A    between atoms: C_21  and  C_22 
REMARK   20  A    between atoms: C_22  and  O_23 
REMARK   21  A    between atoms: C_24  and  C_25 
REMARK   22  A    between atoms: C_25  and  C_26 
REMARK   23  A    between atoms: C_25  and  O_50 
REMARK   24  A    between atoms: C_26  and  N_27 
REMARK   25  A    between atoms: N_27  and  C_28 
REMARK       I    between atoms: N_27  and  C_31 
REMARK   26  A    between atoms: C_28  and  C_29 
REMARK   27  A    between atoms: C_29  and  O_30 
REMARK   28  A    between atoms: C_31  and  C_33 
REMARK   29  A    between atoms: C_33  and  C_34 
REMARK   30  A    between atoms: C_34  and  C_35 
REMARK   31  A    between atoms: C_35  and  C_36 
REMARK   32  A    between atoms: C_36  and  C_37 
REMARK   33  A    between atoms: C_37  and  C_38 
REMARK   34  A    between atoms: C_38  and  C_39 
REMARK   35  A    between atoms: C_39  and  C_40 
REMARK   36  A    between atoms: C_40  and  C_41 
REMARK   37  A    between atoms: C_41  and  C_42 
REMARK   38  A    between atoms: C_42  and  C_43 
REMARK   39  A    between atoms: C_43  and  C_44 
REMARK   40  A    between atoms: C_44  and  C_45 
REMARK   41  A    between atoms: C_45  and  C_46 
REMARK   42  A    between atoms: C_46  and  C_47 
REMARK   43  A    between atoms: C_47  and  C_48 
ROOT
HETATM    1  C   UNL     1     -15.215 -14.649  -2.579  1.00  0.00     0.154 C 
ENDROOT
BRANCH   1   2
HETATM    2  C   UNL     1     -15.600 -14.462  -1.090  1.00  0.00     0.159 C 
BRANCH   2   3
HETATM    3  N   UNL     1     -14.960 -13.533  -0.114  1.00  0.00    -0.348 N 
HETATM    4  C   UNL     1     -15.792 -12.445   0.349  1.00  0.00     0.219 C 
HETATM    5  O   UNL     1     -15.532 -11.710   1.290  1.00  0.00    -0.273 OA
BRANCH   4   6
HETATM    6  C   UNL     1     -17.066 -12.288  -0.484  1.00  0.00     0.103 C 
BRANCH   6   7
HETATM    7  C   UNL     1     -18.376 -12.182   0.241  1.00  0.00     0.009 C 
BRANCH   7   8
HETATM    8  C   UNL     1     -19.530 -12.046  -0.722  1.00  0.00     0.000 C 
BRANCH   8   9
HETATM    9  C   UNL     1     -20.112 -10.686  -0.474  1.00  0.00     0.000 C 
BRANCH   9  10
HETATM   10  C   UNL     1     -20.454 -10.516   0.979  1.00  0.00     0.000 C 
BRANCH  10  11
HETATM   11  C   UNL     1     -21.169  -9.195   1.075  1.00  0.00     0.000 C 
BRANCH  11  12
HETATM   12  C   UNL     1     -21.257  -8.572  -0.286  1.00  0.00     0.000 C 
BRANCH  12  13
HETATM   13  C   UNL     1     -22.465  -7.667  -0.298  1.00  0.00     0.000 C 
BRANCH  13  14
HETATM   14  C   UNL     1     -22.278  -6.625  -1.370  1.00  0.00     0.000 C 
BRANCH  14  15
HETATM   15  C   UNL     1     -21.326  -7.155  -2.416  1.00  0.00     0.000 C 
BRANCH  15  16
HETATM   16  C   UNL     1     -21.206  -6.143  -3.535  1.00  0.00     0.000 C 
BRANCH  16  17
HETATM   17  C   UNL     1     -21.903  -6.666  -4.776  1.00  0.00     0.000 C 
BRANCH  17  18
HETATM   18  C   UNL     1     -21.095  -6.308  -6.010  1.00  0.00     0.000 C 
BRANCH  18  19
HETATM   19  C   UNL     1     -20.408  -4.965  -5.816  1.00  0.00     0.000 C 
BRANCH  19  20
HETATM   20  C   UNL     1     -20.387  -4.188  -7.125  1.00  0.00    -0.000 C 
BRANCH  20  21
HETATM   21  C   UNL     1     -20.896  -5.049  -8.274  1.00  0.00    -0.005 C 
HETATM   22  C   UNL     1     -21.149  -4.204  -9.509  1.00  0.00     0.005 C 
ENDBRANCH  20  21
ENDBRANCH  19  20
ENDBRANCH  18  19
ENDBRANCH  17  18
ENDBRANCH  16  17
ENDBRANCH  15  16
ENDBRANCH  14  15
ENDBRANCH  13  14
ENDBRANCH  12  13
ENDBRANCH  11  12
ENDBRANCH  10  11
ENDBRANCH   9  10
ENDBRANCH   8   9
ENDBRANCH   7   8
ENDBRANCH   6   7
ENDBRANCH   4   6
BRANCH   3  23
HETATM   23  C   UNL     1     -13.683 -13.868   0.519  1.00  0.00     0.151 C 
BRANCH  23  24
HETATM   24  C   UNL     1     -12.474 -14.575  -0.170  1.00  0.00     0.183 C 
BRANCH  24  25
HETATM   25  O   UNL     1     -11.584 -15.335   0.641  1.00  0.00    -0.399 OA
HETATM   26  H   UNL     1     -10.698 -15.230   0.248  1.00  0.00     0.209 HD
ENDBRANCH  24  25
ENDBRANCH  23  24
ENDBRANCH   3  23
ENDBRANCH   2   3
ENDBRANCH   1   2
BRANCH   1  27
HETATM   27  C   UNL     1     -14.285 -13.512  -3.094  1.00  0.00     0.159 C 
BRANCH  27  28
HETATM   28  N   UNL     1     -14.596 -13.039  -4.479  1.00  0.00    -0.348 N 
HETATM   29  C   UNL     1     -15.269 -11.790  -4.512  1.00  0.00     0.219 C 
HETATM   30  O   UNL     1     -15.458 -11.112  -3.498  1.00  0.00    -0.273 OA
BRANCH  28  31
HETATM   31  C   UNL     1     -14.639 -14.049  -5.570  1.00  0.00     0.151 C 
BRANCH  31  32
HETATM   32  C   UNL     1     -13.318 -14.714  -6.005  1.00  0.00     0.183 C 
BRANCH  32  33
HETATM   33  O   UNL     1     -13.180 -15.994  -5.394  1.00  0.00    -0.399 OA
HETATM   34  H   UNL     1     -13.762 -16.627  -5.838  1.00  0.00     0.209 HD
ENDBRANCH  32  33
ENDBRANCH  31  32
ENDBRANCH  28  31
BRANCH  29  35
HETATM   35  C   UNL     1     -15.799 -11.212  -5.812  1.00  0.00     0.103 C 
BRANCH  35  36
HETATM   36  C   UNL     1     -16.351  -9.791  -5.656  1.00  0.00     0.009 C 
BRANCH  36  37
HETATM   37  C   UNL     1     -17.796  -9.592  -6.148  1.00  0.00     0.000 C 
BRANCH  37  38
HETATM   38  C   UNL     1     -18.651  -8.971  -5.043  1.00  0.00     0.000 C 
BRANCH  38  39
HETATM   39  C   UNL     1     -18.852  -9.919  -3.863  1.00  0.00     0.000 C 
BRANCH  39  40
HETATM   40  C   UNL     1     -19.943 -10.929  -4.197  1.00  0.00     0.000 C 
BRANCH  40  41
HETATM   41  C   UNL     1     -21.241 -10.232  -4.572  1.00  0.00     0.000 C 
BRANCH  41  42
HETATM   42  C   UNL     1     -22.293 -10.477  -3.501  1.00  0.00     0.000 C 
BRANCH  42  43
HETATM   43  C   UNL     1     -22.667 -11.949  -3.457  1.00  0.00     0.000 C 
BRANCH  43  44
HETATM   44  C   UNL     1     -22.977 -12.375  -2.032  1.00  0.00     0.000 C 
BRANCH  44  45
HETATM   45  C   UNL     1     -23.750 -11.280  -1.314  1.00  0.00     0.000 C 
BRANCH  45  46
HETATM   46  C   UNL     1     -23.890 -11.610   0.163  1.00  0.00     0.000 C 
BRANCH  46  47
HETATM   47  C   UNL     1     -22.971 -12.765   0.541  1.00  0.00     0.000 C 
BRANCH  47  48
HETATM   48  C   UNL     1     -23.523 -13.516   1.742  1.00  0.00     0.000 C 
BRANCH  48  49
HETATM   49  C   UNL     1     -22.411 -14.232   2.485  1.00  0.00    -0.000 C 
BRANCH  49  50
HETATM   50  C   UNL     1     -21.864 -15.399   1.665  1.00  0.00    -0.005 C 
HETATM   51  C   UNL     1     -20.417 -15.160   1.270  1.00  0.00     0.005 C 
ENDBRANCH  49  50
ENDBRANCH  48  49
ENDBRANCH  47  48
ENDBRANCH  46  47
ENDBRANCH  45  46
ENDBRANCH  44  45
ENDBRANCH  43  44
ENDBRANCH  42  43
ENDBRANCH  41  42
ENDBRANCH  40  41
ENDBRANCH  39  40
ENDBRANCH  38  39
ENDBRANCH  37  38
ENDBRANCH  36  37
ENDBRANCH  35  36
ENDBRANCH  29  35
ENDBRANCH  27  28
ENDBRANCH   1  27
BRANCH   1  52
HETATM   52  O   UNL     1     -14.471 -15.831  -2.728  1.00  0.00    -0.392 OA
HETATM   53  H   UNL     1     -13.679 -15.628  -2.198  1.00  0.00     0.210 HD
ENDBRANCH   1  52
TORSDOF 43
BEGIN_RES ARG D 557
REMARK  4 active torsions:
REMARK  status: ('A' for Active; 'I' for Inactive)
REMARK    1  A    between atoms: CA   and  CB  
REMARK    2  A    between atoms: CB   and  CG  
REMARK    3  A    between atoms: CG   and  CD  
REMARK    4  A    between atoms: CD   and  NE  
REMARK       I    between atoms: NE   and  CZ  
REMARK       I    between atoms: CZ   and  NH1 
REMARK       I    between atoms: CZ   and  NH2 
ROOT
ATOM      1  CA  ARG D 557     -26.217   2.705 -17.014  1.00 35.49     0.159 C 
ENDROOT
BRANCH   1   2
ATOM      2  CB  ARG D 557     -26.789   1.319 -17.183  1.00 35.49     0.034 C 
BRANCH   2   3
ATOM      3  CG  ARG D 557     -26.045   0.217 -16.561  1.00 35.49     0.027 C 
BRANCH   3   4
ATOM      4  CD  ARG D 557     -26.933  -0.877 -16.106  1.00 35.49     0.116 C 
BRANCH   4   5
ATOM      5  NE  ARG D 557     -26.222  -1.872 -15.347  1.00 35.49    -0.212 N 
ATOM      6  CZ  ARG D 557     -25.106  -1.678 -14.680  1.00 35.49     0.666 C 
ATOM      7  NH1 ARG D 557     -24.493  -0.509 -14.649  1.00 35.49    -0.235 N 
ATOM      8  NH2 ARG D 557     -24.612  -2.690 -14.029  1.00 35.49    -0.235 N 
ATOM      9  HH  ARG D 557     -24.802   0.172 -15.069  1.00 35.49     0.174 HD
ATOM     10  HH  ARG D 557     -23.770  -0.440 -14.196  1.00 35.49     0.174 HD
ATOM     11  HH  ARG D 557     -25.033  -3.431 -14.061  1.00 35.49     0.174 HD
ATOM     12  HH  ARG D 557     -23.895  -2.602 -13.584  1.00 35.49     0.174 HD
ATOM     13  HE  ARG D 557     -26.508  -2.673 -15.371  1.00 35.49     0.178 HD
ENDBRANCH   4   5
ENDBRANCH   3   4
ENDBRANCH   2   3
ENDBRANCH   1   2
END_RES ARG D 557
BEGIN_RES GLU D 570
REMARK  3 active torsions:
REMARK  status: ('A' for Active; 'I' for Inactive)
REMARK    5  A    between atoms: CA   and  CB  
REMARK    6  A    between atoms: CB   and  CG  
REMARK    7  A    between atoms: CG   and  CD  
ROOT
ATOM     14  CA  GLU D 570     -18.033  -6.348 -13.375  1.00 32.92     0.160 C 
ENDROOT
BRANCH  14  15
ATOM     15  CB  GLU D 570     -19.500  -6.345 -13.794  1.00 32.92     0.043 C 
BRANCH  15  16
ATOM     16  CG  GLU D 570     -20.460  -5.624 -12.919  1.00 32.92     0.100 C 
BRANCH  16  17
ATOM     17  CD  GLU D 570     -21.723  -5.214 -13.642  1.00 32.92     0.185 C 
ATOM     18  OE1 GLU D 570     -22.201  -4.083 -13.430  1.00 32.92    -0.647 OA
ATOM     19  OE2 GLU D 570     -22.248  -6.039 -14.415  1.00 32.92    -0.647 OA
ENDBRANCH  16  17
ENDBRANCH  15  16
ENDBRANCH  14  15
END_RES GLU D 570
ENDMDL
MODEL 6
REMARK VINA RESULT:      -7.2      5.180     14.626
REMARK WARNING: 32 MAX_TORS EXCEEDED!!!
REMARK  43 active torsions:
REMARK  status: ('A' for Active; 'I' for Inactive)
REMARK    1  A    between atoms: C_2  and  C_3 
REMARK    2  A    between atoms: C_3  and  C_4 
REMARK    3  A    between atoms: C_4  and  C_5 
REMARK    4  A    between atoms: C_5  and  C_6 
REMARK    5  A    between atoms: C_6  and  C_7 
REMARK    6  A    between atoms: C_7  and  C_8 
REMARK    7  A    between atoms: C_8  and  C_9 
REMARK    8  A    between atoms: C_9  and  C_10 
REMARK    9  A    between atoms: C_10  and  C_11 
REMARK   10  A    between atoms: C_11  and  C_12 
REMARK   11  A    between atoms: C_12  and  C_13 
REMARK   12  A    between atoms: C_13  and  C_14 
REMARK   13  A    between atoms: C_14  and  C_15 
REMARK   14  A    between atoms: C_15  and  C_16 
REMARK   15  A    between atoms: C_16  and  C_17 
REMARK   16  A    between atoms: C_17  and  C_18 
REMARK       I    between atoms: C_18  and  N_20 
REMARK   17  A    between atoms: N_20  and  C_21 
REMARK   18  A    between atoms: N_20  and  C_24 
REMARK   19  A    between atoms: C_21  and  C_22 
REMARK   20  A    between atoms: C_22  and  O_23 
REMARK   21  A    between atoms: C_24  and  C_25 
REMARK   22  A    between atoms: C_25  and  C_26 
REMARK   23  A    between atoms: C_25  and  O_50 
REMARK   24  A    between atoms: C_26  and  N_27 
REMARK   25  A    between atoms: N_27  and  C_28 
REMARK       I    between atoms: N_27  and  C_31 
REMARK   26  A    between atoms: C_28  and  C_29 
REMARK   27  A    between atoms: C_29  and  O_30 
REMARK   28  A    between atoms: C_31  and  C_33 
REMARK   29  A    between atoms: C_33  and  C_34 
REMARK   30  A    between atoms: C_34  and  C_35 
REMARK   31  A    between atoms: C_35  and  C_36 
REMARK   32  A    between atoms: C_36  and  C_37 
REMARK   33  A    between atoms: C_37  and  C_38 
REMARK   34  A    between atoms: C_38  and  C_39 
REMARK   35  A    between atoms: C_39  and  C_40 
REMARK   36  A    between atoms: C_40  and  C_41 
REMARK   37  A    between atoms: C_41  and  C_42 
REMARK   38  A    between atoms: C_42  and  C_43 
REMARK   39  A    between atoms: C_43  and  C_44 
REMARK   40  A    between atoms: C_44  and  C_45 
REMARK   41  A    between atoms: C_45  and  C_46 
REMARK   42  A    between atoms: C_46  and  C_47 
REMARK   43  A    between atoms: C_47  and  C_48 
ROOT
HETATM    1  C   UNL     1     -17.888 -12.666  -6.386  1.00  0.00     0.154 C 
ENDROOT
BRANCH   1   2
HETATM    2  C   UNL     1     -18.788 -13.213  -5.250  1.00  0.00     0.159 C 
BRANCH   2   3
HETATM    3  N   UNL     1     -20.278 -13.279  -5.248  1.00  0.00    -0.348 N 
HETATM    4  C   UNL     1     -20.918 -12.886  -4.013  1.00  0.00     0.219 C 
HETATM    5  O   UNL     1     -22.113 -12.673  -3.875  1.00  0.00    -0.273 OA
BRANCH   4   6
HETATM    6  C   UNL     1     -19.927 -12.768  -2.852  1.00  0.00     0.103 C 
BRANCH   6   7
HETATM    7  C   UNL     1     -20.235 -11.789  -1.757  1.00  0.00     0.009 C 
BRANCH   7   8
HETATM    8  C   UNL     1     -19.962 -12.382  -0.396  1.00  0.00     0.000 C 
BRANCH   8   9
HETATM    9  C   UNL     1     -20.253 -11.290   0.592  1.00  0.00     0.000 C 
BRANCH   9  10
HETATM   10  C   UNL     1     -20.606 -10.015  -0.121  1.00  0.00     0.000 C 
BRANCH  10  11
HETATM   11  C   UNL     1     -21.755  -9.424   0.652  1.00  0.00     0.000 C 
BRANCH  11  12
HETATM   12  C   UNL     1     -22.946  -9.282  -0.248  1.00  0.00     0.000 C 
BRANCH  12  13
HETATM   13  C   UNL     1     -23.882 -10.429   0.047  1.00  0.00     0.000 C 
BRANCH  13  14
HETATM   14  C   UNL     1     -23.923 -11.340  -1.152  1.00  0.00     0.000 C 
BRANCH  14  15
HETATM   15  C   UNL     1     -23.788 -12.773  -0.691  1.00  0.00     0.000 C 
BRANCH  15  16
HETATM   16  C   UNL     1     -23.499 -12.789   0.794  1.00  0.00     0.000 C 
BRANCH  16  17
HETATM   17  C   UNL     1     -23.291 -14.218   1.260  1.00  0.00     0.000 C 
BRANCH  17  18
HETATM   18  C   UNL     1     -22.621 -14.223   2.622  1.00  0.00     0.000 C 
BRANCH  18  19
HETATM   19  C   UNL     1     -21.539 -15.290   2.670  1.00  0.00     0.000 C 
BRANCH  19  20
HETATM   20  C   UNL     1     -20.938 -15.497   1.287  1.00  0.00    -0.000 C 
BRANCH  20  21
HETATM   21  C   UNL     1     -19.421 -15.608   1.366  1.00  0.00    -0.005 C 
HETATM   22  C   UNL     1     -19.000 -16.339   2.627  1.00  0.00     0.005 C 
ENDBRANCH  20  21
ENDBRANCH  19  20
ENDBRANCH  18  19
ENDBRANCH  17  18
ENDBRANCH  16  17
ENDBRANCH  15  16
ENDBRANCH  14  15
ENDBRANCH  13  14
ENDBRANCH  12  13
ENDBRANCH  11  12
ENDBRANCH  10  11
ENDBRANCH   9  10
ENDBRANCH   8   9
ENDBRANCH   7   8
ENDBRANCH   6   7
ENDBRANCH   4   6
BRANCH   3  23
HETATM   23  C   UNL     1     -21.025 -13.469  -6.493  1.00  0.00     0.151 C 
BRANCH  23  24
HETATM   24  C   UNL     1     -22.057 -14.604  -6.781  1.00  0.00     0.183 C 
BRANCH  24  25
HETATM   25  O   UNL     1     -22.905 -15.032  -5.721  1.00  0.00    -0.399 OA
HETATM   26  H   UNL     1     -22.638 -14.524  -4.934  1.00  0.00     0.209 HD
ENDBRANCH  24  25
ENDBRANCH  23  24
ENDBRANCH   3  23
ENDBRANCH   2   3
ENDBRANCH   1   2
BRANCH   1  27
HETATM   27  C   UNL     1     -17.844 -11.110  -6.407  1.00  0.00     0.159 C 
BRANCH  27  28
HETATM   28  N   UNL     1     -17.939 -10.471  -5.057  1.00  0.00    -0.348 N 
HETATM   29  C   UNL     1     -19.119  -9.705  -4.876  1.00  0.00     0.219 C 
HETATM   30  O   UNL     1     -20.030  -9.682  -5.710  1.00  0.00    -0.273 OA
BRANCH  28  31
HETATM   31  C   UNL     1     -16.683 -10.279  -4.284  1.00  0.00     0.151 C 
BRANCH  31  32
HETATM   32  C   UNL     1     -16.388 -11.239  -3.114  1.00  0.00     0.183 C 
BRANCH  32  33
HETATM   33  O   UNL     1     -15.528 -12.292  -3.538  1.00  0.00    -0.399 OA
HETATM   34  H   UNL     1     -14.620 -11.963  -3.592  1.00  0.00     0.209 HD
ENDBRANCH  32  33
ENDBRANCH  31  32
ENDBRANCH  28  31
BRANCH  29  35
HETATM   35  C   UNL     1     -19.332  -8.862  -3.631  1.00  0.00     0.103 C 
BRANCH  35  36
HETATM   36  C   UNL     1     -20.805  -8.519  -3.383  1.00  0.00     0.009 C 
BRANCH  36  37
HETATM   37  C   UNL     1     -21.050  -7.211  -2.608  1.00  0.00     0.000 C 
BRANCH  37  38
HETATM   38  C   UNL     1     -21.942  -6.273  -3.421  1.00  0.00     0.000 C 
BRANCH  38  39
HETATM   39  C   UNL     1     -22.317  -6.861  -4.780  1.00  0.00     0.000 C 
BRANCH  39  40
HETATM   40  C   UNL     1     -21.892  -5.903  -5.886  1.00  0.00     0.000 C 
BRANCH  40  41
HETATM   41  C   UNL     1     -20.451  -6.148  -6.304  1.00  0.00     0.000 C 
BRANCH  41  42
HETATM   42  C   UNL     1     -19.658  -4.853  -6.226  1.00  0.00     0.000 C 
BRANCH  42  43
HETATM   43  C   UNL     1     -19.079  -4.509  -7.588  1.00  0.00     0.000 C 
BRANCH  43  44
HETATM   44  C   UNL     1     -20.123  -3.816  -8.449  1.00  0.00     0.000 C 
BRANCH  44  45
HETATM   45  C   UNL     1     -20.270  -4.540  -9.778  1.00  0.00     0.000 C 
BRANCH  45  46
HETATM   46  C   UNL     1     -20.720  -3.574 -10.861  1.00  0.00     0.000 C 
BRANCH  46  47
HETATM   47  C   UNL     1     -21.568  -4.295 -11.901  1.00  0.00     0.000 C 
BRANCH  47  48
HETATM   48  C   UNL     1     -22.969  -4.544 -11.367  1.00  0.00     0.000 C 
BRANCH  48  49
HETATM   49  C   UNL     1     -23.644  -3.237 -10.998  1.00  0.00    -0.000 C 
BRANCH  49  50
HETATM   50  C   UNL     1     -24.503  -3.396  -9.744  1.00  0.00    -0.005 C 
HETATM   51  C   UNL     1     -23.737  -4.104  -8.642  1.00  0.00     0.005 C 
ENDBRANCH  49  50
ENDBRANCH  48  49
ENDBRANCH  47  48
ENDBRANCH  46  47
ENDBRANCH  45  46
ENDBRANCH  44  45
ENDBRANCH  43  44
ENDBRANCH  42  43
ENDBRANCH  41  42
ENDBRANCH  40  41
ENDBRANCH  39  40
ENDBRANCH  38  39
ENDBRANCH  37  38
ENDBRANCH  36  37
ENDBRANCH  35  36
ENDBRANCH  29  35
ENDBRANCH  27  28
ENDBRANCH   1  27
BRANCH   1  52
HETATM   52  O   UNL     1     -16.559 -13.070  -6.170  1.00  0.00    -0.392 OA
HETATM   53  H   UNL     1     -16.072 -12.431  -6.721  1.00  0.00     0.210 HD
ENDBRANCH   1  52
TORSDOF 43
BEGIN_RES ARG D 557
REMARK  4 active torsions:
REMARK  status: ('A' for Active; 'I' for Inactive)
REMARK    1  A    between atoms: CA   and  CB  
REMARK    2  A    between atoms: CB   and  CG  
REMARK    3  A    between atoms: CG   and  CD  
REMARK    4  A    between atoms: CD   and  NE  
REMARK       I    between atoms: NE   and  CZ  
REMARK       I    between atoms: CZ   and  NH1 
REMARK       I    between atoms: CZ   and  NH2 
ROOT
ATOM      1  CA  ARG D 557     -26.217   2.705 -17.014  1.00 35.49     0.159 C 
ENDROOT
BRANCH   1   2
ATOM      2  CB  ARG D 557     -26.789   1.319 -17.183  1.00 35.49     0.034 C 
BRANCH   2   3
ATOM      3  CG  ARG D 557     -28.228   1.227 -17.456  1.00 35.49     0.027 C 
BRANCH   3   4
ATOM      4  CD  ARG D 557     -28.901   0.218 -16.606  1.00 35.49     0.116 C 
BRANCH   4   5
ATOM      5  NE  ARG D 557     -28.001  -0.822 -16.184  1.00 35.49    -0.212 N 
ATOM      6  CZ  ARG D 557     -28.057  -2.083 -16.551  1.00 35.49     0.666 C 
ATOM      7  NH1 ARG D 557     -28.990  -2.543 -17.365  1.00 35.49    -0.235 N 
ATOM      8  NH2 ARG D 557     -27.144  -2.885 -16.086  1.00 35.49    -0.235 N 
ATOM      9  HH  ARG D 557     -29.599  -2.032 -17.684  1.00 35.49     0.174 HD
ATOM     10  HH  ARG D 557     -28.975  -3.374 -17.572  1.00 35.49     0.174 HD
ATOM     11  HH  ARG D 557     -26.550  -2.558 -15.569  1.00 35.49     0.174 HD
ATOM     12  HH  ARG D 557     -27.146  -3.705 -16.304  1.00 35.49     0.174 HD
ATOM     13  HE  ARG D 557     -27.412  -0.629 -15.601  1.00 35.49     0.178 HD
ENDBRANCH   4   5
ENDBRANCH   3   4
ENDBRANCH   2   3
ENDBRANCH   1   2
END_RES ARG D 557
BEGIN_RES GLU D 570
REMARK  3 active torsions:
REMARK  status: ('A' for Active; 'I' for Inactive)
REMARK    5  A    between atoms: CA   and  CB  
REMARK    6  A    between atoms: CB   and  CG  
REMARK    7  A    between atoms: CG   and  CD  
ROOT
ATOM     14  CA  GLU D 570     -18.033  -6.348 -13.375  1.00 32.92     0.160 C 
ENDROOT
BRANCH  14  15
ATOM     15  CB  GLU D 570     -19.500  -6.345 -13.794  1.00 32.92     0.043 C 
BRANCH  15  16
ATOM     16  CG  GLU D 570     -20.090  -7.637 -14.230  1.00 32.92     0.100 C 
BRANCH  16  17
ATOM     17  CD  GLU D 570     -20.608  -7.599 -15.649  1.00 32.92     0.185 C 
ATOM     18  OE1 GLU D 570     -20.792  -6.495 -16.197  1.00 32.92    -0.647 OA
ATOM     19  OE2 GLU D 570     -20.850  -8.685 -16.212  1.00 32.92    -0.647 OA
ENDBRANCH  16  17
ENDBRANCH  15  16
ENDBRANCH  14  15
END_RES GLU D 570
ENDMDL
MODEL 7
REMARK VINA RESULT:      -7.1      5.727     14.195
REMARK WARNING: 32 MAX_TORS EXCEEDED!!!
REMARK  43 active torsions:
REMARK  status: ('A' for Active; 'I' for Inactive)
REMARK    1  A    between atoms: C_2  and  C_3 
REMARK    2  A    between atoms: C_3  and  C_4 
REMARK    3  A    between atoms: C_4  and  C_5 
REMARK    4  A    between atoms: C_5  and  C_6 
REMARK    5  A    between atoms: C_6  and  C_7 
REMARK    6  A    between atoms: C_7  and  C_8 
REMARK    7  A    between atoms: C_8  and  C_9 
REMARK    8  A    between atoms: C_9  and  C_10 
REMARK    9  A    between atoms: C_10  and  C_11 
REMARK   10  A    between atoms: C_11  and  C_12 
REMARK   11  A    between atoms: C_12  and  C_13 
REMARK   12  A    between atoms: C_13  and  C_14 
REMARK   13  A    between atoms: C_14  and  C_15 
REMARK   14  A    between atoms: C_15  and  C_16 
REMARK   15  A    between atoms: C_16  and  C_17 
REMARK   16  A    between atoms: C_17  and  C_18 
REMARK       I    between atoms: C_18  and  N_20 
REMARK   17  A    between atoms: N_20  and  C_21 
REMARK   18  A    between atoms: N_20  and  C_24 
REMARK   19  A    between atoms: C_21  and  C_22 
REMARK   20  A    between atoms: C_22  and  O_23 
REMARK   21  A    between atoms: C_24  and  C_25 
REMARK   22  A    between atoms: C_25  and  C_26 
REMARK   23  A    between atoms: C_25  and  O_50 
REMARK   24  A    between atoms: C_26  and  N_27 
REMARK   25  A    between atoms: N_27  and  C_28 
REMARK       I    between atoms: N_27  and  C_31 
REMARK   26  A    between atoms: C_28  and  C_29 
REMARK   27  A    between atoms: C_29  and  O_30 
REMARK   28  A    between atoms: C_31  and  C_33 
REMARK   29  A    between atoms: C_33  and  C_34 
REMARK   30  A    between atoms: C_34  and  C_35 
REMARK   31  A    between atoms: C_35  and  C_36 
REMARK   32  A    between atoms: C_36  and  C_37 
REMARK   33  A    between atoms: C_37  and  C_38 
REMARK   34  A    between atoms: C_38  and  C_39 
REMARK   35  A    between atoms: C_39  and  C_40 
REMARK   36  A    between atoms: C_40  and  C_41 
REMARK   37  A    between atoms: C_41  and  C_42 
REMARK   38  A    between atoms: C_42  and  C_43 
REMARK   39  A    between atoms: C_43  and  C_44 
REMARK   40  A    between atoms: C_44  and  C_45 
REMARK   41  A    between atoms: C_45  and  C_46 
REMARK   42  A    between atoms: C_46  and  C_47 
REMARK   43  A    between atoms: C_47  and  C_48 
ROOT
HETATM    1  C   UNL     1     -15.702 -13.598  -6.558  1.00  0.00     0.154 C 
ENDROOT
BRANCH   1   2
HETATM    2  C   UNL     1     -17.196 -13.323  -6.258  1.00  0.00     0.159 C 
BRANCH   2   3
HETATM    3  N   UNL     1     -18.339 -13.489  -7.202  1.00  0.00    -0.348 N 
HETATM    4  C   UNL     1     -19.600 -12.937  -6.759  1.00  0.00     0.219 C 
HETATM    5  O   UNL     1     -20.588 -12.785  -7.460  1.00  0.00    -0.273 OA
BRANCH   4   6
HETATM    6  C   UNL     1     -19.582 -12.556  -5.276  1.00  0.00     0.103 C 
BRANCH   6   7
HETATM    7  C   UNL     1     -20.876 -12.148  -4.637  1.00  0.00     0.009 C 
BRANCH   7   8
HETATM    8  C   UNL     1     -21.625 -13.342  -4.098  1.00  0.00     0.000 C 
BRANCH   8   9
HETATM    9  C   UNL     1     -22.351 -12.854  -2.878  1.00  0.00     0.000 C 
BRANCH   9  10
HETATM   10  C   UNL     1     -22.582 -11.371  -2.960  1.00  0.00     0.000 C 
BRANCH  10  11
HETATM   11  C   UNL     1     -23.655 -11.072  -1.948  1.00  0.00     0.000 C 
BRANCH  11  12
HETATM   12  C   UNL     1     -23.926 -12.297  -1.127  1.00  0.00     0.000 C 
BRANCH  12  13
HETATM   13  C   UNL     1     -23.759 -11.922   0.325  1.00  0.00     0.000 C 
BRANCH  13  14
HETATM   14  C   UNL     1     -23.315 -13.140   1.092  1.00  0.00     0.000 C 
BRANCH  14  15
HETATM   15  C   UNL     1     -21.809 -13.246   1.026  1.00  0.00     0.000 C 
BRANCH  15  16
HETATM   16  C   UNL     1     -21.217 -11.854   0.975  1.00  0.00     0.000 C 
BRANCH  16  17
HETATM   17  C   UNL     1     -20.155 -11.789  -0.106  1.00  0.00     0.000 C 
BRANCH  17  18
HETATM   18  C   UNL     1     -20.016 -10.362  -0.605  1.00  0.00     0.000 C 
BRANCH  18  19
HETATM   19  C   UNL     1     -21.001  -9.455   0.116  1.00  0.00     0.000 C 
BRANCH  19  20
HETATM   20  C   UNL     1     -21.051  -8.090  -0.555  1.00  0.00    -0.000 C 
BRANCH  20  21
HETATM   21  C   UNL     1     -22.443  -7.481  -0.439  1.00  0.00    -0.005 C 
HETATM   22  C   UNL     1     -23.278  -8.235   0.580  1.00  0.00     0.005 C 
ENDBRANCH  20  21
ENDBRANCH  19  20
ENDBRANCH  18  19
ENDBRANCH  17  18
ENDBRANCH  16  17
ENDBRANCH  15  16
ENDBRANCH  14  15
ENDBRANCH  13  14
ENDBRANCH  12  13
ENDBRANCH  11  12
ENDBRANCH  10  11
ENDBRANCH   9  10
ENDBRANCH   8   9
ENDBRANCH   7   8
ENDBRANCH   6   7
ENDBRANCH   4   6
BRANCH   3  23
HETATM   23  C   UNL     1     -18.120 -13.938  -8.579  1.00  0.00     0.151 C 
BRANCH  23  24
HETATM   24  C   UNL     1     -17.729 -15.382  -9.023  1.00  0.00     0.183 C 
BRANCH  24  25
HETATM   25  O   UNL     1     -18.762 -16.353  -9.152  1.00  0.00    -0.399 OA
HETATM   26  H   UNL     1     -18.318 -17.206  -9.309  1.00  0.00     0.209 HD
ENDBRANCH  24  25
ENDBRANCH  23  24
ENDBRANCH   3  23
ENDBRANCH   2   3
ENDBRANCH   1   2
BRANCH   1  27
HETATM   27  C   UNL     1     -14.776 -12.460  -6.038  1.00  0.00     0.159 C 
BRANCH  27  28
HETATM   28  N   UNL     1     -15.248 -11.806  -4.777  1.00  0.00    -0.348 N 
HETATM   29  C   UNL     1     -15.789 -10.510  -4.980  1.00  0.00     0.219 C 
HETATM   30  O   UNL     1     -15.965 -10.033  -6.105  1.00  0.00    -0.273 OA
BRANCH  28  31
HETATM   31  C   UNL     1     -14.695 -12.297  -3.486  1.00  0.00     0.151 C 
BRANCH  31  32
HETATM   32  C   UNL     1     -13.390 -13.117  -3.513  1.00  0.00     0.183 C 
BRANCH  32  33
HETATM   33  O   UNL     1     -13.672 -14.507  -3.377  1.00  0.00    -0.399 OA
HETATM   34  H   UNL     1     -13.245 -14.845  -2.577  1.00  0.00     0.209 HD
ENDBRANCH  32  33
ENDBRANCH  31  32
ENDBRANCH  28  31
BRANCH  29  35
HETATM   35  C   UNL     1     -16.188  -9.628  -3.811  1.00  0.00     0.103 C 
BRANCH  35  36
HETATM   36  C   UNL     1     -17.673  -9.744  -3.449  1.00  0.00     0.009 C 
BRANCH  36  37
HETATM   37  C   UNL     1     -18.638  -9.028  -4.412  1.00  0.00     0.000 C 
BRANCH  37  38
HETATM   38  C   UNL     1     -20.005  -8.845  -3.751  1.00  0.00     0.000 C 
BRANCH  38  39
HETATM   39  C   UNL     1     -21.057  -8.326  -4.729  1.00  0.00     0.000 C 
BRANCH  39  40
HETATM   40  C   UNL     1     -21.765  -7.120  -4.124  1.00  0.00     0.000 C 
BRANCH  40  41
HETATM   41  C   UNL     1     -22.426  -6.273  -5.200  1.00  0.00     0.000 C 
BRANCH  41  42
HETATM   42  C   UNL     1     -21.373  -5.482  -5.962  1.00  0.00     0.000 C 
BRANCH  42  43
HETATM   43  C   UNL     1     -22.007  -4.764  -7.141  1.00  0.00     0.000 C 
BRANCH  43  44
HETATM   44  C   UNL     1     -21.180  -3.549  -7.529  1.00  0.00     0.000 C 
BRANCH  44  45
HETATM   45  C   UNL     1     -19.898  -3.987  -8.219  1.00  0.00     0.000 C 
BRANCH  45  46
HETATM   46  C   UNL     1     -20.217  -4.760  -9.489  1.00  0.00     0.000 C 
BRANCH  46  47
HETATM   47  C   UNL     1     -20.428  -3.803 -10.655  1.00  0.00     0.000 C 
BRANCH  47  48
HETATM   48  C   UNL     1     -21.688  -4.168 -11.424  1.00  0.00     0.000 C 
BRANCH  48  49
HETATM   49  C   UNL     1     -22.663  -3.006 -11.441  1.00  0.00    -0.000 C 
BRANCH  49  50
HETATM   50  C   UNL     1     -23.974  -3.378 -10.748  1.00  0.00    -0.005 C 
HETATM   51  C   UNL     1     -23.983  -4.840 -10.341  1.00  0.00     0.005 C 
ENDBRANCH  49  50
ENDBRANCH  48  49
ENDBRANCH  47  48
ENDBRANCH  46  47
ENDBRANCH  45  46
ENDBRANCH  44  45
ENDBRANCH  43  44
ENDBRANCH  42  43
ENDBRANCH  41  42
ENDBRANCH  40  41
ENDBRANCH  39  40
ENDBRANCH  38  39
ENDBRANCH  37  38
ENDBRANCH  36  37
ENDBRANCH  35  36
ENDBRANCH  29  35
ENDBRANCH  27  28
ENDBRANCH   1  27
BRANCH   1  52
HETATM   52  O   UNL     1     -15.289 -14.752  -5.870  1.00  0.00    -0.392 OA
HETATM   53  H   UNL     1     -15.985 -15.386  -6.123  1.00  0.00     0.210 HD
ENDBRANCH   1  52
TORSDOF 43
BEGIN_RES ARG D 557
REMARK  4 active torsions:
REMARK  status: ('A' for Active; 'I' for Inactive)
REMARK    1  A    between atoms: CA   and  CB  
REMARK    2  A    between atoms: CB   and  CG  
REMARK    3  A    between atoms: CG   and  CD  
REMARK    4  A    between atoms: CD   and  NE  
REMARK       I    between atoms: NE   and  CZ  
REMARK       I    between atoms: CZ   and  NH1 
REMARK       I    between atoms: CZ   and  NH2 
ROOT
ATOM      1  CA  ARG D 557     -26.217   2.705 -17.014  1.00 35.49     0.159 C 
ENDROOT
BRANCH   1   2
ATOM      2  CB  ARG D 557     -26.789   1.319 -17.183  1.00 35.49     0.034 C 
BRANCH   2   3
ATOM      3  CG  ARG D 557     -25.949   0.199 -16.740  1.00 35.49     0.027 C 
BRANCH   3   4
ATOM      4  CD  ARG D 557     -26.739  -0.881 -16.106  1.00 35.49     0.116 C 
BRANCH   4   5
ATOM      5  NE  ARG D 557     -25.952  -1.657 -15.183  1.00 35.49    -0.212 N 
ATOM      6  CZ  ARG D 557     -26.082  -2.946 -14.958  1.00 35.49     0.666 C 
ATOM      7  NH1 ARG D 557     -26.991  -3.684 -15.568  1.00 35.49    -0.235 N 
ATOM      8  NH2 ARG D 557     -25.267  -3.491 -14.102  1.00 35.49    -0.235 N 
ATOM      9  HH  ARG D 557     -27.536  -3.347 -16.137  1.00 35.49     0.174 HD
ATOM     10  HH  ARG D 557     -27.027  -4.520 -15.384  1.00 35.49     0.174 HD
ATOM     11  HH  ARG D 557     -24.686  -2.991 -13.729  1.00 35.49     0.174 HD
ATOM     12  HH  ARG D 557     -25.318  -4.320 -13.934  1.00 35.49     0.174 HD
ATOM     13  HE  ARG D 557     -25.391  -1.247 -14.694  1.00 35.49     0.178 HD
ENDBRANCH   4   5
ENDBRANCH   3   4
ENDBRANCH   2   3
ENDBRANCH   1   2
END_RES ARG D 557
BEGIN_RES GLU D 570
REMARK  3 active torsions:
REMARK  status: ('A' for Active; 'I' for Inactive)
REMARK    5  A    between atoms: CA   and  CB  
REMARK    6  A    between atoms: CB   and  CG  
REMARK    7  A    between atoms: CG   and  CD  
ROOT
ATOM     14  CA  GLU D 570     -18.033  -6.348 -13.375  1.00 32.92     0.160 C 
ENDROOT
BRANCH  14  15
ATOM     15  CB  GLU D 570     -19.500  -6.345 -13.794  1.00 32.92     0.043 C 
BRANCH  15  16
ATOM     16  CG  GLU D 570     -19.823  -5.835 -15.152  1.00 32.92     0.100 C 
BRANCH  16  17
ATOM     17  CD  GLU D 570     -21.190  -6.265 -15.633  1.00 32.92     0.185 C 
ATOM     18  OE1 GLU D 570     -21.602  -7.404 -15.344  1.00 32.92    -0.647 OA
ATOM     19  OE2 GLU D 570     -21.847  -5.459 -16.320  1.00 32.92    -0.647 OA
ENDBRANCH  16  17
ENDBRANCH  15  16
ENDBRANCH  14  15
END_RES GLU D 570
ENDMDL
MODEL 8
REMARK VINA RESULT:      -7.0      6.411     14.565
REMARK WARNING: 32 MAX_TORS EXCEEDED!!!
REMARK  43 active torsions:
REMARK  status: ('A' for Active; 'I' for Inactive)
REMARK    1  A    between atoms: C_2  and  C_3 
REMARK    2  A    between atoms: C_3  and  C_4 
REMARK    3  A    between atoms: C_4  and  C_5 
REMARK    4  A    between atoms: C_5  and  C_6 
REMARK    5  A    between atoms: C_6  and  C_7 
REMARK    6  A    between atoms: C_7  and  C_8 
REMARK    7  A    between atoms: C_8  and  C_9 
REMARK    8  A    between atoms: C_9  and  C_10 
REMARK    9  A    between atoms: C_10  and  C_11 
REMARK   10  A    between atoms: C_11  and  C_12 
REMARK   11  A    between atoms: C_12  and  C_13 
REMARK   12  A    between atoms: C_13  and  C_14 
REMARK   13  A    between atoms: C_14  and  C_15 
REMARK   14  A    between atoms: C_15  and  C_16 
REMARK   15  A    between atoms: C_16  and  C_17 
REMARK   16  A    between atoms: C_17  and  C_18 
REMARK       I    between atoms: C_18  and  N_20 
REMARK   17  A    between atoms: N_20  and  C_21 
REMARK   18  A    between atoms: N_20  and  C_24 
REMARK   19  A    between atoms: C_21  and  C_22 
REMARK   20  A    between atoms: C_22  and  O_23 
REMARK   21  A    between atoms: C_24  and  C_25 
REMARK   22  A    between atoms: C_25  and  C_26 
REMARK   23  A    between atoms: C_25  and  O_50 
REMARK   24  A    between atoms: C_26  and  N_27 
REMARK   25  A    between atoms: N_27  and  C_28 
REMARK       I    between atoms: N_27  and  C_31 
REMARK   26  A    between atoms: C_28  and  C_29 
REMARK   27  A    between atoms: C_29  and  O_30 
REMARK   28  A    between atoms: C_31  and  C_33 
REMARK   29  A    between atoms: C_33  and  C_34 
REMARK   30  A    between atoms: C_34  and  C_35 
REMARK   31  A    between atoms: C_35  and  C_36 
REMARK   32  A    between atoms: C_36  and  C_37 
REMARK   33  A    between atoms: C_37  and  C_38 
REMARK   34  A    between atoms: C_38  and  C_39 
REMARK   35  A    between atoms: C_39  and  C_40 
REMARK   36  A    between atoms: C_40  and  C_41 
REMARK   37  A    between atoms: C_41  and  C_42 
REMARK   38  A    between atoms: C_42  and  C_43 
REMARK   39  A    between atoms: C_43  and  C_44 
REMARK   40  A    between atoms: C_44  and  C_45 
REMARK   41  A    between atoms: C_45  and  C_46 
REMARK   42  A    between atoms: C_46  and  C_47 
REMARK   43  A    between atoms: C_47  and  C_48 
ROOT
HETATM    1  C   UNL     1     -14.459 -13.106  -5.490  1.00  0.00     0.154 C 
ENDROOT
BRANCH   1   2
HETATM    2  C   UNL     1     -14.075 -12.584  -4.084  1.00  0.00     0.159 C 
BRANCH   2   3
HETATM    3  N   UNL     1     -13.871 -13.404  -2.854  1.00  0.00    -0.348 N 
HETATM    4  C   UNL     1     -14.936 -13.342  -1.879  1.00  0.00     0.219 C 
HETATM    5  O   UNL     1     -15.056 -14.088  -0.919  1.00  0.00    -0.273 OA
BRANCH   4   6
HETATM    6  C   UNL     1     -15.926 -12.210  -2.165  1.00  0.00     0.103 C 
BRANCH   6   7
HETATM    7  C   UNL     1     -17.127 -12.081  -1.276  1.00  0.00     0.009 C 
BRANCH   7   8
HETATM    8  C   UNL     1     -18.271 -12.932  -1.768  1.00  0.00     0.000 C 
BRANCH   8   9
HETATM    9  C   UNL     1     -19.372 -12.760  -0.763  1.00  0.00     0.000 C 
BRANCH   9  10
HETATM   10  C   UNL     1     -19.188 -11.483   0.007  1.00  0.00     0.000 C 
BRANCH  10  11
HETATM   11  C   UNL     1     -20.431 -11.331   0.843  1.00  0.00     0.000 C 
BRANCH  11  12
HETATM   12  C   UNL     1     -20.459  -9.963   1.456  1.00  0.00     0.000 C 
BRANCH  12  13
HETATM   13  C   UNL     1     -20.931  -8.996   0.398  1.00  0.00     0.000 C 
BRANCH  13  14
HETATM   14  C   UNL     1     -22.151  -8.276   0.910  1.00  0.00     0.000 C 
BRANCH  14  15
HETATM   15  C   UNL     1     -22.782  -7.502  -0.225  1.00  0.00     0.000 C 
BRANCH  15  16
HETATM   16  C   UNL     1     -21.789  -7.391  -1.361  1.00  0.00     0.000 C 
BRANCH  16  17
HETATM   17  C   UNL     1     -22.110  -6.172  -2.204  1.00  0.00     0.000 C 
BRANCH  17  18
HETATM   18  C   UNL     1     -22.006  -6.523  -3.678  1.00  0.00     0.000 C 
BRANCH  18  19
HETATM   19  C   UNL     1     -20.884  -5.729  -4.328  1.00  0.00     0.000 C 
BRANCH  19  20
HETATM   20  C   UNL     1     -20.600  -6.262  -5.726  1.00  0.00    -0.000 C 
BRANCH  20  21
HETATM   21  C   UNL     1     -19.863  -5.222  -6.562  1.00  0.00    -0.005 C 
HETATM   22  C   UNL     1     -20.269  -5.318  -8.021  1.00  0.00     0.005 C 
ENDBRANCH  20  21
ENDBRANCH  19  20
ENDBRANCH  18  19
ENDBRANCH  17  18
ENDBRANCH  16  17
ENDBRANCH  15  16
ENDBRANCH  14  15
ENDBRANCH  13  14
ENDBRANCH  12  13
ENDBRANCH  11  12
ENDBRANCH  10  11
ENDBRANCH   9  10
ENDBRANCH   8   9
ENDBRANCH   7   8
ENDBRANCH   6   7
ENDBRANCH   4   6
BRANCH   3  23
HETATM   23  C   UNL     1     -12.797 -14.398  -2.782  1.00  0.00     0.151 C 
BRANCH  23  24
HETATM   24  C   UNL     1     -12.857 -15.857  -3.332  1.00  0.00     0.183 C 
BRANCH  24  25
HETATM   25  O   UNL     1     -12.561 -16.074  -4.707  1.00  0.00    -0.399 OA
HETATM   26  H   UNL     1     -13.363 -16.462  -5.102  1.00  0.00     0.209 HD
ENDBRANCH  24  25
ENDBRANCH  23  24
ENDBRANCH   3  23
ENDBRANCH   2   3
ENDBRANCH   1   2
BRANCH   1  27
HETATM   27  C   UNL     1     -14.968 -11.968  -6.423  1.00  0.00     0.159 C 
BRANCH  27  28
HETATM   28  N   UNL     1     -16.393 -11.574  -6.198  1.00  0.00    -0.348 N 
HETATM   29  C   UNL     1     -16.539 -10.311  -5.568  1.00  0.00     0.219 C 
HETATM   30  O   UNL     1     -15.580  -9.564  -5.350  1.00  0.00    -0.273 OA
BRANCH  28  31
HETATM   31  C   UNL     1     -17.421 -12.650  -6.177  1.00  0.00     0.151 C 
BRANCH  31  32
HETATM   32  C   UNL     1     -18.199 -12.945  -7.475  1.00  0.00     0.183 C 
BRANCH  32  33
HETATM   33  O   UNL     1     -18.961 -11.808  -7.868  1.00  0.00    -0.399 OA
HETATM   34  H   UNL     1     -18.883 -11.119  -7.193  1.00  0.00     0.209 HD
ENDBRANCH  32  33
ENDBRANCH  31  32
ENDBRANCH  28  31
BRANCH  29  35
HETATM   35  C   UNL     1     -17.898  -9.800  -5.123  1.00  0.00     0.103 C 
BRANCH  35  36
HETATM   36  C   UNL     1     -17.938  -9.413  -3.641  1.00  0.00     0.009 C 
BRANCH  36  37
HETATM   37  C   UNL     1     -19.331  -9.041  -3.101  1.00  0.00     0.000 C 
BRANCH  37  38
HETATM   38  C   UNL     1     -20.269 -10.245  -3.180  1.00  0.00     0.000 C 
BRANCH  38  39
HETATM   39  C   UNL     1     -21.375 -10.052  -4.215  1.00  0.00     0.000 C 
BRANCH  39  40
HETATM   40  C   UNL     1     -22.721 -10.411  -3.598  1.00  0.00     0.000 C 
BRANCH  40  41
HETATM   41  C   UNL     1     -22.568 -10.821  -2.142  1.00  0.00     0.000 C 
BRANCH  41  42
HETATM   42  C   UNL     1     -23.908 -11.276  -1.584  1.00  0.00     0.000 C 
BRANCH  42  43
HETATM   43  C   UNL     1     -23.812 -11.470  -0.080  1.00  0.00     0.000 C 
BRANCH  43  44
HETATM   44  C   UNL     1     -23.461 -12.912   0.248  1.00  0.00     0.000 C 
BRANCH  44  45
HETATM   45  C   UNL     1     -23.960 -13.835  -0.853  1.00  0.00     0.000 C 
BRANCH  45  46
HETATM   46  C   UNL     1     -22.852 -14.776  -1.298  1.00  0.00     0.000 C 
BRANCH  46  47
HETATM   47  C   UNL     1     -22.785 -14.840  -2.818  1.00  0.00     0.000 C 
BRANCH  47  48
HETATM   48  C   UNL     1     -21.644 -13.982  -3.339  1.00  0.00     0.000 C 
BRANCH  48  49
HETATM   49  C   UNL     1     -20.714 -14.799  -4.216  1.00  0.00    -0.000 C 
BRANCH  49  50
HETATM   50  C   UNL     1     -21.095 -14.669  -5.691  1.00  0.00    -0.005 C 
HETATM   51  C   UNL     1     -21.638 -13.285  -5.996  1.00  0.00     0.005 C 
ENDBRANCH  49  50
ENDBRANCH  48  49
ENDBRANCH  47  48
ENDBRANCH  46  47
ENDBRANCH  45  46
ENDBRANCH  44  45
ENDBRANCH  43  44
ENDBRANCH  42  43
ENDBRANCH  41  42
ENDBRANCH  40  41
ENDBRANCH  39  40
ENDBRANCH  38  39
ENDBRANCH  37  38
ENDBRANCH  36  37
ENDBRANCH  35  36
ENDBRANCH  29  35
ENDBRANCH  27  28
ENDBRANCH   1  27
BRANCH   1  52
HETATM   52  O   UNL     1     -13.319 -13.624  -6.128  1.00  0.00    -0.392 OA
HETATM   53  H   UNL     1     -13.637 -14.502  -6.406  1.00  0.00     0.210 HD
ENDBRANCH   1  52
TORSDOF 43
BEGIN_RES ARG D 557
REMARK  4 active torsions:
REMARK  status: ('A' for Active; 'I' for Inactive)
REMARK    1  A    between atoms: CA   and  CB  
REMARK    2  A    between atoms: CB   and  CG  
REMARK    3  A    between atoms: CG   and  CD  
REMARK    4  A    between atoms: CD   and  NE  
REMARK       I    between atoms: NE   and  CZ  
REMARK       I    between atoms: CZ   and  NH1 
REMARK       I    between atoms: CZ   and  NH2 
ROOT
ATOM      1  CA  ARG D 557     -26.217   2.705 -17.014  1.00 35.49     0.159 C 
ENDROOT
BRANCH   1   2
ATOM      2  CB  ARG D 557     -26.789   1.319 -17.183  1.00 35.49     0.034 C 
BRANCH   2   3
ATOM      3  CG  ARG D 557     -28.203   1.230 -17.567  1.00 35.49     0.027 C 
BRANCH   3   4
ATOM      4  CD  ARG D 557     -28.992   0.400 -16.628  1.00 35.49     0.116 C 
BRANCH   4   5
ATOM      5  NE  ARG D 557     -29.309  -0.890 -17.179  1.00 35.49    -0.212 N 
ATOM      6  CZ  ARG D 557     -28.618  -1.994 -16.999  1.00 35.49     0.666 C 
ATOM      7  NH1 ARG D 557     -27.513  -2.028 -16.278  1.00 35.49    -0.235 N 
ATOM      8  NH2 ARG D 557     -29.066  -3.080 -17.559  1.00 35.49    -0.235 N 
ATOM      9  HH  ARG D 557     -27.201  -1.326 -15.899  1.00 35.49     0.174 HD
ATOM     10  HH  ARG D 557     -27.106  -2.777 -16.193  1.00 35.49     0.174 HD
ATOM     11  HH  ARG D 557     -29.786  -3.029 -18.012  1.00 35.49     0.174 HD
ATOM     12  HH  ARG D 557     -28.649  -3.812 -17.462  1.00 35.49     0.174 HD
ATOM     13  HE  ARG D 557     -29.966  -0.944 -17.717  1.00 35.49     0.178 HD
ENDBRANCH   4   5
ENDBRANCH   3   4
ENDBRANCH   2   3
ENDBRANCH   1   2
END_RES ARG D 557
BEGIN_RES GLU D 570
REMARK  3 active torsions:
REMARK  status: ('A' for Active; 'I' for Inactive)
REMARK    5  A    between atoms: CA   and  CB  
REMARK    6  A    between atoms: CB   and  CG  
REMARK    7  A    between atoms: CG   and  CD  
ROOT
ATOM     14  CA  GLU D 570     -18.033  -6.348 -13.375  1.00 32.92     0.160 C 
ENDROOT
BRANCH  14  15
ATOM     15  CB  GLU D 570     -19.500  -6.345 -13.794  1.00 32.92     0.043 C 
BRANCH  15  16
ATOM     16  CG  GLU D 570     -20.090  -7.637 -14.231  1.00 32.92     0.100 C 
BRANCH  16  17
ATOM     17  CD  GLU D 570     -20.783  -7.545 -15.570  1.00 32.92     0.185 C 
ATOM     18  OE1 GLU D 570     -21.278  -6.457 -15.922  1.00 32.92    -0.647 OA
ATOM     19  OE2 GLU D 570     -20.847  -8.576 -16.268  1.00 32.92    -0.647 OA
ENDBRANCH  16  17
ENDBRANCH  15  16
ENDBRANCH  14  15
END_RES GLU D 570
ENDMDL
MODEL 9
REMARK VINA RESULT:      -6.9      5.726     14.901
REMARK WARNING: 32 MAX_TORS EXCEEDED!!!
REMARK  43 active torsions:
REMARK  status: ('A' for Active; 'I' for Inactive)
REMARK    1  A    between atoms: C_2  and  C_3 
REMARK    2  A    between atoms: C_3  and  C_4 
REMARK    3  A    between atoms: C_4  and  C_5 
REMARK    4  A    between atoms: C_5  and  C_6 
REMARK    5  A    between atoms: C_6  and  C_7 
REMARK    6  A    between atoms: C_7  and  C_8 
REMARK    7  A    between atoms: C_8  and  C_9 
REMARK    8  A    between atoms: C_9  and  C_10 
REMARK    9  A    between atoms: C_10  and  C_11 
REMARK   10  A    between atoms: C_11  and  C_12 
REMARK   11  A    between atoms: C_12  and  C_13 
REMARK   12  A    between atoms: C_13  and  C_14 
REMARK   13  A    between atoms: C_14  and  C_15 
REMARK   14  A    between atoms: C_15  and  C_16 
REMARK   15  A    between atoms: C_16  and  C_17 
REMARK   16  A    between atoms: C_17  and  C_18 
REMARK       I    between atoms: C_18  and  N_20 
REMARK   17  A    between atoms: N_20  and  C_21 
REMARK   18  A    between atoms: N_20  and  C_24 
REMARK   19  A    between atoms: C_21  and  C_22 
REMARK   20  A    between atoms: C_22  and  O_23 
REMARK   21  A    between atoms: C_24  and  C_25 
REMARK   22  A    between atoms: C_25  and  C_26 
REMARK   23  A    between atoms: C_25  and  O_50 
REMARK   24  A    between atoms: C_26  and  N_27 
REMARK   25  A    between atoms: N_27  and  C_28 
REMARK       I    between atoms: N_27  and  C_31 
REMARK   26  A    between atoms: C_28  and  C_29 
REMARK   27  A    between atoms: C_29  and  O_30 
REMARK   28  A    between atoms: C_31  and  C_33 
REMARK   29  A    between atoms: C_33  and  C_34 
REMARK   30  A    between atoms: C_34  and  C_35 
REMARK   31  A    between atoms: C_35  and  C_36 
REMARK   32  A    between atoms: C_36  and  C_37 
REMARK   33  A    between atoms: C_37  and  C_38 
REMARK   34  A    between atoms: C_38  and  C_39 
REMARK   35  A    between atoms: C_39  and  C_40 
REMARK   36  A    between atoms: C_40  and  C_41 
REMARK   37  A    between atoms: C_41  and  C_42 
REMARK   38  A    between atoms: C_42  and  C_43 
REMARK   39  A    between atoms: C_43  and  C_44 
REMARK   40  A    between atoms: C_44  and  C_45 
REMARK   41  A    between atoms: C_45  and  C_46 
REMARK   42  A    between atoms: C_46  and  C_47 
REMARK   43  A    between atoms: C_47  and  C_48 
ROOT
HETATM    1  C   UNL     1     -15.462 -10.341  -5.273  1.00  0.00     0.154 C 
ENDROOT
BRANCH   1   2
HETATM    2  C   UNL     1     -15.646 -11.734  -4.622  1.00  0.00     0.159 C 
BRANCH   2   3
HETATM    3  N   UNL     1     -14.636 -12.483  -3.819  1.00  0.00    -0.348 N 
HETATM    4  C   UNL     1     -14.988 -12.717  -2.436  1.00  0.00     0.219 C 
HETATM    5  O   UNL     1     -14.404 -13.477  -1.679  1.00  0.00    -0.273 OA
BRANCH   4   6
HETATM    6  C   UNL     1     -16.194 -11.886  -1.991  1.00  0.00     0.103 C 
BRANCH   6   7
HETATM    7  C   UNL     1     -16.752 -12.129  -0.619  1.00  0.00     0.009 C 
BRANCH   7   8
HETATM    8  C   UNL     1     -17.707 -13.298  -0.612  1.00  0.00     0.000 C 
BRANCH   8   9
HETATM    9  C   UNL     1     -18.928 -12.824   0.120  1.00  0.00     0.000 C 
BRANCH   9  10
HETATM   10  C   UNL     1     -19.964 -12.329  -0.849  1.00  0.00     0.000 C 
BRANCH  10  11
HETATM   11  C   UNL     1     -20.235 -10.901  -0.457  1.00  0.00     0.000 C 
BRANCH  11  12
HETATM   12  C   UNL     1     -20.399 -10.811   1.031  1.00  0.00     0.000 C 
BRANCH  12  13
HETATM   13  C   UNL     1     -20.695  -9.371   1.373  1.00  0.00     0.000 C 
BRANCH  13  14
HETATM   14  C   UNL     1     -21.010  -8.627   0.101  1.00  0.00     0.000 C 
BRANCH  14  15
HETATM   15  C   UNL     1     -22.267  -7.814   0.302  1.00  0.00     0.000 C 
BRANCH  15  16
HETATM   16  C   UNL     1     -23.428  -8.751   0.557  1.00  0.00     0.000 C 
BRANCH  16  17
HETATM   17  C   UNL     1     -23.473  -9.816  -0.522  1.00  0.00     0.000 C 
BRANCH  17  18
HETATM   18  C   UNL     1     -24.150 -11.064   0.014  1.00  0.00     0.000 C 
BRANCH  18  19
HETATM   19  C   UNL     1     -23.939 -12.228  -0.942  1.00  0.00     0.000 C 
BRANCH  19  20
HETATM   20  C   UNL     1     -23.377 -13.430  -0.197  1.00  0.00    -0.000 C 
BRANCH  20  21
HETATM   21  C   UNL     1     -23.299 -13.152   1.299  1.00  0.00    -0.005 C 
HETATM   22  C   UNL     1     -22.223 -14.001   1.950  1.00  0.00     0.005 C 
ENDBRANCH  20  21
ENDBRANCH  19  20
ENDBRANCH  18  19
ENDBRANCH  17  18
ENDBRANCH  16  17
ENDBRANCH  15  16
ENDBRANCH  14  15
ENDBRANCH  13  14
ENDBRANCH  12  13
ENDBRANCH  11  12
ENDBRANCH  10  11
ENDBRANCH   9  10
ENDBRANCH   8   9
ENDBRANCH   7   8
ENDBRANCH   6   7
ENDBRANCH   4   6
BRANCH   3  23
HETATM   23  C   UNL     1     -13.508 -13.156  -4.466  1.00  0.00     0.151 C 
BRANCH  23  24
HETATM   24  C   UNL     1     -13.455 -14.656  -4.893  1.00  0.00     0.183 C 
BRANCH  24  25
HETATM   25  O   UNL     1     -13.199 -14.961  -6.259  1.00  0.00    -0.399 OA
HETATM   26  H   UNL     1     -13.137 -15.932  -6.316  1.00  0.00     0.209 HD
ENDBRANCH  24  25
ENDBRANCH  23  24
ENDBRANCH   3  23
ENDBRANCH   2   3
ENDBRANCH   1   2
BRANCH   1  27
HETATM   27  C   UNL     1     -16.649  -9.965  -6.206  1.00  0.00     0.159 C 
BRANCH  27  28
HETATM   28  N   UNL     1     -17.871 -10.810  -6.025  1.00  0.00    -0.348 N 
HETATM   29  C   UNL     1     -18.622 -10.477  -4.869  1.00  0.00     0.219 C 
HETATM   30  O   UNL     1     -18.354  -9.501  -4.161  1.00  0.00    -0.273 OA
BRANCH  28  31
HETATM   31  C   UNL     1     -17.915 -12.131  -6.707  1.00  0.00     0.151 C 
BRANCH  31  32
HETATM   32  C   UNL     1     -18.841 -12.294  -7.930  1.00  0.00     0.183 C 
BRANCH  32  33
HETATM   33  O   UNL     1     -19.833 -13.283  -7.674  1.00  0.00    -0.399 OA
HETATM   34  H   UNL     1     -19.469 -13.961  -7.088  1.00  0.00     0.209 HD
ENDBRANCH  32  33
ENDBRANCH  31  32
ENDBRANCH  28  31
BRANCH  29  35
HETATM   35  C   UNL     1     -19.813 -11.311  -4.432  1.00  0.00     0.103 C 
BRANCH  35  36
HETATM   36  C   UNL     1     -21.153 -10.741  -4.908  1.00  0.00     0.009 C 
BRANCH  36  37
HETATM   37  C   UNL     1     -22.041 -10.145  -3.801  1.00  0.00     0.000 C 
BRANCH  37  38
HETATM   38  C   UNL     1     -21.682  -8.678  -3.567  1.00  0.00     0.000 C 
BRANCH  38  39
HETATM   39  C   UNL     1     -21.694  -7.864  -4.859  1.00  0.00     0.000 C 
BRANCH  39  40
HETATM   40  C   UNL     1     -20.496  -6.923  -4.883  1.00  0.00     0.000 C 
BRANCH  40  41
HETATM   41  C   UNL     1     -20.247  -6.382  -6.282  1.00  0.00     0.000 C 
BRANCH  41  42
HETATM   42  C   UNL     1     -20.350  -4.865  -6.281  1.00  0.00     0.000 C 
BRANCH  42  43
HETATM   43  C   UNL     1     -21.588  -4.422  -7.044  1.00  0.00     0.000 C 
BRANCH  43  44
HETATM   44  C   UNL     1     -21.489  -4.839  -8.502  1.00  0.00     0.000 C 
BRANCH  44  45
HETATM   45  C   UNL     1     -20.408  -4.032  -9.205  1.00  0.00     0.000 C 
BRANCH  45  46
HETATM   46  C   UNL     1     -20.341  -4.406 -10.677  1.00  0.00     0.000 C 
BRANCH  46  47
HETATM   47  C   UNL     1     -21.350  -3.596 -11.480  1.00  0.00     0.000 C 
BRANCH  47  48
HETATM   48  C   UNL     1     -22.228  -4.514 -12.315  1.00  0.00     0.000 C 
BRANCH  48  49
HETATM   49  C   UNL     1     -23.651  -4.523 -11.788  1.00  0.00    -0.000 C 
BRANCH  49  50
HETATM   50  C   UNL     1     -24.005  -3.186 -11.138  1.00  0.00    -0.005 C 
HETATM   51  C   UNL     1     -24.578  -3.388  -9.747  1.00  0.00     0.005 C 
ENDBRANCH  49  50
ENDBRANCH  48  49
ENDBRANCH  47  48
ENDBRANCH  46  47
ENDBRANCH  45  46
ENDBRANCH  44  45
ENDBRANCH  43  44
ENDBRANCH  42  43
ENDBRANCH  41  42
ENDBRANCH  40  41
ENDBRANCH  39  40
ENDBRANCH  38  39
ENDBRANCH  37  38
ENDBRANCH  36  37
ENDBRANCH  35  36
ENDBRANCH  29  35
ENDBRANCH  27  28
ENDBRANCH   1  27
BRANCH   1  52
HETATM   52  O   UNL     1     -15.450  -9.353  -4.274  1.00  0.00    -0.392 OA
HETATM   53  H   UNL     1     -15.785  -9.851  -3.507  1.00  0.00     0.210 HD
ENDBRANCH   1  52
TORSDOF 43
BEGIN_RES ARG D 557
REMARK  4 active torsions:
REMARK  status: ('A' for Active; 'I' for Inactive)
REMARK    1  A    between atoms: CA   and  CB  
REMARK    2  A    between atoms: CB   and  CG  
REMARK    3  A    between atoms: CG   and  CD  
REMARK    4  A    between atoms: CD   and  NE  
REMARK       I    between atoms: NE   and  CZ  
REMARK       I    between atoms: CZ   and  NH1 
REMARK       I    between atoms: CZ   and  NH2 
ROOT
ATOM      1  CA  ARG D 557     -26.217   2.705 -17.014  1.00 35.49     0.159 C 
ENDROOT
BRANCH   1   2
ATOM      2  CB  ARG D 557     -26.789   1.319 -17.183  1.00 35.49     0.034 C 
BRANCH   2   3
ATOM      3  CG  ARG D 557     -28.239   1.176 -17.005  1.00 35.49     0.027 C 
BRANCH   3   4
ATOM      4  CD  ARG D 557     -28.697  -0.218 -17.200  1.00 35.49     0.116 C 
BRANCH   4   5
ATOM      5  NE  ARG D 557     -27.860  -1.165 -16.511  1.00 35.49    -0.212 N 
ATOM      6  CZ  ARG D 557     -27.938  -2.473 -16.611  1.00 35.49     0.666 C 
ATOM      7  NH1 ARG D 557     -28.834  -3.075 -17.371  1.00 35.49    -0.235 N 
ATOM      8  NH2 ARG D 557     -27.082  -3.179 -15.930  1.00 35.49    -0.235 N 
ATOM      9  HH  ARG D 557     -29.406  -2.630 -17.829  1.00 35.49     0.174 HD
ATOM     10  HH  ARG D 557     -28.836  -3.931 -17.398  1.00 35.49     0.174 HD
ATOM     11  HH  ARG D 557     -26.510  -2.763 -15.453  1.00 35.49     0.174 HD
ATOM     12  HH  ARG D 557     -27.099  -4.026 -15.972  1.00 35.49     0.174 HD
ATOM     13  HE  ARG D 557     -27.302  -0.866 -15.944  1.00 35.49     0.178 HD
ENDBRANCH   4   5
ENDBRANCH   3   4
ENDBRANCH   2   3
ENDBRANCH   1   2
END_RES ARG D 557
BEGIN_RES GLU D 570
REMARK  3 active torsions:
REMARK  status: ('A' for Active; 'I' for Inactive)
REMARK    5  A    between atoms: CA   and  CB  
REMARK    6  A    between atoms: CB   and  CG  
REMARK    7  A    between atoms: CG   and  CD  
ROOT
ATOM     14  CA  GLU D 570     -18.033  -6.348 -13.375  1.00 32.92     0.160 C 
ENDROOT
BRANCH  14  15
ATOM     15  CB  GLU D 570     -19.500  -6.345 -13.794  1.00 32.92     0.043 C 
BRANCH  15  16
ATOM     16  CG  GLU D 570     -19.796  -6.378 -15.250  1.00 32.92     0.100 C 
BRANCH  16  17
ATOM     17  CD  GLU D 570     -20.937  -7.305 -15.598  1.00 32.92     0.185 C 
ATOM     18  OE1 GLU D 570     -22.087  -6.838 -15.704  1.00 32.92    -0.647 OA
ATOM     19  OE2 GLU D 570     -20.680  -8.516 -15.751  1.00 32.92    -0.647 OA
ENDBRANCH  16  17
ENDBRANCH  15  16
ENDBRANCH  14  15
END_RES GLU D 570
ENDMDL
