MODEL 1
REMARK VINA RESULT:      -7.0      0.000      0.000
REMARK  22 active torsions:
REMARK  status: ('A' for Active; 'I' for Inactive)
REMARK    1  A    between atoms: C_2  and  C_3 
REMARK    2  A    between atoms: C_3  and  C_4 
REMARK    3  A    between atoms: C_4  and  C_5 
REMARK    4  A    between atoms: C_5  and  C_6 
REMARK    5  A    between atoms: C_6  and  C_7 
REMARK    6  A    between atoms: C_7  and  C_8 
REMARK    7  A    between atoms: C_8  and  C_9 
REMARK    8  A    between atoms: C_9  and  C_10 
REMARK    9  A    between atoms: C_10  and  C_11 
REMARK   10  A    between atoms: C_11  and  C_12 
REMARK   11  A    between atoms: C_12  and  C_13 
REMARK   12  A    between atoms: C_13  and  C_14 
REMARK   13  A    between atoms: C_14  and  C_15 
REMARK   14  A    between atoms: C_15  and  C_16 
REMARK   15  A    between atoms: C_16  and  O_17 
REMARK   16  A    between atoms: O_17  and  C_18 
REMARK   17  A    between atoms: C_18  and  C_20 
REMARK   18  A    between atoms: C_20  and  C_21 
REMARK   19  A    between atoms: C_21  and  C_22 
REMARK   20  A    between atoms: C_22  and  C_23 
REMARK   21  A    between atoms: C_23  and  C_24 
REMARK   22  A    between atoms: C_24  and  C_25 
ROOT
HETATM    1  C   UNL     1     -20.871  -4.347  -8.163  1.00  0.00     0.002 C 
ENDROOT
BRANCH   1   2
HETATM    2  C   UNL     1     -19.943  -5.339  -7.476  1.00  0.00     0.000 C 
BRANCH   2   3
HETATM    3  C   UNL     1     -20.257  -5.439  -5.989  1.00  0.00     0.000 C 
BRANCH   3   4
HETATM    4  C   UNL     1     -20.548  -6.878  -5.598  1.00  0.00     0.000 C 
BRANCH   4   5
HETATM    5  C   UNL     1     -21.877  -6.968  -4.867  1.00  0.00     0.000 C 
BRANCH   5   6
HETATM    6  C   UNL     1     -21.751  -6.359  -3.479  1.00  0.00     0.000 C 
BRANCH   6   7
HETATM    7  C   UNL     1     -20.708  -7.112  -2.669  1.00  0.00     0.000 C 
BRANCH   7   8
HETATM    8  C   UNL     1     -21.381  -7.949  -1.595  1.00  0.00     0.000 C 
BRANCH   8   9
HETATM    9  C   UNL     1     -22.389  -7.107  -0.831  1.00  0.00     0.000 C 
BRANCH   9  10
HETATM   10  C   UNL     1     -22.996  -7.916   0.304  1.00  0.00     0.000 C 
BRANCH  10  11
HETATM   11  C   UNL     1     -22.521  -9.360   0.238  1.00  0.00     0.000 C 
BRANCH  11  12
HETATM   12  C   UNL     1     -23.678 -10.280  -0.125  1.00  0.00    -0.000 C 
BRANCH  12  13
HETATM   13  C   UNL     1     -23.243 -11.322  -1.148  1.00  0.00    -0.005 C 
HETATM   14  C   UNL     1     -24.065 -12.588  -1.007  1.00  0.00     0.005 C 
ENDBRANCH  12  13
ENDBRANCH  11  12
ENDBRANCH  10  11
ENDBRANCH   9  10
ENDBRANCH   8   9
ENDBRANCH   7   8
ENDBRANCH   6   7
ENDBRANCH   5   6
ENDBRANCH   4   5
ENDBRANCH   3   4
ENDBRANCH   2   3
ENDBRANCH   1   2
BRANCH   1  15
HETATM   15  C   UNL     1     -22.177  -4.192  -7.394  1.00  0.00     0.027 C 
BRANCH  15  16
HETATM   16  C   UNL     1     -23.369  -4.355  -8.321  1.00  0.00     0.178 C 
BRANCH  16  17
HETATM   17  O   UNL     1     -23.503  -3.188  -9.137  1.00  0.00    -0.321 OA
BRANCH  17  18
HETATM   18  C   UNL     1     -24.471  -3.316 -10.094  1.00  0.00     0.258 C 
HETATM   19  O   UNL     1     -25.664  -3.418  -9.882  1.00  0.00    -0.265 OA
BRANCH  18  20
HETATM   20  C   UNL     1     -23.852  -3.310 -11.470  1.00  0.00     0.111 C 
BRANCH  20  21
HETATM   21  C   UNL     1     -23.575  -4.736 -11.925  1.00  0.00     0.010 C 
BRANCH  21  22
HETATM   22  C   UNL     1     -23.106  -4.800 -13.375  1.00  0.00     0.001 C 
BRANCH  22  23
HETATM   23  C   UNL     1     -22.383  -3.502 -13.730  1.00  0.00     0.000 C 
BRANCH  23  24
HETATM   24  C   UNL     1     -22.986  -2.827 -14.959  1.00  0.00     0.004 C 
BRANCH  24  25
HETATM   25  C   UNL     1     -23.927  -1.665 -14.597  1.00  0.00    -0.023 C 
HETATM   26  C   UNL     1     -23.701  -0.438 -15.486  1.00  0.00     0.009 C 
HETATM   27  C   UNL     1     -25.382  -2.119 -14.709  1.00  0.00     0.009 C 
ENDBRANCH  24  25
ENDBRANCH  23  24
ENDBRANCH  22  23
ENDBRANCH  21  22
ENDBRANCH  20  21
ENDBRANCH  18  20
ENDBRANCH  17  18
ENDBRANCH  16  17
ENDBRANCH  15  16
ENDBRANCH   1  15
TORSDOF 22
BEGIN_RES ARG D 557
REMARK  4 active torsions:
REMARK  status: ('A' for Active; 'I' for Inactive)
REMARK    1  A    between atoms: CA   and  CB  
REMARK    2  A    between atoms: CB   and  CG  
REMARK    3  A    between atoms: CG   and  CD  
REMARK    4  A    between atoms: CD   and  NE  
REMARK       I    between atoms: NE   and  CZ  
REMARK       I    between atoms: CZ   and  NH1 
REMARK       I    between atoms: CZ   and  NH2 
ROOT
ATOM      1  CA  ARG D 557     -26.217   2.705 -17.014  1.00 35.49     0.159 C 
ENDROOT
BRANCH   1   2
ATOM      2  CB  ARG D 557     -26.789   1.319 -17.183  1.00 35.49     0.034 C 
BRANCH   2   3
ATOM      3  CG  ARG D 557     -28.143   1.095 -16.662  1.00 35.49     0.027 C 
BRANCH   3   4
ATOM      4  CD  ARG D 557     -28.797  -0.082 -17.278  1.00 35.49     0.116 C 
BRANCH   4   5
ATOM      5  NE  ARG D 557     -28.206  -1.320 -16.844  1.00 35.49    -0.212 N 
ATOM      6  CZ  ARG D 557     -28.707  -2.520 -17.038  1.00 35.49     0.666 C 
ATOM      7  NH1 ARG D 557     -29.854  -2.717 -17.662  1.00 35.49    -0.235 N 
ATOM      8  NH2 ARG D 557     -28.024  -3.535 -16.595  1.00 35.49    -0.235 N 
ATOM      9  HH  ARG D 557     -30.320  -2.064 -17.964  1.00 35.49     0.174 HD
ATOM     10  HH  ARG D 557     -30.130  -3.522 -17.761  1.00 35.49     0.174 HD
ATOM     11  HH  ARG D 557     -27.283  -3.377 -16.203  1.00 35.49     0.174 HD
ATOM     12  HH  ARG D 557     -28.313  -4.324 -16.704  1.00 35.49     0.174 HD
ATOM     13  HE  ARG D 557     -27.501  -1.282 -16.371  1.00 35.49     0.178 HD
ENDBRANCH   4   5
ENDBRANCH   3   4
ENDBRANCH   2   3
ENDBRANCH   1   2
END_RES ARG D 557
BEGIN_RES GLU D 570
REMARK  3 active torsions:
REMARK  status: ('A' for Active; 'I' for Inactive)
REMARK    5  A    between atoms: CA   and  CB  
REMARK    6  A    between atoms: CB   and  CG  
REMARK    7  A    between atoms: CG   and  CD  
ROOT
ATOM     14  CA  GLU D 570     -18.033  -6.348 -13.375  1.00 32.92     0.160 C 
ENDROOT
BRANCH  14  15
ATOM     15  CB  GLU D 570     -19.500  -6.345 -13.794  1.00 32.92     0.043 C 
BRANCH  15  16
ATOM     16  CG  GLU D 570     -20.107  -7.648 -14.169  1.00 32.92     0.100 C 
BRANCH  16  17
ATOM     17  CD  GLU D 570     -20.756  -7.625 -15.534  1.00 32.92     0.185 C 
ATOM     18  OE1 GLU D 570     -21.273  -6.566 -15.940  1.00 32.92    -0.647 OA
ATOM     19  OE2 GLU D 570     -20.763  -8.681 -16.196  1.00 32.92    -0.647 OA
ENDBRANCH  16  17
ENDBRANCH  15  16
ENDBRANCH  14  15
END_RES GLU D 570
ENDMDL
MODEL 2
REMARK VINA RESULT:      -7.0      2.522      5.409
REMARK  22 active torsions:
REMARK  status: ('A' for Active; 'I' for Inactive)
REMARK    1  A    between atoms: C_2  and  C_3 
REMARK    2  A    between atoms: C_3  and  C_4 
REMARK    3  A    between atoms: C_4  and  C_5 
REMARK    4  A    between atoms: C_5  and  C_6 
REMARK    5  A    between atoms: C_6  and  C_7 
REMARK    6  A    between atoms: C_7  and  C_8 
REMARK    7  A    between atoms: C_8  and  C_9 
REMARK    8  A    between atoms: C_9  and  C_10 
REMARK    9  A    between atoms: C_10  and  C_11 
REMARK   10  A    between atoms: C_11  and  C_12 
REMARK   11  A    between atoms: C_12  and  C_13 
REMARK   12  A    between atoms: C_13  and  C_14 
REMARK   13  A    between atoms: C_14  and  C_15 
REMARK   14  A    between atoms: C_15  and  C_16 
REMARK   15  A    between atoms: C_16  and  O_17 
REMARK   16  A    between atoms: O_17  and  C_18 
REMARK   17  A    between atoms: C_18  and  C_20 
REMARK   18  A    between atoms: C_20  and  C_21 
REMARK   19  A    between atoms: C_21  and  C_22 
REMARK   20  A    between atoms: C_22  and  C_23 
REMARK   21  A    between atoms: C_23  and  C_24 
REMARK   22  A    between atoms: C_24  and  C_25 
ROOT
HETATM    1  C   UNL     1     -21.224  -7.322  -1.923  1.00  0.00     0.002 C 
ENDROOT
BRANCH   1   2
HETATM    2  C   UNL     1     -22.317  -7.028  -0.904  1.00  0.00     0.000 C 
BRANCH   2   3
HETATM    3  C   UNL     1     -22.180  -7.929   0.317  1.00  0.00     0.000 C 
BRANCH   3   4
HETATM    4  C   UNL     1     -23.475  -8.679   0.578  1.00  0.00     0.000 C 
BRANCH   4   5
HETATM    5  C   UNL     1     -23.439 -10.041  -0.093  1.00  0.00     0.000 C 
BRANCH   5   6
HETATM    6  C   UNL     1     -22.014 -10.567  -0.132  1.00  0.00     0.000 C 
BRANCH   6   7
HETATM    7  C   UNL     1     -21.816 -11.459  -1.347  1.00  0.00     0.000 C 
BRANCH   7   8
HETATM    8  C   UNL     1     -22.938 -11.239  -2.347  1.00  0.00     0.000 C 
BRANCH   8   9
HETATM    9  C   UNL     1     -22.438 -10.412  -3.520  1.00  0.00     0.000 C 
BRANCH   9  10
HETATM   10  C   UNL     1     -21.403 -11.195  -4.312  1.00  0.00     0.000 C 
BRANCH  10  11
HETATM   11  C   UNL     1     -20.759 -10.307  -5.366  1.00  0.00     0.000 C 
BRANCH  11  12
HETATM   12  C   UNL     1     -19.253 -10.242  -5.153  1.00  0.00    -0.000 C 
BRANCH  12  13
HETATM   13  C   UNL     1     -18.879  -9.054  -4.277  1.00  0.00    -0.005 C 
HETATM   14  C   UNL     1     -18.388  -9.521  -2.919  1.00  0.00     0.005 C 
ENDBRANCH  12  13
ENDBRANCH  11  12
ENDBRANCH  10  11
ENDBRANCH   9  10
ENDBRANCH   8   9
ENDBRANCH   7   8
ENDBRANCH   6   7
ENDBRANCH   5   6
ENDBRANCH   4   5
ENDBRANCH   3   4
ENDBRANCH   2   3
ENDBRANCH   1   2
BRANCH   1  15
HETATM   15  C   UNL     1     -21.221  -6.286  -3.039  1.00  0.00     0.027 C 
BRANCH  15  16
HETATM   16  C   UNL     1     -22.027  -6.776  -4.230  1.00  0.00     0.178 C 
BRANCH  16  17
HETATM   17  O   UNL     1     -21.226  -6.701  -5.413  1.00  0.00    -0.321 OA
BRANCH  17  18
HETATM   18  C   UNL     1     -21.424  -5.547  -6.116  1.00  0.00     0.258 C 
HETATM   19  O   UNL     1     -22.497  -5.004  -6.294  1.00  0.00    -0.265 OA
BRANCH  18  20
HETATM   20  C   UNL     1     -20.112  -5.024  -6.648  1.00  0.00     0.111 C 
BRANCH  20  21
HETATM   21  C   UNL     1     -20.363  -3.989  -7.736  1.00  0.00     0.010 C 
BRANCH  21  22
HETATM   22  C   UNL     1     -20.228  -4.577  -9.136  1.00  0.00     0.001 C 
BRANCH  22  23
HETATM   23  C   UNL     1     -21.392  -4.095 -10.002  1.00  0.00     0.000 C 
BRANCH  23  24
HETATM   24  C   UNL     1     -22.529  -3.517  -9.162  1.00  0.00     0.004 C 
BRANCH  24  25
HETATM   25  C   UNL     1     -23.878  -4.202  -9.441  1.00  0.00    -0.023 C 
HETATM   26  C   UNL     1     -24.993  -3.192  -9.728  1.00  0.00     0.009 C 
HETATM   27  C   UNL     1     -23.740  -5.162 -10.623  1.00  0.00     0.009 C 
ENDBRANCH  24  25
ENDBRANCH  23  24
ENDBRANCH  22  23
ENDBRANCH  21  22
ENDBRANCH  20  21
ENDBRANCH  18  20
ENDBRANCH  17  18
ENDBRANCH  16  17
ENDBRANCH  15  16
ENDBRANCH   1  15
TORSDOF 22
BEGIN_RES ARG D 557
REMARK  4 active torsions:
REMARK  status: ('A' for Active; 'I' for Inactive)
REMARK    1  A    between atoms: CA   and  CB  
REMARK    2  A    between atoms: CB   and  CG  
REMARK    3  A    between atoms: CG   and  CD  
REMARK    4  A    between atoms: CD   and  NE  
REMARK       I    between atoms: NE   and  CZ  
REMARK       I    between atoms: CZ   and  NH1 
REMARK       I    between atoms: CZ   and  NH2 
ROOT
ATOM      1  CA  ARG D 557     -26.217   2.705 -17.014  1.00 35.49     0.159 C 
ENDROOT
BRANCH   1   2
ATOM      2  CB  ARG D 557     -26.789   1.319 -17.183  1.00 35.49     0.034 C 
BRANCH   2   3
ATOM      3  CG  ARG D 557     -25.839   0.201 -17.131  1.00 35.49     0.027 C 
BRANCH   3   4
ATOM      4  CD  ARG D 557     -24.752   0.429 -16.152  1.00 35.49     0.116 C 
BRANCH   4   5
ATOM      5  NE  ARG D 557     -24.876  -0.421 -14.997  1.00 35.49    -0.212 N 
ATOM      6  CZ  ARG D 557     -24.048  -1.385 -14.661  1.00 35.49     0.666 C 
ATOM      7  NH1 ARG D 557     -22.986  -1.692 -15.383  1.00 35.49    -0.235 N 
ATOM      8  NH2 ARG D 557     -24.304  -2.042 -13.567  1.00 35.49    -0.235 N 
ATOM      9  HH  ARG D 557     -22.798  -1.272 -16.106  1.00 35.49     0.174 HD
ATOM     10  HH  ARG D 557     -22.481  -2.329 -15.113  1.00 35.49     0.174 HD
ATOM     11  HH  ARG D 557     -24.993  -1.817 -13.117  1.00 35.49     0.174 HD
ATOM     12  HH  ARG D 557     -23.791  -2.668 -13.316  1.00 35.49     0.174 HD
ATOM     13  HE  ARG D 557     -25.571  -0.341 -14.515  1.00 35.49     0.178 HD
ENDBRANCH   4   5
ENDBRANCH   3   4
ENDBRANCH   2   3
ENDBRANCH   1   2
END_RES ARG D 557
BEGIN_RES GLU D 570
REMARK  3 active torsions:
REMARK  status: ('A' for Active; 'I' for Inactive)
REMARK    5  A    between atoms: CA   and  CB  
REMARK    6  A    between atoms: CB   and  CG  
REMARK    7  A    between atoms: CG   and  CD  
ROOT
ATOM     14  CA  GLU D 570     -18.033  -6.348 -13.375  1.00 32.92     0.160 C 
ENDROOT
BRANCH  14  15
ATOM     15  CB  GLU D 570     -19.500  -6.345 -13.794  1.00 32.92     0.043 C 
BRANCH  15  16
ATOM     16  CG  GLU D 570     -20.445  -5.544 -12.973  1.00 32.92     0.100 C 
BRANCH  16  17
ATOM     17  CD  GLU D 570     -21.732  -5.228 -13.697  1.00 32.92     0.185 C 
ATOM     18  OE1 GLU D 570     -22.211  -4.081 -13.607  1.00 32.92    -0.647 OA
ATOM     19  OE2 GLU D 570     -22.277  -6.141 -14.348  1.00 32.92    -0.647 OA
ENDBRANCH  16  17
ENDBRANCH  15  16
ENDBRANCH  14  15
END_RES GLU D 570
ENDMDL
MODEL 3
REMARK VINA RESULT:      -6.8      2.503      5.432
REMARK  22 active torsions:
REMARK  status: ('A' for Active; 'I' for Inactive)
REMARK    1  A    between atoms: C_2  and  C_3 
REMARK    2  A    between atoms: C_3  and  C_4 
REMARK    3  A    between atoms: C_4  and  C_5 
REMARK    4  A    between atoms: C_5  and  C_6 
REMARK    5  A    between atoms: C_6  and  C_7 
REMARK    6  A    between atoms: C_7  and  C_8 
REMARK    7  A    between atoms: C_8  and  C_9 
REMARK    8  A    between atoms: C_9  and  C_10 
REMARK    9  A    between atoms: C_10  and  C_11 
REMARK   10  A    between atoms: C_11  and  C_12 
REMARK   11  A    between atoms: C_12  and  C_13 
REMARK   12  A    between atoms: C_13  and  C_14 
REMARK   13  A    between atoms: C_14  and  C_15 
REMARK   14  A    between atoms: C_15  and  C_16 
REMARK   15  A    between atoms: C_16  and  O_17 
REMARK   16  A    between atoms: O_17  and  C_18 
REMARK   17  A    between atoms: C_18  and  C_20 
REMARK   18  A    between atoms: C_20  and  C_21 
REMARK   19  A    between atoms: C_21  and  C_22 
REMARK   20  A    between atoms: C_22  and  C_23 
REMARK   21  A    between atoms: C_23  and  C_24 
REMARK   22  A    between atoms: C_24  and  C_25 
ROOT
HETATM    1  C   UNL     1     -22.389  -6.998  -1.054  1.00  0.00     0.002 C 
ENDROOT
BRANCH   1   2
HETATM    2  C   UNL     1     -21.241  -7.908  -0.634  1.00  0.00     0.000 C 
BRANCH   2   3
HETATM    3  C   UNL     1     -21.752  -9.085   0.188  1.00  0.00     0.000 C 
BRANCH   3   4
HETATM    4  C   UNL     1     -23.269  -9.145   0.152  1.00  0.00     0.000 C 
BRANCH   4   5
HETATM    5  C   UNL     1     -23.731 -10.526  -0.283  1.00  0.00     0.000 C 
BRANCH   5   6
HETATM    6  C   UNL     1     -22.651 -11.200  -1.113  1.00  0.00     0.000 C 
BRANCH   6   7
HETATM    7  C   UNL     1     -23.032 -11.179  -2.585  1.00  0.00     0.000 C 
BRANCH   7   8
HETATM    8  C   UNL     1     -21.983 -10.429  -3.387  1.00  0.00     0.000 C 
BRANCH   8   9
HETATM    9  C   UNL     1     -20.606 -11.022  -3.133  1.00  0.00     0.000 C 
BRANCH   9  10
HETATM   10  C   UNL     1     -19.579  -9.914  -2.970  1.00  0.00     0.000 C 
BRANCH  10  11
HETATM   11  C   UNL     1     -18.902  -9.620  -4.301  1.00  0.00     0.000 C 
BRANCH  11  12
HETATM   12  C   UNL     1     -17.396  -9.804  -4.179  1.00  0.00    -0.000 C 
BRANCH  12  13
HETATM   13  C   UNL     1     -16.943  -9.630  -2.735  1.00  0.00    -0.005 C 
HETATM   14  C   UNL     1     -15.650 -10.383  -2.484  1.00  0.00     0.005 C 
ENDBRANCH  12  13
ENDBRANCH  11  12
ENDBRANCH  10  11
ENDBRANCH   9  10
ENDBRANCH   8   9
ENDBRANCH   7   8
ENDBRANCH   6   7
ENDBRANCH   5   6
ENDBRANCH   4   5
ENDBRANCH   3   4
ENDBRANCH   2   3
ENDBRANCH   1   2
BRANCH   1  15
HETATM   15  C   UNL     1     -21.991  -6.121  -2.233  1.00  0.00     0.027 C 
BRANCH  15  16
HETATM   16  C   UNL     1     -21.640  -6.972  -3.442  1.00  0.00     0.178 C 
BRANCH  16  17
HETATM   17  O   UNL     1     -21.194  -6.128  -4.508  1.00  0.00    -0.321 OA
BRANCH  17  18
HETATM   18  C   UNL     1     -20.903  -6.821  -5.649  1.00  0.00     0.258 C 
HETATM   19  O   UNL     1     -21.386  -7.891  -5.967  1.00  0.00    -0.265 OA
BRANCH  18  20
HETATM   20  C   UNL     1     -19.890  -6.069  -6.476  1.00  0.00     0.111 C 
BRANCH  20  21
HETATM   21  C   UNL     1     -20.284  -4.601  -6.576  1.00  0.00     0.010 C 
BRANCH  21  22
HETATM   22  C   UNL     1     -19.792  -3.957  -7.868  1.00  0.00     0.001 C 
BRANCH  22  23
HETATM   23  C   UNL     1     -20.361  -4.721  -9.062  1.00  0.00     0.000 C 
BRANCH  23  24
HETATM   24  C   UNL     1     -21.791  -4.294  -9.387  1.00  0.00     0.004 C 
BRANCH  24  25
HETATM   25  C   UNL     1     -22.100  -4.353 -10.893  1.00  0.00    -0.023 C 
HETATM   26  C   UNL     1     -23.544  -4.780 -11.173  1.00  0.00     0.009 C 
HETATM   27  C   UNL     1     -21.836  -2.989 -11.531  1.00  0.00     0.009 C 
ENDBRANCH  24  25
ENDBRANCH  23  24
ENDBRANCH  22  23
ENDBRANCH  21  22
ENDBRANCH  20  21
ENDBRANCH  18  20
ENDBRANCH  17  18
ENDBRANCH  16  17
ENDBRANCH  15  16
ENDBRANCH   1  15
TORSDOF 22
BEGIN_RES ARG D 557
REMARK  4 active torsions:
REMARK  status: ('A' for Active; 'I' for Inactive)
REMARK    1  A    between atoms: CA   and  CB  
REMARK    2  A    between atoms: CB   and  CG  
REMARK    3  A    between atoms: CG   and  CD  
REMARK    4  A    between atoms: CD   and  NE  
REMARK       I    between atoms: NE   and  CZ  
REMARK       I    between atoms: CZ   and  NH1 
REMARK       I    between atoms: CZ   and  NH2 
ROOT
ATOM      1  CA  ARG D 557     -26.217   2.705 -17.014  1.00 35.49     0.159 C 
ENDROOT
BRANCH   1   2
ATOM      2  CB  ARG D 557     -26.789   1.319 -17.183  1.00 35.49     0.034 C 
BRANCH   2   3
ATOM      3  CG  ARG D 557     -28.231   1.226 -17.442  1.00 35.49     0.027 C 
BRANCH   3   4
ATOM      4  CD  ARG D 557     -28.915   0.307 -16.504  1.00 35.49     0.116 C 
BRANCH   4   5
ATOM      5  NE  ARG D 557     -29.299  -0.927 -17.138  1.00 35.49    -0.212 N 
ATOM      6  CZ  ARG D 557     -28.663  -2.073 -17.037  1.00 35.49     0.666 C 
ATOM      7  NH1 ARG D 557     -27.557  -2.210 -16.330  1.00 35.49    -0.235 N 
ATOM      8  NH2 ARG D 557     -29.167  -3.096 -17.664  1.00 35.49    -0.235 N 
ATOM      9  HH  ARG D 557     -27.209  -1.550 -15.907  1.00 35.49     0.174 HD
ATOM     10  HH  ARG D 557     -27.187  -2.982 -16.298  1.00 35.49     0.174 HD
ATOM     11  HH  ARG D 557     -29.886  -2.979 -18.107  1.00 35.49     0.174 HD
ATOM     12  HH  ARG D 557     -28.787  -3.853 -17.619  1.00 35.49     0.174 HD
ATOM     13  HE  ARG D 557     -29.961  -0.912 -17.672  1.00 35.49     0.178 HD
ENDBRANCH   4   5
ENDBRANCH   3   4
ENDBRANCH   2   3
ENDBRANCH   1   2
END_RES ARG D 557
BEGIN_RES GLU D 570
REMARK  3 active torsions:
REMARK  status: ('A' for Active; 'I' for Inactive)
REMARK    5  A    between atoms: CA   and  CB  
REMARK    6  A    between atoms: CB   and  CG  
REMARK    7  A    between atoms: CG   and  CD  
ROOT
ATOM     14  CA  GLU D 570     -18.033  -6.348 -13.375  1.00 32.92     0.160 C 
ENDROOT
BRANCH  14  15
ATOM     15  CB  GLU D 570     -19.500  -6.345 -13.794  1.00 32.92     0.043 C 
BRANCH  15  16
ATOM     16  CG  GLU D 570     -19.805  -6.049 -15.218  1.00 32.92     0.100 C 
BRANCH  16  17
ATOM     17  CD  GLU D 570     -21.152  -5.391 -15.408  1.00 32.92     0.185 C 
ATOM     18  OE1 GLU D 570     -21.494  -5.032 -16.550  1.00 32.92    -0.647 OA
ATOM     19  OE2 GLU D 570     -21.865  -5.219 -14.400  1.00 32.92    -0.647 OA
ENDBRANCH  16  17
ENDBRANCH  15  16
ENDBRANCH  14  15
END_RES GLU D 570
ENDMDL
MODEL 4
REMARK VINA RESULT:      -6.8      3.172      9.346
REMARK  22 active torsions:
REMARK  status: ('A' for Active; 'I' for Inactive)
REMARK    1  A    between atoms: C_2  and  C_3 
REMARK    2  A    between atoms: C_3  and  C_4 
REMARK    3  A    between atoms: C_4  and  C_5 
REMARK    4  A    between atoms: C_5  and  C_6 
REMARK    5  A    between atoms: C_6  and  C_7 
REMARK    6  A    between atoms: C_7  and  C_8 
REMARK    7  A    between atoms: C_8  and  C_9 
REMARK    8  A    between atoms: C_9  and  C_10 
REMARK    9  A    between atoms: C_10  and  C_11 
REMARK   10  A    between atoms: C_11  and  C_12 
REMARK   11  A    between atoms: C_12  and  C_13 
REMARK   12  A    between atoms: C_13  and  C_14 
REMARK   13  A    between atoms: C_14  and  C_15 
REMARK   14  A    between atoms: C_15  and  C_16 
REMARK   15  A    between atoms: C_16  and  O_17 
REMARK   16  A    between atoms: O_17  and  C_18 
REMARK   17  A    between atoms: C_18  and  C_20 
REMARK   18  A    between atoms: C_20  and  C_21 
REMARK   19  A    between atoms: C_21  and  C_22 
REMARK   20  A    between atoms: C_22  and  C_23 
REMARK   21  A    between atoms: C_23  and  C_24 
REMARK   22  A    between atoms: C_24  and  C_25 
ROOT
HETATM    1  C   UNL     1     -19.015  -9.236  -5.138  1.00  0.00     0.002 C 
ENDROOT
BRANCH   1   2
HETATM    2  C   UNL     1     -19.202  -8.966  -3.651  1.00  0.00     0.000 C 
BRANCH   2   3
HETATM    3  C   UNL     1     -20.485  -8.185  -3.396  1.00  0.00     0.000 C 
BRANCH   3   4
HETATM    4  C   UNL     1     -21.286  -8.037  -4.678  1.00  0.00     0.000 C 
BRANCH   4   5
HETATM    5  C   UNL     1     -22.129  -6.774  -4.630  1.00  0.00     0.000 C 
BRANCH   5   6
HETATM    6  C   UNL     1     -21.760  -5.857  -5.785  1.00  0.00     0.000 C 
BRANCH   6   7
HETATM    7  C   UNL     1     -20.456  -5.136  -5.486  1.00  0.00     0.000 C 
BRANCH   7   8
HETATM    8  C   UNL     1     -19.593  -5.073  -6.735  1.00  0.00     0.000 C 
BRANCH   8   9
HETATM    9  C   UNL     1     -20.090  -3.972  -7.658  1.00  0.00     0.000 C 
BRANCH   9  10
HETATM   10  C   UNL     1     -20.087  -4.454  -9.100  1.00  0.00     0.000 C 
BRANCH  10  11
HETATM   11  C   UNL     1     -21.498  -4.431  -9.669  1.00  0.00     0.000 C 
BRANCH  11  12
HETATM   12  C   UNL     1     -22.440  -3.708  -8.717  1.00  0.00    -0.000 C 
BRANCH  12  13
HETATM   13  C   UNL     1     -23.891  -4.060  -9.017  1.00  0.00    -0.005 C 
HETATM   14  C   UNL     1     -24.016  -4.693 -10.390  1.00  0.00     0.005 C 
ENDBRANCH  12  13
ENDBRANCH  11  12
ENDBRANCH  10  11
ENDBRANCH   9  10
ENDBRANCH   8   9
ENDBRANCH   7   8
ENDBRANCH   6   7
ENDBRANCH   5   6
ENDBRANCH   4   5
ENDBRANCH   3   4
ENDBRANCH   2   3
ENDBRANCH   1   2
BRANCH   1  15
HETATM   15  C   UNL     1     -18.780 -10.718  -5.402  1.00  0.00     0.027 C 
BRANCH  15  16
HETATM   16  C   UNL     1     -19.159 -11.547  -4.186  1.00  0.00     0.178 C 
BRANCH  16  17
HETATM   17  O   UNL     1     -20.190 -12.473  -4.543  1.00  0.00    -0.321 OA
BRANCH  17  18
HETATM   18  C   UNL     1     -21.445 -11.990  -4.302  1.00  0.00     0.258 C 
HETATM   19  O   UNL     1     -22.279 -11.737  -5.151  1.00  0.00    -0.265 OA
BRANCH  18  20
HETATM   20  C   UNL     1     -21.665 -11.813  -2.820  1.00  0.00     0.111 C 
BRANCH  20  21
HETATM   21  C   UNL     1     -22.808 -10.837  -2.573  1.00  0.00     0.010 C 
BRANCH  21  22
HETATM   22  C   UNL     1     -23.721 -11.291  -1.439  1.00  0.00     0.001 C 
BRANCH  22  23
HETATM   23  C   UNL     1     -23.182 -10.757  -0.113  1.00  0.00     0.000 C 
BRANCH  23  24
HETATM   24  C   UNL     1     -23.653  -9.332   0.166  1.00  0.00     0.004 C 
BRANCH  24  25
HETATM   25  C   UNL     1     -22.490  -8.372   0.471  1.00  0.00    -0.023 C 
HETATM   26  C   UNL     1     -21.132  -9.079   0.443  1.00  0.00     0.009 C 
HETATM   27  C   UNL     1     -22.489  -7.220  -0.534  1.00  0.00     0.009 C 
ENDBRANCH  24  25
ENDBRANCH  23  24
ENDBRANCH  22  23
ENDBRANCH  21  22
ENDBRANCH  20  21
ENDBRANCH  18  20
ENDBRANCH  17  18
ENDBRANCH  16  17
ENDBRANCH  15  16
ENDBRANCH   1  15
TORSDOF 22
BEGIN_RES ARG D 557
REMARK  4 active torsions:
REMARK  status: ('A' for Active; 'I' for Inactive)
REMARK    1  A    between atoms: CA   and  CB  
REMARK    2  A    between atoms: CB   and  CG  
REMARK    3  A    between atoms: CG   and  CD  
REMARK    4  A    between atoms: CD   and  NE  
REMARK       I    between atoms: NE   and  CZ  
REMARK       I    between atoms: CZ   and  NH1 
REMARK       I    between atoms: CZ   and  NH2 
ROOT
ATOM      1  CA  ARG D 557     -26.217   2.705 -17.014  1.00 35.49     0.159 C 
ENDROOT
BRANCH   1   2
ATOM      2  CB  ARG D 557     -26.789   1.319 -17.183  1.00 35.49     0.034 C 
BRANCH   2   3
ATOM      3  CG  ARG D 557     -25.938   0.198 -16.767  1.00 35.49     0.027 C 
BRANCH   3   4
ATOM      4  CD  ARG D 557     -26.703  -0.866 -16.077  1.00 35.49     0.116 C 
BRANCH   4   5
ATOM      5  NE  ARG D 557     -25.948  -1.474 -15.013  1.00 35.49    -0.212 N 
ATOM      6  CZ  ARG D 557     -25.952  -2.750 -14.700  1.00 35.49     0.666 C 
ATOM      7  NH1 ARG D 557     -26.688  -3.636 -15.346  1.00 35.49    -0.235 N 
ATOM      8  NH2 ARG D 557     -25.188  -3.130 -13.717  1.00 35.49    -0.235 N 
ATOM      9  HH  ARG D 557     -27.196  -3.409 -15.997  1.00 35.49     0.174 HD
ATOM     10  HH  ARG D 557     -26.648  -4.455 -15.099  1.00 35.49     0.174 HD
ATOM     11  HH  ARG D 557     -24.718  -2.537 -13.324  1.00 35.49     0.174 HD
ATOM     12  HH  ARG D 557     -25.161  -3.946 -13.489  1.00 35.49     0.174 HD
ATOM     13  HE  ARG D 557     -25.501  -0.964 -14.499  1.00 35.49     0.178 HD
ENDBRANCH   4   5
ENDBRANCH   3   4
ENDBRANCH   2   3
ENDBRANCH   1   2
END_RES ARG D 557
BEGIN_RES GLU D 570
REMARK  3 active torsions:
REMARK  status: ('A' for Active; 'I' for Inactive)
REMARK    5  A    between atoms: CA   and  CB  
REMARK    6  A    between atoms: CB   and  CG  
REMARK    7  A    between atoms: CG   and  CD  
ROOT
ATOM     14  CA  GLU D 570     -18.033  -6.348 -13.375  1.00 32.92     0.160 C 
ENDROOT
BRANCH  14  15
ATOM     15  CB  GLU D 570     -19.500  -6.345 -13.794  1.00 32.92     0.043 C 
BRANCH  15  16
ATOM     16  CG  GLU D 570     -20.440  -5.522 -12.990  1.00 32.92     0.100 C 
BRANCH  16  17
ATOM     17  CD  GLU D 570     -21.731  -5.223 -13.716  1.00 32.92     0.185 C 
ATOM     18  OE1 GLU D 570     -22.171  -6.053 -14.534  1.00 32.92    -0.647 OA
ATOM     19  OE2 GLU D 570     -22.299  -4.139 -13.477  1.00 32.92    -0.647 OA
ENDBRANCH  16  17
ENDBRANCH  15  16
ENDBRANCH  14  15
END_RES GLU D 570
ENDMDL
MODEL 5
REMARK VINA RESULT:      -6.7      3.000     10.633
REMARK  22 active torsions:
REMARK  status: ('A' for Active; 'I' for Inactive)
REMARK    1  A    between atoms: C_2  and  C_3 
REMARK    2  A    between atoms: C_3  and  C_4 
REMARK    3  A    between atoms: C_4  and  C_5 
REMARK    4  A    between atoms: C_5  and  C_6 
REMARK    5  A    between atoms: C_6  and  C_7 
REMARK    6  A    between atoms: C_7  and  C_8 
REMARK    7  A    between atoms: C_8  and  C_9 
REMARK    8  A    between atoms: C_9  and  C_10 
REMARK    9  A    between atoms: C_10  and  C_11 
REMARK   10  A    between atoms: C_11  and  C_12 
REMARK   11  A    between atoms: C_12  and  C_13 
REMARK   12  A    between atoms: C_13  and  C_14 
REMARK   13  A    between atoms: C_14  and  C_15 
REMARK   14  A    between atoms: C_15  and  C_16 
REMARK   15  A    between atoms: C_16  and  O_17 
REMARK   16  A    between atoms: O_17  and  C_18 
REMARK   17  A    between atoms: C_18  and  C_20 
REMARK   18  A    between atoms: C_20  and  C_21 
REMARK   19  A    between atoms: C_21  and  C_22 
REMARK   20  A    between atoms: C_22  and  C_23 
REMARK   21  A    between atoms: C_23  and  C_24 
REMARK   22  A    between atoms: C_24  and  C_25 
ROOT
HETATM    1  C   UNL     1     -21.429  -6.803  -3.126  1.00  0.00     0.002 C 
ENDROOT
BRANCH   1   2
HETATM    2  C   UNL     1     -22.124  -6.595  -4.465  1.00  0.00     0.000 C 
BRANCH   2   3
HETATM    3  C   UNL     1     -21.394  -7.337  -5.578  1.00  0.00     0.000 C 
BRANCH   3   4
HETATM    4  C   UNL     1     -20.104  -6.622  -5.943  1.00  0.00     0.000 C 
BRANCH   4   5
HETATM    5  C   UNL     1     -20.296  -5.806  -7.210  1.00  0.00     0.000 C 
BRANCH   5   6
HETATM    6  C   UNL     1     -20.289  -4.322  -6.880  1.00  0.00     0.000 C 
BRANCH   6   7
HETATM    7  C   UNL     1     -21.565  -3.667  -7.384  1.00  0.00     0.000 C 
BRANCH   7   8
HETATM    8  C   UNL     1     -22.442  -4.692  -8.080  1.00  0.00     0.000 C 
BRANCH   8   9
HETATM    9  C   UNL     1     -23.623  -4.005  -8.745  1.00  0.00     0.000 C 
BRANCH   9  10
HETATM   10  C   UNL     1     -23.755  -4.466 -10.188  1.00  0.00     0.000 C 
BRANCH  10  11
HETATM   11  C   UNL     1     -23.821  -3.268 -11.123  1.00  0.00     0.000 C 
BRANCH  11  12
HETATM   12  C   UNL     1     -22.655  -3.296 -12.101  1.00  0.00    -0.000 C 
BRANCH  12  13
HETATM   13  C   UNL     1     -21.582  -4.272 -11.638  1.00  0.00    -0.005 C 
HETATM   14  C   UNL     1     -20.416  -3.530 -11.013  1.00  0.00     0.005 C 
ENDBRANCH  12  13
ENDBRANCH  11  12
ENDBRANCH  10  11
ENDBRANCH   9  10
ENDBRANCH   8   9
ENDBRANCH   7   8
ENDBRANCH   6   7
ENDBRANCH   5   6
ENDBRANCH   4   5
ENDBRANCH   3   4
ENDBRANCH   2   3
ENDBRANCH   1   2
BRANCH   1  15
HETATM   15  C   UNL     1     -22.167  -6.079  -2.006  1.00  0.00     0.027 C 
BRANCH  15  16
HETATM   16  C   UNL     1     -22.310  -6.977  -0.789  1.00  0.00     0.178 C 
BRANCH  16  17
HETATM   17  O   UNL     1     -21.298  -7.988  -0.820  1.00  0.00    -0.321 OA
BRANCH  17  18
HETATM   18  C   UNL     1     -21.636  -9.101  -0.103  1.00  0.00     0.258 C 
HETATM   19  O   UNL     1     -20.902  -9.700   0.660  1.00  0.00    -0.265 OA
BRANCH  18  20
HETATM   20  C   UNL     1     -23.066  -9.492  -0.385  1.00  0.00     0.111 C 
BRANCH  20  21
HETATM   21  C   UNL     1     -23.341 -10.892   0.150  1.00  0.00     0.010 C 
BRANCH  21  22
HETATM   22  C   UNL     1     -24.125 -11.745  -0.840  1.00  0.00     0.001 C 
BRANCH  22  23
HETATM   23  C   UNL     1     -23.760 -13.215  -0.640  1.00  0.00     0.000 C 
BRANCH  23  24
HETATM   24  C   UNL     1     -22.791 -13.412   0.523  1.00  0.00     0.004 C 
BRANCH  24  25
HETATM   25  C   UNL     1     -23.437 -14.134   1.718  1.00  0.00    -0.023 C 
HETATM   26  C   UNL     1     -24.097 -15.454   1.310  1.00  0.00     0.009 C 
HETATM   27  C   UNL     1     -22.386 -14.398   2.796  1.00  0.00     0.009 C 
ENDBRANCH  24  25
ENDBRANCH  23  24
ENDBRANCH  22  23
ENDBRANCH  21  22
ENDBRANCH  20  21
ENDBRANCH  18  20
ENDBRANCH  17  18
ENDBRANCH  16  17
ENDBRANCH  15  16
ENDBRANCH   1  15
TORSDOF 22
BEGIN_RES ARG D 557
REMARK  4 active torsions:
REMARK  status: ('A' for Active; 'I' for Inactive)
REMARK    1  A    between atoms: CA   and  CB  
REMARK    2  A    between atoms: CB   and  CG  
REMARK    3  A    between atoms: CG   and  CD  
REMARK    4  A    between atoms: CD   and  NE  
REMARK       I    between atoms: NE   and  CZ  
REMARK       I    between atoms: CZ   and  NH1 
REMARK       I    between atoms: CZ   and  NH2 
ROOT
ATOM      1  CA  ARG D 557     -26.217   2.705 -17.014  1.00 35.49     0.159 C 
ENDROOT
BRANCH   1   2
ATOM      2  CB  ARG D 557     -26.789   1.319 -17.183  1.00 35.49     0.034 C 
BRANCH   2   3
ATOM      3  CG  ARG D 557     -28.148   1.099 -16.675  1.00 35.49     0.027 C 
BRANCH   3   4
ATOM      4  CD  ARG D 557     -28.790  -0.092 -17.277  1.00 35.49     0.116 C 
BRANCH   4   5
ATOM      5  NE  ARG D 557     -28.165  -1.317 -16.855  1.00 35.49    -0.212 N 
ATOM      6  CZ  ARG D 557     -28.645  -2.527 -17.037  1.00 35.49     0.666 C 
ATOM      7  NH1 ARG D 557     -29.800  -2.749 -17.637  1.00 35.49    -0.235 N 
ATOM      8  NH2 ARG D 557     -27.932  -3.527 -16.607  1.00 35.49    -0.235 N 
ATOM      9  HH  ARG D 557     -30.285  -2.106 -17.931  1.00 35.49     0.174 HD
ATOM     10  HH  ARG D 557     -30.061  -3.560 -17.731  1.00 35.49     0.174 HD
ATOM     11  HH  ARG D 557     -27.187  -3.354 -16.229  1.00 35.49     0.174 HD
ATOM     12  HH  ARG D 557     -28.207  -4.323 -16.710  1.00 35.49     0.174 HD
ATOM     13  HE  ARG D 557     -27.452  -1.264 -16.395  1.00 35.49     0.178 HD
ENDBRANCH   4   5
ENDBRANCH   3   4
ENDBRANCH   2   3
ENDBRANCH   1   2
END_RES ARG D 557
BEGIN_RES GLU D 570
REMARK  3 active torsions:
REMARK  status: ('A' for Active; 'I' for Inactive)
REMARK    5  A    between atoms: CA   and  CB  
REMARK    6  A    between atoms: CB   and  CG  
REMARK    7  A    between atoms: CG   and  CD  
ROOT
ATOM     14  CA  GLU D 570     -18.033  -6.348 -13.375  1.00 32.92     0.160 C 
ENDROOT
BRANCH  14  15
ATOM     15  CB  GLU D 570     -19.500  -6.345 -13.794  1.00 32.92     0.043 C 
BRANCH  15  16
ATOM     16  CG  GLU D 570     -19.820  -5.864 -15.163  1.00 32.92     0.100 C 
BRANCH  16  17
ATOM     17  CD  GLU D 570     -21.305  -5.744 -15.413  1.00 32.92     0.185 C 
ATOM     18  OE1 GLU D 570     -22.100  -6.189 -14.563  1.00 32.92    -0.647 OA
ATOM     19  OE2 GLU D 570     -21.678  -5.215 -16.479  1.00 32.92    -0.647 OA
ENDBRANCH  16  17
ENDBRANCH  15  16
ENDBRANCH  14  15
END_RES GLU D 570
ENDMDL
MODEL 6
REMARK VINA RESULT:      -6.7      4.193      9.468
REMARK  22 active torsions:
REMARK  status: ('A' for Active; 'I' for Inactive)
REMARK    1  A    between atoms: C_2  and  C_3 
REMARK    2  A    between atoms: C_3  and  C_4 
REMARK    3  A    between atoms: C_4  and  C_5 
REMARK    4  A    between atoms: C_5  and  C_6 
REMARK    5  A    between atoms: C_6  and  C_7 
REMARK    6  A    between atoms: C_7  and  C_8 
REMARK    7  A    between atoms: C_8  and  C_9 
REMARK    8  A    between atoms: C_9  and  C_10 
REMARK    9  A    between atoms: C_10  and  C_11 
REMARK   10  A    between atoms: C_11  and  C_12 
REMARK   11  A    between atoms: C_12  and  C_13 
REMARK   12  A    between atoms: C_13  and  C_14 
REMARK   13  A    between atoms: C_14  and  C_15 
REMARK   14  A    between atoms: C_15  and  C_16 
REMARK   15  A    between atoms: C_16  and  O_17 
REMARK   16  A    between atoms: O_17  and  C_18 
REMARK   17  A    between atoms: C_18  and  C_20 
REMARK   18  A    between atoms: C_20  and  C_21 
REMARK   19  A    between atoms: C_21  and  C_22 
REMARK   20  A    between atoms: C_22  and  C_23 
REMARK   21  A    between atoms: C_23  and  C_24 
REMARK   22  A    between atoms: C_24  and  C_25 
ROOT
HETATM    1  C   UNL     1     -22.925  -8.447   0.097  1.00  0.00     0.002 C 
ENDROOT
BRANCH   1   2
HETATM    2  C   UNL     1     -21.818  -7.571  -0.475  1.00  0.00     0.000 C 
BRANCH   2   3
HETATM    3  C   UNL     1     -22.395  -6.474  -1.361  1.00  0.00     0.000 C 
BRANCH   3   4
HETATM    4  C   UNL     1     -21.586  -6.336  -2.639  1.00  0.00     0.000 C 
BRANCH   4   5
HETATM    5  C   UNL     1     -21.271  -7.707  -3.214  1.00  0.00     0.000 C 
BRANCH   5   6
HETATM    6  C   UNL     1     -20.580  -7.564  -4.560  1.00  0.00     0.000 C 
BRANCH   6   7
HETATM    7  C   UNL     1     -21.045  -6.295  -5.255  1.00  0.00     0.000 C 
BRANCH   7   8
HETATM    8  C   UNL     1     -20.350  -6.148  -6.598  1.00  0.00     0.000 C 
BRANCH   8   9
HETATM    9  C   UNL     1     -19.767  -4.751  -6.735  1.00  0.00     0.000 C 
BRANCH   9  10
HETATM   10  C   UNL     1     -20.818  -3.794  -7.275  1.00  0.00     0.000 C 
BRANCH  10  11
HETATM   11  C   UNL     1     -21.815  -4.541  -8.149  1.00  0.00     0.000 C 
BRANCH  11  12
HETATM   12  C   UNL     1     -21.594  -4.196  -9.615  1.00  0.00    -0.000 C 
BRANCH  12  13
HETATM   13  C   UNL     1     -22.897  -3.759 -10.272  1.00  0.00    -0.005 C 
HETATM   14  C   UNL     1     -23.772  -4.960 -10.579  1.00  0.00     0.005 C 
ENDBRANCH  12  13
ENDBRANCH  11  12
ENDBRANCH  10  11
ENDBRANCH   9  10
ENDBRANCH   8   9
ENDBRANCH   7   8
ENDBRANCH   6   7
ENDBRANCH   5   6
ENDBRANCH   4   5
ENDBRANCH   3   4
ENDBRANCH   2   3
ENDBRANCH   1   2
BRANCH   1  15
HETATM   15  C   UNL     1     -22.647  -9.922  -0.158  1.00  0.00     0.027 C 
BRANCH  15  16
HETATM   16  C   UNL     1     -21.169 -10.228   0.017  1.00  0.00     0.178 C 
BRANCH  16  17
HETATM   17  O   UNL     1     -20.629 -10.698  -1.222  1.00  0.00    -0.321 OA
BRANCH  17  18
HETATM   18  C   UNL     1     -19.391 -11.259  -1.083  1.00  0.00     0.258 C 
HETATM   19  O   UNL     1     -18.967 -11.793  -0.076  1.00  0.00    -0.265 OA
BRANCH  18  20
HETATM   20  C   UNL     1     -18.609 -11.130  -2.367  1.00  0.00     0.111 C 
BRANCH  20  21
HETATM   21  C   UNL     1     -18.236  -9.673  -2.608  1.00  0.00     0.010 C 
BRANCH  21  22
HETATM   22  C   UNL     1     -16.727  -9.465  -2.672  1.00  0.00     0.001 C 
BRANCH  22  23
HETATM   23  C   UNL     1     -16.113 -10.502  -3.612  1.00  0.00     0.000 C 
BRANCH  23  24
HETATM   24  C   UNL     1     -15.538  -9.863  -4.874  1.00  0.00     0.004 C 
BRANCH  24  25
HETATM   25  C   UNL     1     -16.281 -10.297  -6.150  1.00  0.00    -0.023 C 
HETATM   26  C   UNL     1     -16.395 -11.820  -6.264  1.00  0.00     0.009 C 
HETATM   27  C   UNL     1     -17.678  -9.675  -6.175  1.00  0.00     0.009 C 
ENDBRANCH  24  25
ENDBRANCH  23  24
ENDBRANCH  22  23
ENDBRANCH  21  22
ENDBRANCH  20  21
ENDBRANCH  18  20
ENDBRANCH  17  18
ENDBRANCH  16  17
ENDBRANCH  15  16
ENDBRANCH   1  15
TORSDOF 22
BEGIN_RES ARG D 557
REMARK  4 active torsions:
REMARK  status: ('A' for Active; 'I' for Inactive)
REMARK    1  A    between atoms: CA   and  CB  
REMARK    2  A    between atoms: CB   and  CG  
REMARK    3  A    between atoms: CG   and  CD  
REMARK    4  A    between atoms: CD   and  NE  
REMARK       I    between atoms: NE   and  CZ  
REMARK       I    between atoms: CZ   and  NH1 
REMARK       I    between atoms: CZ   and  NH2 
ROOT
ATOM      1  CA  ARG D 557     -26.217   2.705 -17.014  1.00 35.49     0.159 C 
ENDROOT
BRANCH   1   2
ATOM      2  CB  ARG D 557     -26.789   1.319 -17.183  1.00 35.49     0.034 C 
BRANCH   2   3
ATOM      3  CG  ARG D 557     -25.837   0.202 -17.143  1.00 35.49     0.027 C 
BRANCH   3   4
ATOM      4  CD  ARG D 557     -24.751   0.421 -16.161  1.00 35.49     0.116 C 
BRANCH   4   5
ATOM      5  NE  ARG D 557     -24.877  -0.437 -15.013  1.00 35.49    -0.212 N 
ATOM      6  CZ  ARG D 557     -24.049  -1.401 -14.680  1.00 35.49     0.666 C 
ATOM      7  NH1 ARG D 557     -22.985  -1.703 -15.400  1.00 35.49    -0.235 N 
ATOM      8  NH2 ARG D 557     -24.308  -2.065 -13.591  1.00 35.49    -0.235 N 
ATOM      9  HH  ARG D 557     -22.794  -1.278 -16.119  1.00 35.49     0.174 HD
ATOM     10  HH  ARG D 557     -22.479  -2.340 -15.132  1.00 35.49     0.174 HD
ATOM     11  HH  ARG D 557     -24.999  -1.844 -13.141  1.00 35.49     0.174 HD
ATOM     12  HH  ARG D 557     -23.795  -2.692 -13.341  1.00 35.49     0.174 HD
ATOM     13  HE  ARG D 557     -25.575  -0.360 -14.532  1.00 35.49     0.178 HD
ENDBRANCH   4   5
ENDBRANCH   3   4
ENDBRANCH   2   3
ENDBRANCH   1   2
END_RES ARG D 557
BEGIN_RES GLU D 570
REMARK  3 active torsions:
REMARK  status: ('A' for Active; 'I' for Inactive)
REMARK    5  A    between atoms: CA   and  CB  
REMARK    6  A    between atoms: CB   and  CG  
REMARK    7  A    between atoms: CG   and  CD  
ROOT
ATOM     14  CA  GLU D 570     -18.033  -6.348 -13.375  1.00 32.92     0.160 C 
ENDROOT
BRANCH  14  15
ATOM     15  CB  GLU D 570     -19.500  -6.345 -13.794  1.00 32.92     0.043 C 
BRANCH  15  16
ATOM     16  CG  GLU D 570     -20.446  -5.551 -12.968  1.00 32.92     0.100 C 
BRANCH  16  17
ATOM     17  CD  GLU D 570     -21.741  -5.245 -13.685  1.00 32.92     0.185 C 
ATOM     18  OE1 GLU D 570     -22.359  -6.174 -14.239  1.00 32.92    -0.647 OA
ATOM     19  OE2 GLU D 570     -22.132  -4.062 -13.707  1.00 32.92    -0.647 OA
ENDBRANCH  16  17
ENDBRANCH  15  16
ENDBRANCH  14  15
END_RES GLU D 570
ENDMDL
MODEL 7
REMARK VINA RESULT:      -6.7      2.253      3.783
REMARK  22 active torsions:
REMARK  status: ('A' for Active; 'I' for Inactive)
REMARK    1  A    between atoms: C_2  and  C_3 
REMARK    2  A    between atoms: C_3  and  C_4 
REMARK    3  A    between atoms: C_4  and  C_5 
REMARK    4  A    between atoms: C_5  and  C_6 
REMARK    5  A    between atoms: C_6  and  C_7 
REMARK    6  A    between atoms: C_7  and  C_8 
REMARK    7  A    between atoms: C_8  and  C_9 
REMARK    8  A    between atoms: C_9  and  C_10 
REMARK    9  A    between atoms: C_10  and  C_11 
REMARK   10  A    between atoms: C_11  and  C_12 
REMARK   11  A    between atoms: C_12  and  C_13 
REMARK   12  A    between atoms: C_13  and  C_14 
REMARK   13  A    between atoms: C_14  and  C_15 
REMARK   14  A    between atoms: C_15  and  C_16 
REMARK   15  A    between atoms: C_16  and  O_17 
REMARK   16  A    between atoms: O_17  and  C_18 
REMARK   17  A    between atoms: C_18  and  C_20 
REMARK   18  A    between atoms: C_20  and  C_21 
REMARK   19  A    between atoms: C_21  and  C_22 
REMARK   20  A    between atoms: C_22  and  C_23 
REMARK   21  A    between atoms: C_23  and  C_24 
REMARK   22  A    between atoms: C_24  and  C_25 
ROOT
HETATM    1  C   UNL     1     -20.964  -3.200 -10.888  1.00  0.00     0.002 C 
ENDROOT
BRANCH   1   2
HETATM    2  C   UNL     1     -21.137  -3.824  -9.509  1.00  0.00     0.000 C 
BRANCH   2   3
HETATM    3  C   UNL     1     -20.061  -4.868  -9.245  1.00  0.00     0.000 C 
BRANCH   3   4
HETATM    4  C   UNL     1     -20.211  -5.453  -7.851  1.00  0.00     0.000 C 
BRANCH   4   5
HETATM    5  C   UNL     1     -20.223  -4.343  -6.813  1.00  0.00     0.000 C 
BRANCH   5   6
HETATM    6  C   UNL     1     -20.349  -4.934  -5.418  1.00  0.00     0.000 C 
BRANCH   6   7
HETATM    7  C   UNL     1     -21.457  -5.974  -5.387  1.00  0.00     0.000 C 
BRANCH   7   8
HETATM    8  C   UNL     1     -21.267  -6.908  -4.205  1.00  0.00     0.000 C 
BRANCH   8   9
HETATM    9  C   UNL     1     -21.315  -6.123  -2.904  1.00  0.00     0.000 C 
BRANCH   9  10
HETATM   10  C   UNL     1     -22.504  -6.564  -2.068  1.00  0.00     0.000 C 
BRANCH  10  11
HETATM   11  C   UNL     1     -22.060  -6.901  -0.652  1.00  0.00     0.000 C 
BRANCH  11  12
HETATM   12  C   UNL     1     -21.967  -8.410  -0.473  1.00  0.00    -0.000 C 
BRANCH  12  13
HETATM   13  C   UNL     1     -23.199  -8.950   0.242  1.00  0.00    -0.005 C 
HETATM   14  C   UNL     1     -23.556 -10.331  -0.274  1.00  0.00     0.005 C 
ENDBRANCH  12  13
ENDBRANCH  11  12
ENDBRANCH  10  11
ENDBRANCH   9  10
ENDBRANCH   8   9
ENDBRANCH   7   8
ENDBRANCH   6   7
ENDBRANCH   5   6
ENDBRANCH   4   5
ENDBRANCH   3   4
ENDBRANCH   2   3
ENDBRANCH   1   2
BRANCH   1  15
HETATM   15  C   UNL     1     -21.637  -4.045 -11.962  1.00  0.00     0.027 C 
BRANCH  15  16
HETATM   16  C   UNL     1     -22.985  -3.455 -12.343  1.00  0.00     0.178 C 
BRANCH  16  17
HETATM   17  O   UNL     1     -23.863  -4.503 -12.765  1.00  0.00    -0.321 OA
BRANCH  17  18
HETATM   18  C   UNL     1     -23.757  -4.780 -14.099  1.00  0.00     0.258 C 
HETATM   19  O   UNL     1     -23.621  -3.955 -14.982  1.00  0.00    -0.265 OA
BRANCH  18  20
HETATM   20  C   UNL     1     -23.828  -6.269 -14.333  1.00  0.00     0.111 C 
BRANCH  20  21
HETATM   21  C   UNL     1     -24.287  -6.553 -15.757  1.00  0.00     0.010 C 
BRANCH  21  22
HETATM   22  C   UNL     1     -25.739  -7.016 -15.815  1.00  0.00     0.001 C 
BRANCH  22  23
HETATM   23  C   UNL     1     -26.626  -5.848 -16.241  1.00  0.00     0.000 C 
BRANCH  23  24
HETATM   24  C   UNL     1     -27.691  -6.275 -17.248  1.00  0.00     0.004 C 
BRANCH  24  25
HETATM   25  C   UNL     1     -28.994  -6.739 -16.572  1.00  0.00    -0.023 C 
HETATM   26  C   UNL     1     -29.454  -5.773 -15.476  1.00  0.00     0.009 C 
HETATM   27  C   UNL     1     -30.097  -6.889 -17.619  1.00  0.00     0.009 C 
ENDBRANCH  24  25
ENDBRANCH  23  24
ENDBRANCH  22  23
ENDBRANCH  21  22
ENDBRANCH  20  21
ENDBRANCH  18  20
ENDBRANCH  17  18
ENDBRANCH  16  17
ENDBRANCH  15  16
ENDBRANCH   1  15
TORSDOF 22
BEGIN_RES ARG D 557
REMARK  4 active torsions:
REMARK  status: ('A' for Active; 'I' for Inactive)
REMARK    1  A    between atoms: CA   and  CB  
REMARK    2  A    between atoms: CB   and  CG  
REMARK    3  A    between atoms: CG   and  CD  
REMARK    4  A    between atoms: CD   and  NE  
REMARK       I    between atoms: NE   and  CZ  
REMARK       I    between atoms: CZ   and  NH1 
REMARK       I    between atoms: CZ   and  NH2 
ROOT
ATOM      1  CA  ARG D 557     -26.217   2.705 -17.014  1.00 35.49     0.159 C 
ENDROOT
BRANCH   1   2
ATOM      2  CB  ARG D 557     -26.789   1.319 -17.183  1.00 35.49     0.034 C 
BRANCH   2   3
ATOM      3  CG  ARG D 557     -28.252   1.207 -17.207  1.00 35.49     0.027 C 
BRANCH   3   4
ATOM      4  CD  ARG D 557     -28.738   0.004 -16.493  1.00 35.49     0.116 C 
BRANCH   4   5
ATOM      5  NE  ARG D 557     -27.662  -0.749 -15.905  1.00 35.49    -0.212 N 
ATOM      6  CZ  ARG D 557     -27.417  -2.024 -16.106  1.00 35.49     0.666 C 
ATOM      7  NH1 ARG D 557     -28.171  -2.777 -16.886  1.00 35.49    -0.235 N 
ATOM      8  NH2 ARG D 557     -26.383  -2.539 -15.506  1.00 35.49    -0.235 N 
ATOM      9  HH  ARG D 557     -28.855  -2.458 -17.292  1.00 35.49     0.174 HD
ATOM     10  HH  ARG D 557     -27.961  -3.602 -16.982  1.00 35.49     0.174 HD
ATOM     11  HH  ARG D 557     -25.910  -2.028 -15.014  1.00 35.49     0.174 HD
ATOM     12  HH  ARG D 557     -26.191  -3.358 -15.615  1.00 35.49     0.174 HD
ATOM     13  HE  ARG D 557     -27.169  -0.360 -15.331  1.00 35.49     0.178 HD
ENDBRANCH   4   5
ENDBRANCH   3   4
ENDBRANCH   2   3
ENDBRANCH   1   2
END_RES ARG D 557
BEGIN_RES GLU D 570
REMARK  3 active torsions:
REMARK  status: ('A' for Active; 'I' for Inactive)
REMARK    5  A    between atoms: CA   and  CB  
REMARK    6  A    between atoms: CB   and  CG  
REMARK    7  A    between atoms: CG   and  CD  
ROOT
ATOM     14  CA  GLU D 570     -18.033  -6.348 -13.375  1.00 32.92     0.160 C 
ENDROOT
BRANCH  14  15
ATOM     15  CB  GLU D 570     -19.500  -6.345 -13.794  1.00 32.92     0.043 C 
BRANCH  15  16
ATOM     16  CG  GLU D 570     -19.811  -5.961 -15.195  1.00 32.92     0.100 C 
BRANCH  16  17
ATOM     17  CD  GLU D 570     -20.571  -7.031 -15.944  1.00 32.92     0.185 C 
ATOM     18  OE1 GLU D 570     -21.161  -6.728 -16.999  1.00 32.92    -0.647 OA
ATOM     19  OE2 GLU D 570     -20.590  -8.181 -15.462  1.00 32.92    -0.647 OA
ENDBRANCH  16  17
ENDBRANCH  15  16
ENDBRANCH  14  15
END_RES GLU D 570
ENDMDL
MODEL 8
REMARK VINA RESULT:      -6.7      2.246      4.425
REMARK  22 active torsions:
REMARK  status: ('A' for Active; 'I' for Inactive)
REMARK    1  A    between atoms: C_2  and  C_3 
REMARK    2  A    between atoms: C_3  and  C_4 
REMARK    3  A    between atoms: C_4  and  C_5 
REMARK    4  A    between atoms: C_5  and  C_6 
REMARK    5  A    between atoms: C_6  and  C_7 
REMARK    6  A    between atoms: C_7  and  C_8 
REMARK    7  A    between atoms: C_8  and  C_9 
REMARK    8  A    between atoms: C_9  and  C_10 
REMARK    9  A    between atoms: C_10  and  C_11 
REMARK   10  A    between atoms: C_11  and  C_12 
REMARK   11  A    between atoms: C_12  and  C_13 
REMARK   12  A    between atoms: C_13  and  C_14 
REMARK   13  A    between atoms: C_14  and  C_15 
REMARK   14  A    between atoms: C_15  and  C_16 
REMARK   15  A    between atoms: C_16  and  O_17 
REMARK   16  A    between atoms: O_17  and  C_18 
REMARK   17  A    between atoms: C_18  and  C_20 
REMARK   18  A    between atoms: C_20  and  C_21 
REMARK   19  A    between atoms: C_21  and  C_22 
REMARK   20  A    between atoms: C_22  and  C_23 
REMARK   21  A    between atoms: C_23  and  C_24 
REMARK   22  A    between atoms: C_24  and  C_25 
ROOT
HETATM    1  C   UNL     1     -21.546  -6.630  -3.268  1.00  0.00     0.002 C 
ENDROOT
BRANCH   1   2
HETATM    2  C   UNL     1     -21.262  -7.131  -1.858  1.00  0.00     0.000 C 
BRANCH   2   3
HETATM    3  C   UNL     1     -22.368  -6.710  -0.898  1.00  0.00     0.000 C 
BRANCH   3   4
HETATM    4  C   UNL     1     -22.711  -7.843   0.054  1.00  0.00     0.000 C 
BRANCH   4   5
HETATM    5  C   UNL     1     -21.450  -8.583   0.468  1.00  0.00     0.000 C 
BRANCH   5   6
HETATM    6  C   UNL     1     -21.690 -10.083   0.434  1.00  0.00     0.000 C 
BRANCH   6   7
HETATM    7  C   UNL     1     -22.624 -10.439  -0.711  1.00  0.00     0.000 C 
BRANCH   7   8
HETATM    8  C   UNL     1     -23.807 -11.239  -0.193  1.00  0.00     0.000 C 
BRANCH   8   9
HETATM    9  C   UNL     1     -23.415 -12.697  -0.016  1.00  0.00     0.000 C 
BRANCH   9  10
HETATM   10  C   UNL     1     -23.638 -13.129   1.424  1.00  0.00     0.000 C 
BRANCH  10  11
HETATM   11  C   UNL     1     -22.393 -13.812   1.971  1.00  0.00     0.000 C 
BRANCH  11  12
HETATM   12  C   UNL     1     -22.775 -15.062   2.751  1.00  0.00    -0.000 C 
BRANCH  12  13
HETATM   13  C   UNL     1     -24.099 -14.865   3.477  1.00  0.00    -0.005 C 
HETATM   14  C   UNL     1     -24.989 -16.083   3.311  1.00  0.00     0.005 C 
ENDBRANCH  12  13
ENDBRANCH  11  12
ENDBRANCH  10  11
ENDBRANCH   9  10
ENDBRANCH   8   9
ENDBRANCH   7   8
ENDBRANCH   6   7
ENDBRANCH   5   6
ENDBRANCH   4   5
ENDBRANCH   3   4
ENDBRANCH   2   3
ENDBRANCH   1   2
BRANCH   1  15
HETATM   15  C   UNL     1     -21.122  -7.656  -4.312  1.00  0.00     0.027 C 
BRANCH  15  16
HETATM   16  C   UNL     1     -21.569  -7.227  -5.699  1.00  0.00     0.178 C 
BRANCH  16  17
HETATM   17  O   UNL     1     -21.324  -5.827  -5.869  1.00  0.00    -0.321 OA
BRANCH  17  18
HETATM   18  C   UNL     1     -20.435  -5.561  -6.872  1.00  0.00     0.258 C 
HETATM   19  O   UNL     1     -19.672  -6.366  -7.370  1.00  0.00    -0.265 OA
BRANCH  18  20
HETATM   20  C   UNL     1     -20.531  -4.114  -7.288  1.00  0.00     0.111 C 
BRANCH  20  21
HETATM   21  C   UNL     1     -21.888  -3.841  -7.922  1.00  0.00     0.010 C 
BRANCH  21  22
HETATM   22  C   UNL     1     -22.012  -4.459  -9.311  1.00  0.00     0.001 C 
BRANCH  22  23
HETATM   23  C   UNL     1     -20.758  -4.137 -10.121  1.00  0.00     0.000 C 
BRANCH  23  24
HETATM   24  C   UNL     1     -21.089  -3.756 -11.562  1.00  0.00     0.004 C 
BRANCH  24  25
HETATM   25  C   UNL     1     -22.590  -3.880 -11.879  1.00  0.00    -0.023 C 
HETATM   26  C   UNL     1     -23.198  -2.549 -12.332  1.00  0.00     0.009 C 
HETATM   27  C   UNL     1     -22.807  -4.937 -12.961  1.00  0.00     0.009 C 
ENDBRANCH  24  25
ENDBRANCH  23  24
ENDBRANCH  22  23
ENDBRANCH  21  22
ENDBRANCH  20  21
ENDBRANCH  18  20
ENDBRANCH  17  18
ENDBRANCH  16  17
ENDBRANCH  15  16
ENDBRANCH   1  15
TORSDOF 22
BEGIN_RES ARG D 557
REMARK  4 active torsions:
REMARK  status: ('A' for Active; 'I' for Inactive)
REMARK    1  A    between atoms: CA   and  CB  
REMARK    2  A    between atoms: CB   and  CG  
REMARK    3  A    between atoms: CG   and  CD  
REMARK    4  A    between atoms: CD   and  NE  
REMARK       I    between atoms: NE   and  CZ  
REMARK       I    between atoms: CZ   and  NH1 
REMARK       I    between atoms: CZ   and  NH2 
ROOT
ATOM      1  CA  ARG D 557     -26.217   2.705 -17.014  1.00 35.49     0.159 C 
ENDROOT
BRANCH   1   2
ATOM      2  CB  ARG D 557     -26.789   1.319 -17.183  1.00 35.49     0.034 C 
BRANCH   2   3
ATOM      3  CG  ARG D 557     -28.237   1.224 -17.406  1.00 35.49     0.027 C 
BRANCH   3   4
ATOM      4  CD  ARG D 557     -28.890   0.273 -16.478  1.00 35.49     0.116 C 
BRANCH   4   5
ATOM      5  NE  ARG D 557     -29.260  -0.954 -17.131  1.00 35.49    -0.212 N 
ATOM      6  CZ  ARG D 557     -28.622  -2.099 -17.035  1.00 35.49     0.666 C 
ATOM      7  NH1 ARG D 557     -27.527  -2.242 -16.312  1.00 35.49    -0.235 N 
ATOM      8  NH2 ARG D 557     -29.113  -3.117 -17.681  1.00 35.49    -0.235 N 
ATOM      9  HH  ARG D 557     -27.187  -1.586 -15.877  1.00 35.49     0.174 HD
ATOM     10  HH  ARG D 557     -27.155  -3.013 -16.284  1.00 35.49     0.174 HD
ATOM     11  HH  ARG D 557     -29.826  -2.997 -18.134  1.00 35.49     0.174 HD
ATOM     12  HH  ARG D 557     -28.732  -3.873 -17.640  1.00 35.49     0.174 HD
ATOM     13  HE  ARG D 557     -29.914  -0.936 -17.676  1.00 35.49     0.178 HD
ENDBRANCH   4   5
ENDBRANCH   3   4
ENDBRANCH   2   3
ENDBRANCH   1   2
END_RES ARG D 557
BEGIN_RES GLU D 570
REMARK  3 active torsions:
REMARK  status: ('A' for Active; 'I' for Inactive)
REMARK    5  A    between atoms: CA   and  CB  
REMARK    6  A    between atoms: CB   and  CG  
REMARK    7  A    between atoms: CG   and  CD  
ROOT
ATOM     14  CA  GLU D 570     -18.033  -6.348 -13.375  1.00 32.92     0.160 C 
ENDROOT
BRANCH  14  15
ATOM     15  CB  GLU D 570     -19.500  -6.345 -13.794  1.00 32.92     0.043 C 
BRANCH  15  16
ATOM     16  CG  GLU D 570     -19.796  -6.345 -15.250  1.00 32.92     0.100 C 
BRANCH  16  17
ATOM     17  CD  GLU D 570     -20.859  -7.346 -15.635  1.00 32.92     0.185 C 
ATOM     18  OE1 GLU D 570     -22.005  -6.939 -15.907  1.00 32.92    -0.647 OA
ATOM     19  OE2 GLU D 570     -20.548  -8.553 -15.650  1.00 32.92    -0.647 OA
ENDBRANCH  16  17
ENDBRANCH  15  16
ENDBRANCH  14  15
END_RES GLU D 570
ENDMDL
MODEL 9
REMARK VINA RESULT:      -6.7      2.498     10.448
REMARK  22 active torsions:
REMARK  status: ('A' for Active; 'I' for Inactive)
REMARK    1  A    between atoms: C_2  and  C_3 
REMARK    2  A    between atoms: C_3  and  C_4 
REMARK    3  A    between atoms: C_4  and  C_5 
REMARK    4  A    between atoms: C_5  and  C_6 
REMARK    5  A    between atoms: C_6  and  C_7 
REMARK    6  A    between atoms: C_7  and  C_8 
REMARK    7  A    between atoms: C_8  and  C_9 
REMARK    8  A    between atoms: C_9  and  C_10 
REMARK    9  A    between atoms: C_10  and  C_11 
REMARK   10  A    between atoms: C_11  and  C_12 
REMARK   11  A    between atoms: C_12  and  C_13 
REMARK   12  A    between atoms: C_13  and  C_14 
REMARK   13  A    between atoms: C_14  and  C_15 
REMARK   14  A    between atoms: C_15  and  C_16 
REMARK   15  A    between atoms: C_16  and  O_17 
REMARK   16  A    between atoms: O_17  and  C_18 
REMARK   17  A    between atoms: C_18  and  C_20 
REMARK   18  A    between atoms: C_20  and  C_21 
REMARK   19  A    between atoms: C_21  and  C_22 
REMARK   20  A    between atoms: C_22  and  C_23 
REMARK   21  A    between atoms: C_23  and  C_24 
REMARK   22  A    between atoms: C_24  and  C_25 
ROOT
HETATM    1  C   UNL     1     -21.491  -8.749  -4.202  1.00  0.00     0.002 C 
ENDROOT
BRANCH   1   2
HETATM    2  C   UNL     1     -21.879  -7.303  -4.486  1.00  0.00     0.000 C 
BRANCH   2   3
HETATM    3  C   UNL     1     -21.098  -6.753  -5.673  1.00  0.00     0.000 C 
BRANCH   3   4
HETATM    4  C   UNL     1     -20.494  -5.400  -5.337  1.00  0.00     0.000 C 
BRANCH   4   5
HETATM    5  C   UNL     1     -20.669  -4.441  -6.503  1.00  0.00     0.000 C 
BRANCH   5   6
HETATM    6  C   UNL     1     -21.077  -5.206  -7.751  1.00  0.00     0.000 C 
BRANCH   6   7
HETATM    7  C   UNL     1     -21.365  -4.240  -8.888  1.00  0.00     0.000 C 
BRANCH   7   8
HETATM    8  C   UNL     1     -20.346  -4.419 -10.001  1.00  0.00     0.000 C 
BRANCH   8   9
HETATM    9  C   UNL     1     -20.916  -3.918 -11.318  1.00  0.00     0.000 C 
BRANCH   9  10
HETATM   10  C   UNL     1     -22.360  -3.481 -11.132  1.00  0.00     0.000 C 
BRANCH  10  11
HETATM   11  C   UNL     1     -22.823  -2.661 -12.328  1.00  0.00     0.000 C 
BRANCH  11  12
HETATM   12  C   UNL     1     -23.884  -3.422 -13.111  1.00  0.00    -0.000 C 
BRANCH  12  13
HETATM   13  C   UNL     1     -23.243  -4.327 -14.155  1.00  0.00    -0.005 C 
HETATM   14  C   UNL     1     -23.541  -5.784 -13.858  1.00  0.00     0.005 C 
ENDBRANCH  12  13
ENDBRANCH  11  12
ENDBRANCH  10  11
ENDBRANCH   9  10
ENDBRANCH   8   9
ENDBRANCH   7   8
ENDBRANCH   6   7
ENDBRANCH   5   6
ENDBRANCH   4   5
ENDBRANCH   3   4
ENDBRANCH   2   3
ENDBRANCH   1   2
BRANCH   1  15
HETATM   15  C   UNL     1     -20.430  -8.830  -3.112  1.00  0.00     0.027 C 
BRANCH  15  16
HETATM   16  C   UNL     1     -20.460  -7.586  -2.240  1.00  0.00     0.178 C 
BRANCH  16  17
HETATM   17  O   UNL     1     -20.938  -7.929  -0.936  1.00  0.00    -0.321 OA
BRANCH  17  18
HETATM   18  C   UNL     1     -22.175  -7.412  -0.670  1.00  0.00     0.258 C 
HETATM   19  O   UNL     1     -22.628  -6.388  -1.143  1.00  0.00    -0.265 OA
BRANCH  18  20
HETATM   20  C   UNL     1     -22.916  -8.298   0.301  1.00  0.00     0.111 C 
BRANCH  20  21
HETATM   21  C   UNL     1     -22.443  -9.739   0.159  1.00  0.00     0.010 C 
BRANCH  21  22
HETATM   22  C   UNL     1     -23.198 -10.491  -0.932  1.00  0.00     0.001 C 
BRANCH  22  23
HETATM   23  C   UNL     1     -24.124 -11.522  -0.288  1.00  0.00     0.000 C 
BRANCH  23  24
HETATM   24  C   UNL     1     -23.955 -12.908  -0.905  1.00  0.00     0.004 C 
BRANCH  24  25
HETATM   25  C   UNL     1     -23.352 -13.926   0.080  1.00  0.00    -0.023 C 
HETATM   26  C   UNL     1     -23.336 -13.401   1.518  1.00  0.00     0.009 C 
HETATM   27  C   UNL     1     -24.140 -15.235   0.021  1.00  0.00     0.009 C 
ENDBRANCH  24  25
ENDBRANCH  23  24
ENDBRANCH  22  23
ENDBRANCH  21  22
ENDBRANCH  20  21
ENDBRANCH  18  20
ENDBRANCH  17  18
ENDBRANCH  16  17
ENDBRANCH  15  16
ENDBRANCH   1  15
TORSDOF 22
BEGIN_RES ARG D 557
REMARK  4 active torsions:
REMARK  status: ('A' for Active; 'I' for Inactive)
REMARK    1  A    between atoms: CA   and  CB  
REMARK    2  A    between atoms: CB   and  CG  
REMARK    3  A    between atoms: CG   and  CD  
REMARK    4  A    between atoms: CD   and  NE  
REMARK       I    between atoms: NE   and  CZ  
REMARK       I    between atoms: CZ   and  NH1 
REMARK       I    between atoms: CZ   and  NH2 
ROOT
ATOM      1  CA  ARG D 557     -26.217   2.705 -17.014  1.00 35.49     0.159 C 
ENDROOT
BRANCH   1   2
ATOM      2  CB  ARG D 557     -26.789   1.319 -17.183  1.00 35.49     0.034 C 
BRANCH   2   3
ATOM      3  CG  ARG D 557     -28.157   1.105 -16.695  1.00 35.49     0.027 C 
BRANCH   3   4
ATOM      4  CD  ARG D 557     -28.795  -0.083 -17.307  1.00 35.49     0.116 C 
BRANCH   4   5
ATOM      5  NE  ARG D 557     -28.183  -1.311 -16.872  1.00 35.49    -0.212 N 
ATOM      6  CZ  ARG D 557     -28.675  -2.518 -17.046  1.00 35.49     0.666 C 
ATOM      7  NH1 ARG D 557     -29.830  -2.733 -17.648  1.00 35.49    -0.235 N 
ATOM      8  NH2 ARG D 557     -27.973  -3.521 -16.604  1.00 35.49    -0.235 N 
ATOM      9  HH  ARG D 557     -30.307  -2.088 -17.948  1.00 35.49     0.174 HD
ATOM     10  HH  ARG D 557     -30.099  -3.542 -17.735  1.00 35.49     0.174 HD
ATOM     11  HH  ARG D 557     -27.228  -3.353 -16.226  1.00 35.49     0.174 HD
ATOM     12  HH  ARG D 557     -28.256  -4.315 -16.701  1.00 35.49     0.174 HD
ATOM     13  HE  ARG D 557     -27.471  -1.261 -16.410  1.00 35.49     0.178 HD
ENDBRANCH   4   5
ENDBRANCH   3   4
ENDBRANCH   2   3
ENDBRANCH   1   2
END_RES ARG D 557
BEGIN_RES GLU D 570
REMARK  3 active torsions:
REMARK  status: ('A' for Active; 'I' for Inactive)
REMARK    5  A    between atoms: CA   and  CB  
REMARK    6  A    between atoms: CB   and  CG  
REMARK    7  A    between atoms: CG   and  CD  
ROOT
ATOM     14  CA  GLU D 570     -18.033  -6.348 -13.375  1.00 32.92     0.160 C 
ENDROOT
BRANCH  14  15
ATOM     15  CB  GLU D 570     -19.500  -6.345 -13.794  1.00 32.92     0.043 C 
BRANCH  15  16
ATOM     16  CG  GLU D 570     -19.800  -6.139 -15.234  1.00 32.92     0.100 C 
BRANCH  16  17
ATOM     17  CD  GLU D 570     -20.718  -7.196 -15.802  1.00 32.92     0.185 C 
ATOM     18  OE1 GLU D 570     -20.588  -8.376 -15.426  1.00 32.92    -0.647 OA
ATOM     19  OE2 GLU D 570     -21.566  -6.842 -16.646  1.00 32.92    -0.647 OA
ENDBRANCH  16  17
ENDBRANCH  15  16
ENDBRANCH  14  15
END_RES GLU D 570
ENDMDL
