MODEL 1
REMARK VINA RESULT:      -6.4      0.000      0.000
REMARK  2 active torsions:
REMARK  status: ('A' for Active; 'I' for Inactive)
REMARK    1  A    between atoms: CA_7  and  C_9 
REMARK    2  A    between atoms: C_9  and  OXT_11 
ROOT
HETATM    1  C   UNL     1     -24.277  -3.536 -10.318  1.00  0.00     0.088 C 
HETATM    2  C   UNL     1     -23.850  -3.582 -11.767  1.00  0.00     0.069 C 
HETATM    3  N   UNL     1     -23.497  -4.710 -12.248  1.00  0.00    -0.380 N 
ATOM      4  HN  UNL     1     -23.525  -5.539 -11.655  1.00  0.00     0.160 HD
HETATM    5  C   UNL     1     -23.055  -4.833 -13.628  1.00  0.00     0.123 C 
HETATM    6  C   UNL     1     -22.983  -3.564 -14.463  1.00  0.00     0.056 C 
HETATM    7  CA  UNL     1     -23.536  -2.285 -13.858  1.00  0.00     0.182 C 
HETATM    8  N   UNL     1     -23.908  -2.418 -12.461  1.00  0.00    -0.366 N 
HETATM    9  H   UNL     1     -24.070  -1.549 -11.956  1.00  0.00     0.161 HD
ENDROOT
BRANCH   7  10
HETATM   10  C   UNL     1     -24.763  -1.824 -14.652  1.00  0.00     0.163 C 
HETATM   11  O   UNL     1     -25.580  -2.577 -15.158  1.00  0.00    -0.648 OA
BRANCH  10  12
HETATM   12  OXT UNL     1     -24.863  -0.473 -14.729  1.00  0.00    -0.775 OA
HETATM   13  HXT UNL     1     -24.853  -0.096 -13.822  1.00  0.00     0.167 HD
ENDBRANCH  10  12
ENDBRANCH   7  10
TORSDOF 2
BEGIN_RES ARG D 557
REMARK  4 active torsions:
REMARK  status: ('A' for Active; 'I' for Inactive)
REMARK    1  A    between atoms: CA   and  CB  
REMARK    2  A    between atoms: CB   and  CG  
REMARK    3  A    between atoms: CG   and  CD  
REMARK    4  A    between atoms: CD   and  NE  
REMARK       I    between atoms: NE   and  CZ  
REMARK       I    between atoms: CZ   and  NH1 
REMARK       I    between atoms: CZ   and  NH2 
ROOT
ATOM      1  CA  ARG D 557     -26.217   2.705 -17.014  1.00 35.49     0.159 C 
ENDROOT
BRANCH   1   2
ATOM      2  CB  ARG D 557     -26.789   1.319 -17.183  1.00 35.49     0.034 C 
BRANCH   2   3
ATOM      3  CG  ARG D 557     -28.127   1.084 -16.628  1.00 35.49     0.027 C 
BRANCH   3   4
ATOM      4  CD  ARG D 557     -28.784  -0.103 -17.221  1.00 35.49     0.116 C 
BRANCH   4   5
ATOM      5  NE  ARG D 557     -28.166  -1.332 -16.799  1.00 35.49    -0.212 N 
ATOM      6  CZ  ARG D 557     -28.639  -2.541 -17.008  1.00 35.49     0.666 C 
ATOM      7  NH1 ARG D 557     -29.779  -2.757 -17.638  1.00 35.49    -0.235 N 
ATOM      8  NH2 ARG D 557     -27.933  -3.544 -16.574  1.00 35.49    -0.235 N 
ATOM      9  HH  ARG D 557     -30.258  -2.112 -17.934  1.00 35.49     0.174 HD
ATOM     10  HH  ARG D 557     -30.035  -3.567 -17.748  1.00 35.49     0.174 HD
ATOM     11  HH  ARG D 557     -27.197  -3.374 -16.177  1.00 35.49     0.174 HD
ATOM     12  HH  ARG D 557     -28.204  -4.339 -16.693  1.00 35.49     0.174 HD
ATOM     13  HE  ARG D 557     -27.464  -1.283 -16.323  1.00 35.49     0.178 HD
ENDBRANCH   4   5
ENDBRANCH   3   4
ENDBRANCH   2   3
ENDBRANCH   1   2
END_RES ARG D 557
BEGIN_RES GLU D 570
REMARK  3 active torsions:
REMARK  status: ('A' for Active; 'I' for Inactive)
REMARK    5  A    between atoms: CA   and  CB  
REMARK    6  A    between atoms: CB   and  CG  
REMARK    7  A    between atoms: CG   and  CD  
ROOT
ATOM     14  CA  GLU D 570     -18.033  -6.348 -13.375  1.00 32.92     0.160 C 
ENDROOT
BRANCH  14  15
ATOM     15  CB  GLU D 570     -19.500  -6.345 -13.794  1.00 32.92     0.043 C 
BRANCH  15  16
ATOM     16  CG  GLU D 570     -19.798  -6.183 -15.240  1.00 32.92     0.100 C 
BRANCH  16  17
ATOM     17  CD  GLU D 570     -20.774  -7.213 -15.760  1.00 32.92     0.185 C 
ATOM     18  OE1 GLU D 570     -21.710  -6.843 -16.495  1.00 32.92    -0.647 OA
ATOM     19  OE2 GLU D 570     -20.611  -8.399 -15.414  1.00 32.92    -0.647 OA
ENDBRANCH  16  17
ENDBRANCH  15  16
ENDBRANCH  14  15
END_RES GLU D 570
ENDMDL
MODEL 2
REMARK VINA RESULT:      -6.3      2.403      3.218
REMARK  2 active torsions:
REMARK  status: ('A' for Active; 'I' for Inactive)
REMARK    1  A    between atoms: CA_7  and  C_9 
REMARK    2  A    between atoms: C_9  and  OXT_11 
ROOT
HETATM    1  C   UNL     1     -23.083  -2.838 -14.095  1.00  0.00     0.088 C 
HETATM    2  C   UNL     1     -22.769  -3.379 -12.719  1.00  0.00     0.069 C 
HETATM    3  N   UNL     1     -21.574  -3.253 -12.288  1.00  0.00    -0.380 N 
ATOM      4  HN  UNL     1     -20.878  -2.786 -12.870  1.00  0.00     0.160 HD
HETATM    5  C   UNL     1     -21.188  -3.764 -10.983  1.00  0.00     0.123 C 
HETATM    6  C   UNL     1     -22.245  -4.495 -10.169  1.00  0.00     0.056 C 
HETATM    7  CA  UNL     1     -23.670  -4.494 -10.696  1.00  0.00     0.182 C 
HETATM    8  N   UNL     1     -23.797  -3.930 -12.027  1.00  0.00    -0.366 N 
HETATM    9  H   UNL     1     -24.677  -4.107 -12.507  1.00  0.00     0.161 HD
ENDROOT
BRANCH   7  10
HETATM   10  C   UNL     1     -24.575  -3.708  -9.741  1.00  0.00     0.163 C 
HETATM   11  O   UNL     1     -25.602  -3.139 -10.074  1.00  0.00    -0.648 OA
BRANCH  10  12
HETATM   12  OXT UNL     1     -24.122  -3.716  -8.461  1.00  0.00    -0.775 OA
HETATM   13  HXT UNL     1     -24.886  -3.650  -7.847  1.00  0.00     0.167 HD
ENDBRANCH  10  12
ENDBRANCH   7  10
TORSDOF 2
BEGIN_RES ARG D 557
REMARK  4 active torsions:
REMARK  status: ('A' for Active; 'I' for Inactive)
REMARK    1  A    between atoms: CA   and  CB  
REMARK    2  A    between atoms: CB   and  CG  
REMARK    3  A    between atoms: CG   and  CD  
REMARK    4  A    between atoms: CD   and  NE  
REMARK       I    between atoms: NE   and  CZ  
REMARK       I    between atoms: CZ   and  NH1 
REMARK       I    between atoms: CZ   and  NH2 
ROOT
ATOM      1  CA  ARG D 557     -26.217   2.705 -17.014  1.00 35.49     0.159 C 
ENDROOT
BRANCH   1   2
ATOM      2  CB  ARG D 557     -26.789   1.319 -17.183  1.00 35.49     0.034 C 
BRANCH   2   3
ATOM      3  CG  ARG D 557     -28.225   1.160 -16.922  1.00 35.49     0.027 C 
BRANCH   3   4
ATOM      4  CD  ARG D 557     -28.616  -0.259 -16.763  1.00 35.49     0.116 C 
BRANCH   4   5
ATOM      5  NE  ARG D 557     -27.624  -1.018 -16.049  1.00 35.49    -0.212 N 
ATOM      6  CZ  ARG D 557     -27.459  -2.321 -16.115  1.00 35.49     0.666 C 
ATOM      7  NH1 ARG D 557     -28.225  -3.095 -16.861  1.00 35.49    -0.235 N 
ATOM      8  NH2 ARG D 557     -26.493  -2.840 -15.414  1.00 35.49    -0.235 N 
ATOM      9  HH  ARG D 557     -28.865  -2.775 -17.332  1.00 35.49     0.174 HD
ATOM     10  HH  ARG D 557     -28.068  -3.938 -16.866  1.00 35.49     0.174 HD
ATOM     11  HH  ARG D 557     -26.010  -2.314 -14.947  1.00 35.49     0.174 HD
ATOM     12  HH  ARG D 557     -26.353  -3.676 -15.434  1.00 35.49     0.174 HD
ATOM     13  HE  ARG D 557     -27.134  -0.608 -15.488  1.00 35.49     0.178 HD
ENDBRANCH   4   5
ENDBRANCH   3   4
ENDBRANCH   2   3
ENDBRANCH   1   2
END_RES ARG D 557
BEGIN_RES GLU D 570
REMARK  3 active torsions:
REMARK  status: ('A' for Active; 'I' for Inactive)
REMARK    5  A    between atoms: CA   and  CB  
REMARK    6  A    between atoms: CB   and  CG  
REMARK    7  A    between atoms: CG   and  CD  
ROOT
ATOM     14  CA  GLU D 570     -18.033  -6.348 -13.375  1.00 32.92     0.160 C 
ENDROOT
BRANCH  14  15
ATOM     15  CB  GLU D 570     -19.500  -6.345 -13.794  1.00 32.92     0.043 C 
BRANCH  15  16
ATOM     16  CG  GLU D 570     -19.801  -6.126 -15.232  1.00 32.92     0.100 C 
BRANCH  16  17
ATOM     17  CD  GLU D 570     -21.247  -5.771 -15.485  1.00 32.92     0.185 C 
ATOM     18  OE1 GLU D 570     -22.127  -6.256 -14.748  1.00 32.92    -0.647 OA
ATOM     19  OE2 GLU D 570     -21.505  -5.012 -16.440  1.00 32.92    -0.647 OA
ENDBRANCH  16  17
ENDBRANCH  15  16
ENDBRANCH  14  15
END_RES GLU D 570
ENDMDL
MODEL 3
REMARK VINA RESULT:      -6.2      2.990      4.164
REMARK  2 active torsions:
REMARK  status: ('A' for Active; 'I' for Inactive)
REMARK    1  A    between atoms: CA_7  and  C_9 
REMARK    2  A    between atoms: C_9  and  OXT_11 
ROOT
HETATM    1  C   UNL     1     -21.709  -4.048  -7.076  1.00  0.00     0.088 C 
HETATM    2  C   UNL     1     -22.448  -4.090  -8.394  1.00  0.00     0.069 C 
HETATM    3  N   UNL     1     -23.690  -3.792  -8.389  1.00  0.00    -0.380 N 
ATOM      4  HN  UNL     1     -24.138  -3.524  -7.513  1.00  0.00     0.160 HD
HETATM    5  C   UNL     1     -24.475  -3.827  -9.613  1.00  0.00     0.123 C 
HETATM    6  C   UNL     1     -23.778  -4.278 -10.887  1.00  0.00     0.056 C 
HETATM    7  CA  UNL     1     -22.275  -4.495 -10.834  1.00  0.00     0.182 C 
HETATM    8  N   UNL     1     -21.723  -4.410  -9.495  1.00  0.00    -0.366 N 
HETATM    9  H   UNL     1     -20.776  -4.763  -9.377  1.00  0.00     0.161 HD
ENDROOT
BRANCH   7  10
HETATM   10  C   UNL     1     -21.571  -3.464 -11.722  1.00  0.00     0.163 C 
HETATM   11  O   UNL     1     -20.742  -2.660 -11.324  1.00  0.00    -0.648 OA
BRANCH  10  12
HETATM   12  OXT UNL     1     -21.955  -3.539 -13.022  1.00  0.00    -0.775 OA
HETATM   13  HXT UNL     1     -22.829  -3.985 -13.076  1.00  0.00     0.167 HD
ENDBRANCH  10  12
ENDBRANCH   7  10
TORSDOF 2
BEGIN_RES ARG D 557
REMARK  4 active torsions:
REMARK  status: ('A' for Active; 'I' for Inactive)
REMARK    1  A    between atoms: CA   and  CB  
REMARK    2  A    between atoms: CB   and  CG  
REMARK    3  A    between atoms: CG   and  CD  
REMARK    4  A    between atoms: CD   and  NE  
REMARK       I    between atoms: NE   and  CZ  
REMARK       I    between atoms: CZ   and  NH1 
REMARK       I    between atoms: CZ   and  NH2 
ROOT
ATOM      1  CA  ARG D 557     -26.217   2.705 -17.014  1.00 35.49     0.159 C 
ENDROOT
BRANCH   1   2
ATOM      2  CB  ARG D 557     -26.789   1.319 -17.183  1.00 35.49     0.034 C 
BRANCH   2   3
ATOM      3  CG  ARG D 557     -25.833   0.205 -17.178  1.00 35.49     0.027 C 
BRANCH   3   4
ATOM      4  CD  ARG D 557     -24.749   0.396 -16.188  1.00 35.49     0.116 C 
BRANCH   4   5
ATOM      5  NE  ARG D 557     -24.916  -0.444 -15.032  1.00 35.49    -0.212 N 
ATOM      6  CZ  ARG D 557     -24.116  -1.424 -14.672  1.00 35.49     0.666 C 
ATOM      7  NH1 ARG D 557     -23.046  -1.758 -15.369  1.00 35.49    -0.235 N 
ATOM      8  NH2 ARG D 557     -24.410  -2.068 -13.580  1.00 35.49    -0.235 N 
ATOM      9  HH  ARG D 557     -22.832  -1.346 -16.089  1.00 35.49     0.174 HD
ATOM     10  HH  ARG D 557     -22.560  -2.403 -15.084  1.00 35.49     0.174 HD
ATOM     11  HH  ARG D 557     -25.103  -1.825 -13.146  1.00 35.49     0.174 HD
ATOM     12  HH  ARG D 557     -23.916  -2.703 -13.314  1.00 35.49     0.174 HD
ATOM     13  HE  ARG D 557     -25.620  -0.346 -14.565  1.00 35.49     0.178 HD
ENDBRANCH   4   5
ENDBRANCH   3   4
ENDBRANCH   2   3
ENDBRANCH   1   2
END_RES ARG D 557
BEGIN_RES GLU D 570
REMARK  3 active torsions:
REMARK  status: ('A' for Active; 'I' for Inactive)
REMARK    5  A    between atoms: CA   and  CB  
REMARK    6  A    between atoms: CB   and  CG  
REMARK    7  A    between atoms: CG   and  CD  
ROOT
ATOM     14  CA  GLU D 570     -18.033  -6.348 -13.375  1.00 32.92     0.160 C 
ENDROOT
BRANCH  14  15
ATOM     15  CB  GLU D 570     -19.500  -6.345 -13.794  1.00 32.92     0.043 C 
BRANCH  15  16
ATOM     16  CG  GLU D 570     -19.809  -5.989 -15.203  1.00 32.92     0.100 C 
BRANCH  16  17
ATOM     17  CD  GLU D 570     -21.283  -5.763 -15.444  1.00 32.92     0.185 C 
ATOM     18  OE1 GLU D 570     -21.683  -4.615 -15.717  1.00 32.92    -0.647 OA
ATOM     19  OE2 GLU D 570     -22.049  -6.742 -15.343  1.00 32.92    -0.647 OA
ENDBRANCH  16  17
ENDBRANCH  15  16
ENDBRANCH  14  15
END_RES GLU D 570
ENDMDL
MODEL 4
REMARK VINA RESULT:      -6.0      1.641      2.178
REMARK  2 active torsions:
REMARK  status: ('A' for Active; 'I' for Inactive)
REMARK    1  A    between atoms: CA_7  and  C_9 
REMARK    2  A    between atoms: C_9  and  OXT_11 
ROOT
HETATM    1  C   UNL     1     -20.393  -4.156 -10.971  1.00  0.00     0.088 C 
HETATM    2  C   UNL     1     -21.779  -3.860 -11.495  1.00  0.00     0.069 C 
HETATM    3  N   UNL     1     -22.645  -3.415 -10.669  1.00  0.00    -0.380 N 
ATOM      4  HN  UNL     1     -22.379  -3.262  -9.697  1.00  0.00     0.160 HD
HETATM    5  C   UNL     1     -24.006  -3.123 -11.092  1.00  0.00     0.123 C 
HETATM    6  C   UNL     1     -24.373  -3.411 -12.540  1.00  0.00     0.056 C 
HETATM    7  CA  UNL     1     -23.257  -3.821 -13.486  1.00  0.00     0.182 C 
HETATM    8  N   UNL     1     -21.989  -4.056 -12.821  1.00  0.00    -0.366 N 
HETATM    9  H   UNL     1     -21.279  -4.540 -13.367  1.00  0.00     0.161 HD
ENDROOT
BRANCH   7  10
HETATM   10  C   UNL     1     -23.059  -2.737 -14.552  1.00  0.00     0.163 C 
HETATM   11  O   UNL     1     -23.655  -1.672 -14.574  1.00  0.00    -0.648 OA
BRANCH  10  12
HETATM   12  OXT UNL     1     -22.129  -3.078 -15.481  1.00  0.00    -0.775 OA
HETATM   13  HXT UNL     1     -21.331  -3.427 -15.027  1.00  0.00     0.167 HD
ENDBRANCH  10  12
ENDBRANCH   7  10
TORSDOF 2
BEGIN_RES ARG D 557
REMARK  4 active torsions:
REMARK  status: ('A' for Active; 'I' for Inactive)
REMARK    1  A    between atoms: CA   and  CB  
REMARK    2  A    between atoms: CB   and  CG  
REMARK    3  A    between atoms: CG   and  CD  
REMARK    4  A    between atoms: CD   and  NE  
REMARK       I    between atoms: NE   and  CZ  
REMARK       I    between atoms: CZ   and  NH1 
REMARK       I    between atoms: CZ   and  NH2 
ROOT
ATOM      1  CA  ARG D 557     -26.217   2.705 -17.014  1.00 35.49     0.159 C 
ENDROOT
BRANCH   1   2
ATOM      2  CB  ARG D 557     -26.789   1.319 -17.183  1.00 35.49     0.034 C 
BRANCH   2   3
ATOM      3  CG  ARG D 557     -28.237   1.174 -16.993  1.00 35.49     0.027 C 
BRANCH   3   4
ATOM      4  CD  ARG D 557     -28.638  -0.232 -16.760  1.00 35.49     0.116 C 
BRANCH   4   5
ATOM      5  NE  ARG D 557     -27.628  -0.974 -16.054  1.00 35.49    -0.212 N 
ATOM      6  CZ  ARG D 557     -27.444  -2.274 -16.117  1.00 35.49     0.666 C 
ATOM      7  NH1 ARG D 557     -28.207  -3.063 -16.852  1.00 35.49    -0.235 N 
ATOM      8  NH2 ARG D 557     -26.464  -2.777 -15.424  1.00 35.49    -0.235 N 
ATOM      9  HH  ARG D 557     -28.856  -2.754 -17.317  1.00 35.49     0.174 HD
ATOM     10  HH  ARG D 557     -28.038  -3.903 -16.856  1.00 35.49     0.174 HD
ATOM     11  HH  ARG D 557     -25.983  -2.242 -14.965  1.00 35.49     0.174 HD
ATOM     12  HH  ARG D 557     -26.312  -3.611 -15.443  1.00 35.49     0.174 HD
ATOM     13  HE  ARG D 557     -27.137  -0.555 -15.500  1.00 35.49     0.178 HD
ENDBRANCH   4   5
ENDBRANCH   3   4
ENDBRANCH   2   3
ENDBRANCH   1   2
END_RES ARG D 557
BEGIN_RES GLU D 570
REMARK  3 active torsions:
REMARK  status: ('A' for Active; 'I' for Inactive)
REMARK    5  A    between atoms: CA   and  CB  
REMARK    6  A    between atoms: CB   and  CG  
REMARK    7  A    between atoms: CG   and  CD  
ROOT
ATOM     14  CA  GLU D 570     -18.033  -6.348 -13.375  1.00 32.92     0.160 C 
ENDROOT
BRANCH  14  15
ATOM     15  CB  GLU D 570     -19.500  -6.345 -13.794  1.00 32.92     0.043 C 
BRANCH  15  16
ATOM     16  CG  GLU D 570     -19.800  -6.136 -15.234  1.00 32.92     0.100 C 
BRANCH  16  17
ATOM     17  CD  GLU D 570     -21.085  -6.800 -15.671  1.00 32.92     0.185 C 
ATOM     18  OE1 GLU D 570     -21.109  -8.038 -15.814  1.00 32.92    -0.647 OA
ATOM     19  OE2 GLU D 570     -22.075  -6.073 -15.888  1.00 32.92    -0.647 OA
ENDBRANCH  16  17
ENDBRANCH  15  16
ENDBRANCH  14  15
END_RES GLU D 570
ENDMDL
MODEL 5
REMARK VINA RESULT:      -6.0      3.200      4.339
REMARK  2 active torsions:
REMARK  status: ('A' for Active; 'I' for Inactive)
REMARK    1  A    between atoms: CA_7  and  C_9 
REMARK    2  A    between atoms: C_9  and  OXT_11 
ROOT
HETATM    1  C   UNL     1     -22.153  -5.216  -6.385  1.00  0.00     0.088 C 
HETATM    2  C   UNL     1     -21.977  -4.633  -7.768  1.00  0.00     0.069 C 
HETATM    3  N   UNL     1     -20.888  -4.881  -8.385  1.00  0.00    -0.380 N 
ATOM      4  HN  UNL     1     -20.182  -5.468  -7.940  1.00  0.00     0.160 HD
HETATM    5  C   UNL     1     -20.635  -4.342  -9.712  1.00  0.00     0.123 C 
HETATM    6  C   UNL     1     -21.694  -3.433 -10.318  1.00  0.00     0.056 C 
HETATM    7  CA  UNL     1     -23.012  -3.287  -9.576  1.00  0.00     0.182 C 
HETATM    8  N   UNL     1     -23.014  -3.915  -8.267  1.00  0.00    -0.366 N 
HETATM    9  H   UNL     1     -23.781  -3.659  -7.649  1.00  0.00     0.161 HD
ENDROOT
BRANCH   7  10
HETATM   10  C   UNL     1     -24.146  -3.891 -10.412  1.00  0.00     0.163 C 
HETATM   11  O   UNL     1     -25.048  -3.245 -10.922  1.00  0.00    -0.648 OA
BRANCH  10  12
HETATM   12  OXT UNL     1     -24.043  -5.238 -10.543  1.00  0.00    -0.775 OA
HETATM   13  HXT UNL     1     -24.894  -5.654 -10.284  1.00  0.00     0.167 HD
ENDBRANCH  10  12
ENDBRANCH   7  10
TORSDOF 2
BEGIN_RES ARG D 557
REMARK  4 active torsions:
REMARK  status: ('A' for Active; 'I' for Inactive)
REMARK    1  A    between atoms: CA   and  CB  
REMARK    2  A    between atoms: CB   and  CG  
REMARK    3  A    between atoms: CG   and  CD  
REMARK    4  A    between atoms: CD   and  NE  
REMARK       I    between atoms: NE   and  CZ  
REMARK       I    between atoms: CZ   and  NH1 
REMARK       I    between atoms: CZ   and  NH2 
ROOT
ATOM      1  CA  ARG D 557     -26.217   2.705 -17.014  1.00 35.49     0.159 C 
ENDROOT
BRANCH   1   2
ATOM      2  CB  ARG D 557     -26.789   1.319 -17.183  1.00 35.49     0.034 C 
BRANCH   2   3
ATOM      3  CG  ARG D 557     -25.863   0.195 -16.997  1.00 35.49     0.027 C 
BRANCH   3   4
ATOM      4  CD  ARG D 557     -26.216  -0.639 -15.826  1.00 35.49     0.116 C 
BRANCH   4   5
ATOM      5  NE  ARG D 557     -25.076  -0.915 -14.993  1.00 35.49    -0.212 N 
ATOM      6  CZ  ARG D 557     -24.920  -1.973 -14.229  1.00 35.49     0.666 C 
ATOM      7  NH1 ARG D 557     -25.835  -2.920 -14.134  1.00 35.49    -0.235 N 
ATOM      8  NH2 ARG D 557     -23.810  -2.069 -13.556  1.00 35.49    -0.235 N 
ATOM      9  HH  ARG D 557     -26.572  -2.878 -14.570  1.00 35.49     0.174 HD
ATOM     10  HH  ARG D 557     -25.677  -3.588 -13.622  1.00 35.49     0.174 HD
ATOM     11  HH  ARG D 557     -23.234  -1.446 -13.643  1.00 35.49     0.174 HD
ATOM     12  HH  ARG D 557     -23.672  -2.740 -13.056  1.00 35.49     0.174 HD
ATOM     13  HE  ARG D 557     -24.469  -0.321 -14.937  1.00 35.49     0.178 HD
ENDBRANCH   4   5
ENDBRANCH   3   4
ENDBRANCH   2   3
ENDBRANCH   1   2
END_RES ARG D 557
BEGIN_RES GLU D 570
REMARK  3 active torsions:
REMARK  status: ('A' for Active; 'I' for Inactive)
REMARK    5  A    between atoms: CA   and  CB  
REMARK    6  A    between atoms: CB   and  CG  
REMARK    7  A    between atoms: CG   and  CD  
ROOT
ATOM     14  CA  GLU D 570     -18.033  -6.348 -13.375  1.00 32.92     0.160 C 
ENDROOT
BRANCH  14  15
ATOM     15  CB  GLU D 570     -19.500  -6.345 -13.794  1.00 32.92     0.043 C 
BRANCH  15  16
ATOM     16  CG  GLU D 570     -20.422  -5.447 -13.052  1.00 32.92     0.100 C 
BRANCH  16  17
ATOM     17  CD  GLU D 570     -21.675  -5.117 -13.829  1.00 32.92     0.185 C 
ATOM     18  OE1 GLU D 570     -22.768  -5.087 -13.230  1.00 32.92    -0.647 OA
ATOM     19  OE2 GLU D 570     -21.566  -4.903 -15.052  1.00 32.92    -0.647 OA
ENDBRANCH  16  17
ENDBRANCH  15  16
ENDBRANCH  14  15
END_RES GLU D 570
ENDMDL
MODEL 6
REMARK VINA RESULT:      -5.5      2.481      3.780
REMARK  2 active torsions:
REMARK  status: ('A' for Active; 'I' for Inactive)
REMARK    1  A    between atoms: CA_7  and  C_9 
REMARK    2  A    between atoms: C_9  and  OXT_11 
ROOT
HETATM    1  C   UNL     1     -23.336  -5.579 -14.050  1.00  0.00     0.088 C 
HETATM    2  C   UNL     1     -22.854  -4.901 -12.788  1.00  0.00     0.069 C 
HETATM    3  N   UNL     1     -21.842  -4.129 -12.877  1.00  0.00    -0.380 N 
ATOM      4  HN  UNL     1     -21.401  -3.982 -13.785  1.00  0.00     0.160 HD
HETATM    5  C   UNL     1     -21.306  -3.454 -11.705  1.00  0.00     0.123 C 
HETATM    6  C   UNL     1     -21.964  -3.738 -10.364  1.00  0.00     0.056 C 
HETATM    7  CA  UNL     1     -23.236  -4.569 -10.360  1.00  0.00     0.182 C 
HETATM    8  N   UNL     1     -23.561  -5.139 -11.655  1.00  0.00    -0.366 N 
HETATM    9  H   UNL     1     -24.266  -5.873 -11.657  1.00  0.00     0.161 HD
ENDROOT
BRANCH   7  10
HETATM   10  C   UNL     1     -24.415  -3.708  -9.893  1.00  0.00     0.163 C 
HETATM   11  O   UNL     1     -25.228  -3.186 -10.639  1.00  0.00    -0.648 OA
BRANCH  10  12
HETATM   12  OXT UNL     1     -24.477  -3.590  -8.542  1.00  0.00    -0.775 OA
HETATM   13  HXT UNL     1     -23.640  -3.923  -8.150  1.00  0.00     0.167 HD
ENDBRANCH  10  12
ENDBRANCH   7  10
TORSDOF 2
BEGIN_RES ARG D 557
REMARK  4 active torsions:
REMARK  status: ('A' for Active; 'I' for Inactive)
REMARK    1  A    between atoms: CA   and  CB  
REMARK    2  A    between atoms: CB   and  CG  
REMARK    3  A    between atoms: CG   and  CD  
REMARK    4  A    between atoms: CD   and  NE  
REMARK       I    between atoms: NE   and  CZ  
REMARK       I    between atoms: CZ   and  NH1 
REMARK       I    between atoms: CZ   and  NH2 
ROOT
ATOM      1  CA  ARG D 557     -26.217   2.705 -17.014  1.00 35.49     0.159 C 
ENDROOT
BRANCH   1   2
ATOM      2  CB  ARG D 557     -26.789   1.319 -17.183  1.00 35.49     0.034 C 
BRANCH   2   3
ATOM      3  CG  ARG D 557     -25.982   0.204 -16.672  1.00 35.49     0.027 C 
BRANCH   3   4
ATOM      4  CD  ARG D 557     -26.814  -0.938 -16.229  1.00 35.49     0.116 C 
BRANCH   4   5
ATOM      5  NE  ARG D 557     -26.229  -1.634 -15.113  1.00 35.49    -0.212 N 
ATOM      6  CZ  ARG D 557     -25.023  -1.436 -14.631  1.00 35.49     0.666 C 
ATOM      7  NH1 ARG D 557     -24.188  -0.555 -15.150  1.00 35.49    -0.235 N 
ATOM      8  NH2 ARG D 557     -24.665  -2.144 -13.599  1.00 35.49    -0.235 N 
ATOM      9  HH  ARG D 557     -24.403  -0.077 -15.828  1.00 35.49     0.174 HD
ATOM     10  HH  ARG D 557     -23.414  -0.467 -14.791  1.00 35.49     0.174 HD
ATOM     11  HH  ARG D 557     -25.228  -2.700 -13.281  1.00 35.49     0.174 HD
ATOM     12  HH  ARG D 557     -23.896  -2.041 -13.258  1.00 35.49     0.174 HD
ATOM     13  HE  ARG D 557     -26.671  -2.271 -14.764  1.00 35.49     0.178 HD
ENDBRANCH   4   5
ENDBRANCH   3   4
ENDBRANCH   2   3
ENDBRANCH   1   2
END_RES ARG D 557
BEGIN_RES GLU D 570
REMARK  3 active torsions:
REMARK  status: ('A' for Active; 'I' for Inactive)
REMARK    5  A    between atoms: CA   and  CB  
REMARK    6  A    between atoms: CB   and  CG  
REMARK    7  A    between atoms: CG   and  CD  
ROOT
ATOM     14  CA  GLU D 570     -18.033  -6.348 -13.375  1.00 32.92     0.160 C 
ENDROOT
BRANCH  14  15
ATOM     15  CB  GLU D 570     -19.500  -6.345 -13.794  1.00 32.92     0.043 C 
BRANCH  15  16
ATOM     16  CG  GLU D 570     -19.971  -7.468 -14.645  1.00 32.92     0.100 C 
BRANCH  16  17
ATOM     17  CD  GLU D 570     -20.635  -7.003 -15.920  1.00 32.92     0.185 C 
ATOM     18  OE1 GLU D 570     -21.348  -7.801 -16.558  1.00 32.92    -0.647 OA
ATOM     19  OE2 GLU D 570     -20.425  -5.832 -16.295  1.00 32.92    -0.647 OA
ENDBRANCH  16  17
ENDBRANCH  15  16
ENDBRANCH  14  15
END_RES GLU D 570
ENDMDL
MODEL 7
REMARK VINA RESULT:      -5.4      2.254      2.766
REMARK  2 active torsions:
REMARK  status: ('A' for Active; 'I' for Inactive)
REMARK    1  A    between atoms: CA_7  and  C_9 
REMARK    2  A    between atoms: C_9  and  OXT_11 
ROOT
HETATM    1  C   UNL     1     -22.640  -4.354  -7.682  1.00  0.00     0.088 C 
HETATM    2  C   UNL     1     -22.239  -4.069  -9.111  1.00  0.00     0.069 C 
HETATM    3  N   UNL     1     -21.139  -4.563  -9.531  1.00  0.00    -0.380 N 
ATOM      4  HN  UNL     1     -20.577  -5.140  -8.905  1.00  0.00     0.160 HD
HETATM    5  C   UNL     1     -20.675  -4.319 -10.888  1.00  0.00     0.123 C 
HETATM    6  C   UNL     1     -21.520  -3.415 -11.772  1.00  0.00     0.056 C 
HETATM    7  CA  UNL     1     -22.872  -2.968 -11.242  1.00  0.00     0.182 C 
HETATM    8  N   UNL     1     -23.101  -3.332  -9.855  1.00  0.00    -0.366 N 
HETATM    9  H   UNL     1     -23.882  -2.870  -9.394  1.00  0.00     0.161 HD
ENDROOT
BRANCH   7  10
HETATM   10  C   UNL     1     -23.990  -3.571 -12.099  1.00  0.00     0.163 C 
HETATM   11  O   UNL     1     -25.092  -3.067 -12.250  1.00  0.00    -0.648 OA
BRANCH  10  12
HETATM   12  OXT UNL     1     -23.626  -4.734 -12.696  1.00  0.00    -0.775 OA
HETATM   13  HXT UNL     1     -22.710  -4.964 -12.425  1.00  0.00     0.167 HD
ENDBRANCH  10  12
ENDBRANCH   7  10
TORSDOF 2
BEGIN_RES ARG D 557
REMARK  4 active torsions:
REMARK  status: ('A' for Active; 'I' for Inactive)
REMARK    1  A    between atoms: CA   and  CB  
REMARK    2  A    between atoms: CB   and  CG  
REMARK    3  A    between atoms: CG   and  CD  
REMARK    4  A    between atoms: CD   and  NE  
REMARK       I    between atoms: NE   and  CZ  
REMARK       I    between atoms: CZ   and  NH1 
REMARK       I    between atoms: CZ   and  NH2 
ROOT
ATOM      1  CA  ARG D 557     -26.217   2.705 -17.014  1.00 35.49     0.159 C 
ENDROOT
BRANCH   1   2
ATOM      2  CB  ARG D 557     -26.789   1.319 -17.183  1.00 35.49     0.034 C 
BRANCH   2   3
ATOM      3  CG  ARG D 557     -28.212   1.148 -16.866  1.00 35.49     0.027 C 
BRANCH   3   4
ATOM      4  CD  ARG D 557     -28.554  -0.256 -16.542  1.00 35.49     0.116 C 
BRANCH   4   5
ATOM      5  NE  ARG D 557     -27.503  -0.915 -15.813  1.00 35.49    -0.212 N 
ATOM      6  CZ  ARG D 557     -27.211  -2.195 -15.876  1.00 35.49     0.666 C 
ATOM      7  NH1 ARG D 557     -27.886  -3.040 -16.632  1.00 35.49    -0.235 N 
ATOM      8  NH2 ARG D 557     -26.209  -2.618 -15.160  1.00 35.49    -0.235 N 
ATOM      9  HH  ARG D 557     -28.548  -2.784 -17.112  1.00 35.49     0.174 HD
ATOM     10  HH  ARG D 557     -27.649  -3.864 -16.634  1.00 35.49     0.174 HD
ATOM     11  HH  ARG D 557     -25.786  -2.048 -14.687  1.00 35.49     0.174 HD
ATOM     12  HH  ARG D 557     -25.988  -3.436 -15.178  1.00 35.49     0.174 HD
ATOM     13  HE  ARG D 557     -27.063  -0.459 -15.246  1.00 35.49     0.178 HD
ENDBRANCH   4   5
ENDBRANCH   3   4
ENDBRANCH   2   3
ENDBRANCH   1   2
END_RES ARG D 557
BEGIN_RES GLU D 570
REMARK  3 active torsions:
REMARK  status: ('A' for Active; 'I' for Inactive)
REMARK    5  A    between atoms: CA   and  CB  
REMARK    6  A    between atoms: CB   and  CG  
REMARK    7  A    between atoms: CG   and  CD  
ROOT
ATOM     14  CA  GLU D 570     -18.033  -6.348 -13.375  1.00 32.92     0.160 C 
ENDROOT
BRANCH  14  15
ATOM     15  CB  GLU D 570     -19.500  -6.345 -13.794  1.00 32.92     0.043 C 
BRANCH  15  16
ATOM     16  CG  GLU D 570     -19.812  -5.944 -15.190  1.00 32.92     0.100 C 
BRANCH  16  17
ATOM     17  CD  GLU D 570     -21.268  -5.592 -15.391  1.00 32.92     0.185 C 
ATOM     18  OE1 GLU D 570     -22.134  -6.202 -14.733  1.00 32.92    -0.647 OA
ATOM     19  OE2 GLU D 570     -21.547  -4.710 -16.226  1.00 32.92    -0.647 OA
ENDBRANCH  16  17
ENDBRANCH  15  16
ENDBRANCH  14  15
END_RES GLU D 570
ENDMDL
MODEL 8
REMARK VINA RESULT:      -5.4      2.011      2.911
REMARK  2 active torsions:
REMARK  status: ('A' for Active; 'I' for Inactive)
REMARK    1  A    between atoms: CA_7  and  C_9 
REMARK    2  A    between atoms: C_9  and  OXT_11 
ROOT
HETATM    1  C   UNL     1     -23.812  -6.119 -14.267  1.00  0.00     0.088 C 
HETATM    2  C   UNL     1     -23.456  -4.868 -13.497  1.00  0.00     0.069 C 
HETATM    3  N   UNL     1     -23.362  -3.774 -14.149  1.00  0.00    -0.380 N 
ATOM      4  HN  UNL     1     -23.541  -3.772 -15.153  1.00  0.00     0.160 HD
HETATM    5  C   UNL     1     -23.006  -2.531 -13.484  1.00  0.00     0.123 C 
HETATM    6  C   UNL     1     -22.701  -2.589 -11.994  1.00  0.00     0.056 C 
HETATM    7  CA  UNL     1     -22.954  -3.899 -11.270  1.00  0.00     0.182 C 
HETATM    8  N   UNL     1     -23.296  -4.997 -12.157  1.00  0.00    -0.366 N 
HETATM    9  H   UNL     1     -23.256  -5.929 -11.751  1.00  0.00     0.161 HD
ENDROOT
BRANCH   7  10
HETATM   10  C   UNL     1     -24.087  -3.719 -10.253  1.00  0.00     0.163 C 
HETATM   11  O   UNL     1     -23.994  -3.974  -9.063  1.00  0.00    -0.648 OA
BRANCH  10  12
HETATM   12  OXT UNL     1     -25.222  -3.227 -10.812  1.00  0.00    -0.775 OA
HETATM   13  HXT UNL     1     -25.849  -2.972 -10.100  1.00  0.00     0.167 HD
ENDBRANCH  10  12
ENDBRANCH   7  10
TORSDOF 2
BEGIN_RES ARG D 557
REMARK  4 active torsions:
REMARK  status: ('A' for Active; 'I' for Inactive)
REMARK    1  A    between atoms: CA   and  CB  
REMARK    2  A    between atoms: CB   and  CG  
REMARK    3  A    between atoms: CG   and  CD  
REMARK    4  A    between atoms: CD   and  NE  
REMARK       I    between atoms: NE   and  CZ  
REMARK       I    between atoms: CZ   and  NH1 
REMARK       I    between atoms: CZ   and  NH2 
ROOT
ATOM      1  CA  ARG D 557     -26.217   2.705 -17.014  1.00 35.49     0.159 C 
ENDROOT
BRANCH   1   2
ATOM      2  CB  ARG D 557     -26.789   1.319 -17.183  1.00 35.49     0.034 C 
BRANCH   2   3
ATOM      3  CG  ARG D 557     -28.231   1.167 -16.952  1.00 35.49     0.027 C 
BRANCH   3   4
ATOM      4  CD  ARG D 557     -28.624  -0.247 -16.755  1.00 35.49     0.116 C 
BRANCH   4   5
ATOM      5  NE  ARG D 557     -27.618  -0.997 -16.050  1.00 35.49    -0.212 N 
ATOM      6  CZ  ARG D 557     -27.445  -2.298 -16.112  1.00 35.49     0.666 C 
ATOM      7  NH1 ARG D 557     -28.216  -3.082 -16.844  1.00 35.49    -0.235 N 
ATOM      8  NH2 ARG D 557     -26.467  -2.808 -15.421  1.00 35.49    -0.235 N 
ATOM      9  HH  ARG D 557     -28.864  -2.768 -17.308  1.00 35.49     0.174 HD
ATOM     10  HH  ARG D 557     -28.054  -3.923 -16.847  1.00 35.49     0.174 HD
ATOM     11  HH  ARG D 557     -25.981  -2.276 -14.964  1.00 35.49     0.174 HD
ATOM     12  HH  ARG D 557     -26.322  -3.643 -15.439  1.00 35.49     0.174 HD
ATOM     13  HE  ARG D 557     -27.123  -0.580 -15.498  1.00 35.49     0.178 HD
ENDBRANCH   4   5
ENDBRANCH   3   4
ENDBRANCH   2   3
ENDBRANCH   1   2
END_RES ARG D 557
BEGIN_RES GLU D 570
REMARK  3 active torsions:
REMARK  status: ('A' for Active; 'I' for Inactive)
REMARK    5  A    between atoms: CA   and  CB  
REMARK    6  A    between atoms: CB   and  CG  
REMARK    7  A    between atoms: CG   and  CD  
ROOT
ATOM     14  CA  GLU D 570     -18.033  -6.348 -13.375  1.00 32.92     0.160 C 
ENDROOT
BRANCH  14  15
ATOM     15  CB  GLU D 570     -19.500  -6.345 -13.794  1.00 32.92     0.043 C 
BRANCH  15  16
ATOM     16  CG  GLU D 570     -19.797  -6.224 -15.245  1.00 32.92     0.100 C 
BRANCH  16  17
ATOM     17  CD  GLU D 570     -20.673  -7.341 -15.762  1.00 32.92     0.185 C 
ATOM     18  OE1 GLU D 570     -20.604  -8.463 -15.224  1.00 32.92    -0.647 OA
ATOM     19  OE2 GLU D 570     -21.423  -7.096 -16.727  1.00 32.92    -0.647 OA
ENDBRANCH  16  17
ENDBRANCH  15  16
ENDBRANCH  14  15
END_RES GLU D 570
ENDMDL
MODEL 9
REMARK VINA RESULT:      -5.3      3.042      3.839
REMARK  2 active torsions:
REMARK  status: ('A' for Active; 'I' for Inactive)
REMARK    1  A    between atoms: CA_7  and  C_9 
REMARK    2  A    between atoms: C_9  and  OXT_11 
ROOT
HETATM    1  C   UNL     1     -23.839  -3.678 -12.780  1.00  0.00     0.088 C 
HETATM    2  C   UNL     1     -22.731  -3.850 -11.768  1.00  0.00     0.069 C 
HETATM    3  N   UNL     1     -21.585  -3.364 -12.052  1.00  0.00    -0.380 N 
ATOM      4  HN  UNL     1     -21.455  -2.869 -12.934  1.00  0.00     0.160 HD
HETATM    5  C   UNL     1     -20.462  -3.504 -11.139  1.00  0.00     0.123 C 
HETATM    6  C   UNL     1     -20.688  -4.291  -9.856  1.00  0.00     0.056 C 
HETATM    7  CA  UNL     1     -22.106  -4.729  -9.535  1.00  0.00     0.182 C 
HETATM    8  N   UNL     1     -23.048  -4.482 -10.611  1.00  0.00    -0.366 N 
HETATM    9  H   UNL     1     -23.948  -4.952 -10.535  1.00  0.00     0.161 HD
ENDROOT
BRANCH   7  10
HETATM   10  C   UNL     1     -22.598  -4.008  -8.275  1.00  0.00     0.163 C 
HETATM   11  O   UNL     1     -21.869  -3.587  -7.391  1.00  0.00    -0.648 OA
BRANCH  10  12
HETATM   12  OXT UNL     1     -23.948  -3.868  -8.243  1.00  0.00    -0.775 OA
HETATM   13  HXT UNL     1     -24.360  -4.578  -8.782  1.00  0.00     0.167 HD
ENDBRANCH  10  12
ENDBRANCH   7  10
TORSDOF 2
BEGIN_RES ARG D 557
REMARK  4 active torsions:
REMARK  status: ('A' for Active; 'I' for Inactive)
REMARK    1  A    between atoms: CA   and  CB  
REMARK    2  A    between atoms: CB   and  CG  
REMARK    3  A    between atoms: CG   and  CD  
REMARK    4  A    between atoms: CD   and  NE  
REMARK       I    between atoms: NE   and  CZ  
REMARK       I    between atoms: CZ   and  NH1 
REMARK       I    between atoms: CZ   and  NH2 
ROOT
ATOM      1  CA  ARG D 557     -26.217   2.705 -17.014  1.00 35.49     0.159 C 
ENDROOT
BRANCH   1   2
ATOM      2  CB  ARG D 557     -26.789   1.319 -17.183  1.00 35.49     0.034 C 
BRANCH   2   3
ATOM      3  CG  ARG D 557     -28.232   1.226 -17.434  1.00 35.49     0.027 C 
BRANCH   3   4
ATOM      4  CD  ARG D 557     -28.909   0.301 -16.496  1.00 35.49     0.116 C 
BRANCH   4   5
ATOM      5  NE  ARG D 557     -29.303  -0.927 -17.135  1.00 35.49    -0.212 N 
ATOM      6  CZ  ARG D 557     -28.677  -2.078 -17.038  1.00 35.49     0.666 C 
ATOM      7  NH1 ARG D 557     -27.574  -2.228 -16.328  1.00 35.49    -0.235 N 
ATOM      8  NH2 ARG D 557     -29.189  -3.095 -17.669  1.00 35.49    -0.235 N 
ATOM      9  HH  ARG D 557     -27.221  -1.574 -15.903  1.00 35.49     0.174 HD
ATOM     10  HH  ARG D 557     -27.211  -3.004 -16.299  1.00 35.49     0.174 HD
ATOM     11  HH  ARG D 557     -29.906  -2.970 -18.114  1.00 35.49     0.174 HD
ATOM     12  HH  ARG D 557     -28.816  -3.855 -17.627  1.00 35.49     0.174 HD
ATOM     13  HE  ARG D 557     -29.963  -0.904 -17.671  1.00 35.49     0.178 HD
ENDBRANCH   4   5
ENDBRANCH   3   4
ENDBRANCH   2   3
ENDBRANCH   1   2
END_RES ARG D 557
BEGIN_RES GLU D 570
REMARK  3 active torsions:
REMARK  status: ('A' for Active; 'I' for Inactive)
REMARK    5  A    between atoms: CA   and  CB  
REMARK    6  A    between atoms: CB   and  CG  
REMARK    7  A    between atoms: CG   and  CD  
ROOT
ATOM     14  CA  GLU D 570     -18.033  -6.348 -13.375  1.00 32.92     0.160 C 
ENDROOT
BRANCH  14  15
ATOM     15  CB  GLU D 570     -19.500  -6.345 -13.794  1.00 32.92     0.043 C 
BRANCH  15  16
ATOM     16  CG  GLU D 570     -20.101  -7.644 -14.192  1.00 32.92     0.100 C 
BRANCH  16  17
ATOM     17  CD  GLU D 570     -20.603  -7.650 -15.617  1.00 32.92     0.185 C 
ATOM     18  OE1 GLU D 570     -20.739  -8.739 -16.207  1.00 32.92    -0.647 OA
ATOM     19  OE2 GLU D 570     -20.847  -6.552 -16.155  1.00 32.92    -0.647 OA
ENDBRANCH  16  17
ENDBRANCH  15  16
ENDBRANCH  14  15
END_RES GLU D 570
ENDMDL
