MODEL 1
REMARK VINA RESULT:      -1.3      0.000      0.000
REMARK  5 active torsions:
REMARK  status: ('A' for Active; 'I' for Inactive)
REMARK    1  A    between atoms: C_4  and  S_26 
REMARK    2  A    between atoms: C_5  and  N_8 
REMARK    3  A    between atoms: N_10  and  C_12 
REMARK    4  A    between atoms: C_14  and  C_22 
REMARK    5  A    between atoms: C_22  and  O_24 
ROOT
HETATM    1 NA   UNL     2     -32.354  -8.536   4.537  1.00  0.00     0.000 Na
ENDROOT
TORSDOF 5
BEGIN_RES ARG D 557
REMARK  4 active torsions:
REMARK  status: ('A' for Active; 'I' for Inactive)
REMARK    1  A    between atoms: CA   and  CB  
REMARK    2  A    between atoms: CB   and  CG  
REMARK    3  A    between atoms: CG   and  CD  
REMARK    4  A    between atoms: CD   and  NE  
REMARK       I    between atoms: NE   and  CZ  
REMARK       I    between atoms: CZ   and  NH1 
REMARK       I    between atoms: CZ   and  NH2 
ROOT
ATOM      1  CA  ARG D 557     -26.217   2.705 -17.014  1.00 35.49     0.159 C 
ENDROOT
BRANCH   1   2
ATOM      2  CB  ARG D 557     -26.789   1.319 -17.183  1.00 35.49     0.034 C 
BRANCH   2   3
ATOM      3  CG  ARG D 557     -25.836   0.203 -17.157  1.00 35.49     0.027 C 
BRANCH   3   4
ATOM      4  CD  ARG D 557     -24.755   0.407 -16.166  1.00 35.49     0.116 C 
BRANCH   4   5
ATOM      5  NE  ARG D 557     -24.907  -0.444 -15.015  1.00 35.49    -0.212 N 
ATOM      6  CZ  ARG D 557     -24.096  -1.418 -14.667  1.00 35.49     0.666 C 
ATOM      7  NH1 ARG D 557     -23.026  -1.736 -15.372  1.00 35.49    -0.235 N 
ATOM      8  NH2 ARG D 557     -24.378  -2.073 -13.579  1.00 35.49    -0.235 N 
ATOM      9  HH  ARG D 557     -22.821  -1.316 -16.091  1.00 35.49     0.174 HD
ATOM     10  HH  ARG D 557     -22.532  -2.379 -15.095  1.00 35.49     0.174 HD
ATOM     11  HH  ARG D 557     -25.071  -1.841 -13.139  1.00 35.49     0.174 HD
ATOM     12  HH  ARG D 557     -23.876  -2.706 -13.320  1.00 35.49     0.174 HD
ATOM     13  HE  ARG D 557     -25.610  -0.356 -14.544  1.00 35.49     0.178 HD
ENDBRANCH   4   5
ENDBRANCH   3   4
ENDBRANCH   2   3
ENDBRANCH   1   2
END_RES ARG D 557
BEGIN_RES GLU D 570
REMARK  3 active torsions:
REMARK  status: ('A' for Active; 'I' for Inactive)
REMARK    5  A    between atoms: CA   and  CB  
REMARK    6  A    between atoms: CB   and  CG  
REMARK    7  A    between atoms: CG   and  CD  
ROOT
ATOM     14  CA  GLU D 570     -18.033  -6.348 -13.375  1.00 32.92     0.160 C 
ENDROOT
BRANCH  14  15
ATOM     15  CB  GLU D 570     -19.500  -6.345 -13.794  1.00 32.92     0.043 C 
BRANCH  15  16
ATOM     16  CG  GLU D 570     -20.442  -5.530 -12.984  1.00 32.92     0.100 C 
BRANCH  16  17
ATOM     17  CD  GLU D 570     -21.736  -5.234 -13.705  1.00 32.92     0.185 C 
ATOM     18  OE1 GLU D 570     -22.183  -6.070 -14.514  1.00 32.92    -0.647 OA
ATOM     19  OE2 GLU D 570     -22.301  -4.147 -13.471  1.00 32.92    -0.647 OA
ENDBRANCH  16  17
ENDBRANCH  15  16
ENDBRANCH  14  15
END_RES GLU D 570
ENDMDL
MODEL 2
REMARK VINA RESULT:      -1.1      2.962      3.105
REMARK  5 active torsions:
REMARK  status: ('A' for Active; 'I' for Inactive)
REMARK    1  A    between atoms: C_4  and  S_26 
REMARK    2  A    between atoms: C_5  and  N_8 
REMARK    3  A    between atoms: N_10  and  C_12 
REMARK    4  A    between atoms: C_14  and  C_22 
REMARK    5  A    between atoms: C_22  and  O_24 
ROOT
HETATM    1 NA   UNL     2     -32.735  -6.105  -4.973  1.00  0.00     0.000 Na
ENDROOT
TORSDOF 5
BEGIN_RES ARG D 557
REMARK  4 active torsions:
REMARK  status: ('A' for Active; 'I' for Inactive)
REMARK    1  A    between atoms: CA   and  CB  
REMARK    2  A    between atoms: CB   and  CG  
REMARK    3  A    between atoms: CG   and  CD  
REMARK    4  A    between atoms: CD   and  NE  
REMARK       I    between atoms: NE   and  CZ  
REMARK       I    between atoms: CZ   and  NH1 
REMARK       I    between atoms: CZ   and  NH2 
ROOT
ATOM      1  CA  ARG D 557     -26.217   2.705 -17.014  1.00 35.49     0.159 C 
ENDROOT
BRANCH   1   2
ATOM      2  CB  ARG D 557     -26.789   1.319 -17.183  1.00 35.49     0.034 C 
BRANCH   2   3
ATOM      3  CG  ARG D 557     -25.835   0.203 -17.161  1.00 35.49     0.027 C 
BRANCH   3   4
ATOM      4  CD  ARG D 557     -24.748   0.409 -16.177  1.00 35.49     0.116 C 
BRANCH   4   5
ATOM      5  NE  ARG D 557     -24.896  -0.436 -15.021  1.00 35.49    -0.212 N 
ATOM      6  CZ  ARG D 557     -24.083  -1.407 -14.671  1.00 35.49     0.666 C 
ATOM      7  NH1 ARG D 557     -23.015  -1.727 -15.378  1.00 35.49    -0.235 N 
ATOM      8  NH2 ARG D 557     -24.360  -2.057 -13.578  1.00 35.49    -0.235 N 
ATOM      9  HH  ARG D 557     -22.812  -1.311 -16.099  1.00 35.49     0.174 HD
ATOM     10  HH  ARG D 557     -22.519  -2.368 -15.099  1.00 35.49     0.174 HD
ATOM     11  HH  ARG D 557     -25.052  -1.824 -13.138  1.00 35.49     0.174 HD
ATOM     12  HH  ARG D 557     -23.857  -2.688 -13.318  1.00 35.49     0.174 HD
ATOM     13  HE  ARG D 557     -25.597  -0.347 -14.548  1.00 35.49     0.178 HD
ENDBRANCH   4   5
ENDBRANCH   3   4
ENDBRANCH   2   3
ENDBRANCH   1   2
END_RES ARG D 557
BEGIN_RES GLU D 570
REMARK  3 active torsions:
REMARK  status: ('A' for Active; 'I' for Inactive)
REMARK    5  A    between atoms: CA   and  CB  
REMARK    6  A    between atoms: CB   and  CG  
REMARK    7  A    between atoms: CG   and  CD  
ROOT
ATOM     14  CA  GLU D 570     -18.033  -6.348 -13.375  1.00 32.92     0.160 C 
ENDROOT
BRANCH  14  15
ATOM     15  CB  GLU D 570     -19.500  -6.345 -13.794  1.00 32.92     0.043 C 
BRANCH  15  16
ATOM     16  CG  GLU D 570     -20.445  -5.544 -12.973  1.00 32.92     0.100 C 
BRANCH  16  17
ATOM     17  CD  GLU D 570     -21.741  -5.247 -13.690  1.00 32.92     0.185 C 
ATOM     18  OE1 GLU D 570     -22.271  -4.128 -13.543  1.00 32.92    -0.647 OA
ATOM     19  OE2 GLU D 570     -22.242  -6.148 -14.391  1.00 32.92    -0.647 OA
ENDBRANCH  16  17
ENDBRANCH  15  16
ENDBRANCH  14  15
END_RES GLU D 570
ENDMDL
MODEL 3
REMARK VINA RESULT:      -1.1      7.169      7.211
REMARK  5 active torsions:
REMARK  status: ('A' for Active; 'I' for Inactive)
REMARK    1  A    between atoms: C_4  and  S_26 
REMARK    2  A    between atoms: C_5  and  N_8 
REMARK    3  A    between atoms: N_10  and  C_12 
REMARK    4  A    between atoms: C_14  and  C_22 
REMARK    5  A    between atoms: C_22  and  O_24 
ROOT
HETATM    1 NA   UNL     2     -11.226   1.678   2.516  1.00  0.00     0.000 Na
ENDROOT
TORSDOF 5
BEGIN_RES ARG D 557
REMARK  4 active torsions:
REMARK  status: ('A' for Active; 'I' for Inactive)
REMARK    1  A    between atoms: CA   and  CB  
REMARK    2  A    between atoms: CB   and  CG  
REMARK    3  A    between atoms: CG   and  CD  
REMARK    4  A    between atoms: CD   and  NE  
REMARK       I    between atoms: NE   and  CZ  
REMARK       I    between atoms: CZ   and  NH1 
REMARK       I    between atoms: CZ   and  NH2 
ROOT
ATOM      1  CA  ARG D 557     -26.217   2.705 -17.014  1.00 35.49     0.159 C 
ENDROOT
BRANCH   1   2
ATOM      2  CB  ARG D 557     -26.789   1.319 -17.183  1.00 35.49     0.034 C 
BRANCH   2   3
ATOM      3  CG  ARG D 557     -25.864   0.195 -16.995  1.00 35.49     0.027 C 
BRANCH   3   4
ATOM      4  CD  ARG D 557     -26.275  -0.695 -15.886  1.00 35.49     0.116 C 
BRANCH   4   5
ATOM      5  NE  ARG D 557     -25.214  -0.906 -14.937  1.00 35.49    -0.212 N 
ATOM      6  CZ  ARG D 557     -24.922  -2.045 -14.351  1.00 35.49     0.666 C 
ATOM      7  NH1 ARG D 557     -25.608  -3.152 -14.571  1.00 35.49    -0.235 N 
ATOM      8  NH2 ARG D 557     -23.910  -2.058 -13.533  1.00 35.49    -0.235 N 
ATOM      9  HH  ARG D 557     -26.276  -3.167 -15.107  1.00 35.49     0.174 HD
ATOM     10  HH  ARG D 557     -25.370  -3.866 -14.162  1.00 35.49     0.174 HD
ATOM     11  HH  ARG D 557     -23.481  -1.330 -13.416  1.00 35.49     0.174 HD
ATOM     12  HH  ARG D 557     -23.689  -2.776 -13.139  1.00 35.49     0.174 HD
ATOM     13  HE  ARG D 557     -24.766  -0.229 -14.682  1.00 35.49     0.178 HD
ENDBRANCH   4   5
ENDBRANCH   3   4
ENDBRANCH   2   3
ENDBRANCH   1   2
END_RES ARG D 557
BEGIN_RES GLU D 570
REMARK  3 active torsions:
REMARK  status: ('A' for Active; 'I' for Inactive)
REMARK    5  A    between atoms: CA   and  CB  
REMARK    6  A    between atoms: CB   and  CG  
REMARK    7  A    between atoms: CG   and  CD  
ROOT
ATOM     14  CA  GLU D 570     -18.033  -6.348 -13.375  1.00 32.92     0.160 C 
ENDROOT
BRANCH  14  15
ATOM     15  CB  GLU D 570     -19.500  -6.345 -13.794  1.00 32.92     0.043 C 
BRANCH  15  16
ATOM     16  CG  GLU D 570     -20.441  -5.526 -12.987  1.00 32.92     0.100 C 
BRANCH  16  17
ATOM     17  CD  GLU D 570     -21.683  -5.130 -13.751  1.00 32.92     0.185 C 
ATOM     18  OE1 GLU D 570     -21.617  -5.002 -14.988  1.00 32.92    -0.647 OA
ATOM     19  OE2 GLU D 570     -22.729  -4.930 -13.103  1.00 32.92    -0.647 OA
ENDBRANCH  16  17
ENDBRANCH  15  16
ENDBRANCH  14  15
END_RES GLU D 570
ENDMDL
MODEL 4
REMARK VINA RESULT:      -1.0      4.760      4.850
REMARK  5 active torsions:
REMARK  status: ('A' for Active; 'I' for Inactive)
REMARK    1  A    between atoms: C_4  and  S_26 
REMARK    2  A    between atoms: C_5  and  N_8 
REMARK    3  A    between atoms: N_10  and  C_12 
REMARK    4  A    between atoms: C_14  and  C_22 
REMARK    5  A    between atoms: C_22  and  O_24 
ROOT
HETATM    1 NA   UNL     2     -26.898  -3.536  -9.406  1.00  0.00     0.000 Na
ENDROOT
TORSDOF 5
BEGIN_RES ARG D 557
REMARK  4 active torsions:
REMARK  status: ('A' for Active; 'I' for Inactive)
REMARK    1  A    between atoms: CA   and  CB  
REMARK    2  A    between atoms: CB   and  CG  
REMARK    3  A    between atoms: CG   and  CD  
REMARK    4  A    between atoms: CD   and  NE  
REMARK       I    between atoms: NE   and  CZ  
REMARK       I    between atoms: CZ   and  NH1 
REMARK       I    between atoms: CZ   and  NH2 
ROOT
ATOM      1  CA  ARG D 557     -26.217   2.705 -17.014  1.00 35.49     0.159 C 
ENDROOT
BRANCH   1   2
ATOM      2  CB  ARG D 557     -26.789   1.319 -17.183  1.00 35.49     0.034 C 
BRANCH   2   3
ATOM      3  CG  ARG D 557     -25.834   0.204 -17.169  1.00 35.49     0.027 C 
BRANCH   3   4
ATOM      4  CD  ARG D 557     -24.746   0.406 -16.185  1.00 35.49     0.116 C 
BRANCH   4   5
ATOM      5  NE  ARG D 557     -24.897  -0.438 -15.029  1.00 35.49    -0.212 N 
ATOM      6  CZ  ARG D 557     -24.082  -1.405 -14.672  1.00 35.49     0.666 C 
ATOM      7  NH1 ARG D 557     -23.008  -1.723 -15.373  1.00 35.49    -0.235 N 
ATOM      8  NH2 ARG D 557     -24.362  -2.055 -13.580  1.00 35.49    -0.235 N 
ATOM      9  HH  ARG D 557     -22.803  -1.307 -16.093  1.00 35.49     0.174 HD
ATOM     10  HH  ARG D 557     -22.512  -2.361 -15.090  1.00 35.49     0.174 HD
ATOM     11  HH  ARG D 557     -25.058  -1.823 -13.144  1.00 35.49     0.174 HD
ATOM     12  HH  ARG D 557     -23.858  -2.683 -13.316  1.00 35.49     0.174 HD
ATOM     13  HE  ARG D 557     -25.601  -0.351 -14.560  1.00 35.49     0.178 HD
ENDBRANCH   4   5
ENDBRANCH   3   4
ENDBRANCH   2   3
ENDBRANCH   1   2
END_RES ARG D 557
BEGIN_RES GLU D 570
REMARK  3 active torsions:
REMARK  status: ('A' for Active; 'I' for Inactive)
REMARK    5  A    between atoms: CA   and  CB  
REMARK    6  A    between atoms: CB   and  CG  
REMARK    7  A    between atoms: CG   and  CD  
ROOT
ATOM     14  CA  GLU D 570     -18.033  -6.348 -13.375  1.00 32.92     0.160 C 
ENDROOT
BRANCH  14  15
ATOM     15  CB  GLU D 570     -19.500  -6.345 -13.794  1.00 32.92     0.043 C 
BRANCH  15  16
ATOM     16  CG  GLU D 570     -20.441  -5.528 -12.985  1.00 32.92     0.100 C 
BRANCH  16  17
ATOM     17  CD  GLU D 570     -21.746  -5.256 -13.696  1.00 32.92     0.185 C 
ATOM     18  OE1 GLU D 570     -22.305  -4.154 -13.536  1.00 32.92    -0.647 OA
ATOM     19  OE2 GLU D 570     -22.224  -6.161 -14.408  1.00 32.92    -0.647 OA
ENDBRANCH  16  17
ENDBRANCH  15  16
ENDBRANCH  14  15
END_RES GLU D 570
ENDMDL
MODEL 5
REMARK VINA RESULT:      -1.0      3.711      3.711
REMARK  5 active torsions:
REMARK  status: ('A' for Active; 'I' for Inactive)
REMARK    1  A    between atoms: C_4  and  S_26 
REMARK    2  A    between atoms: C_5  and  N_8 
REMARK    3  A    between atoms: N_10  and  C_12 
REMARK    4  A    between atoms: C_14  and  C_22 
REMARK    5  A    between atoms: C_22  and  O_24 
ROOT
HETATM    1 NA   UNL     2     -25.248  -5.234  -4.943  1.00  0.00     0.000 Na
ENDROOT
TORSDOF 5
BEGIN_RES ARG D 557
REMARK  4 active torsions:
REMARK  status: ('A' for Active; 'I' for Inactive)
REMARK    1  A    between atoms: CA   and  CB  
REMARK    2  A    between atoms: CB   and  CG  
REMARK    3  A    between atoms: CG   and  CD  
REMARK    4  A    between atoms: CD   and  NE  
REMARK       I    between atoms: NE   and  CZ  
REMARK       I    between atoms: CZ   and  NH1 
REMARK       I    between atoms: CZ   and  NH2 
ROOT
ATOM      1  CA  ARG D 557     -26.217   2.705 -17.014  1.00 35.49     0.159 C 
ENDROOT
BRANCH   1   2
ATOM      2  CB  ARG D 557     -26.789   1.319 -17.183  1.00 35.49     0.034 C 
BRANCH   2   3
ATOM      3  CG  ARG D 557     -25.835   0.203 -17.159  1.00 35.49     0.027 C 
BRANCH   3   4
ATOM      4  CD  ARG D 557     -24.779   0.385 -16.138  1.00 35.49     0.116 C 
BRANCH   4   5
ATOM      5  NE  ARG D 557     -24.966  -0.481 -15.004  1.00 35.49    -0.212 N 
ATOM      6  CZ  ARG D 557     -24.163  -1.456 -14.641  1.00 35.49     0.666 C 
ATOM      7  NH1 ARG D 557     -23.068  -1.760 -15.314  1.00 35.49    -0.235 N 
ATOM      8  NH2 ARG D 557     -24.477  -2.127 -13.572  1.00 35.49    -0.235 N 
ATOM      9  HH  ARG D 557     -22.841  -1.331 -16.020  1.00 35.49     0.174 HD
ATOM     10  HH  ARG D 557     -22.581  -2.405 -15.029  1.00 35.49     0.174 HD
ATOM     11  HH  ARG D 557     -25.186  -1.903 -13.153  1.00 35.49     0.174 HD
ATOM     12  HH  ARG D 557     -23.982  -2.760 -13.304  1.00 35.49     0.174 HD
ATOM     13  HE  ARG D 557     -25.684  -0.402 -14.555  1.00 35.49     0.178 HD
ENDBRANCH   4   5
ENDBRANCH   3   4
ENDBRANCH   2   3
ENDBRANCH   1   2
END_RES ARG D 557
BEGIN_RES GLU D 570
REMARK  3 active torsions:
REMARK  status: ('A' for Active; 'I' for Inactive)
REMARK    5  A    between atoms: CA   and  CB  
REMARK    6  A    between atoms: CB   and  CG  
REMARK    7  A    between atoms: CG   and  CD  
ROOT
ATOM     14  CA  GLU D 570     -18.033  -6.348 -13.375  1.00 32.92     0.160 C 
ENDROOT
BRANCH  14  15
ATOM     15  CB  GLU D 570     -19.500  -6.345 -13.794  1.00 32.92     0.043 C 
BRANCH  15  16
ATOM     16  CG  GLU D 570     -20.441  -5.527 -12.986  1.00 32.92     0.100 C 
BRANCH  16  17
ATOM     17  CD  GLU D 570     -21.679  -5.124 -13.752  1.00 32.92     0.185 C 
ATOM     18  OE1 GLU D 570     -21.991  -5.761 -14.777  1.00 32.92    -0.647 OA
ATOM     19  OE2 GLU D 570     -22.335  -4.150 -13.333  1.00 32.92    -0.647 OA
ENDBRANCH  16  17
ENDBRANCH  15  16
ENDBRANCH  14  15
END_RES GLU D 570
ENDMDL
MODEL 6
REMARK VINA RESULT:      -1.0      5.814      5.855
REMARK  5 active torsions:
REMARK  status: ('A' for Active; 'I' for Inactive)
REMARK    1  A    between atoms: C_4  and  S_26 
REMARK    2  A    between atoms: C_5  and  N_8 
REMARK    3  A    between atoms: N_10  and  C_12 
REMARK    4  A    between atoms: C_14  and  C_22 
REMARK    5  A    between atoms: C_22  and  O_24 
ROOT
HETATM    1 NA   UNL     2     -27.094 -13.695 -13.067  1.00  0.00     0.000 Na
ENDROOT
TORSDOF 5
BEGIN_RES ARG D 557
REMARK  4 active torsions:
REMARK  status: ('A' for Active; 'I' for Inactive)
REMARK    1  A    between atoms: CA   and  CB  
REMARK    2  A    between atoms: CB   and  CG  
REMARK    3  A    between atoms: CG   and  CD  
REMARK    4  A    between atoms: CD   and  NE  
REMARK       I    between atoms: NE   and  CZ  
REMARK       I    between atoms: CZ   and  NH1 
REMARK       I    between atoms: CZ   and  NH2 
ROOT
ATOM      1  CA  ARG D 557     -26.217   2.705 -17.014  1.00 35.49     0.159 C 
ENDROOT
BRANCH   1   2
ATOM      2  CB  ARG D 557     -26.789   1.319 -17.183  1.00 35.49     0.034 C 
BRANCH   2   3
ATOM      3  CG  ARG D 557     -25.856   0.196 -17.031  1.00 35.49     0.027 C 
BRANCH   3   4
ATOM      4  CD  ARG D 557     -26.222  -0.694 -15.906  1.00 35.49     0.116 C 
BRANCH   4   5
ATOM      5  NE  ARG D 557     -25.160  -0.813 -14.941  1.00 35.49    -0.212 N 
ATOM      6  CZ  ARG D 557     -24.775  -1.925 -14.357  1.00 35.49     0.666 C 
ATOM      7  NH1 ARG D 557     -25.353  -3.088 -14.593  1.00 35.49    -0.235 N 
ATOM      8  NH2 ARG D 557     -23.778  -1.851 -13.523  1.00 35.49    -0.235 N 
ATOM      9  HH  ARG D 557     -26.009  -3.160 -15.140  1.00 35.49     0.174 HD
ATOM     10  HH  ARG D 557     -25.057  -3.780 -14.184  1.00 35.49     0.174 HD
ATOM     11  HH  ARG D 557     -23.419  -1.088 -13.395  1.00 35.49     0.174 HD
ATOM     12  HH  ARG D 557     -23.499  -2.548 -13.129  1.00 35.49     0.174 HD
ATOM     13  HE  ARG D 557     -24.780  -0.100 -14.676  1.00 35.49     0.178 HD
ENDBRANCH   4   5
ENDBRANCH   3   4
ENDBRANCH   2   3
ENDBRANCH   1   2
END_RES ARG D 557
BEGIN_RES GLU D 570
REMARK  3 active torsions:
REMARK  status: ('A' for Active; 'I' for Inactive)
REMARK    5  A    between atoms: CA   and  CB  
REMARK    6  A    between atoms: CB   and  CG  
REMARK    7  A    between atoms: CG   and  CD  
ROOT
ATOM     14  CA  GLU D 570     -18.033  -6.348 -13.375  1.00 32.92     0.160 C 
ENDROOT
BRANCH  14  15
ATOM     15  CB  GLU D 570     -19.500  -6.345 -13.794  1.00 32.92     0.043 C 
BRANCH  15  16
ATOM     16  CG  GLU D 570     -20.435  -5.499 -13.008  1.00 32.92     0.100 C 
BRANCH  16  17
ATOM     17  CD  GLU D 570     -21.767  -5.301 -13.692  1.00 32.92     0.185 C 
ATOM     18  OE1 GLU D 570     -22.058  -6.016 -14.669  1.00 32.92    -0.647 OA
ATOM     19  OE2 GLU D 570     -22.521  -4.408 -13.256  1.00 32.92    -0.647 OA
ENDBRANCH  16  17
ENDBRANCH  15  16
ENDBRANCH  14  15
END_RES GLU D 570
ENDMDL
MODEL 7
REMARK VINA RESULT:      -1.0     10.579     10.602
REMARK  5 active torsions:
REMARK  status: ('A' for Active; 'I' for Inactive)
REMARK    1  A    between atoms: C_4  and  S_26 
REMARK    2  A    between atoms: C_5  and  N_8 
REMARK    3  A    between atoms: N_10  and  C_12 
REMARK    4  A    between atoms: C_14  and  C_22 
REMARK    5  A    between atoms: C_22  and  O_24 
ROOT
HETATM    1 NA   UNL     2      -9.083   5.884 -17.211  1.00  0.00     0.000 Na
ENDROOT
TORSDOF 5
BEGIN_RES ARG D 557
REMARK  4 active torsions:
REMARK  status: ('A' for Active; 'I' for Inactive)
REMARK    1  A    between atoms: CA   and  CB  
REMARK    2  A    between atoms: CB   and  CG  
REMARK    3  A    between atoms: CG   and  CD  
REMARK    4  A    between atoms: CD   and  NE  
REMARK       I    between atoms: NE   and  CZ  
REMARK       I    between atoms: CZ   and  NH1 
REMARK       I    between atoms: CZ   and  NH2 
ROOT
ATOM      1  CA  ARG D 557     -26.217   2.705 -17.014  1.00 35.49     0.159 C 
ENDROOT
BRANCH   1   2
ATOM      2  CB  ARG D 557     -26.789   1.319 -17.183  1.00 35.49     0.034 C 
BRANCH   2   3
ATOM      3  CG  ARG D 557     -25.857   0.196 -17.024  1.00 35.49     0.027 C 
BRANCH   3   4
ATOM      4  CD  ARG D 557     -26.222  -0.684 -15.890  1.00 35.49     0.116 C 
BRANCH   4   5
ATOM      5  NE  ARG D 557     -25.148  -0.819 -14.941  1.00 35.49    -0.212 N 
ATOM      6  CZ  ARG D 557     -24.757  -1.940 -14.378  1.00 35.49     0.666 C 
ATOM      7  NH1 ARG D 557     -25.341  -3.098 -14.625  1.00 35.49    -0.235 N 
ATOM      8  NH2 ARG D 557     -23.750  -1.879 -13.556  1.00 35.49    -0.235 N 
ATOM      9  HH  ARG D 557     -26.003  -3.162 -15.164  1.00 35.49     0.174 HD
ATOM     10  HH  ARG D 557     -25.040  -3.797 -14.230  1.00 35.49     0.174 HD
ATOM     11  HH  ARG D 557     -23.389  -1.119 -13.421  1.00 35.49     0.174 HD
ATOM     12  HH  ARG D 557     -23.467  -2.583 -13.176  1.00 35.49     0.174 HD
ATOM     13  HE  ARG D 557     -24.764  -0.110 -14.670  1.00 35.49     0.178 HD
ENDBRANCH   4   5
ENDBRANCH   3   4
ENDBRANCH   2   3
ENDBRANCH   1   2
END_RES ARG D 557
BEGIN_RES GLU D 570
REMARK  3 active torsions:
REMARK  status: ('A' for Active; 'I' for Inactive)
REMARK    5  A    between atoms: CA   and  CB  
REMARK    6  A    between atoms: CB   and  CG  
REMARK    7  A    between atoms: CG   and  CD  
ROOT
ATOM     14  CA  GLU D 570     -18.033  -6.348 -13.375  1.00 32.92     0.160 C 
ENDROOT
BRANCH  14  15
ATOM     15  CB  GLU D 570     -19.500  -6.345 -13.794  1.00 32.92     0.043 C 
BRANCH  15  16
ATOM     16  CG  GLU D 570     -20.440  -5.520 -12.991  1.00 32.92     0.100 C 
BRANCH  16  17
ATOM     17  CD  GLU D 570     -21.679  -5.123 -13.759  1.00 32.92     0.185 C 
ATOM     18  OE1 GLU D 570     -21.731  -5.351 -14.983  1.00 32.92    -0.647 OA
ATOM     19  OE2 GLU D 570     -22.600  -4.562 -13.133  1.00 32.92    -0.647 OA
ENDBRANCH  16  17
ENDBRANCH  15  16
ENDBRANCH  14  15
END_RES GLU D 570
ENDMDL
MODEL 8
REMARK VINA RESULT:      -0.9      7.288      7.348
REMARK  5 active torsions:
REMARK  status: ('A' for Active; 'I' for Inactive)
REMARK    1  A    between atoms: C_4  and  S_26 
REMARK    2  A    between atoms: C_5  and  N_8 
REMARK    3  A    between atoms: N_10  and  C_12 
REMARK    4  A    between atoms: C_14  and  C_22 
REMARK    5  A    between atoms: C_22  and  O_24 
ROOT
HETATM    1 NA   UNL     2     -36.576  -0.437 -17.843  1.00  0.00     0.000 Na
ENDROOT
TORSDOF 5
BEGIN_RES ARG D 557
REMARK  4 active torsions:
REMARK  status: ('A' for Active; 'I' for Inactive)
REMARK    1  A    between atoms: CA   and  CB  
REMARK    2  A    between atoms: CB   and  CG  
REMARK    3  A    between atoms: CG   and  CD  
REMARK    4  A    between atoms: CD   and  NE  
REMARK       I    between atoms: NE   and  CZ  
REMARK       I    between atoms: CZ   and  NH1 
REMARK       I    between atoms: CZ   and  NH2 
ROOT
ATOM      1  CA  ARG D 557     -26.217   2.705 -17.014  1.00 35.49     0.159 C 
ENDROOT
BRANCH   1   2
ATOM      2  CB  ARG D 557     -26.789   1.319 -17.183  1.00 35.49     0.034 C 
BRANCH   2   3
ATOM      3  CG  ARG D 557     -25.835   0.203 -17.159  1.00 35.49     0.027 C 
BRANCH   3   4
ATOM      4  CD  ARG D 557     -24.750   0.409 -16.173  1.00 35.49     0.116 C 
BRANCH   4   5
ATOM      5  NE  ARG D 557     -24.902  -0.435 -15.017  1.00 35.49    -0.212 N 
ATOM      6  CZ  ARG D 557     -24.094  -1.411 -14.667  1.00 35.49     0.666 C 
ATOM      7  NH1 ARG D 557     -23.029  -1.738 -15.375  1.00 35.49    -0.235 N 
ATOM      8  NH2 ARG D 557     -24.373  -2.059 -13.574  1.00 35.49    -0.235 N 
ATOM      9  HH  ARG D 557     -22.824  -1.323 -16.097  1.00 35.49     0.174 HD
ATOM     10  HH  ARG D 557     -22.537  -2.381 -15.097  1.00 35.49     0.174 HD
ATOM     11  HH  ARG D 557     -25.063  -1.821 -13.133  1.00 35.49     0.174 HD
ATOM     12  HH  ARG D 557     -23.873  -2.692 -13.314  1.00 35.49     0.174 HD
ATOM     13  HE  ARG D 557     -25.602  -0.341 -14.543  1.00 35.49     0.178 HD
ENDBRANCH   4   5
ENDBRANCH   3   4
ENDBRANCH   2   3
ENDBRANCH   1   2
END_RES ARG D 557
BEGIN_RES GLU D 570
REMARK  3 active torsions:
REMARK  status: ('A' for Active; 'I' for Inactive)
REMARK    5  A    between atoms: CA   and  CB  
REMARK    6  A    between atoms: CB   and  CG  
REMARK    7  A    between atoms: CG   and  CD  
ROOT
ATOM     14  CA  GLU D 570     -18.033  -6.348 -13.375  1.00 32.92     0.160 C 
ENDROOT
BRANCH  14  15
ATOM     15  CB  GLU D 570     -19.500  -6.345 -13.794  1.00 32.92     0.043 C 
BRANCH  15  16
ATOM     16  CG  GLU D 570     -20.440  -5.521 -12.991  1.00 32.92     0.100 C 
BRANCH  16  17
ATOM     17  CD  GLU D 570     -21.754  -5.272 -13.693  1.00 32.92     0.185 C 
ATOM     18  OE1 GLU D 570     -22.327  -4.177 -13.535  1.00 32.92    -0.647 OA
ATOM     19  OE2 GLU D 570     -22.224  -6.189 -14.396  1.00 32.92    -0.647 OA
ENDBRANCH  16  17
ENDBRANCH  15  16
ENDBRANCH  14  15
END_RES GLU D 570
ENDMDL
MODEL 9
REMARK VINA RESULT:      -0.9     10.948     11.112
REMARK  5 active torsions:
REMARK  status: ('A' for Active; 'I' for Inactive)
REMARK    1  A    between atoms: C_4  and  S_26 
REMARK    2  A    between atoms: C_5  and  N_8 
REMARK    3  A    between atoms: N_10  and  C_12 
REMARK    4  A    between atoms: C_14  and  C_22 
REMARK    5  A    between atoms: C_22  and  O_24 
ROOT
HETATM    1 NA   UNL     2      -9.131   5.851 -17.216  1.00  0.00     0.000 Na
ENDROOT
TORSDOF 5
BEGIN_RES ARG D 557
REMARK  4 active torsions:
REMARK  status: ('A' for Active; 'I' for Inactive)
REMARK    1  A    between atoms: CA   and  CB  
REMARK    2  A    between atoms: CB   and  CG  
REMARK    3  A    between atoms: CG   and  CD  
REMARK    4  A    between atoms: CD   and  NE  
REMARK       I    between atoms: NE   and  CZ  
REMARK       I    between atoms: CZ   and  NH1 
REMARK       I    between atoms: CZ   and  NH2 
ROOT
ATOM      1  CA  ARG D 557     -26.217   2.705 -17.014  1.00 35.49     0.159 C 
ENDROOT
BRANCH   1   2
ATOM      2  CB  ARG D 557     -26.789   1.319 -17.183  1.00 35.49     0.034 C 
BRANCH   2   3
ATOM      3  CG  ARG D 557     -28.231   1.226 -17.443  1.00 35.49     0.027 C 
BRANCH   3   4
ATOM      4  CD  ARG D 557     -28.915   0.309 -16.503  1.00 35.49     0.116 C 
BRANCH   4   5
ATOM      5  NE  ARG D 557     -29.313  -0.920 -17.139  1.00 35.49    -0.212 N 
ATOM      6  CZ  ARG D 557     -28.694  -2.075 -17.032  1.00 35.49     0.666 C 
ATOM      7  NH1 ARG D 557     -27.596  -2.227 -16.316  1.00 35.49    -0.235 N 
ATOM      8  NH2 ARG D 557     -29.208  -3.091 -17.661  1.00 35.49    -0.235 N 
ATOM      9  HH  ARG D 557     -27.241  -1.573 -15.892  1.00 35.49     0.174 HD
ATOM     10  HH  ARG D 557     -27.237  -3.005 -16.281  1.00 35.49     0.174 HD
ATOM     11  HH  ARG D 557     -29.923  -2.965 -18.110  1.00 35.49     0.174 HD
ATOM     12  HH  ARG D 557     -28.840  -3.853 -17.614  1.00 35.49     0.174 HD
ATOM     13  HE  ARG D 557     -29.970  -0.896 -17.678  1.00 35.49     0.178 HD
ENDBRANCH   4   5
ENDBRANCH   3   4
ENDBRANCH   2   3
ENDBRANCH   1   2
END_RES ARG D 557
BEGIN_RES GLU D 570
REMARK  3 active torsions:
REMARK  status: ('A' for Active; 'I' for Inactive)
REMARK    5  A    between atoms: CA   and  CB  
REMARK    6  A    between atoms: CB   and  CG  
REMARK    7  A    between atoms: CG   and  CD  
ROOT
ATOM     14  CA  GLU D 570     -18.033  -6.348 -13.375  1.00 32.92     0.160 C 
ENDROOT
BRANCH  14  15
ATOM     15  CB  GLU D 570     -19.500  -6.345 -13.794  1.00 32.92     0.043 C 
BRANCH  15  16
ATOM     16  CG  GLU D 570     -20.441  -5.527 -12.986  1.00 32.92     0.100 C 
BRANCH  16  17
ATOM     17  CD  GLU D 570     -21.735  -5.233 -13.708  1.00 32.92     0.185 C 
ATOM     18  OE1 GLU D 570     -22.107  -5.996 -14.620  1.00 32.92    -0.647 OA
ATOM     19  OE2 GLU D 570     -22.376  -4.218 -13.369  1.00 32.92    -0.647 OA
ENDBRANCH  16  17
ENDBRANCH  15  16
ENDBRANCH  14  15
END_RES GLU D 570
ENDMDL
