MODEL 1
REMARK VINA RESULT:      -1.2      0.000      0.000
REMARK  13 active torsions:
REMARK  status: ('A' for Active; 'I' for Inactive)
REMARK    1  A    between atoms: C_1  and  C_2 
REMARK    2  A    between atoms: C_1  and  N_12 
REMARK    3  A    between atoms: C_2  and  N_3 
REMARK    4  A    between atoms: N_3  and  C_4 
REMARK    5  A    between atoms: N_3  and  C_8 
REMARK    6  A    between atoms: C_4  and  C_5 
REMARK    7  A    between atoms: C_5  and  O_7 
REMARK    8  A    between atoms: C_8  and  C_9 
REMARK    9  A    between atoms: N_12  and  C_13 
REMARK   10  A    between atoms: N_12  and  C_17 
REMARK   11  A    between atoms: C_13  and  C_14 
REMARK   12  A    between atoms: C_14  and  O_16 
REMARK   13  A    between atoms: C_17  and  C_18 
ROOT
HETATM    1  O   HOH     2     -30.242 -13.496 -19.118  1.00  0.00     0.000 OA
ENDROOT
TORSDOF 13
BEGIN_RES ARG D 557
REMARK  4 active torsions:
REMARK  status: ('A' for Active; 'I' for Inactive)
REMARK    1  A    between atoms: CA   and  CB  
REMARK    2  A    between atoms: CB   and  CG  
REMARK    3  A    between atoms: CG   and  CD  
REMARK    4  A    between atoms: CD   and  NE  
REMARK       I    between atoms: NE   and  CZ  
REMARK       I    between atoms: CZ   and  NH1 
REMARK       I    between atoms: CZ   and  NH2 
ROOT
ATOM      1  CA  ARG D 557     -26.217   2.705 -17.014  1.00 35.49     0.159 C 
ENDROOT
BRANCH   1   2
ATOM      2  CB  ARG D 557     -26.789   1.319 -17.183  1.00 35.49     0.034 C 
BRANCH   2   3
ATOM      3  CG  ARG D 557     -25.836   0.203 -17.156  1.00 35.49     0.027 C 
BRANCH   3   4
ATOM      4  CD  ARG D 557     -24.751   0.411 -16.170  1.00 35.49     0.116 C 
BRANCH   4   5
ATOM      5  NE  ARG D 557     -24.898  -0.434 -15.015  1.00 35.49    -0.212 N 
ATOM      6  CZ  ARG D 557     -24.089  -1.410 -14.668  1.00 35.49     0.666 C 
ATOM      7  NH1 ARG D 557     -23.025  -1.735 -15.380  1.00 35.49    -0.235 N 
ATOM      8  NH2 ARG D 557     -24.365  -2.059 -13.575  1.00 35.49    -0.235 N 
ATOM      9  HH  ARG D 557     -22.823  -1.319 -16.101  1.00 35.49     0.174 HD
ATOM     10  HH  ARG D 557     -22.532  -2.379 -15.103  1.00 35.49     0.174 HD
ATOM     11  HH  ARG D 557     -25.055  -1.822 -13.132  1.00 35.49     0.174 HD
ATOM     12  HH  ARG D 557     -23.864  -2.693 -13.317  1.00 35.49     0.174 HD
ATOM     13  HE  ARG D 557     -25.597  -0.341 -14.539  1.00 35.49     0.178 HD
ENDBRANCH   4   5
ENDBRANCH   3   4
ENDBRANCH   2   3
ENDBRANCH   1   2
END_RES ARG D 557
BEGIN_RES GLU D 570
REMARK  3 active torsions:
REMARK  status: ('A' for Active; 'I' for Inactive)
REMARK    5  A    between atoms: CA   and  CB  
REMARK    6  A    between atoms: CB   and  CG  
REMARK    7  A    between atoms: CG   and  CD  
ROOT
ATOM     14  CA  GLU D 570     -18.033  -6.348 -13.375  1.00 32.92     0.160 C 
ENDROOT
BRANCH  14  15
ATOM     15  CB  GLU D 570     -19.500  -6.345 -13.794  1.00 32.92     0.043 C 
BRANCH  15  16
ATOM     16  CG  GLU D 570     -20.440  -5.521 -12.991  1.00 32.92     0.100 C 
BRANCH  16  17
ATOM     17  CD  GLU D 570     -21.747  -5.256 -13.701  1.00 32.92     0.185 C 
ATOM     18  OE1 GLU D 570     -22.218  -6.134 -14.449  1.00 32.92    -0.647 OA
ATOM     19  OE2 GLU D 570     -22.296  -4.151 -13.522  1.00 32.92    -0.647 OA
ENDBRANCH  16  17
ENDBRANCH  15  16
ENDBRANCH  14  15
END_RES GLU D 570
ENDMDL
MODEL 2
REMARK VINA RESULT:      -1.1      3.976      4.432
REMARK  13 active torsions:
REMARK  status: ('A' for Active; 'I' for Inactive)
REMARK    1  A    between atoms: C_1  and  C_2 
REMARK    2  A    between atoms: C_1  and  N_12 
REMARK    3  A    between atoms: C_2  and  N_3 
REMARK    4  A    between atoms: N_3  and  C_4 
REMARK    5  A    between atoms: N_3  and  C_8 
REMARK    6  A    between atoms: C_4  and  C_5 
REMARK    7  A    between atoms: C_5  and  O_7 
REMARK    8  A    between atoms: C_8  and  C_9 
REMARK    9  A    between atoms: N_12  and  C_13 
REMARK   10  A    between atoms: N_12  and  C_17 
REMARK   11  A    between atoms: C_13  and  C_14 
REMARK   12  A    between atoms: C_14  and  O_16 
REMARK   13  A    between atoms: C_17  and  C_18 
ROOT
HETATM    1  O   HOH     2     -25.051  -3.186 -11.066  1.00  0.00     0.000 OA
ENDROOT
TORSDOF 13
BEGIN_RES ARG D 557
REMARK  4 active torsions:
REMARK  status: ('A' for Active; 'I' for Inactive)
REMARK    1  A    between atoms: CA   and  CB  
REMARK    2  A    between atoms: CB   and  CG  
REMARK    3  A    between atoms: CG   and  CD  
REMARK    4  A    between atoms: CD   and  NE  
REMARK       I    between atoms: NE   and  CZ  
REMARK       I    between atoms: CZ   and  NH1 
REMARK       I    between atoms: CZ   and  NH2 
ROOT
ATOM      1  CA  ARG D 557     -26.217   2.705 -17.014  1.00 35.49     0.159 C 
ENDROOT
BRANCH   1   2
ATOM      2  CB  ARG D 557     -26.789   1.319 -17.183  1.00 35.49     0.034 C 
BRANCH   2   3
ATOM      3  CG  ARG D 557     -25.860   0.195 -17.013  1.00 35.49     0.027 C 
BRANCH   3   4
ATOM      4  CD  ARG D 557     -26.212  -0.658 -15.856  1.00 35.49     0.116 C 
BRANCH   4   5
ATOM      5  NE  ARG D 557     -25.084  -0.894 -14.993  1.00 35.49    -0.212 N 
ATOM      6  CZ  ARG D 557     -24.881  -1.974 -14.272  1.00 35.49     0.666 C 
ATOM      7  NH1 ARG D 557     -25.729  -2.985 -14.255  1.00 35.49    -0.235 N 
ATOM      8  NH2 ARG D 557     -23.791  -2.026 -13.562  1.00 35.49    -0.235 N 
ATOM      9  HH  ARG D 557     -26.451  -2.973 -14.716  1.00 35.49     0.174 HD
ATOM     10  HH  ARG D 557     -25.543  -3.665 -13.768  1.00 35.49     0.174 HD
ATOM     11  HH  ARG D 557     -23.258  -1.361 -13.598  1.00 35.49     0.174 HD
ATOM     12  HH  ARG D 557     -23.624  -2.708 -13.088  1.00 35.49     0.174 HD
ATOM     13  HE  ARG D 557     -24.524  -0.263 -14.887  1.00 35.49     0.178 HD
ENDBRANCH   4   5
ENDBRANCH   3   4
ENDBRANCH   2   3
ENDBRANCH   1   2
END_RES ARG D 557
BEGIN_RES GLU D 570
REMARK  3 active torsions:
REMARK  status: ('A' for Active; 'I' for Inactive)
REMARK    5  A    between atoms: CA   and  CB  
REMARK    6  A    between atoms: CB   and  CG  
REMARK    7  A    between atoms: CG   and  CD  
ROOT
ATOM     14  CA  GLU D 570     -18.033  -6.348 -13.375  1.00 32.92     0.160 C 
ENDROOT
BRANCH  14  15
ATOM     15  CB  GLU D 570     -19.500  -6.345 -13.794  1.00 32.92     0.043 C 
BRANCH  15  16
ATOM     16  CG  GLU D 570     -20.449  -5.565 -12.958  1.00 32.92     0.100 C 
BRANCH  16  17
ATOM     17  CD  GLU D 570     -21.681  -5.130 -13.716  1.00 32.92     0.185 C 
ATOM     18  OE1 GLU D 570     -21.622  -5.021 -14.956  1.00 32.92    -0.647 OA
ATOM     19  OE2 GLU D 570     -22.712  -4.878 -13.061  1.00 32.92    -0.647 OA
ENDBRANCH  16  17
ENDBRANCH  15  16
ENDBRANCH  14  15
END_RES GLU D 570
ENDMDL
MODEL 3
REMARK VINA RESULT:      -0.9      5.534      9.080
REMARK  13 active torsions:
REMARK  status: ('A' for Active; 'I' for Inactive)
REMARK    1  A    between atoms: C_1  and  C_2 
REMARK    2  A    between atoms: C_1  and  N_12 
REMARK    3  A    between atoms: C_2  and  N_3 
REMARK    4  A    between atoms: N_3  and  C_4 
REMARK    5  A    between atoms: N_3  and  C_8 
REMARK    6  A    between atoms: C_4  and  C_5 
REMARK    7  A    between atoms: C_5  and  O_7 
REMARK    8  A    between atoms: C_8  and  C_9 
REMARK    9  A    between atoms: N_12  and  C_13 
REMARK   10  A    between atoms: N_12  and  C_17 
REMARK   11  A    between atoms: C_13  and  C_14 
REMARK   12  A    between atoms: C_14  and  O_16 
REMARK   13  A    between atoms: C_17  and  C_18 
ROOT
HETATM    1  O   HOH     2     -10.234   8.788 -18.417  1.00  0.00     0.000 OA
ENDROOT
TORSDOF 13
BEGIN_RES ARG D 557
REMARK  4 active torsions:
REMARK  status: ('A' for Active; 'I' for Inactive)
REMARK    1  A    between atoms: CA   and  CB  
REMARK    2  A    between atoms: CB   and  CG  
REMARK    3  A    between atoms: CG   and  CD  
REMARK    4  A    between atoms: CD   and  NE  
REMARK       I    between atoms: NE   and  CZ  
REMARK       I    between atoms: CZ   and  NH1 
REMARK       I    between atoms: CZ   and  NH2 
ROOT
ATOM      1  CA  ARG D 557     -26.217   2.705 -17.014  1.00 35.49     0.159 C 
ENDROOT
BRANCH   1   2
ATOM      2  CB  ARG D 557     -26.789   1.319 -17.183  1.00 35.49     0.034 C 
BRANCH   2   3
ATOM      3  CG  ARG D 557     -25.835   0.203 -17.158  1.00 35.49     0.027 C 
BRANCH   3   4
ATOM      4  CD  ARG D 557     -24.750   0.411 -16.172  1.00 35.49     0.116 C 
BRANCH   4   5
ATOM      5  NE  ARG D 557     -24.897  -0.436 -15.018  1.00 35.49    -0.212 N 
ATOM      6  CZ  ARG D 557     -24.082  -1.407 -14.669  1.00 35.49     0.666 C 
ATOM      7  NH1 ARG D 557     -23.014  -1.726 -15.377  1.00 35.49    -0.235 N 
ATOM      8  NH2 ARG D 557     -24.359  -2.059 -13.577  1.00 35.49    -0.235 N 
ATOM      9  HH  ARG D 557     -22.812  -1.308 -16.097  1.00 35.49     0.174 HD
ATOM     10  HH  ARG D 557     -22.518  -2.366 -15.099  1.00 35.49     0.174 HD
ATOM     11  HH  ARG D 557     -25.051  -1.827 -13.137  1.00 35.49     0.174 HD
ATOM     12  HH  ARG D 557     -23.854  -2.690 -13.318  1.00 35.49     0.174 HD
ATOM     13  HE  ARG D 557     -25.598  -0.349 -14.545  1.00 35.49     0.178 HD
ENDBRANCH   4   5
ENDBRANCH   3   4
ENDBRANCH   2   3
ENDBRANCH   1   2
END_RES ARG D 557
BEGIN_RES GLU D 570
REMARK  3 active torsions:
REMARK  status: ('A' for Active; 'I' for Inactive)
REMARK    5  A    between atoms: CA   and  CB  
REMARK    6  A    between atoms: CB   and  CG  
REMARK    7  A    between atoms: CG   and  CD  
ROOT
ATOM     14  CA  GLU D 570     -18.033  -6.348 -13.375  1.00 32.92     0.160 C 
ENDROOT
BRANCH  14  15
ATOM     15  CB  GLU D 570     -19.500  -6.345 -13.794  1.00 32.92     0.043 C 
BRANCH  15  16
ATOM     16  CG  GLU D 570     -20.445  -5.547 -12.971  1.00 32.92     0.100 C 
BRANCH  16  17
ATOM     17  CD  GLU D 570     -21.738  -5.240 -13.690  1.00 32.92     0.185 C 
ATOM     18  OE1 GLU D 570     -22.272  -4.126 -13.526  1.00 32.92    -0.647 OA
ATOM     19  OE2 GLU D 570     -22.231  -6.128 -14.413  1.00 32.92    -0.647 OA
ENDBRANCH  16  17
ENDBRANCH  15  16
ENDBRANCH  14  15
END_RES GLU D 570
ENDMDL
MODEL 4
REMARK VINA RESULT:      -0.9      4.652      5.082
REMARK  13 active torsions:
REMARK  status: ('A' for Active; 'I' for Inactive)
REMARK    1  A    between atoms: C_1  and  C_2 
REMARK    2  A    between atoms: C_1  and  N_12 
REMARK    3  A    between atoms: C_2  and  N_3 
REMARK    4  A    between atoms: N_3  and  C_4 
REMARK    5  A    between atoms: N_3  and  C_8 
REMARK    6  A    between atoms: C_4  and  C_5 
REMARK    7  A    between atoms: C_5  and  O_7 
REMARK    8  A    between atoms: C_8  and  C_9 
REMARK    9  A    between atoms: N_12  and  C_13 
REMARK   10  A    between atoms: N_12  and  C_17 
REMARK   11  A    between atoms: C_13  and  C_14 
REMARK   12  A    between atoms: C_14  and  O_16 
REMARK   13  A    between atoms: C_17  and  C_18 
ROOT
HETATM    1  O   HOH     2     -31.914  -2.959 -17.782  1.00  0.00     0.000 OA
ENDROOT
TORSDOF 13
BEGIN_RES ARG D 557
REMARK  4 active torsions:
REMARK  status: ('A' for Active; 'I' for Inactive)
REMARK    1  A    between atoms: CA   and  CB  
REMARK    2  A    between atoms: CB   and  CG  
REMARK    3  A    between atoms: CG   and  CD  
REMARK    4  A    between atoms: CD   and  NE  
REMARK       I    between atoms: NE   and  CZ  
REMARK       I    between atoms: CZ   and  NH1 
REMARK       I    between atoms: CZ   and  NH2 
ROOT
ATOM      1  CA  ARG D 557     -26.217   2.705 -17.014  1.00 35.49     0.159 C 
ENDROOT
BRANCH   1   2
ATOM      2  CB  ARG D 557     -26.789   1.319 -17.183  1.00 35.49     0.034 C 
BRANCH   2   3
ATOM      3  CG  ARG D 557     -28.228   1.227 -17.458  1.00 35.49     0.027 C 
BRANCH   3   4
ATOM      4  CD  ARG D 557     -28.923   0.308 -16.527  1.00 35.49     0.116 C 
BRANCH   4   5
ATOM      5  NE  ARG D 557     -29.246  -0.949 -17.148  1.00 35.49    -0.212 N 
ATOM      6  CZ  ARG D 557     -28.574  -2.070 -17.010  1.00 35.49     0.666 C 
ATOM      7  NH1 ARG D 557     -27.484  -2.157 -16.270  1.00 35.49    -0.235 N 
ATOM      8  NH2 ARG D 557     -29.025  -3.121 -17.631  1.00 35.49    -0.235 N 
ATOM      9  HH  ARG D 557     -27.171  -1.478 -15.851  1.00 35.49     0.174 HD
ATOM     10  HH  ARG D 557     -27.089  -2.915 -16.215  1.00 35.49     0.174 HD
ATOM     11  HH  ARG D 557     -29.735  -3.038 -18.096  1.00 35.49     0.174 HD
ATOM     12  HH  ARG D 557     -28.620  -3.863 -17.562  1.00 35.49     0.174 HD
ATOM     13  HE  ARG D 557     -29.893  -0.967 -17.701  1.00 35.49     0.178 HD
ENDBRANCH   4   5
ENDBRANCH   3   4
ENDBRANCH   2   3
ENDBRANCH   1   2
END_RES ARG D 557
BEGIN_RES GLU D 570
REMARK  3 active torsions:
REMARK  status: ('A' for Active; 'I' for Inactive)
REMARK    5  A    between atoms: CA   and  CB  
REMARK    6  A    between atoms: CB   and  CG  
REMARK    7  A    between atoms: CG   and  CD  
ROOT
ATOM     14  CA  GLU D 570     -18.033  -6.348 -13.375  1.00 32.92     0.160 C 
ENDROOT
BRANCH  14  15
ATOM     15  CB  GLU D 570     -19.500  -6.345 -13.794  1.00 32.92     0.043 C 
BRANCH  15  16
ATOM     16  CG  GLU D 570     -20.098  -7.642 -14.203  1.00 32.92     0.100 C 
BRANCH  16  17
ATOM     17  CD  GLU D 570     -21.014  -7.518 -15.397  1.00 32.92     0.185 C 
ATOM     18  OE1 GLU D 570     -21.089  -8.466 -16.204  1.00 32.92    -0.647 OA
ATOM     19  OE2 GLU D 570     -21.652  -6.456 -15.538  1.00 32.92    -0.647 OA
ENDBRANCH  16  17
ENDBRANCH  15  16
ENDBRANCH  14  15
END_RES GLU D 570
ENDMDL
MODEL 5
REMARK VINA RESULT:      -0.9      1.785      2.040
REMARK  13 active torsions:
REMARK  status: ('A' for Active; 'I' for Inactive)
REMARK    1  A    between atoms: C_1  and  C_2 
REMARK    2  A    between atoms: C_1  and  N_12 
REMARK    3  A    between atoms: C_2  and  N_3 
REMARK    4  A    between atoms: N_3  and  C_4 
REMARK    5  A    between atoms: N_3  and  C_8 
REMARK    6  A    between atoms: C_4  and  C_5 
REMARK    7  A    between atoms: C_5  and  O_7 
REMARK    8  A    between atoms: C_8  and  C_9 
REMARK    9  A    between atoms: N_12  and  C_13 
REMARK   10  A    between atoms: N_12  and  C_17 
REMARK   11  A    between atoms: C_13  and  C_14 
REMARK   12  A    between atoms: C_14  and  O_16 
REMARK   13  A    between atoms: C_17  and  C_18 
ROOT
HETATM    1  O   HOH     2     -30.015  -8.622 -19.137  1.00  0.00     0.000 OA
ENDROOT
TORSDOF 13
BEGIN_RES ARG D 557
REMARK  4 active torsions:
REMARK  status: ('A' for Active; 'I' for Inactive)
REMARK    1  A    between atoms: CA   and  CB  
REMARK    2  A    between atoms: CB   and  CG  
REMARK    3  A    between atoms: CG   and  CD  
REMARK    4  A    between atoms: CD   and  NE  
REMARK       I    between atoms: NE   and  CZ  
REMARK       I    between atoms: CZ   and  NH1 
REMARK       I    between atoms: CZ   and  NH2 
ROOT
ATOM      1  CA  ARG D 557     -26.217   2.705 -17.014  1.00 35.49     0.159 C 
ENDROOT
BRANCH   1   2
ATOM      2  CB  ARG D 557     -26.789   1.319 -17.183  1.00 35.49     0.034 C 
BRANCH   2   3
ATOM      3  CG  ARG D 557     -25.865   0.195 -16.991  1.00 35.49     0.027 C 
BRANCH   3   4
ATOM      4  CD  ARG D 557     -26.288  -0.702 -15.892  1.00 35.49     0.116 C 
BRANCH   4   5
ATOM      5  NE  ARG D 557     -25.235  -0.925 -14.937  1.00 35.49    -0.212 N 
ATOM      6  CZ  ARG D 557     -24.949  -2.071 -14.361  1.00 35.49     0.666 C 
ATOM      7  NH1 ARG D 557     -25.634  -3.174 -14.599  1.00 35.49    -0.235 N 
ATOM      8  NH2 ARG D 557     -23.944  -2.094 -13.535  1.00 35.49    -0.235 N 
ATOM      9  HH  ARG D 557     -26.298  -3.183 -15.141  1.00 35.49     0.174 HD
ATOM     10  HH  ARG D 557     -25.400  -3.894 -14.197  1.00 35.49     0.174 HD
ATOM     11  HH  ARG D 557     -23.515  -1.368 -13.406  1.00 35.49     0.174 HD
ATOM     12  HH  ARG D 557     -23.727  -2.817 -13.147  1.00 35.49     0.174 HD
ATOM     13  HE  ARG D 557     -24.789  -0.252 -14.670  1.00 35.49     0.178 HD
ENDBRANCH   4   5
ENDBRANCH   3   4
ENDBRANCH   2   3
ENDBRANCH   1   2
END_RES ARG D 557
BEGIN_RES GLU D 570
REMARK  3 active torsions:
REMARK  status: ('A' for Active; 'I' for Inactive)
REMARK    5  A    between atoms: CA   and  CB  
REMARK    6  A    between atoms: CB   and  CG  
REMARK    7  A    between atoms: CG   and  CD  
ROOT
ATOM     14  CA  GLU D 570     -18.033  -6.348 -13.375  1.00 32.92     0.160 C 
ENDROOT
BRANCH  14  15
ATOM     15  CB  GLU D 570     -19.500  -6.345 -13.794  1.00 32.92     0.043 C 
BRANCH  15  16
ATOM     16  CG  GLU D 570     -20.446  -5.552 -12.968  1.00 32.92     0.100 C 
BRANCH  16  17
ATOM     17  CD  GLU D 570     -21.681  -5.128 -13.729  1.00 32.92     0.185 C 
ATOM     18  OE1 GLU D 570     -22.736  -4.915 -13.100  1.00 32.92    -0.647 OA
ATOM     19  OE2 GLU D 570     -21.597  -5.024 -14.968  1.00 32.92    -0.647 OA
ENDBRANCH  16  17
ENDBRANCH  15  16
ENDBRANCH  14  15
END_RES GLU D 570
ENDMDL
MODEL 6
REMARK VINA RESULT:      -0.8      4.987      5.614
REMARK  13 active torsions:
REMARK  status: ('A' for Active; 'I' for Inactive)
REMARK    1  A    between atoms: C_1  and  C_2 
REMARK    2  A    between atoms: C_1  and  N_12 
REMARK    3  A    between atoms: C_2  and  N_3 
REMARK    4  A    between atoms: N_3  and  C_4 
REMARK    5  A    between atoms: N_3  and  C_8 
REMARK    6  A    between atoms: C_4  and  C_5 
REMARK    7  A    between atoms: C_5  and  O_7 
REMARK    8  A    between atoms: C_8  and  C_9 
REMARK    9  A    between atoms: N_12  and  C_13 
REMARK   10  A    between atoms: N_12  and  C_17 
REMARK   11  A    between atoms: C_13  and  C_14 
REMARK   12  A    between atoms: C_14  and  O_16 
REMARK   13  A    between atoms: C_17  and  C_18 
ROOT
HETATM    1  O   HOH     2     -34.285  -6.454  -2.364  1.00  0.00     0.000 OA
ENDROOT
TORSDOF 13
BEGIN_RES ARG D 557
REMARK  4 active torsions:
REMARK  status: ('A' for Active; 'I' for Inactive)
REMARK    1  A    between atoms: CA   and  CB  
REMARK    2  A    between atoms: CB   and  CG  
REMARK    3  A    between atoms: CG   and  CD  
REMARK    4  A    between atoms: CD   and  NE  
REMARK       I    between atoms: NE   and  CZ  
REMARK       I    between atoms: CZ   and  NH1 
REMARK       I    between atoms: CZ   and  NH2 
ROOT
ATOM      1  CA  ARG D 557     -26.217   2.705 -17.014  1.00 35.49     0.159 C 
ENDROOT
BRANCH   1   2
ATOM      2  CB  ARG D 557     -26.789   1.319 -17.183  1.00 35.49     0.034 C 
BRANCH   2   3
ATOM      3  CG  ARG D 557     -25.836   0.203 -17.153  1.00 35.49     0.027 C 
BRANCH   3   4
ATOM      4  CD  ARG D 557     -24.762   0.405 -16.154  1.00 35.49     0.116 C 
BRANCH   4   5
ATOM      5  NE  ARG D 557     -24.918  -0.453 -15.009  1.00 35.49    -0.212 N 
ATOM      6  CZ  ARG D 557     -24.104  -1.424 -14.660  1.00 35.49     0.666 C 
ATOM      7  NH1 ARG D 557     -23.027  -1.732 -15.359  1.00 35.49    -0.235 N 
ATOM      8  NH2 ARG D 557     -24.390  -2.087 -13.577  1.00 35.49    -0.235 N 
ATOM      9  HH  ARG D 557     -22.818  -1.308 -16.073  1.00 35.49     0.174 HD
ATOM     10  HH  ARG D 557     -22.532  -2.374 -15.081  1.00 35.49     0.174 HD
ATOM     11  HH  ARG D 557     -25.088  -1.861 -13.142  1.00 35.49     0.174 HD
ATOM     12  HH  ARG D 557     -23.886  -2.718 -13.318  1.00 35.49     0.174 HD
ATOM     13  HE  ARG D 557     -25.624  -0.372 -14.543  1.00 35.49     0.178 HD
ENDBRANCH   4   5
ENDBRANCH   3   4
ENDBRANCH   2   3
ENDBRANCH   1   2
END_RES ARG D 557
BEGIN_RES GLU D 570
REMARK  3 active torsions:
REMARK  status: ('A' for Active; 'I' for Inactive)
REMARK    5  A    between atoms: CA   and  CB  
REMARK    6  A    between atoms: CB   and  CG  
REMARK    7  A    between atoms: CG   and  CD  
ROOT
ATOM     14  CA  GLU D 570     -18.033  -6.348 -13.375  1.00 32.92     0.160 C 
ENDROOT
BRANCH  14  15
ATOM     15  CB  GLU D 570     -19.500  -6.345 -13.794  1.00 32.92     0.043 C 
BRANCH  15  16
ATOM     16  CG  GLU D 570     -20.440  -5.520 -12.991  1.00 32.92     0.100 C 
BRANCH  16  17
ATOM     17  CD  GLU D 570     -21.731  -5.222 -13.717  1.00 32.92     0.185 C 
ATOM     18  OE1 GLU D 570     -22.168  -6.051 -14.539  1.00 32.92    -0.647 OA
ATOM     19  OE2 GLU D 570     -22.302  -4.141 -13.474  1.00 32.92    -0.647 OA
ENDBRANCH  16  17
ENDBRANCH  15  16
ENDBRANCH  14  15
END_RES GLU D 570
ENDMDL
MODEL 7
REMARK VINA RESULT:      -0.8      5.957      7.044
REMARK  13 active torsions:
REMARK  status: ('A' for Active; 'I' for Inactive)
REMARK    1  A    between atoms: C_1  and  C_2 
REMARK    2  A    between atoms: C_1  and  N_12 
REMARK    3  A    between atoms: C_2  and  N_3 
REMARK    4  A    between atoms: N_3  and  C_4 
REMARK    5  A    between atoms: N_3  and  C_8 
REMARK    6  A    between atoms: C_4  and  C_5 
REMARK    7  A    between atoms: C_5  and  O_7 
REMARK    8  A    between atoms: C_8  and  C_9 
REMARK    9  A    between atoms: N_12  and  C_13 
REMARK   10  A    between atoms: N_12  and  C_17 
REMARK   11  A    between atoms: C_13  and  C_14 
REMARK   12  A    between atoms: C_14  and  O_16 
REMARK   13  A    between atoms: C_17  and  C_18 
ROOT
HETATM    1  O   HOH     2     -34.350  -5.134  -1.516  1.00  0.00     0.000 OA
ENDROOT
TORSDOF 13
BEGIN_RES ARG D 557
REMARK  4 active torsions:
REMARK  status: ('A' for Active; 'I' for Inactive)
REMARK    1  A    between atoms: CA   and  CB  
REMARK    2  A    between atoms: CB   and  CG  
REMARK    3  A    between atoms: CG   and  CD  
REMARK    4  A    between atoms: CD   and  NE  
REMARK       I    between atoms: NE   and  CZ  
REMARK       I    between atoms: CZ   and  NH1 
REMARK       I    between atoms: CZ   and  NH2 
ROOT
ATOM      1  CA  ARG D 557     -26.217   2.705 -17.014  1.00 35.49     0.159 C 
ENDROOT
BRANCH   1   2
ATOM      2  CB  ARG D 557     -26.789   1.319 -17.183  1.00 35.49     0.034 C 
BRANCH   2   3
ATOM      3  CG  ARG D 557     -28.235   1.225 -17.421  1.00 35.49     0.027 C 
BRANCH   3   4
ATOM      4  CD  ARG D 557     -28.901   0.293 -16.483  1.00 35.49     0.116 C 
BRANCH   4   5
ATOM      5  NE  ARG D 557     -29.317  -0.923 -17.132  1.00 35.49    -0.212 N 
ATOM      6  CZ  ARG D 557     -28.704  -2.083 -17.054  1.00 35.49     0.666 C 
ATOM      7  NH1 ARG D 557     -27.595  -2.254 -16.358  1.00 35.49    -0.235 N 
ATOM      8  NH2 ARG D 557     -29.234  -3.086 -17.691  1.00 35.49    -0.235 N 
ATOM      9  HH  ARG D 557     -27.229  -1.608 -15.930  1.00 35.49     0.174 HD
ATOM     10  HH  ARG D 557     -27.241  -3.034 -16.342  1.00 35.49     0.174 HD
ATOM     11  HH  ARG D 557     -29.955  -2.948 -18.126  1.00 35.49     0.174 HD
ATOM     12  HH  ARG D 557     -28.870  -3.851 -17.661  1.00 35.49     0.174 HD
ATOM     13  HE  ARG D 557     -29.982  -0.887 -17.660  1.00 35.49     0.178 HD
ENDBRANCH   4   5
ENDBRANCH   3   4
ENDBRANCH   2   3
ENDBRANCH   1   2
END_RES ARG D 557
BEGIN_RES GLU D 570
REMARK  3 active torsions:
REMARK  status: ('A' for Active; 'I' for Inactive)
REMARK    5  A    between atoms: CA   and  CB  
REMARK    6  A    between atoms: CB   and  CG  
REMARK    7  A    between atoms: CG   and  CD  
ROOT
ATOM     14  CA  GLU D 570     -18.033  -6.348 -13.375  1.00 32.92     0.160 C 
ENDROOT
BRANCH  14  15
ATOM     15  CB  GLU D 570     -19.500  -6.345 -13.794  1.00 32.92     0.043 C 
BRANCH  15  16
ATOM     16  CG  GLU D 570     -20.443  -5.536 -12.979  1.00 32.92     0.100 C 
BRANCH  16  17
ATOM     17  CD  GLU D 570     -21.729  -5.220 -13.707  1.00 32.92     0.185 C 
ATOM     18  OE1 GLU D 570     -22.391  -4.223 -13.361  1.00 32.92    -0.647 OA
ATOM     19  OE2 GLU D 570     -22.087  -5.988 -14.622  1.00 32.92    -0.647 OA
ENDBRANCH  16  17
ENDBRANCH  15  16
ENDBRANCH  14  15
END_RES GLU D 570
ENDMDL
MODEL 8
REMARK VINA RESULT:      -0.8      3.372      3.555
REMARK  13 active torsions:
REMARK  status: ('A' for Active; 'I' for Inactive)
REMARK    1  A    between atoms: C_1  and  C_2 
REMARK    2  A    between atoms: C_1  and  N_12 
REMARK    3  A    between atoms: C_2  and  N_3 
REMARK    4  A    between atoms: N_3  and  C_4 
REMARK    5  A    between atoms: N_3  and  C_8 
REMARK    6  A    between atoms: C_4  and  C_5 
REMARK    7  A    between atoms: C_5  and  O_7 
REMARK    8  A    between atoms: C_8  and  C_9 
REMARK    9  A    between atoms: N_12  and  C_13 
REMARK   10  A    between atoms: N_12  and  C_17 
REMARK   11  A    between atoms: C_13  and  C_14 
REMARK   12  A    between atoms: C_14  and  O_16 
REMARK   13  A    between atoms: C_17  and  C_18 
ROOT
HETATM    1  O   HOH     2     -32.320  -2.987 -17.682  1.00  0.00     0.000 OA
ENDROOT
TORSDOF 13
BEGIN_RES ARG D 557
REMARK  4 active torsions:
REMARK  status: ('A' for Active; 'I' for Inactive)
REMARK    1  A    between atoms: CA   and  CB  
REMARK    2  A    between atoms: CB   and  CG  
REMARK    3  A    between atoms: CG   and  CD  
REMARK    4  A    between atoms: CD   and  NE  
REMARK       I    between atoms: NE   and  CZ  
REMARK       I    between atoms: CZ   and  NH1 
REMARK       I    between atoms: CZ   and  NH2 
ROOT
ATOM      1  CA  ARG D 557     -26.217   2.705 -17.014  1.00 35.49     0.159 C 
ENDROOT
BRANCH   1   2
ATOM      2  CB  ARG D 557     -26.789   1.319 -17.183  1.00 35.49     0.034 C 
BRANCH   2   3
ATOM      3  CG  ARG D 557     -25.861   0.195 -17.008  1.00 35.49     0.027 C 
BRANCH   3   4
ATOM      4  CD  ARG D 557     -26.256  -0.694 -15.892  1.00 35.49     0.116 C 
BRANCH   4   5
ATOM      5  NE  ARG D 557     -25.210  -0.835 -14.914  1.00 35.49    -0.212 N 
ATOM      6  CZ  ARG D 557     -24.825  -1.961 -14.357  1.00 35.49     0.666 C 
ATOM      7  NH1 ARG D 557     -25.390  -3.121 -14.639  1.00 35.49    -0.235 N 
ATOM      8  NH2 ARG D 557     -23.844  -1.905 -13.504  1.00 35.49    -0.235 N 
ATOM      9  HH  ARG D 557     -26.035  -3.182 -15.199  1.00 35.49     0.174 HD
ATOM     10  HH  ARG D 557     -25.095  -3.823 -14.247  1.00 35.49     0.174 HD
ATOM     11  HH  ARG D 557     -23.493  -1.143 -13.347  1.00 35.49     0.174 HD
ATOM     12  HH  ARG D 557     -23.565  -2.612 -13.127  1.00 35.49     0.174 HD
ATOM     13  HE  ARG D 557     -24.841  -0.127 -14.619  1.00 35.49     0.178 HD
ENDBRANCH   4   5
ENDBRANCH   3   4
ENDBRANCH   2   3
ENDBRANCH   1   2
END_RES ARG D 557
BEGIN_RES GLU D 570
REMARK  3 active torsions:
REMARK  status: ('A' for Active; 'I' for Inactive)
REMARK    5  A    between atoms: CA   and  CB  
REMARK    6  A    between atoms: CB   and  CG  
REMARK    7  A    between atoms: CG   and  CD  
ROOT
ATOM     14  CA  GLU D 570     -18.033  -6.348 -13.375  1.00 32.92     0.160 C 
ENDROOT
BRANCH  14  15
ATOM     15  CB  GLU D 570     -19.500  -6.345 -13.794  1.00 32.92     0.043 C 
BRANCH  15  16
ATOM     16  CG  GLU D 570     -20.439  -5.516 -12.994  1.00 32.92     0.100 C 
BRANCH  16  17
ATOM     17  CD  GLU D 570     -21.733  -5.226 -13.719  1.00 32.92     0.185 C 
ATOM     18  OE1 GLU D 570     -22.543  -4.426 -13.213  1.00 32.92    -0.647 OA
ATOM     19  OE2 GLU D 570     -21.946  -5.819 -14.795  1.00 32.92    -0.647 OA
ENDBRANCH  16  17
ENDBRANCH  15  16
ENDBRANCH  14  15
END_RES GLU D 570
ENDMDL
MODEL 9
REMARK VINA RESULT:      -0.8      3.595      6.050
REMARK  13 active torsions:
REMARK  status: ('A' for Active; 'I' for Inactive)
REMARK    1  A    between atoms: C_1  and  C_2 
REMARK    2  A    between atoms: C_1  and  N_12 
REMARK    3  A    between atoms: C_2  and  N_3 
REMARK    4  A    between atoms: N_3  and  C_4 
REMARK    5  A    between atoms: N_3  and  C_8 
REMARK    6  A    between atoms: C_4  and  C_5 
REMARK    7  A    between atoms: C_5  and  O_7 
REMARK    8  A    between atoms: C_8  and  C_9 
REMARK    9  A    between atoms: N_12  and  C_13 
REMARK   10  A    between atoms: N_12  and  C_17 
REMARK   11  A    between atoms: C_13  and  C_14 
REMARK   12  A    between atoms: C_14  and  O_16 
REMARK   13  A    between atoms: C_17  and  C_18 
ROOT
HETATM    1  O   HOH     2     -22.411  -5.896  -2.281  1.00  0.00     0.000 OA
ENDROOT
TORSDOF 13
BEGIN_RES ARG D 557
REMARK  4 active torsions:
REMARK  status: ('A' for Active; 'I' for Inactive)
REMARK    1  A    between atoms: CA   and  CB  
REMARK    2  A    between atoms: CB   and  CG  
REMARK    3  A    between atoms: CG   and  CD  
REMARK    4  A    between atoms: CD   and  NE  
REMARK       I    between atoms: NE   and  CZ  
REMARK       I    between atoms: CZ   and  NH1 
REMARK       I    between atoms: CZ   and  NH2 
ROOT
ATOM      1  CA  ARG D 557     -26.217   2.705 -17.014  1.00 35.49     0.159 C 
ENDROOT
BRANCH   1   2
ATOM      2  CB  ARG D 557     -26.789   1.319 -17.183  1.00 35.49     0.034 C 
BRANCH   2   3
ATOM      3  CG  ARG D 557     -25.836   0.203 -17.157  1.00 35.49     0.027 C 
BRANCH   3   4
ATOM      4  CD  ARG D 557     -24.768   0.397 -16.149  1.00 35.49     0.116 C 
BRANCH   4   5
ATOM      5  NE  ARG D 557     -24.935  -0.466 -15.010  1.00 35.49    -0.212 N 
ATOM      6  CZ  ARG D 557     -24.122  -1.437 -14.656  1.00 35.49     0.666 C 
ATOM      7  NH1 ARG D 557     -23.036  -1.739 -15.343  1.00 35.49    -0.235 N 
ATOM      8  NH2 ARG D 557     -24.418  -2.105 -13.579  1.00 35.49    -0.235 N 
ATOM      9  HH  ARG D 557     -22.821  -1.311 -16.054  1.00 35.49     0.174 HD
ATOM     10  HH  ARG D 557     -22.542  -2.380 -15.063  1.00 35.49     0.174 HD
ATOM     11  HH  ARG D 557     -25.122  -1.883 -13.151  1.00 35.49     0.174 HD
ATOM     12  HH  ARG D 557     -23.916  -2.736 -13.317  1.00 35.49     0.174 HD
ATOM     13  HE  ARG D 557     -25.647  -0.389 -14.551  1.00 35.49     0.178 HD
ENDBRANCH   4   5
ENDBRANCH   3   4
ENDBRANCH   2   3
ENDBRANCH   1   2
END_RES ARG D 557
BEGIN_RES GLU D 570
REMARK  3 active torsions:
REMARK  status: ('A' for Active; 'I' for Inactive)
REMARK    5  A    between atoms: CA   and  CB  
REMARK    6  A    between atoms: CB   and  CG  
REMARK    7  A    between atoms: CG   and  CD  
ROOT
ATOM     14  CA  GLU D 570     -18.033  -6.348 -13.375  1.00 32.92     0.160 C 
ENDROOT
BRANCH  14  15
ATOM     15  CB  GLU D 570     -19.500  -6.345 -13.794  1.00 32.92     0.043 C 
BRANCH  15  16
ATOM     16  CG  GLU D 570     -20.438  -5.515 -12.995  1.00 32.92     0.100 C 
BRANCH  16  17
ATOM     17  CD  GLU D 570     -21.725  -5.210 -13.727  1.00 32.92     0.185 C 
ATOM     18  OE1 GLU D 570     -22.142  -6.017 -14.579  1.00 32.92    -0.647 OA
ATOM     19  OE2 GLU D 570     -22.312  -4.144 -13.457  1.00 32.92    -0.647 OA
ENDBRANCH  16  17
ENDBRANCH  15  16
ENDBRANCH  14  15
END_RES GLU D 570
ENDMDL
