MODEL 1
REMARK VINA RESULT:      -6.2      0.000      0.000
REMARK  5 active torsions:
REMARK  status: ('A' for Active; 'I' for Inactive)
REMARK    1  A    between atoms: C_5  and  C_14 
REMARK    2  A    between atoms: C_6  and  O_8 
REMARK    3  A    between atoms: O_8  and  C_9 
REMARK    4  A    between atoms: C_9  and  C_11 
REMARK    5  A    between atoms: C_11  and  O_13 
ROOT
HETATM    1  C   UNL     1     -37.299  -0.583  -9.795  1.00  0.00     0.010 C 
HETATM    2  C   UNL     1     -35.987  -0.716 -10.569  1.00  0.00    -0.016 C 
HETATM    3  C   UNL     1     -35.052  -1.712  -9.869  1.00  0.00     0.005 C 
HETATM    4  C   UNL     1     -33.790  -1.981 -10.691  1.00  0.00     0.008 C 
HETATM    5  C   UNL     1     -34.117  -2.492 -12.115  1.00  0.00     0.018 C 
HETATM    6  C   UNL     1     -34.948  -1.372 -12.800  1.00  0.00     0.136 C 
HETATM    7  C   UNL     1     -36.250  -1.100 -12.034  1.00  0.00     0.037 C 
ENDROOT
BRANCH   6   8
HETATM    8  O   UNL     1     -35.283  -1.683 -14.160  1.00  0.00    -0.314 OA
BRANCH   8   9
HETATM    9  C   UNL     1     -35.389  -0.633 -15.022  1.00  0.00     0.287 C 
HETATM   10  O   UNL     1     -34.593   0.294 -15.117  1.00  0.00    -0.262 OA
BRANCH   9  11
HETATM   11  C   UNL     1     -36.652  -0.758 -15.881  1.00  0.00     0.213 C 
HETATM   12  C   UNL     1     -37.682   0.289 -15.490  1.00  0.00     0.050 C 
BRANCH  11  13
HETATM   13  O   UNL     1     -36.374  -0.610 -17.273  1.00  0.00    -0.386 OA
HETATM   14  H   UNL     1     -37.103  -1.047 -17.754  1.00  0.00     0.210 HD
ENDBRANCH  11  13
ENDBRANCH   9  11
ENDBRANCH   8   9
ENDBRANCH   6   8
BRANCH   5  15
HETATM   15  C   UNL     1     -34.767  -3.919 -12.105  1.00  0.00    -0.016 C 
HETATM   16  C   UNL     1     -34.463  -4.759 -13.351  1.00  0.00     0.010 C 
HETATM   17  C   UNL     1     -34.319  -4.732 -10.880  1.00  0.00     0.010 C 
ENDBRANCH   5  15
TORSDOF 5
BEGIN_RES ARG D 557
REMARK  4 active torsions:
REMARK  status: ('A' for Active; 'I' for Inactive)
REMARK    1  A    between atoms: CA   and  CB  
REMARK    2  A    between atoms: CB   and  CG  
REMARK    3  A    between atoms: CG   and  CD  
REMARK    4  A    between atoms: CD   and  NE  
REMARK       I    between atoms: NE   and  CZ  
REMARK       I    between atoms: CZ   and  NH1 
REMARK       I    between atoms: CZ   and  NH2 
ROOT
ATOM      1  CA  ARG D 557     -26.217   2.705 -17.014  1.00 35.49     0.159 C 
ENDROOT
BRANCH   1   2
ATOM      2  CB  ARG D 557     -26.789   1.319 -17.183  1.00 35.49     0.034 C 
BRANCH   2   3
ATOM      3  CG  ARG D 557     -25.834   0.204 -17.167  1.00 35.49     0.027 C 
BRANCH   3   4
ATOM      4  CD  ARG D 557     -24.747   0.406 -16.182  1.00 35.49     0.116 C 
BRANCH   4   5
ATOM      5  NE  ARG D 557     -24.896  -0.442 -15.029  1.00 35.49    -0.212 N 
ATOM      6  CZ  ARG D 557     -24.075  -1.404 -14.672  1.00 35.49     0.666 C 
ATOM      7  NH1 ARG D 557     -22.996  -1.711 -15.369  1.00 35.49    -0.235 N 
ATOM      8  NH2 ARG D 557     -24.354  -2.059 -13.583  1.00 35.49    -0.235 N 
ATOM      9  HH  ARG D 557     -22.792  -1.292 -16.088  1.00 35.49     0.174 HD
ATOM     10  HH  ARG D 557     -22.496  -2.347 -15.087  1.00 35.49     0.174 HD
ATOM     11  HH  ARG D 557     -25.053  -1.834 -13.149  1.00 35.49     0.174 HD
ATOM     12  HH  ARG D 557     -23.846  -2.684 -13.318  1.00 35.49     0.174 HD
ATOM     13  HE  ARG D 557     -25.602  -0.362 -14.562  1.00 35.49     0.178 HD
ENDBRANCH   4   5
ENDBRANCH   3   4
ENDBRANCH   2   3
ENDBRANCH   1   2
END_RES ARG D 557
BEGIN_RES GLU D 570
REMARK  3 active torsions:
REMARK  status: ('A' for Active; 'I' for Inactive)
REMARK    5  A    between atoms: CA   and  CB  
REMARK    6  A    between atoms: CB   and  CG  
REMARK    7  A    between atoms: CG   and  CD  
ROOT
ATOM     14  CA  GLU D 570     -18.033  -6.348 -13.375  1.00 32.92     0.160 C 
ENDROOT
BRANCH  14  15
ATOM     15  CB  GLU D 570     -19.500  -6.345 -13.794  1.00 32.92     0.043 C 
BRANCH  15  16
ATOM     16  CG  GLU D 570     -20.439  -5.519 -12.992  1.00 32.92     0.100 C 
BRANCH  16  17
ATOM     17  CD  GLU D 570     -21.742  -5.245 -13.707  1.00 32.92     0.185 C 
ATOM     18  OE1 GLU D 570     -22.210  -6.115 -14.467  1.00 32.92    -0.647 OA
ATOM     19  OE2 GLU D 570     -22.291  -4.142 -13.519  1.00 32.92    -0.647 OA
ENDBRANCH  16  17
ENDBRANCH  15  16
ENDBRANCH  14  15
END_RES GLU D 570
ENDMDL
MODEL 2
REMARK VINA RESULT:      -6.0      1.940      2.300
REMARK  5 active torsions:
REMARK  status: ('A' for Active; 'I' for Inactive)
REMARK    1  A    between atoms: C_5  and  C_14 
REMARK    2  A    between atoms: C_6  and  O_8 
REMARK    3  A    between atoms: O_8  and  C_9 
REMARK    4  A    between atoms: C_9  and  C_11 
REMARK    5  A    between atoms: C_11  and  O_13 
ROOT
HETATM    1  C   UNL     1     -37.405  -0.557  -9.896  1.00  0.00     0.010 C 
HETATM    2  C   UNL     1     -36.068  -0.687 -10.626  1.00  0.00    -0.016 C 
HETATM    3  C   UNL     1     -35.152  -1.678  -9.893  1.00  0.00     0.005 C 
HETATM    4  C   UNL     1     -33.863  -1.945 -10.672  1.00  0.00     0.008 C 
HETATM    5  C   UNL     1     -34.141  -2.460 -12.105  1.00  0.00     0.018 C 
HETATM    6  C   UNL     1     -34.952  -1.344 -12.819  1.00  0.00     0.136 C 
HETATM    7  C   UNL     1     -36.280  -1.075 -12.098  1.00  0.00     0.037 C 
ENDROOT
BRANCH   6   8
HETATM    8  O   UNL     1     -35.241  -1.659 -14.190  1.00  0.00    -0.314 OA
BRANCH   8   9
HETATM    9  C   UNL     1     -35.369  -0.608 -15.047  1.00  0.00     0.287 C 
HETATM   10  O   UNL     1     -34.589   0.332 -15.145  1.00  0.00    -0.262 OA
BRANCH   9  11
HETATM   11  C   UNL     1     -36.636  -0.751 -15.898  1.00  0.00     0.213 C 
HETATM   12  C   UNL     1     -37.675   0.285 -15.505  1.00  0.00     0.050 C 
BRANCH  11  13
HETATM   13  O   UNL     1     -36.368  -0.604 -17.293  1.00  0.00    -0.386 OA
HETATM   14  H   UNL     1     -35.749   0.146 -17.383  1.00  0.00     0.210 HD
ENDBRANCH  11  13
ENDBRANCH   9  11
ENDBRANCH   8   9
ENDBRANCH   6   8
BRANCH   5  15
HETATM   15  C   UNL     1     -34.786  -3.889 -12.114  1.00  0.00    -0.016 C 
HETATM   16  C   UNL     1     -34.415  -4.741 -13.333  1.00  0.00     0.010 C 
HETATM   17  C   UNL     1     -34.400  -4.688 -10.859  1.00  0.00     0.010 C 
ENDBRANCH   5  15
TORSDOF 5
BEGIN_RES ARG D 557
REMARK  4 active torsions:
REMARK  status: ('A' for Active; 'I' for Inactive)
REMARK    1  A    between atoms: CA   and  CB  
REMARK    2  A    between atoms: CB   and  CG  
REMARK    3  A    between atoms: CG   and  CD  
REMARK    4  A    between atoms: CD   and  NE  
REMARK       I    between atoms: NE   and  CZ  
REMARK       I    between atoms: CZ   and  NH1 
REMARK       I    between atoms: CZ   and  NH2 
ROOT
ATOM      1  CA  ARG D 557     -26.217   2.705 -17.014  1.00 35.49     0.159 C 
ENDROOT
BRANCH   1   2
ATOM      2  CB  ARG D 557     -26.789   1.319 -17.183  1.00 35.49     0.034 C 
BRANCH   2   3
ATOM      3  CG  ARG D 557     -28.236   1.225 -17.411  1.00 35.49     0.027 C 
BRANCH   3   4
ATOM      4  CD  ARG D 557     -28.895   0.285 -16.476  1.00 35.49     0.116 C 
BRANCH   4   5
ATOM      5  NE  ARG D 557     -29.276  -0.944 -17.121  1.00 35.49    -0.212 N 
ATOM      6  CZ  ARG D 557     -28.644  -2.092 -17.022  1.00 35.49     0.666 C 
ATOM      7  NH1 ARG D 557     -27.545  -2.237 -16.306  1.00 35.49    -0.235 N 
ATOM      8  NH2 ARG D 557     -29.145  -3.110 -17.660  1.00 35.49    -0.235 N 
ATOM      9  HH  ARG D 557     -27.199  -1.581 -15.876  1.00 35.49     0.174 HD
ATOM     10  HH  ARG D 557     -27.177  -3.010 -16.276  1.00 35.49     0.174 HD
ATOM     11  HH  ARG D 557     -29.860  -2.989 -18.109  1.00 35.49     0.174 HD
ATOM     12  HH  ARG D 557     -28.767  -3.868 -17.617  1.00 35.49     0.174 HD
ATOM     13  HE  ARG D 557     -29.933  -0.924 -17.661  1.00 35.49     0.178 HD
ENDBRANCH   4   5
ENDBRANCH   3   4
ENDBRANCH   2   3
ENDBRANCH   1   2
END_RES ARG D 557
BEGIN_RES GLU D 570
REMARK  3 active torsions:
REMARK  status: ('A' for Active; 'I' for Inactive)
REMARK    5  A    between atoms: CA   and  CB  
REMARK    6  A    between atoms: CB   and  CG  
REMARK    7  A    between atoms: CG   and  CD  
ROOT
ATOM     14  CA  GLU D 570     -18.033  -6.348 -13.375  1.00 32.92     0.160 C 
ENDROOT
BRANCH  14  15
ATOM     15  CB  GLU D 570     -19.500  -6.345 -13.794  1.00 32.92     0.043 C 
BRANCH  15  16
ATOM     16  CG  GLU D 570     -20.439  -5.520 -12.991  1.00 32.92     0.100 C 
BRANCH  16  17
ATOM     17  CD  GLU D 570     -21.743  -5.249 -13.705  1.00 32.92     0.185 C 
ATOM     18  OE1 GLU D 570     -22.133  -6.048 -14.578  1.00 32.92    -0.647 OA
ATOM     19  OE2 GLU D 570     -22.373  -4.217 -13.401  1.00 32.92    -0.647 OA
ENDBRANCH  16  17
ENDBRANCH  15  16
ENDBRANCH  14  15
END_RES GLU D 570
ENDMDL
MODEL 3
REMARK VINA RESULT:      -5.8      9.930     16.163
REMARK  5 active torsions:
REMARK  status: ('A' for Active; 'I' for Inactive)
REMARK    1  A    between atoms: C_5  and  C_14 
REMARK    2  A    between atoms: C_6  and  O_8 
REMARK    3  A    between atoms: O_8  and  C_9 
REMARK    4  A    between atoms: C_9  and  C_11 
REMARK    5  A    between atoms: C_11  and  O_13 
ROOT
HETATM    1  C   UNL     1     -22.245  -6.079  -2.036  1.00  0.00     0.010 C 
HETATM    2  C   UNL     1     -21.585  -7.189  -1.218  1.00  0.00    -0.016 C 
HETATM    3  C   UNL     1     -22.579  -7.770  -0.203  1.00  0.00     0.005 C 
HETATM    4  C   UNL     1     -22.000  -8.979   0.534  1.00  0.00     0.008 C 
HETATM    5  C   UNL     1     -21.544 -10.093  -0.439  1.00  0.00     0.018 C 
HETATM    6  C   UNL     1     -20.445  -9.464  -1.338  1.00  0.00     0.136 C 
HETATM    7  C   UNL     1     -20.995  -8.272  -2.135  1.00  0.00     0.037 C 
ENDROOT
BRANCH   6   8
HETATM    8  O   UNL     1     -19.882 -10.403  -2.267  1.00  0.00    -0.314 OA
BRANCH   8   9
HETATM    9  C   UNL     1     -18.536 -10.603  -2.198  1.00  0.00     0.287 C 
HETATM   10  O   UNL     1     -17.982 -11.543  -1.640  1.00  0.00    -0.262 OA
BRANCH   9  11
HETATM   11  C   UNL     1     -17.782  -9.484  -2.924  1.00  0.00     0.213 C 
HETATM   12  C   UNL     1     -16.280  -9.695  -2.838  1.00  0.00     0.050 C 
BRANCH  11  13
HETATM   13  O   UNL     1     -18.141  -9.399  -4.303  1.00  0.00    -0.386 OA
HETATM   14  H   UNL     1     -17.695  -8.607  -4.662  1.00  0.00     0.210 HD
ENDBRANCH  11  13
ENDBRANCH   9  11
ENDBRANCH   8   9
ENDBRANCH   6   8
BRANCH   5  15
HETATM   15  C   UNL     1     -22.747 -10.761  -1.192  1.00  0.00    -0.016 C 
HETATM   16  C   UNL     1     -22.430 -12.133  -1.797  1.00  0.00     0.010 C 
HETATM   17  C   UNL     1     -23.962 -10.935  -0.268  1.00  0.00     0.010 C 
ENDBRANCH   5  15
TORSDOF 5
BEGIN_RES ARG D 557
REMARK  4 active torsions:
REMARK  status: ('A' for Active; 'I' for Inactive)
REMARK    1  A    between atoms: CA   and  CB  
REMARK    2  A    between atoms: CB   and  CG  
REMARK    3  A    between atoms: CG   and  CD  
REMARK    4  A    between atoms: CD   and  NE  
REMARK       I    between atoms: NE   and  CZ  
REMARK       I    between atoms: CZ   and  NH1 
REMARK       I    between atoms: CZ   and  NH2 
ROOT
ATOM      1  CA  ARG D 557     -26.217   2.705 -17.014  1.00 35.49     0.159 C 
ENDROOT
BRANCH   1   2
ATOM      2  CB  ARG D 557     -26.789   1.319 -17.183  1.00 35.49     0.034 C 
BRANCH   2   3
ATOM      3  CG  ARG D 557     -25.835   0.204 -17.164  1.00 35.49     0.027 C 
BRANCH   3   4
ATOM      4  CD  ARG D 557     -24.746   0.410 -16.182  1.00 35.49     0.116 C 
BRANCH   4   5
ATOM      5  NE  ARG D 557     -24.892  -0.434 -15.025  1.00 35.49    -0.212 N 
ATOM      6  CZ  ARG D 557     -24.077  -1.403 -14.673  1.00 35.49     0.666 C 
ATOM      7  NH1 ARG D 557     -23.009  -1.723 -15.379  1.00 35.49    -0.235 N 
ATOM      8  NH2 ARG D 557     -24.353  -2.052 -13.579  1.00 35.49    -0.235 N 
ATOM      9  HH  ARG D 557     -22.807  -1.308 -16.101  1.00 35.49     0.174 HD
ATOM     10  HH  ARG D 557     -22.512  -2.363 -15.099  1.00 35.49     0.174 HD
ATOM     11  HH  ARG D 557     -25.046  -1.819 -13.139  1.00 35.49     0.174 HD
ATOM     12  HH  ARG D 557     -23.849  -2.681 -13.318  1.00 35.49     0.174 HD
ATOM     13  HE  ARG D 557     -25.593  -0.345 -14.552  1.00 35.49     0.178 HD
ENDBRANCH   4   5
ENDBRANCH   3   4
ENDBRANCH   2   3
ENDBRANCH   1   2
END_RES ARG D 557
BEGIN_RES GLU D 570
REMARK  3 active torsions:
REMARK  status: ('A' for Active; 'I' for Inactive)
REMARK    5  A    between atoms: CA   and  CB  
REMARK    6  A    between atoms: CB   and  CG  
REMARK    7  A    between atoms: CG   and  CD  
ROOT
ATOM     14  CA  GLU D 570     -18.033  -6.348 -13.375  1.00 32.92     0.160 C 
ENDROOT
BRANCH  14  15
ATOM     15  CB  GLU D 570     -19.500  -6.345 -13.794  1.00 32.92     0.043 C 
BRANCH  15  16
ATOM     16  CG  GLU D 570     -20.441  -5.526 -12.987  1.00 32.92     0.100 C 
BRANCH  16  17
ATOM     17  CD  GLU D 570     -21.744  -5.251 -13.700  1.00 32.92     0.185 C 
ATOM     18  OE1 GLU D 570     -22.220  -6.125 -14.449  1.00 32.92    -0.647 OA
ATOM     19  OE2 GLU D 570     -22.286  -4.142 -13.520  1.00 32.92    -0.647 OA
ENDBRANCH  16  17
ENDBRANCH  15  16
ENDBRANCH  14  15
END_RES GLU D 570
ENDMDL
MODEL 4
REMARK VINA RESULT:      -5.8      9.251     15.081
REMARK  5 active torsions:
REMARK  status: ('A' for Active; 'I' for Inactive)
REMARK    1  A    between atoms: C_5  and  C_14 
REMARK    2  A    between atoms: C_6  and  O_8 
REMARK    3  A    between atoms: O_8  and  C_9 
REMARK    4  A    between atoms: C_9  and  C_11 
REMARK    5  A    between atoms: C_11  and  O_13 
ROOT
HETATM    1  C   UNL     1     -20.422  -4.641  -5.630  1.00  0.00     0.010 C 
HETATM    2  C   UNL     1     -21.084  -5.939  -5.166  1.00  0.00    -0.016 C 
HETATM    3  C   UNL     1     -20.634  -7.113  -6.047  1.00  0.00     0.005 C 
HETATM    4  C   UNL     1     -21.162  -8.451  -5.525  1.00  0.00     0.008 C 
HETATM    5  C   UNL     1     -20.742  -8.713  -4.058  1.00  0.00     0.018 C 
HETATM    6  C   UNL     1     -21.351  -7.557  -3.218  1.00  0.00     0.136 C 
HETATM    7  C   UNL     1     -20.811  -6.195  -3.676  1.00  0.00     0.037 C 
ENDROOT
BRANCH   6   8
HETATM    8  O   UNL     1     -21.088  -7.694  -1.813  1.00  0.00    -0.314 OA
BRANCH   8   9
HETATM    9  C   UNL     1     -22.066  -7.276  -0.962  1.00  0.00     0.287 C 
HETATM   10  O   UNL     1     -22.609  -6.178  -0.983  1.00  0.00    -0.262 OA
BRANCH   9  11
HETATM   11  C   UNL     1     -22.417  -8.376   0.047  1.00  0.00     0.213 C 
HETATM   12  C   UNL     1     -21.329  -8.520   1.096  1.00  0.00     0.050 C 
BRANCH  11  13
HETATM   13  O   UNL     1     -23.651  -8.118   0.718  1.00  0.00    -0.386 OA
HETATM   14  H   UNL     1     -24.279  -7.801   0.041  1.00  0.00     0.210 HD
ENDBRANCH  11  13
ENDBRANCH   9  11
ENDBRANCH   8   9
ENDBRANCH   6   8
BRANCH   5  15
HETATM   15  C   UNL     1     -19.197  -8.932  -3.906  1.00  0.00    -0.016 C 
HETATM   16  C   UNL     1     -18.790  -9.701  -2.645  1.00  0.00     0.010 C 
HETATM   17  C   UNL     1     -18.615  -9.685  -5.113  1.00  0.00     0.010 C 
ENDBRANCH   5  15
TORSDOF 5
BEGIN_RES ARG D 557
REMARK  4 active torsions:
REMARK  status: ('A' for Active; 'I' for Inactive)
REMARK    1  A    between atoms: CA   and  CB  
REMARK    2  A    between atoms: CB   and  CG  
REMARK    3  A    between atoms: CG   and  CD  
REMARK    4  A    between atoms: CD   and  NE  
REMARK       I    between atoms: NE   and  CZ  
REMARK       I    between atoms: CZ   and  NH1 
REMARK       I    between atoms: CZ   and  NH2 
ROOT
ATOM      1  CA  ARG D 557     -26.217   2.705 -17.014  1.00 35.49     0.159 C 
ENDROOT
BRANCH   1   2
ATOM      2  CB  ARG D 557     -26.789   1.319 -17.183  1.00 35.49     0.034 C 
BRANCH   2   3
ATOM      3  CG  ARG D 557     -25.836   0.203 -17.153  1.00 35.49     0.027 C 
BRANCH   3   4
ATOM      4  CD  ARG D 557     -24.755   0.410 -16.163  1.00 35.49     0.116 C 
BRANCH   4   5
ATOM      5  NE  ARG D 557     -24.903  -0.440 -15.012  1.00 35.49    -0.212 N 
ATOM      6  CZ  ARG D 557     -24.092  -1.415 -14.667  1.00 35.49     0.666 C 
ATOM      7  NH1 ARG D 557     -23.026  -1.735 -15.376  1.00 35.49    -0.235 N 
ATOM      8  NH2 ARG D 557     -24.370  -2.070 -13.577  1.00 35.49    -0.235 N 
ATOM      9  HH  ARG D 557     -22.823  -1.316 -16.095  1.00 35.49     0.174 HD
ATOM     10  HH  ARG D 557     -22.532  -2.378 -15.101  1.00 35.49     0.174 HD
ATOM     11  HH  ARG D 557     -25.061  -1.836 -13.135  1.00 35.49     0.174 HD
ATOM     12  HH  ARG D 557     -23.868  -2.703 -13.320  1.00 35.49     0.174 HD
ATOM     13  HE  ARG D 557     -25.604  -0.351 -14.537  1.00 35.49     0.178 HD
ENDBRANCH   4   5
ENDBRANCH   3   4
ENDBRANCH   2   3
ENDBRANCH   1   2
END_RES ARG D 557
BEGIN_RES GLU D 570
REMARK  3 active torsions:
REMARK  status: ('A' for Active; 'I' for Inactive)
REMARK    5  A    between atoms: CA   and  CB  
REMARK    6  A    between atoms: CB   and  CG  
REMARK    7  A    between atoms: CG   and  CD  
ROOT
ATOM     14  CA  GLU D 570     -18.033  -6.348 -13.375  1.00 32.92     0.160 C 
ENDROOT
BRANCH  14  15
ATOM     15  CB  GLU D 570     -19.500  -6.345 -13.794  1.00 32.92     0.043 C 
BRANCH  15  16
ATOM     16  CG  GLU D 570     -20.444  -5.539 -12.977  1.00 32.92     0.100 C 
BRANCH  16  17
ATOM     17  CD  GLU D 570     -21.735  -5.233 -13.699  1.00 32.92     0.185 C 
ATOM     18  OE1 GLU D 570     -22.296  -4.139 -13.497  1.00 32.92    -0.647 OA
ATOM     19  OE2 GLU D 570     -22.199  -6.103 -14.461  1.00 32.92    -0.647 OA
ENDBRANCH  16  17
ENDBRANCH  15  16
ENDBRANCH  14  15
END_RES GLU D 570
ENDMDL
MODEL 5
REMARK VINA RESULT:      -5.7      9.391     15.267
REMARK  5 active torsions:
REMARK  status: ('A' for Active; 'I' for Inactive)
REMARK    1  A    between atoms: C_5  and  C_14 
REMARK    2  A    between atoms: C_6  and  O_8 
REMARK    3  A    between atoms: O_8  and  C_9 
REMARK    4  A    between atoms: C_9  and  C_11 
REMARK    5  A    between atoms: C_11  and  O_13 
ROOT
HETATM    1  C   UNL     1     -19.110 -11.735   0.185  1.00  0.00     0.010 C 
HETATM    2  C   UNL     1     -20.368 -11.383  -0.609  1.00  0.00    -0.016 C 
HETATM    3  C   UNL     1     -21.546 -11.124   0.341  1.00  0.00     0.005 C 
HETATM    4  C   UNL     1     -22.784 -10.628  -0.408  1.00  0.00     0.008 C 
HETATM    5  C   UNL     1     -22.494  -9.351  -1.234  1.00  0.00     0.018 C 
HETATM    6  C   UNL     1     -21.392  -9.735  -2.259  1.00  0.00     0.136 C 
HETATM    7  C   UNL     1     -20.111 -10.195  -1.549  1.00  0.00     0.037 C 
ENDROOT
BRANCH   6   8
HETATM    8  O   UNL     1     -21.053  -8.654  -3.141  1.00  0.00    -0.314 OA
BRANCH   8   9
HETATM    9  C   UNL     1     -21.285  -8.850  -4.469  1.00  0.00     0.287 C 
HETATM   10  O   UNL     1     -21.229  -9.927  -5.051  1.00  0.00    -0.262 OA
BRANCH   9  11
HETATM   11  C   UNL     1     -21.637  -7.528  -5.161  1.00  0.00     0.213 C 
HETATM   12  C   UNL     1     -21.128  -6.342  -4.361  1.00  0.00     0.050 C 
BRANCH  11  13
HETATM   13  O   UNL     1     -21.087  -7.446  -6.476  1.00  0.00    -0.386 OA
HETATM   14  H   UNL     1     -20.600  -6.601  -6.525  1.00  0.00     0.210 HD
ENDBRANCH  11  13
ENDBRANCH   9  11
ENDBRANCH   8   9
ENDBRANCH   6   8
BRANCH   5  15
HETATM   15  C   UNL     1     -22.187  -8.109  -0.328  1.00  0.00    -0.016 C 
HETATM   16  C   UNL     1     -22.305  -6.760  -1.047  1.00  0.00     0.010 C 
HETATM   17  C   UNL     1     -23.114  -8.061   0.896  1.00  0.00     0.010 C 
ENDBRANCH   5  15
TORSDOF 5
BEGIN_RES ARG D 557
REMARK  4 active torsions:
REMARK  status: ('A' for Active; 'I' for Inactive)
REMARK    1  A    between atoms: CA   and  CB  
REMARK    2  A    between atoms: CB   and  CG  
REMARK    3  A    between atoms: CG   and  CD  
REMARK    4  A    between atoms: CD   and  NE  
REMARK       I    between atoms: NE   and  CZ  
REMARK       I    between atoms: CZ   and  NH1 
REMARK       I    between atoms: CZ   and  NH2 
ROOT
ATOM      1  CA  ARG D 557     -26.217   2.705 -17.014  1.00 35.49     0.159 C 
ENDROOT
BRANCH   1   2
ATOM      2  CB  ARG D 557     -26.789   1.319 -17.183  1.00 35.49     0.034 C 
BRANCH   2   3
ATOM      3  CG  ARG D 557     -25.835   0.203 -17.160  1.00 35.49     0.027 C 
BRANCH   3   4
ATOM      4  CD  ARG D 557     -24.745   0.413 -16.180  1.00 35.49     0.116 C 
BRANCH   4   5
ATOM      5  NE  ARG D 557     -24.890  -0.425 -15.019  1.00 35.49    -0.212 N 
ATOM      6  CZ  ARG D 557     -24.082  -1.402 -14.671  1.00 35.49     0.666 C 
ATOM      7  NH1 ARG D 557     -23.023  -1.735 -15.386  1.00 35.49    -0.235 N 
ATOM      8  NH2 ARG D 557     -24.356  -2.044 -13.573  1.00 35.49    -0.235 N 
ATOM      9  HH  ARG D 557     -22.823  -1.324 -16.111  1.00 35.49     0.174 HD
ATOM     10  HH  ARG D 557     -22.531  -2.379 -15.108  1.00 35.49     0.174 HD
ATOM     11  HH  ARG D 557     -25.042  -1.803 -13.128  1.00 35.49     0.174 HD
ATOM     12  HH  ARG D 557     -23.856  -2.678 -13.314  1.00 35.49     0.174 HD
ATOM     13  HE  ARG D 557     -25.586  -0.328 -14.541  1.00 35.49     0.178 HD
ENDBRANCH   4   5
ENDBRANCH   3   4
ENDBRANCH   2   3
ENDBRANCH   1   2
END_RES ARG D 557
BEGIN_RES GLU D 570
REMARK  3 active torsions:
REMARK  status: ('A' for Active; 'I' for Inactive)
REMARK    5  A    between atoms: CA   and  CB  
REMARK    6  A    between atoms: CB   and  CG  
REMARK    7  A    between atoms: CG   and  CD  
ROOT
ATOM     14  CA  GLU D 570     -18.033  -6.348 -13.375  1.00 32.92     0.160 C 
ENDROOT
BRANCH  14  15
ATOM     15  CB  GLU D 570     -19.500  -6.345 -13.794  1.00 32.92     0.043 C 
BRANCH  15  16
ATOM     16  CG  GLU D 570     -20.438  -5.514 -12.996  1.00 32.92     0.100 C 
BRANCH  16  17
ATOM     17  CD  GLU D 570     -21.735  -5.231 -13.718  1.00 32.92     0.185 C 
ATOM     18  OE1 GLU D 570     -22.184  -6.081 -14.511  1.00 32.92    -0.647 OA
ATOM     19  OE2 GLU D 570     -22.300  -4.141 -13.500  1.00 32.92    -0.647 OA
ENDBRANCH  16  17
ENDBRANCH  15  16
ENDBRANCH  14  15
END_RES GLU D 570
ENDMDL
MODEL 6
REMARK VINA RESULT:      -5.6      4.590      6.927
REMARK  5 active torsions:
REMARK  status: ('A' for Active; 'I' for Inactive)
REMARK    1  A    between atoms: C_5  and  C_14 
REMARK    2  A    between atoms: C_6  and  O_8 
REMARK    3  A    between atoms: O_8  and  C_9 
REMARK    4  A    between atoms: C_9  and  C_11 
REMARK    5  A    between atoms: C_11  and  O_13 
ROOT
HETATM    1  C   UNL     1     -25.932  -5.953 -15.450  1.00  0.00     0.010 C 
HETATM    2  C   UNL     1     -26.820  -5.438 -16.583  1.00  0.00    -0.016 C 
HETATM    3  C   UNL     1     -26.733  -6.371 -17.799  1.00  0.00     0.005 C 
HETATM    4  C   UNL     1     -27.717  -5.968 -18.898  1.00  0.00     0.008 C 
HETATM    5  C   UNL     1     -29.178  -5.920 -18.386  1.00  0.00     0.018 C 
HETATM    6  C   UNL     1     -29.208  -4.858 -17.253  1.00  0.00     0.136 C 
HETATM    7  C   UNL     1     -28.267  -5.246 -16.104  1.00  0.00     0.037 C 
ENDROOT
BRANCH   6   8
HETATM    8  O   UNL     1     -30.522  -4.662 -16.711  1.00  0.00    -0.314 OA
BRANCH   8   9
HETATM    9  C   UNL     1     -31.239  -3.613 -17.204  1.00  0.00     0.287 C 
HETATM   10  O   UNL     1     -30.780  -2.525 -17.529  1.00  0.00    -0.262 OA
BRANCH   9  11
HETATM   11  C   UNL     1     -32.726  -3.972 -17.309  1.00  0.00     0.213 C 
HETATM   12  C   UNL     1     -33.249  -4.517 -15.992  1.00  0.00     0.050 C 
BRANCH  11  13
HETATM   13  O   UNL     1     -33.527  -2.847 -17.674  1.00  0.00    -0.386 OA
HETATM   14  H   UNL     1     -33.844  -3.010 -18.583  1.00  0.00     0.210 HD
ENDBRANCH  11  13
ENDBRANCH   9  11
ENDBRANCH   8   9
ENDBRANCH   6   8
BRANCH   5  15
HETATM   15  C   UNL     1     -29.728  -7.339 -18.010  1.00  0.00    -0.016 C 
HETATM   16  C   UNL     1     -31.215  -7.362 -17.639  1.00  0.00     0.010 C 
HETATM   17  C   UNL     1     -29.524  -8.343 -19.156  1.00  0.00     0.010 C 
ENDBRANCH   5  15
TORSDOF 5
BEGIN_RES ARG D 557
REMARK  4 active torsions:
REMARK  status: ('A' for Active; 'I' for Inactive)
REMARK    1  A    between atoms: CA   and  CB  
REMARK    2  A    between atoms: CB   and  CG  
REMARK    3  A    between atoms: CG   and  CD  
REMARK    4  A    between atoms: CD   and  NE  
REMARK       I    between atoms: NE   and  CZ  
REMARK       I    between atoms: CZ   and  NH1 
REMARK       I    between atoms: CZ   and  NH2 
ROOT
ATOM      1  CA  ARG D 557     -26.217   2.705 -17.014  1.00 35.49     0.159 C 
ENDROOT
BRANCH   1   2
ATOM      2  CB  ARG D 557     -26.789   1.319 -17.183  1.00 35.49     0.034 C 
BRANCH   2   3
ATOM      3  CG  ARG D 557     -25.837   0.202 -17.142  1.00 35.49     0.027 C 
BRANCH   3   4
ATOM      4  CD  ARG D 557     -24.766   0.410 -16.141  1.00 35.49     0.116 C 
BRANCH   4   5
ATOM      5  NE  ARG D 557     -24.922  -0.447 -14.994  1.00 35.49    -0.212 N 
ATOM      6  CZ  ARG D 557     -24.115  -1.425 -14.650  1.00 35.49     0.666 C 
ATOM      7  NH1 ARG D 557     -23.045  -1.742 -15.356  1.00 35.49    -0.235 N 
ATOM      8  NH2 ARG D 557     -24.399  -2.085 -13.566  1.00 35.49    -0.235 N 
ATOM      9  HH  ARG D 557     -22.838  -1.320 -16.072  1.00 35.49     0.174 HD
ATOM     10  HH  ARG D 557     -22.553  -2.388 -15.082  1.00 35.49     0.174 HD
ATOM     11  HH  ARG D 557     -25.092  -1.853 -13.126  1.00 35.49     0.174 HD
ATOM     12  HH  ARG D 557     -23.899  -2.720 -13.310  1.00 35.49     0.174 HD
ATOM     13  HE  ARG D 557     -25.625  -0.359 -14.523  1.00 35.49     0.178 HD
ENDBRANCH   4   5
ENDBRANCH   3   4
ENDBRANCH   2   3
ENDBRANCH   1   2
END_RES ARG D 557
BEGIN_RES GLU D 570
REMARK  3 active torsions:
REMARK  status: ('A' for Active; 'I' for Inactive)
REMARK    5  A    between atoms: CA   and  CB  
REMARK    6  A    between atoms: CB   and  CG  
REMARK    7  A    between atoms: CG   and  CD  
ROOT
ATOM     14  CA  GLU D 570     -18.033  -6.348 -13.375  1.00 32.92     0.160 C 
ENDROOT
BRANCH  14  15
ATOM     15  CB  GLU D 570     -19.500  -6.345 -13.794  1.00 32.92     0.043 C 
BRANCH  15  16
ATOM     16  CG  GLU D 570     -20.443  -5.534 -12.981  1.00 32.92     0.100 C 
BRANCH  16  17
ATOM     17  CD  GLU D 570     -21.727  -5.215 -13.710  1.00 32.92     0.185 C 
ATOM     18  OE1 GLU D 570     -22.303  -4.135 -13.477  1.00 32.92    -0.647 OA
ATOM     19  OE2 GLU D 570     -22.170  -6.062 -14.511  1.00 32.92    -0.647 OA
ENDBRANCH  16  17
ENDBRANCH  15  16
ENDBRANCH  14  15
END_RES GLU D 570
ENDMDL
MODEL 7
REMARK VINA RESULT:      -5.5      4.930      7.513
REMARK  5 active torsions:
REMARK  status: ('A' for Active; 'I' for Inactive)
REMARK    1  A    between atoms: C_5  and  C_14 
REMARK    2  A    between atoms: C_6  and  O_8 
REMARK    3  A    between atoms: O_8  and  C_9 
REMARK    4  A    between atoms: C_9  and  C_11 
REMARK    5  A    between atoms: C_11  and  O_13 
ROOT
HETATM    1  C   UNL     1     -26.256  -6.599 -20.292  1.00  0.00     0.010 C 
HETATM    2  C   UNL     1     -27.002  -6.705 -18.961  1.00  0.00    -0.016 C 
HETATM    3  C   UNL     1     -26.084  -6.300 -17.799  1.00  0.00     0.005 C 
HETATM    4  C   UNL     1     -26.837  -6.254 -16.469  1.00  0.00     0.008 C 
HETATM    5  C   UNL     1     -28.058  -5.304 -16.520  1.00  0.00     0.018 C 
HETATM    6  C   UNL     1     -28.998  -5.860 -17.624  1.00  0.00     0.136 C 
HETATM    7  C   UNL     1     -28.298  -5.880 -18.990  1.00  0.00     0.037 C 
ENDROOT
BRANCH   6   8
HETATM    8  O   UNL     1     -30.212  -5.105 -17.752  1.00  0.00    -0.314 OA
BRANCH   8   9
HETATM    9  C   UNL     1     -31.352  -5.691 -17.290  1.00  0.00     0.287 C 
HETATM   10  O   UNL     1     -31.620  -6.884 -17.363  1.00  0.00    -0.262 OA
BRANCH   9  11
HETATM   11  C   UNL     1     -32.277  -4.651 -16.647  1.00  0.00     0.213 C 
HETATM   12  C   UNL     1     -32.448  -3.442 -17.551  1.00  0.00     0.050 C 
BRANCH  11  13
HETATM   13  O   UNL     1     -33.572  -5.182 -16.367  1.00  0.00    -0.386 OA
HETATM   14  H   UNL     1     -33.460  -5.830 -15.644  1.00  0.00     0.210 HD
ENDBRANCH  11  13
ENDBRANCH   9  11
ENDBRANCH   8   9
ENDBRANCH   6   8
BRANCH   5  15
HETATM   15  C   UNL     1     -27.641  -3.800 -16.668  1.00  0.00    -0.016 C 
HETATM   16  C   UNL     1     -28.810  -2.843 -16.928  1.00  0.00     0.010 C 
HETATM   17  C   UNL     1     -26.902  -3.295 -15.419  1.00  0.00     0.010 C 
ENDBRANCH   5  15
TORSDOF 5
BEGIN_RES ARG D 557
REMARK  4 active torsions:
REMARK  status: ('A' for Active; 'I' for Inactive)
REMARK    1  A    between atoms: CA   and  CB  
REMARK    2  A    between atoms: CB   and  CG  
REMARK    3  A    between atoms: CG   and  CD  
REMARK    4  A    between atoms: CD   and  NE  
REMARK       I    between atoms: NE   and  CZ  
REMARK       I    between atoms: CZ   and  NH1 
REMARK       I    between atoms: CZ   and  NH2 
ROOT
ATOM      1  CA  ARG D 557     -26.217   2.705 -17.014  1.00 35.49     0.159 C 
ENDROOT
BRANCH   1   2
ATOM      2  CB  ARG D 557     -26.789   1.319 -17.183  1.00 35.49     0.034 C 
BRANCH   2   3
ATOM      3  CG  ARG D 557     -25.839   0.201 -17.132  1.00 35.49     0.027 C 
BRANCH   3   4
ATOM      4  CD  ARG D 557     -24.713   0.460 -16.205  1.00 35.49     0.116 C 
BRANCH   4   5
ATOM      5  NE  ARG D 557     -24.790  -0.350 -15.018  1.00 35.49    -0.212 N 
ATOM      6  CZ  ARG D 557     -23.966  -1.321 -14.696  1.00 35.49     0.666 C 
ATOM      7  NH1 ARG D 557     -22.953  -1.676 -15.465  1.00 35.49    -0.235 N 
ATOM      8  NH2 ARG D 557     -24.174  -1.936 -13.568  1.00 35.49    -0.235 N 
ATOM      9  HH  ARG D 557     -22.796  -1.284 -16.211  1.00 35.49     0.174 HD
ATOM     10  HH  ARG D 557     -22.447  -2.316 -15.202  1.00 35.49     0.174 HD
ATOM     11  HH  ARG D 557     -24.832  -1.681 -13.089  1.00 35.49     0.174 HD
ATOM     12  HH  ARG D 557     -23.661  -2.566 -13.325  1.00 35.49     0.174 HD
ATOM     13  HE  ARG D 557     -25.455  -0.237 -14.501  1.00 35.49     0.178 HD
ENDBRANCH   4   5
ENDBRANCH   3   4
ENDBRANCH   2   3
ENDBRANCH   1   2
END_RES ARG D 557
BEGIN_RES GLU D 570
REMARK  3 active torsions:
REMARK  status: ('A' for Active; 'I' for Inactive)
REMARK    5  A    between atoms: CA   and  CB  
REMARK    6  A    between atoms: CB   and  CG  
REMARK    7  A    between atoms: CG   and  CD  
ROOT
ATOM     14  CA  GLU D 570     -18.033  -6.348 -13.375  1.00 32.92     0.160 C 
ENDROOT
BRANCH  14  15
ATOM     15  CB  GLU D 570     -19.500  -6.345 -13.794  1.00 32.92     0.043 C 
BRANCH  15  16
ATOM     16  CG  GLU D 570     -20.438  -5.512 -12.997  1.00 32.92     0.100 C 
BRANCH  16  17
ATOM     17  CD  GLU D 570     -21.735  -5.232 -13.719  1.00 32.92     0.185 C 
ATOM     18  OE1 GLU D 570     -22.190  -6.088 -14.501  1.00 32.92    -0.647 OA
ATOM     19  OE2 GLU D 570     -22.294  -4.137 -13.512  1.00 32.92    -0.647 OA
ENDBRANCH  16  17
ENDBRANCH  15  16
ENDBRANCH  14  15
END_RES GLU D 570
ENDMDL
MODEL 8
REMARK VINA RESULT:      -5.3      8.697     15.197
REMARK  5 active torsions:
REMARK  status: ('A' for Active; 'I' for Inactive)
REMARK    1  A    between atoms: C_5  and  C_14 
REMARK    2  A    between atoms: C_6  and  O_8 
REMARK    3  A    between atoms: O_8  and  C_9 
REMARK    4  A    between atoms: C_9  and  C_11 
REMARK    5  A    between atoms: C_11  and  O_13 
ROOT
HETATM    1  C   UNL     1     -20.437  -4.649  -5.651  1.00  0.00     0.010 C 
HETATM    2  C   UNL     1     -21.096  -5.945  -5.177  1.00  0.00    -0.016 C 
HETATM    3  C   UNL     1     -20.646  -7.125  -6.050  1.00  0.00     0.005 C 
HETATM    4  C   UNL     1     -21.170  -8.459  -5.517  1.00  0.00     0.008 C 
HETATM    5  C   UNL     1     -20.747  -8.710  -4.050  1.00  0.00     0.018 C 
HETATM    6  C   UNL     1     -21.354  -7.549  -3.216  1.00  0.00     0.136 C 
HETATM    7  C   UNL     1     -20.818  -6.189  -3.685  1.00  0.00     0.037 C 
ENDROOT
BRANCH   6   8
HETATM    8  O   UNL     1     -21.088  -7.676  -1.811  1.00  0.00    -0.314 OA
BRANCH   8   9
HETATM    9  C   UNL     1     -22.071  -7.269  -0.960  1.00  0.00     0.287 C 
HETATM   10  O   UNL     1     -22.619  -6.173  -0.977  1.00  0.00    -0.262 OA
BRANCH   9  11
HETATM   11  C   UNL     1     -22.418  -8.376   0.041  1.00  0.00     0.213 C 
HETATM   12  C   UNL     1     -21.323  -8.532   1.082  1.00  0.00     0.050 C 
BRANCH  11  13
HETATM   13  O   UNL     1     -23.646  -8.119   0.723  1.00  0.00    -0.386 OA
HETATM   14  H   UNL     1     -23.415  -7.893   1.645  1.00  0.00     0.210 HD
ENDBRANCH  11  13
ENDBRANCH   9  11
ENDBRANCH   8   9
ENDBRANCH   6   8
BRANCH   5  15
HETATM   15  C   UNL     1     -19.201  -8.926  -3.901  1.00  0.00    -0.016 C 
HETATM   16  C   UNL     1     -18.790  -9.700  -2.643  1.00  0.00     0.010 C 
HETATM   17  C   UNL     1     -18.618  -9.671  -5.112  1.00  0.00     0.010 C 
ENDBRANCH   5  15
TORSDOF 5
BEGIN_RES ARG D 557
REMARK  4 active torsions:
REMARK  status: ('A' for Active; 'I' for Inactive)
REMARK    1  A    between atoms: CA   and  CB  
REMARK    2  A    between atoms: CB   and  CG  
REMARK    3  A    between atoms: CG   and  CD  
REMARK    4  A    between atoms: CD   and  NE  
REMARK       I    between atoms: NE   and  CZ  
REMARK       I    between atoms: CZ   and  NH1 
REMARK       I    between atoms: CZ   and  NH2 
ROOT
ATOM      1  CA  ARG D 557     -26.217   2.705 -17.014  1.00 35.49     0.159 C 
ENDROOT
BRANCH   1   2
ATOM      2  CB  ARG D 557     -26.789   1.319 -17.183  1.00 35.49     0.034 C 
BRANCH   2   3
ATOM      3  CG  ARG D 557     -28.233   1.169 -16.963  1.00 35.49     0.027 C 
BRANCH   3   4
ATOM      4  CD  ARG D 557     -28.623  -0.239 -16.719  1.00 35.49     0.116 C 
BRANCH   4   5
ATOM      5  NE  ARG D 557     -27.608  -0.967 -16.004  1.00 35.49    -0.212 N 
ATOM      6  CZ  ARG D 557     -27.403  -2.264 -16.068  1.00 35.49     0.666 C 
ATOM      7  NH1 ARG D 557     -28.146  -3.063 -16.812  1.00 35.49    -0.235 N 
ATOM      8  NH2 ARG D 557     -26.422  -2.752 -15.366  1.00 35.49    -0.235 N 
ATOM      9  HH  ARG D 557     -28.795  -2.762 -17.283  1.00 35.49     0.174 HD
ATOM     10  HH  ARG D 557     -27.964  -3.900 -16.816  1.00 35.49     0.174 HD
ATOM     11  HH  ARG D 557     -25.955  -2.211 -14.901  1.00 35.49     0.174 HD
ATOM     12  HH  ARG D 557     -26.257  -3.584 -15.385  1.00 35.49     0.174 HD
ATOM     13  HE  ARG D 557     -27.130  -0.540 -15.444  1.00 35.49     0.178 HD
ENDBRANCH   4   5
ENDBRANCH   3   4
ENDBRANCH   2   3
ENDBRANCH   1   2
END_RES ARG D 557
BEGIN_RES GLU D 570
REMARK  3 active torsions:
REMARK  status: ('A' for Active; 'I' for Inactive)
REMARK    5  A    between atoms: CA   and  CB  
REMARK    6  A    between atoms: CB   and  CG  
REMARK    7  A    between atoms: CG   and  CD  
ROOT
ATOM     14  CA  GLU D 570     -18.033  -6.348 -13.375  1.00 32.92     0.160 C 
ENDROOT
BRANCH  14  15
ATOM     15  CB  GLU D 570     -19.500  -6.345 -13.794  1.00 32.92     0.043 C 
BRANCH  15  16
ATOM     16  CG  GLU D 570     -19.807  -6.018 -15.211  1.00 32.92     0.100 C 
BRANCH  16  17
ATOM     17  CD  GLU D 570     -21.153  -5.354 -15.384  1.00 32.92     0.185 C 
ATOM     18  OE1 GLU D 570     -21.855  -5.138 -14.378  1.00 32.92    -0.647 OA
ATOM     19  OE2 GLU D 570     -21.515  -5.061 -16.540  1.00 32.92    -0.647 OA
ENDBRANCH  16  17
ENDBRANCH  15  16
ENDBRANCH  14  15
END_RES GLU D 570
ENDMDL
MODEL 9
REMARK VINA RESULT:      -5.3     18.261     22.186
REMARK  5 active torsions:
REMARK  status: ('A' for Active; 'I' for Inactive)
REMARK    1  A    between atoms: C_5  and  C_14 
REMARK    2  A    between atoms: C_6  and  O_8 
REMARK    3  A    between atoms: O_8  and  C_9 
REMARK    4  A    between atoms: C_9  and  C_11 
REMARK    5  A    between atoms: C_11  and  O_13 
ROOT
HETATM    1  C   UNL     1     -14.735   9.684   0.846  1.00  0.00     0.010 C 
HETATM    2  C   UNL     1     -15.306   8.930   2.048  1.00  0.00    -0.016 C 
HETATM    3  C   UNL     1     -14.178   8.255   2.841  1.00  0.00     0.005 C 
HETATM    4  C   UNL     1     -14.695   7.614   4.130  1.00  0.00     0.008 C 
HETATM    5  C   UNL     1     -15.429   8.631   5.037  1.00  0.00     0.018 C 
HETATM    6  C   UNL     1     -16.631   9.164   4.210  1.00  0.00     0.136 C 
HETATM    7  C   UNL     1     -16.156   9.860   2.927  1.00  0.00     0.037 C 
ENDROOT
BRANCH   6   8
HETATM    8  O   UNL     1     -17.446  10.088   4.947  1.00  0.00    -0.314 OA
BRANCH   8   9
HETATM    9  C   UNL     1     -18.508   9.566   5.623  1.00  0.00     0.287 C 
HETATM   10  O   UNL     1     -18.576   9.415   6.837  1.00  0.00    -0.262 OA
BRANCH   9  11
HETATM   11  C   UNL     1     -19.635   9.184   4.657  1.00  0.00     0.213 C 
HETATM   12  C   UNL     1     -20.899   8.817   5.413  1.00  0.00     0.050 C 
BRANCH  11  13
HETATM   13  O   UNL     1     -19.950  10.242   3.752  1.00  0.00    -0.386 OA
HETATM   14  H   UNL     1     -19.707  11.076   4.198  1.00  0.00     0.210 HD
ENDBRANCH  11  13
ENDBRANCH   9  11
ENDBRANCH   8   9
ENDBRANCH   6   8
BRANCH   5  15
HETATM   15  C   UNL     1     -14.463   9.719   5.622  1.00  0.00    -0.016 C 
HETATM   16  C   UNL     1     -14.938  10.341   6.940  1.00  0.00     0.010 C 
HETATM   17  C   UNL     1     -13.056   9.150   5.861  1.00  0.00     0.010 C 
ENDBRANCH   5  15
TORSDOF 5
BEGIN_RES ARG D 557
REMARK  4 active torsions:
REMARK  status: ('A' for Active; 'I' for Inactive)
REMARK    1  A    between atoms: CA   and  CB  
REMARK    2  A    between atoms: CB   and  CG  
REMARK    3  A    between atoms: CG   and  CD  
REMARK    4  A    between atoms: CD   and  NE  
REMARK       I    between atoms: NE   and  CZ  
REMARK       I    between atoms: CZ   and  NH1 
REMARK       I    between atoms: CZ   and  NH2 
ROOT
ATOM      1  CA  ARG D 557     -26.217   2.705 -17.014  1.00 35.49     0.159 C 
ENDROOT
BRANCH   1   2
ATOM      2  CB  ARG D 557     -26.789   1.319 -17.183  1.00 35.49     0.034 C 
BRANCH   2   3
ATOM      3  CG  ARG D 557     -25.864   0.195 -16.993  1.00 35.49     0.027 C 
BRANCH   3   4
ATOM      4  CD  ARG D 557     -26.300  -0.718 -15.911  1.00 35.49     0.116 C 
BRANCH   4   5
ATOM      5  NE  ARG D 557     -25.265  -0.935 -14.935  1.00 35.49    -0.212 N 
ATOM      6  CZ  ARG D 557     -24.989  -2.078 -14.349  1.00 35.49     0.666 C 
ATOM      7  NH1 ARG D 557     -25.669  -3.183 -14.596  1.00 35.49    -0.235 N 
ATOM      8  NH2 ARG D 557     -24.000  -2.096 -13.503  1.00 35.49    -0.235 N 
ATOM      9  HH  ARG D 557     -26.322  -3.195 -15.150  1.00 35.49     0.174 HD
ATOM     10  HH  ARG D 557     -25.442  -3.900 -14.185  1.00 35.49     0.174 HD
ATOM     11  HH  ARG D 557     -23.575  -1.370 -13.370  1.00 35.49     0.174 HD
ATOM     12  HH  ARG D 557     -23.790  -2.817 -13.109  1.00 35.49     0.174 HD
ATOM     13  HE  ARG D 557     -24.825  -0.260 -14.663  1.00 35.49     0.178 HD
ENDBRANCH   4   5
ENDBRANCH   3   4
ENDBRANCH   2   3
ENDBRANCH   1   2
END_RES ARG D 557
BEGIN_RES GLU D 570
REMARK  3 active torsions:
REMARK  status: ('A' for Active; 'I' for Inactive)
REMARK    5  A    between atoms: CA   and  CB  
REMARK    6  A    between atoms: CB   and  CG  
REMARK    7  A    between atoms: CG   and  CD  
ROOT
ATOM     14  CA  GLU D 570     -18.033  -6.348 -13.375  1.00 32.92     0.160 C 
ENDROOT
BRANCH  14  15
ATOM     15  CB  GLU D 570     -19.500  -6.345 -13.794  1.00 32.92     0.043 C 
BRANCH  15  16
ATOM     16  CG  GLU D 570     -20.448  -5.560 -12.962  1.00 32.92     0.100 C 
BRANCH  16  17
ATOM     17  CD  GLU D 570     -21.667  -5.104 -13.728  1.00 32.92     0.185 C 
ATOM     18  OE1 GLU D 570     -21.616  -5.053 -14.972  1.00 32.92    -0.647 OA
ATOM     19  OE2 GLU D 570     -22.679  -4.777 -13.077  1.00 32.92    -0.647 OA
ENDBRANCH  16  17
ENDBRANCH  15  16
ENDBRANCH  14  15
END_RES GLU D 570
ENDMDL
