MODEL 1
REMARK VINA RESULT:      -9.6      0.000      0.000
REMARK  12 active torsions:
REMARK  status: ('A' for Active; 'I' for Inactive)
REMARK    1  A    between atoms: C_3  and  C_12 
REMARK    2  A    between atoms: C_6  and  O_9 
REMARK    3  A    between atoms: C_13  and  C_14 
REMARK    4  A    between atoms: C_15  and  C_16 
REMARK    5  A    between atoms: C_17  and  C_18 
REMARK    6  A    between atoms: C_19  and  C_20 
REMARK    7  A    between atoms: C_21  and  C_22 
REMARK    8  A    between atoms: C_23  and  C_25 
REMARK    9  A    between atoms: C_26  and  C_27 
REMARK   10  A    between atoms: C_28  and  C_30 
REMARK   11  A    between atoms: C_31  and  C_32 
REMARK   12  A    between atoms: C_36  and  O_41 
ROOT
HETATM    1  C   UNL     1     -23.422 -11.651  -0.164  1.00  0.00    -0.022 C 
HETATM    2  C   UNL     1     -22.852 -10.414  -0.416  1.00  0.00     0.054 C 
ENDROOT
BRANCH   1   3
HETATM    3  C   UNL     1     -23.448 -12.569   1.083  1.00  0.00     0.003 C 
HETATM    4  C   UNL     1     -23.355 -13.872   1.167  1.00  0.00    -0.062 C 
HETATM    5  C   UNL     1     -23.154 -14.536   2.558  1.00  0.00     0.048 C 
BRANCH   4   6
HETATM    6  C   UNL     1     -23.312 -14.803   0.014  1.00  0.00     0.007 C 
HETATM    7  C   UNL     1     -24.301 -14.825  -0.887  1.00  0.00     0.001 C 
BRANCH   7   8
HETATM    8  C   UNL     1     -24.447 -15.430  -2.194  1.00  0.00     0.007 C 
HETATM    9  C   UNL     1     -23.639 -15.183  -3.268  1.00  0.00    -0.062 C 
HETATM   10  C   UNL     1     -24.258 -15.568  -4.605  1.00  0.00     0.048 C 
BRANCH   9  11
HETATM   11  C   UNL     1     -22.301 -14.431  -3.369  1.00  0.00     0.007 C 
HETATM   12  C   UNL     1     -21.984 -13.185  -3.007  1.00  0.00     0.009 C 
BRANCH  12  13
HETATM   13  C   UNL     1     -20.718 -12.208  -3.036  1.00  0.00    -0.041 C 
HETATM   14  C   UNL     1     -20.606 -11.502  -4.240  1.00  0.00    -0.006 C 
HETATM   15  C   UNL     1     -21.677 -11.236  -5.336  1.00  0.00     0.052 C 
HETATM   16  C   UNL     1     -19.334 -10.807  -4.664  1.00  0.00     0.184 C 
HETATM   17  C   UNL     1     -18.173 -10.688  -3.692  1.00  0.00     0.193 C 
HETATM   18  O   UNL     1     -19.230 -10.315  -5.804  1.00  0.00    -0.290 OA
HETATM   19  C   UNL     1     -18.131 -11.553  -2.456  1.00  0.00     0.053 C 
HETATM   20  C   UNL     1     -19.430 -12.190  -1.842  1.00  0.00    -0.017 C 
HETATM   21  C   UNL     1     -19.039 -13.664  -1.641  1.00  0.00     0.020 C 
HETATM   22  C   UNL     1     -19.308 -11.581  -0.213  1.00  0.00     0.020 C 
BRANCH  17  23
HETATM   23  O   UNL     1     -16.879 -10.771  -4.306  1.00  0.00    -0.388 OA
HETATM   24  H   UNL     1     -16.888 -10.206  -5.099  1.00  0.00     0.210 HD
ENDBRANCH  17  23
ENDBRANCH  12  13
ENDBRANCH   9  11
ENDBRANCH   7   8
ENDBRANCH   4   6
ENDBRANCH   1   3
BRANCH   2  25
HETATM   25  C   UNL     1     -22.595  -9.302  -1.630  1.00  0.00    -0.016 C 
HETATM   26  C   UNL     1     -21.516  -8.483  -2.059  1.00  0.00    -0.066 C 
HETATM   27  C   UNL     1     -20.024  -8.300  -1.599  1.00  0.00     0.048 C 
BRANCH  26  28
HETATM   28  C   UNL     1     -21.630  -7.415  -3.197  1.00  0.00     0.006 C 
HETATM   29  C   UNL     1     -21.131  -7.557  -4.538  1.00  0.00     0.001 C 
BRANCH  29  30
HETATM   30  C   UNL     1     -21.511  -6.743  -5.697  1.00  0.00     0.007 C 
HETATM   31  C   UNL     1     -21.069  -5.479  -5.922  1.00  0.00    -0.062 C 
HETATM   32  C   UNL     1     -20.025  -4.747  -5.095  1.00  0.00     0.048 C 
BRANCH  31  33
HETATM   33  C   UNL     1     -21.594  -4.668  -7.060  1.00  0.00     0.007 C 
HETATM   34  C   UNL     1     -21.765  -5.098  -8.297  1.00  0.00     0.009 C 
BRANCH  34  35
HETATM   35  C   UNL     1     -21.992  -4.224  -9.478  1.00  0.00    -0.041 A 
HETATM   36  C   UNL     1     -23.261  -3.996  -9.862  1.00  0.00    -0.006 A 
HETATM   37  C   UNL     1     -23.573  -3.240 -11.121  1.00  0.00     0.184 A 
HETATM   38  C   UNL     1     -24.508  -4.510  -9.183  1.00  0.00     0.052 C 
HETATM   39  O   UNL     1     -24.741  -3.131 -11.484  1.00  0.00    -0.290 OA
HETATM   40  C   UNL     1     -22.434  -2.686 -11.966  1.00  0.00     0.193 A 
HETATM   41  C   UNL     1     -21.006  -2.903 -11.510  1.00  0.00     0.053 A 
HETATM   42  C   UNL     1     -20.734  -3.741 -10.231  1.00  0.00    -0.017 A 
HETATM   43  C   UNL     1     -19.955  -4.999 -10.684  1.00  0.00     0.020 C 
HETATM   44  C   UNL     1     -19.791  -2.868  -9.355  1.00  0.00     0.020 C 
BRANCH  40  45
HETATM   45  O   UNL     1     -22.538  -3.136 -13.318  1.00  0.00    -0.388 OA
HETATM   46  H   UNL     1     -21.709  -2.901 -13.767  1.00  0.00     0.210 HD
ENDBRANCH  40  45
ENDBRANCH  34  35
ENDBRANCH  31  33
ENDBRANCH  29  30
ENDBRANCH  26  28
ENDBRANCH   2  25
TORSDOF 12
BEGIN_RES ARG D 557
REMARK  4 active torsions:
REMARK  status: ('A' for Active; 'I' for Inactive)
REMARK    1  A    between atoms: CA   and  CB  
REMARK    2  A    between atoms: CB   and  CG  
REMARK    3  A    between atoms: CG   and  CD  
REMARK    4  A    between atoms: CD   and  NE  
REMARK       I    between atoms: NE   and  CZ  
REMARK       I    between atoms: CZ   and  NH1 
REMARK       I    between atoms: CZ   and  NH2 
ROOT
ATOM      1  CA  ARG D 557     -26.217   2.705 -17.014  1.00 35.49     0.159 C 
ENDROOT
BRANCH   1   2
ATOM      2  CB  ARG D 557     -26.789   1.319 -17.183  1.00 35.49     0.034 C 
BRANCH   2   3
ATOM      3  CG  ARG D 557     -28.241   1.178 -17.015  1.00 35.49     0.027 C 
BRANCH   3   4
ATOM      4  CD  ARG D 557     -28.649  -0.227 -16.793  1.00 35.49     0.116 C 
BRANCH   4   5
ATOM      5  NE  ARG D 557     -27.639  -0.983 -16.099  1.00 35.49    -0.212 N 
ATOM      6  CZ  ARG D 557     -27.485  -2.287 -16.150  1.00 35.49     0.666 C 
ATOM      7  NH1 ARG D 557     -28.279  -3.068 -16.859  1.00 35.49    -0.235 N 
ATOM      8  NH2 ARG D 557     -26.500  -2.802 -15.473  1.00 35.49    -0.235 N 
ATOM      9  HH  ARG D 557     -28.932  -2.750 -17.315  1.00 35.49     0.174 HD
ATOM     10  HH  ARG D 557     -28.128  -3.911 -16.857  1.00 35.49     0.174 HD
ATOM     11  HH  ARG D 557     -25.999  -2.272 -15.030  1.00 35.49     0.174 HD
ATOM     12  HH  ARG D 557     -26.366  -3.639 -15.484  1.00 35.49     0.174 HD
ATOM     13  HE  ARG D 557     -27.129  -0.567 -15.561  1.00 35.49     0.178 HD
ENDBRANCH   4   5
ENDBRANCH   3   4
ENDBRANCH   2   3
ENDBRANCH   1   2
END_RES ARG D 557
BEGIN_RES GLU D 570
REMARK  3 active torsions:
REMARK  status: ('A' for Active; 'I' for Inactive)
REMARK    5  A    between atoms: CA   and  CB  
REMARK    6  A    between atoms: CB   and  CG  
REMARK    7  A    between atoms: CG   and  CD  
ROOT
ATOM     14  CA  GLU D 570     -18.033  -6.348 -13.375  1.00 32.92     0.160 C 
ENDROOT
BRANCH  14  15
ATOM     15  CB  GLU D 570     -19.500  -6.345 -13.794  1.00 32.92     0.043 C 
BRANCH  15  16
ATOM     16  CG  GLU D 570     -19.809  -5.990 -15.203  1.00 32.92     0.100 C 
BRANCH  16  17
ATOM     17  CD  GLU D 570     -21.251  -5.588 -15.408  1.00 32.92     0.185 C 
ATOM     18  OE1 GLU D 570     -21.597  -5.114 -16.507  1.00 32.92    -0.647 OA
ATOM     19  OE2 GLU D 570     -22.039  -5.733 -14.453  1.00 32.92    -0.647 OA
ENDBRANCH  16  17
ENDBRANCH  15  16
ENDBRANCH  14  15
END_RES GLU D 570
ENDMDL
MODEL 2
REMARK VINA RESULT:      -9.5      2.950      4.674
REMARK  12 active torsions:
REMARK  status: ('A' for Active; 'I' for Inactive)
REMARK    1  A    between atoms: C_3  and  C_12 
REMARK    2  A    between atoms: C_6  and  O_9 
REMARK    3  A    between atoms: C_13  and  C_14 
REMARK    4  A    between atoms: C_15  and  C_16 
REMARK    5  A    between atoms: C_17  and  C_18 
REMARK    6  A    between atoms: C_19  and  C_20 
REMARK    7  A    between atoms: C_21  and  C_22 
REMARK    8  A    between atoms: C_23  and  C_25 
REMARK    9  A    between atoms: C_26  and  C_27 
REMARK   10  A    between atoms: C_28  and  C_30 
REMARK   11  A    between atoms: C_31  and  C_32 
REMARK   12  A    between atoms: C_36  and  O_41 
ROOT
HETATM    1  C   UNL     1     -17.241 -11.955  -0.656  1.00  0.00    -0.022 C 
HETATM    2  C   UNL     1     -18.284 -11.163  -1.105  1.00  0.00     0.054 C 
ENDROOT
BRANCH   1   3
HETATM    3  C   UNL     1     -16.978 -12.704   0.674  1.00  0.00     0.003 C 
HETATM    4  C   UNL     1     -15.882 -13.266   1.118  1.00  0.00    -0.062 C 
HETATM    5  C   UNL     1     -15.808 -13.734   2.599  1.00  0.00     0.048 C 
BRANCH   4   6
HETATM    6  C   UNL     1     -14.622 -13.407   0.350  1.00  0.00     0.007 C 
HETATM    7  C   UNL     1     -14.337 -14.542  -0.299  1.00  0.00     0.001 C 
BRANCH   7   8
HETATM    8  C   UNL     1     -13.339 -14.905  -1.283  1.00  0.00     0.007 C 
HETATM    9  C   UNL     1     -13.364 -14.536  -2.599  1.00  0.00    -0.062 C 
HETATM   10  C   UNL     1     -12.488 -15.400  -3.497  1.00  0.00     0.048 C 
BRANCH   9  11
HETATM   11  C   UNL     1     -14.249 -13.522  -3.343  1.00  0.00     0.007 C 
HETATM   12  C   UNL     1     -15.568 -13.520  -3.552  1.00  0.00     0.009 C 
BRANCH  12  13
HETATM   13  C   UNL     1     -16.670 -12.626  -4.291  1.00  0.00    -0.041 C 
HETATM   14  C   UNL     1     -17.946 -13.200  -4.255  1.00  0.00    -0.006 C 
HETATM   15  C   UNL     1     -18.508 -14.310  -3.321  1.00  0.00     0.052 C 
HETATM   16  C   UNL     1     -19.065 -12.758  -5.167  1.00  0.00     0.184 C 
HETATM   17  C   UNL     1     -18.895 -11.526  -6.038  1.00  0.00     0.193 C 
HETATM   18  O   UNL     1     -20.140 -13.389  -5.204  1.00  0.00    -0.290 OA
HETATM   19  C   UNL     1     -17.520 -10.953  -6.275  1.00  0.00     0.053 C 
HETATM   20  C   UNL     1     -16.326 -11.224  -5.290  1.00  0.00    -0.017 C 
HETATM   21  C   UNL     1     -15.186 -11.659  -6.227  1.00  0.00     0.020 C 
HETATM   22  C   UNL     1     -15.864  -9.579  -4.937  1.00  0.00     0.020 C 
BRANCH  17  23
HETATM   23  O   UNL     1     -19.538 -11.614  -7.317  1.00  0.00    -0.388 OA
HETATM   24  H   UNL     1     -19.194 -12.405  -7.770  1.00  0.00     0.210 HD
ENDBRANCH  17  23
ENDBRANCH  12  13
ENDBRANCH   9  11
ENDBRANCH   7   8
ENDBRANCH   4   6
ENDBRANCH   1   3
BRANCH   2  25
HETATM   25  C   UNL     1     -18.757 -10.202  -2.381  1.00  0.00    -0.016 C 
HETATM   26  C   UNL     1     -19.724  -9.182  -2.594  1.00  0.00    -0.066 C 
HETATM   27  C   UNL     1     -20.768  -8.448  -1.677  1.00  0.00     0.048 C 
BRANCH  26  28
HETATM   28  C   UNL     1     -20.018  -8.536  -3.988  1.00  0.00     0.006 C 
HETATM   29  C   UNL     1     -21.274  -7.977  -4.409  1.00  0.00     0.001 C 
BRANCH  29  30
HETATM   30  C   UNL     1     -21.486  -7.078  -5.549  1.00  0.00     0.007 C 
HETATM   31  C   UNL     1     -21.155  -5.761  -5.557  1.00  0.00    -0.062 C 
HETATM   32  C   UNL     1     -20.406  -5.031  -4.454  1.00  0.00     0.048 C 
BRANCH  31  33
HETATM   33  C   UNL     1     -21.510  -4.881  -6.710  1.00  0.00     0.007 C 
HETATM   34  C   UNL     1     -21.723  -5.285  -7.949  1.00  0.00     0.009 C 
BRANCH  34  35
HETATM   35  C   UNL     1     -21.774  -4.394  -9.137  1.00  0.00    -0.041 A 
HETATM   36  C   UNL     1     -22.981  -4.010  -9.589  1.00  0.00    -0.006 A 
HETATM   37  C   UNL     1     -23.128  -3.226 -10.861  1.00  0.00     0.184 A 
HETATM   38  C   UNL     1     -24.319  -4.363  -8.981  1.00  0.00     0.052 C 
HETATM   39  O   UNL     1     -24.251  -2.973 -11.286  1.00  0.00    -0.290 OA
HETATM   40  C   UNL     1     -21.884  -2.821 -11.640  1.00  0.00     0.193 A 
HETATM   41  C   UNL     1     -20.522  -3.213 -11.108  1.00  0.00     0.053 A 
HETATM   42  C   UNL     1     -20.426  -4.074  -9.819  1.00  0.00    -0.017 A 
HETATM   43  C   UNL     1     -19.787  -5.422 -10.233  1.00  0.00     0.020 C 
HETATM   44  C   UNL     1     -19.431  -3.323  -8.890  1.00  0.00     0.020 C 
BRANCH  40  45
HETATM   45  O   UNL     1     -21.970  -3.258 -12.998  1.00  0.00    -0.388 OA
HETATM   46  H   UNL     1     -22.589  -2.665 -13.456  1.00  0.00     0.210 HD
ENDBRANCH  40  45
ENDBRANCH  34  35
ENDBRANCH  31  33
ENDBRANCH  29  30
ENDBRANCH  26  28
ENDBRANCH   2  25
TORSDOF 12
BEGIN_RES ARG D 557
REMARK  4 active torsions:
REMARK  status: ('A' for Active; 'I' for Inactive)
REMARK    1  A    between atoms: CA   and  CB  
REMARK    2  A    between atoms: CB   and  CG  
REMARK    3  A    between atoms: CG   and  CD  
REMARK    4  A    between atoms: CD   and  NE  
REMARK       I    between atoms: NE   and  CZ  
REMARK       I    between atoms: CZ   and  NH1 
REMARK       I    between atoms: CZ   and  NH2 
ROOT
ATOM      1  CA  ARG D 557     -26.217   2.705 -17.014  1.00 35.49     0.159 C 
ENDROOT
BRANCH   1   2
ATOM      2  CB  ARG D 557     -26.789   1.319 -17.183  1.00 35.49     0.034 C 
BRANCH   2   3
ATOM      3  CG  ARG D 557     -25.835   0.203 -17.158  1.00 35.49     0.027 C 
BRANCH   3   4
ATOM      4  CD  ARG D 557     -25.045   0.164 -15.906  1.00 35.49     0.116 C 
BRANCH   4   5
ATOM      5  NE  ARG D 557     -25.349  -0.994 -15.108  1.00 35.49    -0.212 N 
ATOM      6  CZ  ARG D 557     -24.495  -1.926 -14.749  1.00 35.49     0.666 C 
ATOM      7  NH1 ARG D 557     -23.225  -1.901 -15.110  1.00 35.49    -0.235 N 
ATOM      8  NH2 ARG D 557     -24.942  -2.895 -14.005  1.00 35.49    -0.235 N 
ATOM      9  HH  ARG D 557     -22.909  -1.271 -15.598  1.00 35.49     0.174 HD
ATOM     10  HH  ARG D 557     -22.714  -2.534 -14.844  1.00 35.49     0.174 HD
ATOM     11  HH  ARG D 557     -25.765  -2.881 -13.781  1.00 35.49     0.174 HD
ATOM     12  HH  ARG D 557     -24.419  -3.513 -13.751  1.00 35.49     0.174 HD
ATOM     13  HE  ARG D 557     -26.161  -1.128 -14.892  1.00 35.49     0.178 HD
ENDBRANCH   4   5
ENDBRANCH   3   4
ENDBRANCH   2   3
ENDBRANCH   1   2
END_RES ARG D 557
BEGIN_RES GLU D 570
REMARK  3 active torsions:
REMARK  status: ('A' for Active; 'I' for Inactive)
REMARK    5  A    between atoms: CA   and  CB  
REMARK    6  A    between atoms: CB   and  CG  
REMARK    7  A    between atoms: CG   and  CD  
ROOT
ATOM     14  CA  GLU D 570     -18.033  -6.348 -13.375  1.00 32.92     0.160 C 
ENDROOT
BRANCH  14  15
ATOM     15  CB  GLU D 570     -19.500  -6.345 -13.794  1.00 32.92     0.043 C 
BRANCH  15  16
ATOM     16  CG  GLU D 570     -19.819  -5.878 -15.168  1.00 32.92     0.100 C 
BRANCH  16  17
ATOM     17  CD  GLU D 570     -21.295  -5.641 -15.382  1.00 32.92     0.185 C 
ATOM     18  OE1 GLU D 570     -21.679  -4.517 -15.759  1.00 32.92    -0.647 OA
ATOM     19  OE2 GLU D 570     -22.078  -6.584 -15.154  1.00 32.92    -0.647 OA
ENDBRANCH  16  17
ENDBRANCH  15  16
ENDBRANCH  14  15
END_RES GLU D 570
ENDMDL
MODEL 3
REMARK VINA RESULT:      -9.4      1.527      2.412
REMARK  12 active torsions:
REMARK  status: ('A' for Active; 'I' for Inactive)
REMARK    1  A    between atoms: C_3  and  C_12 
REMARK    2  A    between atoms: C_6  and  O_9 
REMARK    3  A    between atoms: C_13  and  C_14 
REMARK    4  A    between atoms: C_15  and  C_16 
REMARK    5  A    between atoms: C_17  and  C_18 
REMARK    6  A    between atoms: C_19  and  C_20 
REMARK    7  A    between atoms: C_21  and  C_22 
REMARK    8  A    between atoms: C_23  and  C_25 
REMARK    9  A    between atoms: C_26  and  C_27 
REMARK   10  A    between atoms: C_28  and  C_30 
REMARK   11  A    between atoms: C_31  and  C_32 
REMARK   12  A    between atoms: C_36  and  O_41 
ROOT
HETATM    1  C   UNL     1     -21.102 -11.197   0.163  1.00  0.00    -0.022 C 
HETATM    2  C   UNL     1     -21.815 -10.493  -0.793  1.00  0.00     0.054 C 
ENDROOT
BRANCH   1   3
HETATM    3  C   UNL     1     -21.475 -12.357   1.118  1.00  0.00     0.003 C 
HETATM    4  C   UNL     1     -21.729 -13.614   0.853  1.00  0.00    -0.062 C 
HETATM    5  C   UNL     1     -21.831 -14.636   2.020  1.00  0.00     0.048 C 
BRANCH   4   6
HETATM    6  C   UNL     1     -21.824 -14.199  -0.505  1.00  0.00     0.007 C 
HETATM    7  C   UNL     1     -22.884 -13.956  -1.284  1.00  0.00     0.001 C 
BRANCH   7   8
HETATM    8  C   UNL     1     -23.165 -14.182  -2.687  1.00  0.00     0.007 C 
HETATM    9  C   UNL     1     -22.301 -13.920  -3.713  1.00  0.00    -0.062 C 
HETATM   10  C   UNL     1     -22.978 -13.807  -5.073  1.00  0.00     0.048 C 
BRANCH   9  11
HETATM   11  C   UNL     1     -20.808 -13.551  -3.702  1.00  0.00     0.007 C 
HETATM   12  C   UNL     1     -20.215 -12.363  -3.549  1.00  0.00     0.009 C 
BRANCH  12  13
HETATM   13  C   UNL     1     -18.739 -11.748  -3.530  1.00  0.00    -0.041 C 
HETATM   14  C   UNL     1     -18.070 -11.982  -2.323  1.00  0.00    -0.006 C 
HETATM   15  C   UNL     1     -18.370 -13.028  -1.211  1.00  0.00     0.052 C 
HETATM   16  C   UNL     1     -16.837 -11.216  -1.911  1.00  0.00     0.184 C 
HETATM   17  C   UNL     1     -16.158 -10.281  -2.897  1.00  0.00     0.193 C 
HETATM   18  O   UNL     1     -16.357 -11.352  -0.769  1.00  0.00    -0.290 OA
HETATM   19  C   UNL     1     -16.888  -9.834  -4.139  1.00  0.00     0.053 C 
HETATM   20  C   UNL     1     -18.086 -10.656  -4.740  1.00  0.00    -0.017 C 
HETATM   21  C   UNL     1     -19.173  -9.589  -4.957  1.00  0.00     0.020 C 
HETATM   22  C   UNL     1     -17.497 -10.876  -6.367  1.00  0.00     0.020 C 
BRANCH  17  23
HETATM   23  O   UNL     1     -15.588  -9.107  -2.301  1.00  0.00    -0.388 OA
HETATM   24  H   UNL     1     -15.174  -8.584  -3.010  1.00  0.00     0.210 HD
ENDBRANCH  17  23
ENDBRANCH  12  13
ENDBRANCH   9  11
ENDBRANCH   7   8
ENDBRANCH   4   6
ENDBRANCH   1   3
BRANCH   2  25
HETATM   25  C   UNL     1     -21.700  -9.201  -1.839  1.00  0.00    -0.016 C 
HETATM   26  C   UNL     1     -21.928  -7.800  -1.768  1.00  0.00    -0.066 C 
HETATM   27  C   UNL     1     -22.348  -6.811  -0.621  1.00  0.00     0.048 C 
BRANCH  26  28
HETATM   28  C   UNL     1     -21.845  -6.839  -3.000  1.00  0.00     0.006 C 
HETATM   29  C   UNL     1     -21.594  -7.232  -4.360  1.00  0.00     0.001 C 
BRANCH  29  30
HETATM   30  C   UNL     1     -21.845  -6.424  -5.558  1.00  0.00     0.007 C 
HETATM   31  C   UNL     1     -21.167  -5.290  -5.872  1.00  0.00    -0.062 C 
HETATM   32  C   UNL     1     -19.969  -4.739  -5.117  1.00  0.00     0.048 C 
BRANCH  31  33
HETATM   33  C   UNL     1     -21.559  -4.455  -7.046  1.00  0.00     0.007 C 
HETATM   34  C   UNL     1     -21.944  -4.915  -8.223  1.00  0.00     0.009 C 
BRANCH  34  35
HETATM   35  C   UNL     1     -22.037  -4.103  -9.464  1.00  0.00    -0.041 A 
HETATM   36  C   UNL     1     -23.261  -3.801  -9.933  1.00  0.00    -0.006 A 
HETATM   37  C   UNL     1     -23.445  -3.105 -11.250  1.00  0.00     0.184 A 
HETATM   38  C   UNL     1     -24.580  -4.172  -9.297  1.00  0.00     0.052 C 
HETATM   39  O   UNL     1     -24.579  -2.928 -11.685  1.00  0.00    -0.290 OA
HETATM   40  C   UNL     1     -22.222  -2.696 -12.060  1.00  0.00     0.193 A 
HETATM   41  C   UNL     1     -20.842  -2.994 -11.511  1.00  0.00     0.053 A 
HETATM   42  C   UNL     1     -20.706  -3.768 -10.172  1.00  0.00    -0.017 A 
HETATM   43  C   UNL     1     -20.010  -5.110 -10.504  1.00  0.00     0.020 C 
HETATM   44  C   UNL     1     -19.742  -2.918  -9.297  1.00  0.00     0.020 C 
BRANCH  40  45
HETATM   45  O   UNL     1     -22.292  -3.221 -13.387  1.00  0.00    -0.388 OA
HETATM   46  H   UNL     1     -22.169  -4.183 -13.326  1.00  0.00     0.210 HD
ENDBRANCH  40  45
ENDBRANCH  34  35
ENDBRANCH  31  33
ENDBRANCH  29  30
ENDBRANCH  26  28
ENDBRANCH   2  25
TORSDOF 12
BEGIN_RES ARG D 557
REMARK  4 active torsions:
REMARK  status: ('A' for Active; 'I' for Inactive)
REMARK    1  A    between atoms: CA   and  CB  
REMARK    2  A    between atoms: CB   and  CG  
REMARK    3  A    between atoms: CG   and  CD  
REMARK    4  A    between atoms: CD   and  NE  
REMARK       I    between atoms: NE   and  CZ  
REMARK       I    between atoms: CZ   and  NH1 
REMARK       I    between atoms: CZ   and  NH2 
ROOT
ATOM      1  CA  ARG D 557     -26.217   2.705 -17.014  1.00 35.49     0.159 C 
ENDROOT
BRANCH   1   2
ATOM      2  CB  ARG D 557     -26.789   1.319 -17.183  1.00 35.49     0.034 C 
BRANCH   2   3
ATOM      3  CG  ARG D 557     -26.086   0.226 -16.499  1.00 35.49     0.027 C 
BRANCH   3   4
ATOM      4  CD  ARG D 557     -27.016  -0.793 -15.962  1.00 35.49     0.116 C 
BRANCH   4   5
ATOM      5  NE  ARG D 557     -26.345  -2.027 -15.648  1.00 35.49    -0.212 N 
ATOM      6  CZ  ARG D 557     -25.324  -2.161 -14.831  1.00 35.49     0.666 C 
ATOM      7  NH1 ARG D 557     -24.781  -1.135 -14.202  1.00 35.49    -0.235 N 
ATOM      8  NH2 ARG D 557     -24.854  -3.360 -14.648  1.00 35.49    -0.235 N 
ATOM      9  HH  ARG D 557     -25.075  -0.337 -14.305  1.00 35.49     0.174 HD
ATOM     10  HH  ARG D 557     -24.119  -1.283 -13.679  1.00 35.49     0.174 HD
ATOM     11  HH  ARG D 557     -25.230  -4.005 -15.062  1.00 35.49     0.174 HD
ATOM     12  HH  ARG D 557     -24.199  -3.486 -14.125  1.00 35.49     0.174 HD
ATOM     13  HE  ARG D 557     -26.583  -2.729 -16.066  1.00 35.49     0.178 HD
ENDBRANCH   4   5
ENDBRANCH   3   4
ENDBRANCH   2   3
ENDBRANCH   1   2
END_RES ARG D 557
BEGIN_RES GLU D 570
REMARK  3 active torsions:
REMARK  status: ('A' for Active; 'I' for Inactive)
REMARK    5  A    between atoms: CA   and  CB  
REMARK    6  A    between atoms: CB   and  CG  
REMARK    7  A    between atoms: CG   and  CD  
ROOT
ATOM     14  CA  GLU D 570     -18.033  -6.348 -13.375  1.00 32.92     0.160 C 
ENDROOT
BRANCH  14  15
ATOM     15  CB  GLU D 570     -19.500  -6.345 -13.794  1.00 32.92     0.043 C 
BRANCH  15  16
ATOM     16  CG  GLU D 570     -20.085  -7.633 -14.248  1.00 32.92     0.100 C 
BRANCH  16  17
ATOM     17  CD  GLU D 570     -21.040  -7.471 -15.407  1.00 32.92     0.185 C 
ATOM     18  OE1 GLU D 570     -20.927  -8.222 -16.395  1.00 32.92    -0.647 OA
ATOM     19  OE2 GLU D 570     -21.901  -6.572 -15.334  1.00 32.92    -0.647 OA
ENDBRANCH  16  17
ENDBRANCH  15  16
ENDBRANCH  14  15
END_RES GLU D 570
ENDMDL
MODEL 4
REMARK VINA RESULT:      -9.2      1.014      1.907
REMARK  12 active torsions:
REMARK  status: ('A' for Active; 'I' for Inactive)
REMARK    1  A    between atoms: C_3  and  C_12 
REMARK    2  A    between atoms: C_6  and  O_9 
REMARK    3  A    between atoms: C_13  and  C_14 
REMARK    4  A    between atoms: C_15  and  C_16 
REMARK    5  A    between atoms: C_17  and  C_18 
REMARK    6  A    between atoms: C_19  and  C_20 
REMARK    7  A    between atoms: C_21  and  C_22 
REMARK    8  A    between atoms: C_23  and  C_25 
REMARK    9  A    between atoms: C_26  and  C_27 
REMARK   10  A    between atoms: C_28  and  C_30 
REMARK   11  A    between atoms: C_31  and  C_32 
REMARK   12  A    between atoms: C_36  and  O_41 
ROOT
HETATM    1  C   UNL     1     -23.367 -10.819  -0.628  1.00  0.00    -0.022 C 
HETATM    2  C   UNL     1     -22.393  -9.959  -1.109  1.00  0.00     0.054 C 
ENDROOT
BRANCH   1   3
HETATM    3  C   UNL     1     -23.410 -11.807   0.563  1.00  0.00     0.003 C 
HETATM    4  C   UNL     1     -23.284 -13.110   0.577  1.00  0.00    -0.062 C 
HETATM    5  C   UNL     1     -23.112 -13.848   1.935  1.00  0.00     0.048 C 
BRANCH   4   6
HETATM    6  C   UNL     1     -23.176 -13.971  -0.624  1.00  0.00     0.007 C 
HETATM    7  C   UNL     1     -24.245 -14.618  -1.103  1.00  0.00     0.001 C 
BRANCH   7   8
HETATM    8  C   UNL     1     -24.513 -15.328  -2.337  1.00  0.00     0.007 C 
HETATM    9  C   UNL     1     -23.743 -15.260  -3.464  1.00  0.00    -0.062 C 
HETATM   10  C   UNL     1     -24.463 -15.710  -4.728  1.00  0.00     0.048 C 
BRANCH   9  11
HETATM   11  C   UNL     1     -22.351 -14.649  -3.697  1.00  0.00     0.007 C 
HETATM   12  C   UNL     1     -21.966 -13.370  -3.731  1.00  0.00     0.009 C 
BRANCH  12  13
HETATM   13  C   UNL     1     -20.633 -12.519  -3.974  1.00  0.00    -0.041 C 
HETATM   14  C   UNL     1     -19.944 -12.241  -2.787  1.00  0.00    -0.006 C 
HETATM   15  C   UNL     1     -20.051 -12.928  -1.395  1.00  0.00     0.052 C 
HETATM   16  C   UNL     1     -18.882 -11.173  -2.691  1.00  0.00     0.184 C 
HETATM   17  C   UNL     1     -18.383 -10.482  -3.948  1.00  0.00     0.193 C 
HETATM   18  O   UNL     1     -18.396 -10.858  -1.588  1.00  0.00    -0.290 OA
HETATM   19  C   UNL     1     -19.172 -10.584  -5.230  1.00  0.00     0.053 C 
HETATM   20  C   UNL     1     -20.187 -11.756  -5.491  1.00  0.00    -0.017 C 
HETATM   21  C   UNL     1     -21.454 -11.027  -5.970  1.00  0.00     0.020 C 
HETATM   22  C   UNL     1     -19.551 -12.357  -6.999  1.00  0.00     0.020 C 
BRANCH  17  23
HETATM   23  O   UNL     1     -18.052  -9.098  -3.769  1.00  0.00    -0.388 OA
HETATM   24  H   UNL     1     -18.671  -8.725  -3.116  1.00  0.00     0.210 HD
ENDBRANCH  17  23
ENDBRANCH  12  13
ENDBRANCH   9  11
ENDBRANCH   7   8
ENDBRANCH   4   6
ENDBRANCH   1   3
BRANCH   2  25
HETATM   25  C   UNL     1     -22.058  -8.912  -2.361  1.00  0.00    -0.016 C 
HETATM   26  C   UNL     1     -21.925  -7.505  -2.513  1.00  0.00    -0.066 C 
HETATM   27  C   UNL     1     -21.981  -6.282  -1.527  1.00  0.00     0.048 C 
BRANCH  26  28
HETATM   28  C   UNL     1     -21.721  -6.792  -3.891  1.00  0.00     0.006 C 
HETATM   29  C   UNL     1     -21.114  -7.373  -5.058  1.00  0.00     0.001 C 
BRANCH  29  30
HETATM   30  C   UNL     1     -21.214  -6.867  -6.431  1.00  0.00     0.007 C 
HETATM   31  C   UNL     1     -20.857  -5.614  -6.813  1.00  0.00    -0.062 C 
HETATM   32  C   UNL     1     -20.189  -4.576  -5.927  1.00  0.00     0.048 C 
BRANCH  31  33
HETATM   33  C   UNL     1     -21.100  -5.132  -8.205  1.00  0.00     0.007 C 
HETATM   34  C   UNL     1     -21.650  -3.977  -8.535  1.00  0.00     0.009 C 
BRANCH  34  35
HETATM   35  C   UNL     1     -22.163  -3.634  -9.886  1.00  0.00    -0.041 A 
HETATM   36  C   UNL     1     -23.494  -3.520 -10.048  1.00  0.00    -0.006 A 
HETATM   37  C   UNL     1     -24.102  -3.313 -11.406  1.00  0.00     0.184 A 
HETATM   38  C   UNL     1     -24.543  -3.666  -8.972  1.00  0.00     0.052 C 
HETATM   39  O   UNL     1     -25.323  -3.304 -11.523  1.00  0.00    -0.290 OA
HETATM   40  C   UNL     1     -23.195  -3.190 -12.623  1.00  0.00     0.193 A 
HETATM   41  C   UNL     1     -21.695  -3.273 -12.435  1.00  0.00     0.053 A 
HETATM   42  C   UNL     1     -21.118  -3.546 -11.019  1.00  0.00    -0.017 A 
HETATM   43  C   UNL     1     -20.399  -4.915 -11.091  1.00  0.00     0.020 C 
HETATM   44  C   UNL     1     -20.049  -2.441 -10.785  1.00  0.00     0.020 C 
BRANCH  40  45
HETATM   45  O   UNL     1     -23.567  -4.135 -13.630  1.00  0.00    -0.388 OA
HETATM   46  H   UNL     1     -23.989  -4.887 -13.181  1.00  0.00     0.210 HD
ENDBRANCH  40  45
ENDBRANCH  34  35
ENDBRANCH  31  33
ENDBRANCH  29  30
ENDBRANCH  26  28
ENDBRANCH   2  25
TORSDOF 12
BEGIN_RES ARG D 557
REMARK  4 active torsions:
REMARK  status: ('A' for Active; 'I' for Inactive)
REMARK    1  A    between atoms: CA   and  CB  
REMARK    2  A    between atoms: CB   and  CG  
REMARK    3  A    between atoms: CG   and  CD  
REMARK    4  A    between atoms: CD   and  NE  
REMARK       I    between atoms: NE   and  CZ  
REMARK       I    between atoms: CZ   and  NH1 
REMARK       I    between atoms: CZ   and  NH2 
ROOT
ATOM      1  CA  ARG D 557     -26.217   2.705 -17.014  1.00 35.49     0.159 C 
ENDROOT
BRANCH   1   2
ATOM      2  CB  ARG D 557     -26.789   1.319 -17.183  1.00 35.49     0.034 C 
BRANCH   2   3
ATOM      3  CG  ARG D 557     -28.251   1.198 -17.138  1.00 35.49     0.027 C 
BRANCH   3   4
ATOM      4  CD  ARG D 557     -28.694  -0.179 -16.819  1.00 35.49     0.116 C 
BRANCH   4   5
ATOM      5  NE  ARG D 557     -27.679  -0.927 -16.124  1.00 35.49    -0.212 N 
ATOM      6  CZ  ARG D 557     -27.516  -2.230 -16.175  1.00 35.49     0.666 C 
ATOM      7  NH1 ARG D 557     -28.305  -3.017 -16.885  1.00 35.49    -0.235 N 
ATOM      8  NH2 ARG D 557     -26.529  -2.738 -15.497  1.00 35.49    -0.235 N 
ATOM      9  HH  ARG D 557     -28.959  -2.703 -17.340  1.00 35.49     0.174 HD
ATOM     10  HH  ARG D 557     -28.148  -3.859 -16.882  1.00 35.49     0.174 HD
ATOM     11  HH  ARG D 557     -26.031  -2.206 -15.054  1.00 35.49     0.174 HD
ATOM     12  HH  ARG D 557     -26.389  -3.575 -15.508  1.00 35.49     0.174 HD
ATOM     13  HE  ARG D 557     -27.172  -0.508 -15.586  1.00 35.49     0.178 HD
ENDBRANCH   4   5
ENDBRANCH   3   4
ENDBRANCH   2   3
ENDBRANCH   1   2
END_RES ARG D 557
BEGIN_RES GLU D 570
REMARK  3 active torsions:
REMARK  status: ('A' for Active; 'I' for Inactive)
REMARK    5  A    between atoms: CA   and  CB  
REMARK    6  A    between atoms: CB   and  CG  
REMARK    7  A    between atoms: CG   and  CD  
ROOT
ATOM     14  CA  GLU D 570     -18.033  -6.348 -13.375  1.00 32.92     0.160 C 
ENDROOT
BRANCH  14  15
ATOM     15  CB  GLU D 570     -19.500  -6.345 -13.794  1.00 32.92     0.043 C 
BRANCH  15  16
ATOM     16  CG  GLU D 570     -19.811  -5.959 -15.195  1.00 32.92     0.100 C 
BRANCH  16  17
ATOM     17  CD  GLU D 570     -21.273  -5.643 -15.408  1.00 32.92     0.185 C 
ATOM     18  OE1 GLU D 570     -22.121  -6.534 -15.206  1.00 32.92    -0.647 OA
ATOM     19  OE2 GLU D 570     -21.573  -4.498 -15.798  1.00 32.92    -0.647 OA
ENDBRANCH  16  17
ENDBRANCH  15  16
ENDBRANCH  14  15
END_RES GLU D 570
ENDMDL
MODEL 5
REMARK VINA RESULT:      -8.9      1.458      1.871
REMARK  12 active torsions:
REMARK  status: ('A' for Active; 'I' for Inactive)
REMARK    1  A    between atoms: C_3  and  C_12 
REMARK    2  A    between atoms: C_6  and  O_9 
REMARK    3  A    between atoms: C_13  and  C_14 
REMARK    4  A    between atoms: C_15  and  C_16 
REMARK    5  A    between atoms: C_17  and  C_18 
REMARK    6  A    between atoms: C_19  and  C_20 
REMARK    7  A    between atoms: C_21  and  C_22 
REMARK    8  A    between atoms: C_23  and  C_25 
REMARK    9  A    between atoms: C_26  and  C_27 
REMARK   10  A    between atoms: C_28  and  C_30 
REMARK   11  A    between atoms: C_31  and  C_32 
REMARK   12  A    between atoms: C_36  and  O_41 
ROOT
HETATM    1  C   UNL     1     -21.982 -11.338   0.246  1.00  0.00    -0.022 C 
HETATM    2  C   UNL     1     -21.274 -10.587  -0.678  1.00  0.00     0.054 C 
ENDROOT
BRANCH   1   3
HETATM    3  C   UNL     1     -21.715 -12.704   0.925  1.00  0.00     0.003 C 
HETATM    4  C   UNL     1     -21.487 -13.877   0.390  1.00  0.00    -0.062 C 
HETATM    5  C   UNL     1     -20.998 -15.046   1.290  1.00  0.00     0.048 C 
BRANCH   4   6
HETATM    6  C   UNL     1     -21.547 -14.182  -1.059  1.00  0.00     0.007 C 
HETATM    7  C   UNL     1     -22.696 -14.071  -1.736  1.00  0.00     0.001 C 
BRANCH   7   8
HETATM    8  C   UNL     1     -23.029 -14.077  -3.146  1.00  0.00     0.007 C 
HETATM    9  C   UNL     1     -22.212 -13.632  -4.147  1.00  0.00    -0.062 C 
HETATM   10  C   UNL     1     -22.944 -13.320  -5.445  1.00  0.00     0.048 C 
BRANCH   9  11
HETATM   11  C   UNL     1     -20.727 -13.230  -4.131  1.00  0.00     0.007 C 
HETATM   12  C   UNL     1     -20.117 -12.164  -4.657  1.00  0.00     0.009 C 
BRANCH  12  13
HETATM   13  C   UNL     1     -18.640 -11.566  -4.790  1.00  0.00    -0.041 C 
HETATM   14  C   UNL     1     -18.003 -11.954  -5.974  1.00  0.00    -0.006 C 
HETATM   15  C   UNL     1     -18.614 -12.516  -7.290  1.00  0.00     0.052 C 
HETATM   16  C   UNL     1     -16.512 -11.836  -6.176  1.00  0.00     0.184 C 
HETATM   17  C   UNL     1     -15.662 -11.102  -5.153  1.00  0.00     0.193 C 
HETATM   18  O   UNL     1     -15.967 -12.324  -7.184  1.00  0.00    -0.290 OA
HETATM   19  C   UNL     1     -16.218 -10.807  -3.782  1.00  0.00     0.053 C 
HETATM   20  C   UNL     1     -17.764 -10.747  -3.507  1.00  0.00    -0.017 C 
HETATM   21  C   UNL     1     -17.937 -11.635  -2.263  1.00  0.00     0.020 C 
HETATM   22  C   UNL     1     -17.871  -9.155  -2.804  1.00  0.00     0.020 C 
BRANCH  17  23
HETATM   23  O   UNL     1     -14.354 -11.659  -4.964  1.00  0.00    -0.388 OA
HETATM   24  H   UNL     1     -14.425 -12.626  -5.054  1.00  0.00     0.210 HD
ENDBRANCH  17  23
ENDBRANCH  12  13
ENDBRANCH   9  11
ENDBRANCH   7   8
ENDBRANCH   4   6
ENDBRANCH   1   3
BRANCH   2  25
HETATM   25  C   UNL     1     -21.368  -9.206  -1.606  1.00  0.00    -0.016 C 
HETATM   26  C   UNL     1     -21.834  -7.876  -1.422  1.00  0.00    -0.066 C 
HETATM   27  C   UNL     1     -22.433  -7.080  -0.206  1.00  0.00     0.048 C 
BRANCH  26  28
HETATM   28  C   UNL     1     -21.900  -6.809  -2.564  1.00  0.00     0.006 C 
HETATM   29  C   UNL     1     -21.540  -7.023  -3.939  1.00  0.00     0.001 C 
BRANCH  29  30
HETATM   30  C   UNL     1     -21.905  -6.170  -5.075  1.00  0.00     0.007 C 
HETATM   31  C   UNL     1     -21.089  -5.905  -6.127  1.00  0.00    -0.062 C 
HETATM   32  C   UNL     1     -19.726  -6.533  -6.368  1.00  0.00     0.048 C 
BRANCH  31  33
HETATM   33  C   UNL     1     -21.485  -4.932  -7.187  1.00  0.00     0.007 C 
HETATM   34  C   UNL     1     -21.948  -5.244  -8.384  1.00  0.00     0.009 C 
BRANCH  34  35
HETATM   35  C   UNL     1     -22.051  -4.302  -9.529  1.00  0.00    -0.041 A 
HETATM   36  C   UNL     1     -23.278  -3.996  -9.989  1.00  0.00    -0.006 A 
HETATM   37  C   UNL     1     -23.465  -3.164 -11.225  1.00  0.00     0.184 A 
HETATM   38  C   UNL     1     -24.592  -4.487  -9.429  1.00  0.00     0.052 C 
HETATM   39  O   UNL     1     -24.597  -2.984 -11.663  1.00  0.00    -0.290 OA
HETATM   40  C   UNL     1     -22.244  -2.621 -11.955  1.00  0.00     0.193 A 
HETATM   41  C   UNL     1     -20.864  -2.926 -11.411  1.00  0.00     0.053 A 
HETATM   42  C   UNL     1     -20.722  -3.840 -10.163  1.00  0.00    -0.017 A 
HETATM   43  C   UNL     1     -19.966  -5.108 -10.627  1.00  0.00     0.020 C 
HETATM   44  C   UNL     1     -19.809  -3.057  -9.177  1.00  0.00     0.020 C 
BRANCH  40  45
HETATM   45  O   UNL     1     -22.268  -2.996 -13.334  1.00  0.00    -0.388 OA
HETATM   46  H   UNL     1     -22.274  -2.177 -13.858  1.00  0.00     0.210 HD
ENDBRANCH  40  45
ENDBRANCH  34  35
ENDBRANCH  31  33
ENDBRANCH  29  30
ENDBRANCH  26  28
ENDBRANCH   2  25
TORSDOF 12
BEGIN_RES ARG D 557
REMARK  4 active torsions:
REMARK  status: ('A' for Active; 'I' for Inactive)
REMARK    1  A    between atoms: CA   and  CB  
REMARK    2  A    between atoms: CB   and  CG  
REMARK    3  A    between atoms: CG   and  CD  
REMARK    4  A    between atoms: CD   and  NE  
REMARK       I    between atoms: NE   and  CZ  
REMARK       I    between atoms: CZ   and  NH1 
REMARK       I    between atoms: CZ   and  NH2 
ROOT
ATOM      1  CA  ARG D 557     -26.217   2.705 -17.014  1.00 35.49     0.159 C 
ENDROOT
BRANCH   1   2
ATOM      2  CB  ARG D 557     -26.789   1.319 -17.183  1.00 35.49     0.034 C 
BRANCH   2   3
ATOM      3  CG  ARG D 557     -28.224   1.159 -16.916  1.00 35.49     0.027 C 
BRANCH   3   4
ATOM      4  CD  ARG D 557     -28.621  -0.263 -16.801  1.00 35.49     0.116 C 
BRANCH   4   5
ATOM      5  NE  ARG D 557     -27.639  -1.045 -16.098  1.00 35.49    -0.212 N 
ATOM      6  CZ  ARG D 557     -27.507  -2.351 -16.164  1.00 35.49     0.666 C 
ATOM      7  NH1 ARG D 557     -28.301  -3.108 -16.898  1.00 35.49    -0.235 N 
ATOM      8  NH2 ARG D 557     -26.545  -2.893 -15.474  1.00 35.49    -0.235 N 
ATOM      9  HH  ARG D 557     -28.939  -2.773 -17.362  1.00 35.49     0.174 HD
ATOM     10  HH  ARG D 557     -28.166  -3.954 -16.905  1.00 35.49     0.174 HD
ATOM     11  HH  ARG D 557     -26.043  -2.379 -15.015  1.00 35.49     0.174 HD
ATOM     12  HH  ARG D 557     -26.427  -3.732 -15.495  1.00 35.49     0.174 HD
ATOM     13  HE  ARG D 557     -27.131  -0.646 -15.545  1.00 35.49     0.178 HD
ENDBRANCH   4   5
ENDBRANCH   3   4
ENDBRANCH   2   3
ENDBRANCH   1   2
END_RES ARG D 557
BEGIN_RES GLU D 570
REMARK  3 active torsions:
REMARK  status: ('A' for Active; 'I' for Inactive)
REMARK    5  A    between atoms: CA   and  CB  
REMARK    6  A    between atoms: CB   and  CG  
REMARK    7  A    between atoms: CG   and  CD  
ROOT
ATOM     14  CA  GLU D 570     -18.033  -6.348 -13.375  1.00 32.92     0.160 C 
ENDROOT
BRANCH  14  15
ATOM     15  CB  GLU D 570     -19.500  -6.345 -13.794  1.00 32.92     0.043 C 
BRANCH  15  16
ATOM     16  CG  GLU D 570     -19.812  -5.952 -15.193  1.00 32.92     0.100 C 
BRANCH  16  17
ATOM     17  CD  GLU D 570     -21.281  -5.682 -15.415  1.00 32.92     0.185 C 
ATOM     18  OE1 GLU D 570     -21.636  -4.554 -15.809  1.00 32.92    -0.647 OA
ATOM     19  OE2 GLU D 570     -22.088  -6.602 -15.176  1.00 32.92    -0.647 OA
ENDBRANCH  16  17
ENDBRANCH  15  16
ENDBRANCH  14  15
END_RES GLU D 570
ENDMDL
MODEL 6
REMARK VINA RESULT:      -8.4      3.646     13.240
REMARK  12 active torsions:
REMARK  status: ('A' for Active; 'I' for Inactive)
REMARK    1  A    between atoms: C_3  and  C_12 
REMARK    2  A    between atoms: C_6  and  O_9 
REMARK    3  A    between atoms: C_13  and  C_14 
REMARK    4  A    between atoms: C_15  and  C_16 
REMARK    5  A    between atoms: C_17  and  C_18 
REMARK    6  A    between atoms: C_19  and  C_20 
REMARK    7  A    between atoms: C_21  and  C_22 
REMARK    8  A    between atoms: C_23  and  C_25 
REMARK    9  A    between atoms: C_26  and  C_27 
REMARK   10  A    between atoms: C_28  and  C_30 
REMARK   11  A    between atoms: C_31  and  C_32 
REMARK   12  A    between atoms: C_36  and  O_41 
ROOT
HETATM    1  C   UNL     1     -23.131  -4.170  -9.603  1.00  0.00    -0.022 C 
HETATM    2  C   UNL     1     -22.878  -4.020  -8.250  1.00  0.00     0.054 C 
ENDROOT
BRANCH   1   3
HETATM    3  C   UNL     1     -23.956  -3.347 -10.623  1.00  0.00     0.003 C 
HETATM    4  C   UNL     1     -24.203  -3.581 -11.887  1.00  0.00    -0.062 C 
HETATM    5  C   UNL     1     -25.271  -2.729 -12.629  1.00  0.00     0.048 C 
BRANCH   4   6
HETATM    6  C   UNL     1     -23.621  -4.689 -12.680  1.00  0.00     0.007 C 
HETATM    7  C   UNL     1     -24.217  -5.121 -13.797  1.00  0.00     0.001 C 
BRANCH   7   8
HETATM    8  C   UNL     1     -23.804  -5.995 -14.876  1.00  0.00     0.007 C 
HETATM    9  C   UNL     1     -24.653  -6.668 -15.709  1.00  0.00    -0.062 C 
HETATM   10  C   UNL     1     -24.003  -7.841 -16.431  1.00  0.00     0.048 C 
BRANCH   9  11
HETATM   11  C   UNL     1     -26.174  -6.552 -15.904  1.00  0.00     0.007 C 
HETATM   12  C   UNL     1     -26.878  -6.134 -16.960  1.00  0.00     0.009 C 
BRANCH  12  13
HETATM   13  C   UNL     1     -28.406  -5.906 -17.374  1.00  0.00    -0.041 C 
HETATM   14  C   UNL     1     -28.819  -4.578 -17.214  1.00  0.00    -0.006 C 
HETATM   15  C   UNL     1     -27.965  -3.284 -17.082  1.00  0.00     0.052 C 
HETATM   16  C   UNL     1     -30.272  -4.173 -17.183  1.00  0.00     0.184 C 
HETATM   17  C   UNL     1     -31.352  -5.186 -17.521  1.00  0.00     0.193 C 
HETATM   18  O   UNL     1     -30.600  -3.005 -16.894  1.00  0.00    -0.290 OA
HETATM   19  C   UNL     1     -31.026  -6.659 -17.534  1.00  0.00     0.053 C 
HETATM   20  C   UNL     1     -29.557  -7.185 -17.726  1.00  0.00    -0.017 C 
HETATM   21  C   UNL     1     -29.395  -8.205 -16.585  1.00  0.00     0.020 C 
HETATM   22  C   UNL     1     -29.803  -8.240 -19.092  1.00  0.00     0.020 C 
BRANCH  17  23
HETATM   23  O   UNL     1     -32.563  -5.032 -16.769  1.00  0.00    -0.388 OA
HETATM   24  H   UNL     1     -32.319  -4.872 -15.839  1.00  0.00     0.210 HD
ENDBRANCH  17  23
ENDBRANCH  12  13
ENDBRANCH   9  11
ENDBRANCH   7   8
ENDBRANCH   4   6
ENDBRANCH   1   3
BRANCH   2  25
HETATM   25  C   UNL     1     -22.149  -4.769  -6.952  1.00  0.00    -0.016 C 
HETATM   26  C   UNL     1     -20.817  -5.074  -6.560  1.00  0.00    -0.066 C 
HETATM   27  C   UNL     1     -19.398  -4.782  -7.168  1.00  0.00     0.048 C 
BRANCH  26  28
HETATM   28  C   UNL     1     -20.453  -5.924  -5.298  1.00  0.00     0.006 C 
HETATM   29  C   UNL     1     -21.165  -5.926  -4.050  1.00  0.00     0.001 C 
BRANCH  29  30
HETATM   30  C   UNL     1     -21.061  -6.937  -2.992  1.00  0.00     0.007 C 
HETATM   31  C   UNL     1     -21.297  -8.262  -3.173  1.00  0.00    -0.062 C 
HETATM   32  C   UNL     1     -21.583  -8.935  -4.506  1.00  0.00     0.048 C 
BRANCH  31  33
HETATM   33  C   UNL     1     -21.288  -9.214  -2.023  1.00  0.00     0.007 C 
HETATM   34  C   UNL     1     -21.439 -10.523  -2.107  1.00  0.00     0.009 C 
BRANCH  34  35
HETATM   35  C   UNL     1     -21.732 -11.421  -0.959  1.00  0.00    -0.041 A 
HETATM   36  C   UNL     1     -20.773 -12.277  -0.564  1.00  0.00    -0.006 A 
HETATM   37  C   UNL     1     -21.034 -13.311   0.494  1.00  0.00     0.184 A 
HETATM   38  C   UNL     1     -19.386 -12.400  -1.149  1.00  0.00     0.052 C 
HETATM   39  O   UNL     1     -20.162 -14.131   0.761  1.00  0.00    -0.290 OA
HETATM   40  C   UNL     1     -22.400 -13.369   1.164  1.00  0.00     0.193 A 
HETATM   41  C   UNL     1     -23.465 -12.375   0.753  1.00  0.00     0.053 A 
HETATM   42  C   UNL     1     -23.165 -11.364  -0.387  1.00  0.00    -0.017 A 
HETATM   43  C   UNL     1     -24.137 -11.700  -1.544  1.00  0.00     0.020 C 
HETATM   44  C   UNL     1     -23.544  -9.968   0.185  1.00  0.00     0.020 C 
BRANCH  40  45
HETATM   45  O   UNL     1     -22.958 -14.681   1.066  1.00  0.00    -0.388 OA
HETATM   46  H   UNL     1     -23.493 -14.830   1.864  1.00  0.00     0.210 HD
ENDBRANCH  40  45
ENDBRANCH  34  35
ENDBRANCH  31  33
ENDBRANCH  29  30
ENDBRANCH  26  28
ENDBRANCH   2  25
TORSDOF 12
BEGIN_RES ARG D 557
REMARK  4 active torsions:
REMARK  status: ('A' for Active; 'I' for Inactive)
REMARK    1  A    between atoms: CA   and  CB  
REMARK    2  A    between atoms: CB   and  CG  
REMARK    3  A    between atoms: CG   and  CD  
REMARK    4  A    between atoms: CD   and  NE  
REMARK       I    between atoms: NE   and  CZ  
REMARK       I    between atoms: CZ   and  NH1 
REMARK       I    between atoms: CZ   and  NH2 
ROOT
ATOM      1  CA  ARG D 557     -26.217   2.705 -17.014  1.00 35.49     0.159 C 
ENDROOT
BRANCH   1   2
ATOM      2  CB  ARG D 557     -26.789   1.319 -17.183  1.00 35.49     0.034 C 
BRANCH   2   3
ATOM      3  CG  ARG D 557     -25.867   0.195 -16.980  1.00 35.49     0.027 C 
BRANCH   3   4
ATOM      4  CD  ARG D 557     -26.106  -0.506 -15.698  1.00 35.49     0.116 C 
BRANCH   4   5
ATOM      5  NE  ARG D 557     -25.017  -1.380 -15.347  1.00 35.49    -0.212 N 
ATOM      6  CZ  ARG D 557     -23.743  -1.061 -15.354  1.00 35.49     0.666 C 
ATOM      7  NH1 ARG D 557     -23.313   0.136 -15.710  1.00 35.49    -0.235 N 
ATOM      8  NH2 ARG D 557     -22.893  -1.975 -14.985  1.00 35.49    -0.235 N 
ATOM      9  HH  ARG D 557     -23.855   0.753 -15.954  1.00 35.49     0.174 HD
ATOM     10  HH  ARG D 557     -22.470   0.288 -15.692  1.00 35.49     0.174 HD
ATOM     11  HH  ARG D 557     -23.199  -2.736 -14.753  1.00 35.49     0.174 HD
ATOM     12  HH  ARG D 557     -22.062  -1.804 -14.973  1.00 35.49     0.174 HD
ATOM     13  HE  ARG D 557     -25.198  -2.193 -15.174  1.00 35.49     0.178 HD
ENDBRANCH   4   5
ENDBRANCH   3   4
ENDBRANCH   2   3
ENDBRANCH   1   2
END_RES ARG D 557
BEGIN_RES GLU D 570
REMARK  3 active torsions:
REMARK  status: ('A' for Active; 'I' for Inactive)
REMARK    5  A    between atoms: CA   and  CB  
REMARK    6  A    between atoms: CB   and  CG  
REMARK    7  A    between atoms: CG   and  CD  
ROOT
ATOM     14  CA  GLU D 570     -18.033  -6.348 -13.375  1.00 32.92     0.160 C 
ENDROOT
BRANCH  14  15
ATOM     15  CB  GLU D 570     -19.500  -6.345 -13.794  1.00 32.92     0.043 C 
BRANCH  15  16
ATOM     16  CG  GLU D 570     -20.101  -7.644 -14.192  1.00 32.92     0.100 C 
BRANCH  16  17
ATOM     17  CD  GLU D 570     -20.497  -7.689 -15.649  1.00 32.92     0.185 C 
ATOM     18  OE1 GLU D 570     -20.696  -8.795 -16.188  1.00 32.92    -0.647 OA
ATOM     19  OE2 GLU D 570     -20.591  -6.608 -16.263  1.00 32.92    -0.647 OA
ENDBRANCH  16  17
ENDBRANCH  15  16
ENDBRANCH  14  15
END_RES GLU D 570
ENDMDL
MODEL 7
REMARK VINA RESULT:      -8.3      2.702      4.370
REMARK  12 active torsions:
REMARK  status: ('A' for Active; 'I' for Inactive)
REMARK    1  A    between atoms: C_3  and  C_12 
REMARK    2  A    between atoms: C_6  and  O_9 
REMARK    3  A    between atoms: C_13  and  C_14 
REMARK    4  A    between atoms: C_15  and  C_16 
REMARK    5  A    between atoms: C_17  and  C_18 
REMARK    6  A    between atoms: C_19  and  C_20 
REMARK    7  A    between atoms: C_21  and  C_22 
REMARK    8  A    between atoms: C_23  and  C_25 
REMARK    9  A    between atoms: C_26  and  C_27 
REMARK   10  A    between atoms: C_28  and  C_30 
REMARK   11  A    between atoms: C_31  and  C_32 
REMARK   12  A    between atoms: C_36  and  O_41 
ROOT
HETATM    1  C   UNL     1     -18.658 -11.361  -1.255  1.00  0.00    -0.022 C 
HETATM    2  C   UNL     1     -19.687 -10.441  -1.141  1.00  0.00     0.054 C 
ENDROOT
BRANCH   1   3
HETATM    3  C   UNL     1     -18.146 -12.495  -0.333  1.00  0.00     0.003 C 
HETATM    4  C   UNL     1     -16.924 -12.908  -0.110  1.00  0.00    -0.062 C 
HETATM    5  C   UNL     1     -16.653 -13.900   1.056  1.00  0.00     0.048 C 
BRANCH   4   6
HETATM    6  C   UNL     1     -15.716 -12.421  -0.816  1.00  0.00     0.007 C 
HETATM    7  C   UNL     1     -15.322 -12.978  -1.966  1.00  0.00     0.001 C 
BRANCH   7   8
HETATM    8  C   UNL     1     -14.356 -12.603  -2.978  1.00  0.00     0.007 C 
HETATM    9  C   UNL     1     -14.666 -12.158  -4.233  1.00  0.00    -0.062 C 
HETATM   10  C   UNL     1     -13.518 -12.273  -5.227  1.00  0.00     0.048 C 
BRANCH   9  11
HETATM   11  C   UNL     1     -16.011 -11.733  -4.846  1.00  0.00     0.007 C 
HETATM   12  C   UNL     1     -16.987 -12.473  -5.379  1.00  0.00     0.009 C 
BRANCH  12  13
HETATM   13  C   UNL     1     -18.410 -12.265  -6.079  1.00  0.00    -0.041 C 
HETATM   14  C   UNL     1     -19.115 -11.173  -5.558  1.00  0.00    -0.006 C 
HETATM   15  C   UNL     1     -18.596  -9.961  -4.732  1.00  0.00     0.052 C 
HETATM   16  C   UNL     1     -20.596 -10.978  -5.776  1.00  0.00     0.184 C 
HETATM   17  C   UNL     1     -21.347 -11.877  -6.743  1.00  0.00     0.193 C 
HETATM   18  O   UNL     1     -21.213 -10.076  -5.178  1.00  0.00    -0.290 OA
HETATM   19  C   UNL     1     -20.725 -13.170  -7.211  1.00  0.00     0.053 C 
HETATM   20  C   UNL     1     -19.172 -13.405  -7.175  1.00  0.00    -0.017 C 
HETATM   21  C   UNL     1     -19.038 -14.778  -6.494  1.00  0.00     0.020 C 
HETATM   22  C   UNL     1     -18.906 -13.829  -8.846  1.00  0.00     0.020 C 
BRANCH  17  23
HETATM   23  O   UNL     1     -22.692 -12.178  -6.347  1.00  0.00    -0.388 OA
HETATM   24  H   UNL     1     -23.214 -11.359  -6.415  1.00  0.00     0.210 HD
ENDBRANCH  17  23
ENDBRANCH  12  13
ENDBRANCH   9  11
ENDBRANCH   7   8
ENDBRANCH   4   6
ENDBRANCH   1   3
BRANCH   2  25
HETATM   25  C   UNL     1     -20.363  -9.116  -1.893  1.00  0.00    -0.016 C 
HETATM   26  C   UNL     1     -21.395  -8.185  -1.598  1.00  0.00    -0.066 C 
HETATM   27  C   UNL     1     -22.348  -7.953  -0.370  1.00  0.00     0.048 C 
BRANCH  26  28
HETATM   28  C   UNL     1     -21.894  -7.089  -2.597  1.00  0.00     0.006 C 
HETATM   29  C   UNL     1     -21.072  -6.355  -3.520  1.00  0.00     0.001 C 
BRANCH  29  30
HETATM   30  C   UNL     1     -21.540  -5.588  -4.680  1.00  0.00     0.007 C 
HETATM   31  C   UNL     1     -21.039  -5.717  -5.935  1.00  0.00    -0.062 C 
HETATM   32  C   UNL     1     -20.013  -6.747  -6.376  1.00  0.00     0.048 C 
BRANCH  31  33
HETATM   33  C   UNL     1     -21.483  -4.817  -7.041  1.00  0.00     0.007 C 
HETATM   34  C   UNL     1     -21.797  -5.200  -8.265  1.00  0.00     0.009 C 
BRANCH  34  35
HETATM   35  C   UNL     1     -21.940  -4.290  -9.431  1.00  0.00    -0.041 A 
HETATM   36  C   UNL     1     -23.182  -3.991  -9.852  1.00  0.00    -0.006 A 
HETATM   37  C   UNL     1     -23.413  -3.192 -11.103  1.00  0.00     0.184 A 
HETATM   38  C   UNL     1     -24.476  -4.460  -9.230  1.00  0.00     0.052 C 
HETATM   39  O   UNL     1     -24.561  -3.019 -11.502  1.00  0.00    -0.290 OA
HETATM   40  C   UNL     1     -22.220  -2.674 -11.893  1.00  0.00     0.193 A 
HETATM   41  C   UNL     1     -20.821  -2.970 -11.394  1.00  0.00     0.053 A 
HETATM   42  C   UNL     1     -20.634  -3.850 -10.128  1.00  0.00    -0.017 A 
HETATM   43  C   UNL     1     -19.901  -5.134 -10.585  1.00  0.00     0.020 C 
HETATM   44  C   UNL     1     -19.683  -3.045  -9.199  1.00  0.00     0.020 C 
BRANCH  40  45
HETATM   45  O   UNL     1     -22.297  -3.087 -13.259  1.00  0.00    -0.388 OA
HETATM   46  H   UNL     1     -23.201  -2.903 -13.568  1.00  0.00     0.210 HD
ENDBRANCH  40  45
ENDBRANCH  34  35
ENDBRANCH  31  33
ENDBRANCH  29  30
ENDBRANCH  26  28
ENDBRANCH   2  25
TORSDOF 12
BEGIN_RES ARG D 557
REMARK  4 active torsions:
REMARK  status: ('A' for Active; 'I' for Inactive)
REMARK    1  A    between atoms: CA   and  CB  
REMARK    2  A    between atoms: CB   and  CG  
REMARK    3  A    between atoms: CG   and  CD  
REMARK    4  A    between atoms: CD   and  NE  
REMARK       I    between atoms: NE   and  CZ  
REMARK       I    between atoms: CZ   and  NH1 
REMARK       I    between atoms: CZ   and  NH2 
ROOT
ATOM      1  CA  ARG D 557     -26.217   2.705 -17.014  1.00 35.49     0.159 C 
ENDROOT
BRANCH   1   2
ATOM      2  CB  ARG D 557     -26.789   1.319 -17.183  1.00 35.49     0.034 C 
BRANCH   2   3
ATOM      3  CG  ARG D 557     -28.229   1.227 -17.450  1.00 35.49     0.027 C 
BRANCH   3   4
ATOM      4  CD  ARG D 557     -28.914   0.284 -16.536  1.00 35.49     0.116 C 
BRANCH   4   5
ATOM      5  NE  ARG D 557     -28.121  -0.888 -16.274  1.00 35.49    -0.212 N 
ATOM      6  CZ  ARG D 557     -28.370  -2.099 -16.721  1.00 35.49     0.666 C 
ATOM      7  NH1 ARG D 557     -29.419  -2.376 -17.473  1.00 35.49    -0.235 N 
ATOM      8  NH2 ARG D 557     -27.531  -3.041 -16.401  1.00 35.49    -0.235 N 
ATOM      9  HH  ARG D 557     -29.983  -1.772 -17.697  1.00 35.49     0.174 HD
ATOM     10  HH  ARG D 557     -29.528  -3.184 -17.737  1.00 35.49     0.174 HD
ATOM     11  HH  ARG D 557     -26.858  -2.831 -15.920  1.00 35.49     0.174 HD
ATOM     12  HH  ARG D 557     -27.655  -3.834 -16.673  1.00 35.49     0.174 HD
ATOM     13  HE  ARG D 557     -27.466  -0.815 -15.738  1.00 35.49     0.178 HD
ENDBRANCH   4   5
ENDBRANCH   3   4
ENDBRANCH   2   3
ENDBRANCH   1   2
END_RES ARG D 557
BEGIN_RES GLU D 570
REMARK  3 active torsions:
REMARK  status: ('A' for Active; 'I' for Inactive)
REMARK    5  A    between atoms: CA   and  CB  
REMARK    6  A    between atoms: CB   and  CG  
REMARK    7  A    between atoms: CG   and  CD  
ROOT
ATOM     14  CA  GLU D 570     -18.033  -6.348 -13.375  1.00 32.92     0.160 C 
ENDROOT
BRANCH  14  15
ATOM     15  CB  GLU D 570     -19.500  -6.345 -13.794  1.00 32.92     0.043 C 
BRANCH  15  16
ATOM     16  CG  GLU D 570     -20.142  -7.661 -14.048  1.00 32.92     0.100 C 
BRANCH  16  17
ATOM     17  CD  GLU D 570     -20.906  -7.702 -15.351  1.00 32.92     0.185 C 
ATOM     18  OE1 GLU D 570     -21.773  -6.834 -15.572  1.00 32.92    -0.647 OA
ATOM     19  OE2 GLU D 570     -20.646  -8.622 -16.152  1.00 32.92    -0.647 OA
ENDBRANCH  16  17
ENDBRANCH  15  16
ENDBRANCH  14  15
END_RES GLU D 570
ENDMDL
MODEL 8
REMARK VINA RESULT:      -8.2      3.228      6.926
REMARK  12 active torsions:
REMARK  status: ('A' for Active; 'I' for Inactive)
REMARK    1  A    between atoms: C_3  and  C_12 
REMARK    2  A    between atoms: C_6  and  O_9 
REMARK    3  A    between atoms: C_13  and  C_14 
REMARK    4  A    between atoms: C_15  and  C_16 
REMARK    5  A    between atoms: C_17  and  C_18 
REMARK    6  A    between atoms: C_19  and  C_20 
REMARK    7  A    between atoms: C_21  and  C_22 
REMARK    8  A    between atoms: C_23  and  C_25 
REMARK    9  A    between atoms: C_26  and  C_27 
REMARK   10  A    between atoms: C_28  and  C_30 
REMARK   11  A    between atoms: C_31  and  C_32 
REMARK   12  A    between atoms: C_36  and  O_41 
ROOT
HETATM    1  C   UNL     1     -22.052  -5.976  -5.485  1.00  0.00    -0.022 C 
HETATM    2  C   UNL     1     -21.633  -5.345  -6.645  1.00  0.00     0.054 C 
ENDROOT
BRANCH   1   3
HETATM    3  C   UNL     1     -21.318  -6.410  -4.193  1.00  0.00     0.003 C 
HETATM    4  C   UNL     1     -21.112  -7.608  -3.706  1.00  0.00    -0.062 C 
HETATM    5  C   UNL     1     -20.126  -7.793  -2.519  1.00  0.00     0.048 C 
BRANCH   4   6
HETATM    6  C   UNL     1     -21.665  -8.864  -4.266  1.00  0.00     0.007 C 
HETATM    7  C   UNL     1     -21.101  -9.448  -5.330  1.00  0.00     0.001 C 
BRANCH   7   8
HETATM    8  C   UNL     1     -21.255 -10.745  -5.956  1.00  0.00     0.007 C 
HETATM    9  C   UNL     1     -20.352 -11.768  -5.873  1.00  0.00    -0.062 C 
HETATM   10  C   UNL     1     -20.516 -12.821  -6.961  1.00  0.00     0.048 C 
BRANCH   9  11
HETATM   11  C   UNL     1     -19.106 -11.942  -4.989  1.00  0.00     0.007 C 
HETATM   12  C   UNL     1     -19.004 -12.117  -3.668  1.00  0.00     0.009 C 
BRANCH  12  13
HETATM   13  C   UNL     1     -17.864 -12.287  -2.560  1.00  0.00    -0.041 C 
HETATM   14  C   UNL     1     -18.294 -13.021  -1.448  1.00  0.00    -0.006 C 
HETATM   15  C   UNL     1     -19.511 -13.980  -1.303  1.00  0.00     0.052 C 
HETATM   16  C   UNL     1     -17.555 -13.017  -0.132  1.00  0.00     0.184 C 
HETATM   17  C   UNL     1     -16.192 -12.355  -0.027  1.00  0.00     0.193 C 
HETATM   18  O   UNL     1     -18.047 -13.564   0.874  1.00  0.00    -0.290 OA
HETATM   19  C   UNL     1     -15.730 -11.404  -1.102  1.00  0.00     0.053 C 
HETATM   20  C   UNL     1     -16.326 -11.439  -2.556  1.00  0.00    -0.017 C 
HETATM   21  C   UNL     1     -16.672  -9.966  -2.833  1.00  0.00     0.020 C 
HETATM   22  C   UNL     1     -14.851 -11.618  -3.469  1.00  0.00     0.020 C 
BRANCH  17  23
HETATM   23  O   UNL     1     -15.940 -11.718   1.233  1.00  0.00    -0.388 OA
HETATM   24  H   UNL     1     -16.729 -11.837   1.791  1.00  0.00     0.210 HD
ENDBRANCH  17  23
ENDBRANCH  12  13
ENDBRANCH   9  11
ENDBRANCH   7   8
ENDBRANCH   4   6
ENDBRANCH   1   3
BRANCH   2  25
HETATM   25  C   UNL     1     -22.158  -4.871  -8.154  1.00  0.00    -0.016 C 
HETATM   26  C   UNL     1     -21.547  -4.519  -9.388  1.00  0.00    -0.066 C 
HETATM   27  C   UNL     1     -20.065  -4.474  -9.908  1.00  0.00     0.048 C 
BRANCH  26  28
HETATM   28  C   UNL     1     -22.335  -3.982 -10.629  1.00  0.00     0.006 C 
HETATM   29  C   UNL     1     -22.767  -4.764 -11.755  1.00  0.00     0.001 C 
BRANCH  29  30
HETATM   30  C   UNL     1     -23.778  -4.377 -12.745  1.00  0.00     0.007 C 
HETATM   31  C   UNL     1     -24.002  -5.038 -13.909  1.00  0.00    -0.062 C 
HETATM   32  C   UNL     1     -23.343  -6.343 -14.326  1.00  0.00     0.048 C 
BRANCH  31  33
HETATM   33  C   UNL     1     -24.965  -4.514 -14.923  1.00  0.00     0.007 C 
HETATM   34  C   UNL     1     -26.282  -4.572 -14.834  1.00  0.00     0.009 C 
BRANCH  34  35
HETATM   35  C   UNL     1     -27.221  -4.333 -15.960  1.00  0.00    -0.041 A 
HETATM   36  C   UNL     1     -27.645  -3.074 -16.175  1.00  0.00    -0.006 A 
HETATM   37  C   UNL     1     -28.698  -2.767 -17.201  1.00  0.00     0.184 A 
HETATM   38  C   UNL     1     -27.229  -1.845 -15.402  1.00  0.00     0.052 C 
HETATM   39  O   UNL     1     -29.122  -1.621 -17.303  1.00  0.00    -0.290 OA
HETATM   40  C   UNL     1     -29.273  -3.896 -18.046  1.00  0.00     0.193 A 
HETATM   41  C   UNL     1     -28.763  -5.306 -17.837  1.00  0.00     0.053 A 
HETATM   42  C   UNL     1     -27.716  -5.580 -16.724  1.00  0.00    -0.017 A 
HETATM   43  C   UNL     1     -28.399  -6.511 -15.692  1.00  0.00     0.020 C 
HETATM   44  C   UNL     1     -26.570  -6.372 -17.416  1.00  0.00     0.020 C 
BRANCH  40  45
HETATM   45  O   UNL     1     -30.699  -3.924 -17.953  1.00  0.00    -0.388 OA
HETATM   46  H   UNL     1     -30.963  -4.850 -17.815  1.00  0.00     0.210 HD
ENDBRANCH  40  45
ENDBRANCH  34  35
ENDBRANCH  31  33
ENDBRANCH  29  30
ENDBRANCH  26  28
ENDBRANCH   2  25
TORSDOF 12
BEGIN_RES ARG D 557
REMARK  4 active torsions:
REMARK  status: ('A' for Active; 'I' for Inactive)
REMARK    1  A    between atoms: CA   and  CB  
REMARK    2  A    between atoms: CB   and  CG  
REMARK    3  A    between atoms: CG   and  CD  
REMARK    4  A    between atoms: CD   and  NE  
REMARK       I    between atoms: NE   and  CZ  
REMARK       I    between atoms: CZ   and  NH1 
REMARK       I    between atoms: CZ   and  NH2 
ROOT
ATOM      1  CA  ARG D 557     -26.217   2.705 -17.014  1.00 35.49     0.159 C 
ENDROOT
BRANCH   1   2
ATOM      2  CB  ARG D 557     -26.789   1.319 -17.183  1.00 35.49     0.034 C 
BRANCH   2   3
ATOM      3  CG  ARG D 557     -25.826   0.221 -17.332  1.00 35.49     0.027 C 
BRANCH   3   4
ATOM      4  CD  ARG D 557     -24.545   0.497 -16.644  1.00 35.49     0.116 C 
BRANCH   4   5
ATOM      5  NE  ARG D 557     -24.497  -0.090 -15.331  1.00 35.49    -0.212 N 
ATOM      6  CZ  ARG D 557     -23.651  -1.014 -14.932  1.00 35.49     0.666 C 
ATOM      7  NH1 ARG D 557     -22.734  -1.527 -15.731  1.00 35.49    -0.235 N 
ATOM      8  NH2 ARG D 557     -23.739  -1.415 -13.697  1.00 35.49    -0.235 N 
ATOM      9  HH  ARG D 557     -22.657  -1.276 -16.546  1.00 35.49     0.174 HD
ATOM     10  HH  ARG D 557     -22.208  -2.125 -15.415  1.00 35.49     0.174 HD
ATOM     11  HH  ARG D 557     -24.336  -1.060 -13.202  1.00 35.49     0.174 HD
ATOM     12  HH  ARG D 557     -23.208  -2.007 -13.403  1.00 35.49     0.174 HD
ATOM     13  HE  ARG D 557     -25.099   0.131 -14.773  1.00 35.49     0.178 HD
ENDBRANCH   4   5
ENDBRANCH   3   4
ENDBRANCH   2   3
ENDBRANCH   1   2
END_RES ARG D 557
BEGIN_RES GLU D 570
REMARK  3 active torsions:
REMARK  status: ('A' for Active; 'I' for Inactive)
REMARK    5  A    between atoms: CA   and  CB  
REMARK    6  A    between atoms: CB   and  CG  
REMARK    7  A    between atoms: CG   and  CD  
ROOT
ATOM     14  CA  GLU D 570     -18.033  -6.348 -13.375  1.00 32.92     0.160 C 
ENDROOT
BRANCH  14  15
ATOM     15  CB  GLU D 570     -19.500  -6.345 -13.794  1.00 32.92     0.043 C 
BRANCH  15  16
ATOM     16  CG  GLU D 570     -20.077  -7.627 -14.275  1.00 32.92     0.100 C 
BRANCH  16  17
ATOM     17  CD  GLU D 570     -20.473  -7.585 -15.732  1.00 32.92     0.185 C 
ATOM     18  OE1 GLU D 570     -20.442  -6.496 -16.337  1.00 32.92    -0.647 OA
ATOM     19  OE2 GLU D 570     -20.834  -8.650 -16.271  1.00 32.92    -0.647 OA
ENDBRANCH  16  17
ENDBRANCH  15  16
ENDBRANCH  14  15
END_RES GLU D 570
ENDMDL
MODEL 9
REMARK VINA RESULT:      -7.9      3.167     13.033
REMARK  12 active torsions:
REMARK  status: ('A' for Active; 'I' for Inactive)
REMARK    1  A    between atoms: C_3  and  C_12 
REMARK    2  A    between atoms: C_6  and  O_9 
REMARK    3  A    between atoms: C_13  and  C_14 
REMARK    4  A    between atoms: C_15  and  C_16 
REMARK    5  A    between atoms: C_17  and  C_18 
REMARK    6  A    between atoms: C_19  and  C_20 
REMARK    7  A    between atoms: C_21  and  C_22 
REMARK    8  A    between atoms: C_23  and  C_25 
REMARK    9  A    between atoms: C_26  and  C_27 
REMARK   10  A    between atoms: C_28  and  C_30 
REMARK   11  A    between atoms: C_31  and  C_32 
REMARK   12  A    between atoms: C_36  and  O_41 
ROOT
HETATM    1  C   UNL     1     -22.993  -3.130 -12.589  1.00  0.00    -0.022 C 
HETATM    2  C   UNL     1     -21.851  -3.328 -11.832  1.00  0.00     0.054 C 
ENDROOT
BRANCH   1   3
HETATM    3  C   UNL     1     -23.348  -2.145 -13.730  1.00  0.00     0.003 C 
HETATM    4  C   UNL     1     -24.487  -1.948 -14.344  1.00  0.00    -0.062 C 
HETATM    5  C   UNL     1     -24.646  -0.720 -15.285  1.00  0.00     0.048 C 
BRANCH   4   6
HETATM    6  C   UNL     1     -25.718  -2.747 -14.139  1.00  0.00     0.007 C 
HETATM    7  C   UNL     1     -26.075  -3.694 -15.014  1.00  0.00     0.001 C 
BRANCH   7   8
HETATM    8  C   UNL     1     -27.056  -4.760 -14.987  1.00  0.00     0.007 C 
HETATM    9  C   UNL     1     -27.288  -5.638 -16.009  1.00  0.00    -0.062 C 
HETATM   10  C   UNL     1     -28.638  -6.338 -15.922  1.00  0.00     0.048 C 
BRANCH   9  11
HETATM   11  C   UNL     1     -26.506  -5.903 -17.306  1.00  0.00     0.007 C 
HETATM   12  C   UNL     1     -25.328  -6.506 -17.494  1.00  0.00     0.009 C 
BRANCH  12  13
HETATM   13  C   UNL     1     -24.336  -6.862 -18.697  1.00  0.00    -0.041 C 
HETATM   14  C   UNL     1     -25.013  -7.255 -19.858  1.00  0.00    -0.006 C 
HETATM   15  C   UNL     1     -26.498  -7.030 -20.264  1.00  0.00     0.052 C 
HETATM   16  C   UNL     1     -24.332  -7.978 -20.995  1.00  0.00     0.184 C 
HETATM   17  C   UNL     1     -22.822  -8.138 -20.998  1.00  0.00     0.193 C 
HETATM   18  O   UNL     1     -24.996  -8.438 -21.944  1.00  0.00    -0.290 OA
HETATM   19  C   UNL     1     -22.035  -7.908 -19.731  1.00  0.00     0.053 C 
HETATM   20  C   UNL     1     -22.595  -7.031 -18.553  1.00  0.00    -0.017 C 
HETATM   21  C   UNL     1     -22.372  -7.918 -17.316  1.00  0.00     0.020 C 
HETATM   22  C   UNL     1     -21.284  -5.892 -18.394  1.00  0.00     0.020 C 
BRANCH  17  23
HETATM   23  O   UNL     1     -22.359  -9.374 -21.560  1.00  0.00    -0.388 OA
HETATM   24  H   UNL     1     -21.701  -9.162 -22.246  1.00  0.00     0.210 HD
ENDBRANCH  17  23
ENDBRANCH  12  13
ENDBRANCH   9  11
ENDBRANCH   7   8
ENDBRANCH   4   6
ENDBRANCH   1   3
BRANCH   2  25
HETATM   25  C   UNL     1     -21.256  -4.200 -10.542  1.00  0.00    -0.016 C 
HETATM   26  C   UNL     1     -21.659  -4.454  -9.203  1.00  0.00    -0.066 C 
HETATM   27  C   UNL     1     -22.911  -4.059  -8.338  1.00  0.00     0.048 C 
BRANCH  26  28
HETATM   28  C   UNL     1     -20.793  -5.243  -8.166  1.00  0.00     0.006 C 
HETATM   29  C   UNL     1     -20.893  -5.142  -6.735  1.00  0.00     0.001 C 
BRANCH  29  30
HETATM   30  C   UNL     1     -20.352  -6.092  -5.758  1.00  0.00     0.007 C 
HETATM   31  C   UNL     1     -21.104  -6.780  -4.861  1.00  0.00    -0.062 C 
HETATM   32  C   UNL     1     -22.622  -6.780  -4.797  1.00  0.00     0.048 C 
BRANCH  31  33
HETATM   33  C   UNL     1     -20.470  -7.638  -3.817  1.00  0.00     0.007 C 
HETATM   34  C   UNL     1     -20.747  -8.910  -3.594  1.00  0.00     0.009 C 
BRANCH  34  35
HETATM   35  C   UNL     1     -20.348  -9.668  -2.380  1.00  0.00    -0.041 A 
HETATM   36  C   UNL     1     -19.154 -10.288  -2.385  1.00  0.00    -0.006 A 
HETATM   37  C   UNL     1     -18.734 -11.186  -1.258  1.00  0.00     0.184 A 
HETATM   38  C   UNL     1     -18.137 -10.264  -3.502  1.00  0.00     0.052 C 
HETATM   39  O   UNL     1     -17.677 -11.805  -1.342  1.00  0.00    -0.290 OA
HETATM   40  C   UNL     1     -19.659 -11.372  -0.062  1.00  0.00     0.193 A 
HETATM   41  C   UNL     1     -20.983 -10.638  -0.034  1.00  0.00     0.053 A 
HETATM   42  C   UNL     1     -21.397  -9.767  -1.252  1.00  0.00    -0.017 A 
HETATM   43  C   UNL     1     -22.663 -10.422  -1.855  1.00  0.00     0.020 C 
HETATM   44  C   UNL     1     -21.793  -8.385  -0.659  1.00  0.00     0.020 C 
BRANCH  40  45
HETATM   45  O   UNL     1     -19.919 -12.758   0.169  1.00  0.00    -0.388 OA
HETATM   46  H   UNL     1     -19.825 -12.917   1.123  1.00  0.00     0.210 HD
ENDBRANCH  40  45
ENDBRANCH  34  35
ENDBRANCH  31  33
ENDBRANCH  29  30
ENDBRANCH  26  28
ENDBRANCH   2  25
TORSDOF 12
BEGIN_RES ARG D 557
REMARK  4 active torsions:
REMARK  status: ('A' for Active; 'I' for Inactive)
REMARK    1  A    between atoms: CA   and  CB  
REMARK    2  A    between atoms: CB   and  CG  
REMARK    3  A    between atoms: CG   and  CD  
REMARK    4  A    between atoms: CD   and  NE  
REMARK       I    between atoms: NE   and  CZ  
REMARK       I    between atoms: CZ   and  NH1 
REMARK       I    between atoms: CZ   and  NH2 
ROOT
ATOM      1  CA  ARG D 557     -26.217   2.705 -17.014  1.00 35.49     0.159 C 
ENDROOT
BRANCH   1   2
ATOM      2  CB  ARG D 557     -26.789   1.319 -17.183  1.00 35.49     0.034 C 
BRANCH   2   3
ATOM      3  CG  ARG D 557     -28.168   1.229 -17.677  1.00 35.49     0.027 C 
BRANCH   3   4
ATOM      4  CD  ARG D 557     -29.090   0.647 -16.675  1.00 35.49     0.116 C 
BRANCH   4   5
ATOM      5  NE  ARG D 557     -29.672  -0.589 -17.128  1.00 35.49    -0.212 N 
ATOM      6  CZ  ARG D 557     -29.065  -1.754 -17.168  1.00 35.49     0.666 C 
ATOM      7  NH1 ARG D 557     -27.807  -1.912 -16.798  1.00 35.49    -0.235 N 
ATOM      8  NH2 ARG D 557     -29.754  -2.776 -17.588  1.00 35.49    -0.235 N 
ATOM      9  HH  ARG D 557     -27.336  -1.254 -16.517  1.00 35.49     0.174 HD
ATOM     10  HH  ARG D 557     -27.465  -2.696 -16.844  1.00 35.49     0.174 HD
ATOM     11  HH  ARG D 557     -30.566  -2.645 -17.813  1.00 35.49     0.174 HD
ATOM     12  HH  ARG D 557     -29.397  -3.544 -17.624  1.00 35.49     0.174 HD
ATOM     13  HE  ARG D 557     -30.457  -0.566 -17.453  1.00 35.49     0.178 HD
ENDBRANCH   4   5
ENDBRANCH   3   4
ENDBRANCH   2   3
ENDBRANCH   1   2
END_RES ARG D 557
BEGIN_RES GLU D 570
REMARK  3 active torsions:
REMARK  status: ('A' for Active; 'I' for Inactive)
REMARK    5  A    between atoms: CA   and  CB  
REMARK    6  A    between atoms: CB   and  CG  
REMARK    7  A    between atoms: CG   and  CD  
ROOT
ATOM     14  CA  GLU D 570     -18.033  -6.348 -13.375  1.00 32.92     0.160 C 
ENDROOT
BRANCH  14  15
ATOM     15  CB  GLU D 570     -19.500  -6.345 -13.794  1.00 32.92     0.043 C 
BRANCH  15  16
ATOM     16  CG  GLU D 570     -19.866  -5.559 -15.000  1.00 32.92     0.100 C 
BRANCH  16  17
ATOM     17  CD  GLU D 570     -21.341  -5.238 -15.070  1.00 32.92     0.185 C 
ATOM     18  OE1 GLU D 570     -21.718  -4.276 -15.766  1.00 32.92    -0.647 OA
ATOM     19  OE2 GLU D 570     -22.125  -5.945 -14.408  1.00 32.92    -0.647 OA
ENDBRANCH  16  17
ENDBRANCH  15  16
ENDBRANCH  14  15
END_RES GLU D 570
ENDMDL
