MODEL 1
REMARK VINA RESULT:      -5.6      0.000      0.000
REMARK  6 active torsions:
REMARK  status: ('A' for Active; 'I' for Inactive)
REMARK    1  A    between atoms: C_2  and  C_3 
REMARK    2  A    between atoms: C_3  and  C_4 
REMARK    3  A    between atoms: C_4  and  N_5 
REMARK       I    between atoms: N_5  and  C_6 
REMARK    4  A    between atoms: C_6  and  O_8 
REMARK    5  A    between atoms: O_8  and  C_9 
REMARK    6  A    between atoms: C_9  and  C_10 
ROOT
HETATM    1  C   UNL     1     -24.284  -7.221 -17.840  1.00  0.00    -0.068 C 
HETATM    2  C   UNL     1     -24.488  -7.294 -19.019  1.00  0.00    -0.028 C 
HETATM    3  I   UNL     1     -24.798  -7.452 -21.064  1.00  0.00     0.018 I 
ENDROOT
BRANCH   1   4
HETATM    4  C   UNL     1     -23.971  -7.166 -16.403  1.00  0.00     0.275 C 
BRANCH   4   5
HETATM    5  O   UNL     1     -25.128  -7.405 -15.588  1.00  0.00    -0.292 OA
BRANCH   5   6
HETATM    6  C   UNL     1     -26.137  -6.521 -15.772  1.00  0.00     0.361 C 
HETATM    7  N   UNL     1     -27.294  -7.202 -16.015  1.00  0.00    -0.337 N 
HETATM    8  H   UNL     1     -27.221  -8.210 -16.022  1.00  0.00     0.164 HD
HETATM    9  O   UNL     1     -26.031  -5.306 -15.744  1.00  0.00    -0.238 OA
BRANCH   7  10
HETATM   10  C   UNL     1     -28.460  -6.559 -16.577  1.00  0.00     0.125 C 
BRANCH  10  11
HETATM   11  C   UNL     1     -28.274  -6.241 -18.064  1.00  0.00     0.019 C 
BRANCH  11  12
HETATM   12  C   UNL     1     -28.984  -4.948 -18.479  1.00  0.00    -0.003 C 
HETATM   13  C   UNL     1     -28.879  -3.873 -17.409  1.00  0.00     0.005 C 
ENDBRANCH  11  12
ENDBRANCH  10  11
ENDBRANCH   7  10
ENDBRANCH   5   6
ENDBRANCH   4   5
ENDBRANCH   1   4
TORSDOF 6
BEGIN_RES ARG D 557
REMARK  4 active torsions:
REMARK  status: ('A' for Active; 'I' for Inactive)
REMARK    1  A    between atoms: CA   and  CB  
REMARK    2  A    between atoms: CB   and  CG  
REMARK    3  A    between atoms: CG   and  CD  
REMARK    4  A    between atoms: CD   and  NE  
REMARK       I    between atoms: NE   and  CZ  
REMARK       I    between atoms: CZ   and  NH1 
REMARK       I    between atoms: CZ   and  NH2 
ROOT
ATOM      1  CA  ARG D 557     -26.217   2.705 -17.014  1.00 35.49     0.159 C 
ENDROOT
BRANCH   1   2
ATOM      2  CB  ARG D 557     -26.789   1.319 -17.183  1.00 35.49     0.034 C 
BRANCH   2   3
ATOM      3  CG  ARG D 557     -25.861   0.195 -17.009  1.00 35.49     0.027 C 
BRANCH   3   4
ATOM      4  CD  ARG D 557     -26.220  -0.660 -15.855  1.00 35.49     0.116 C 
BRANCH   4   5
ATOM      5  NE  ARG D 557     -25.095  -0.907 -14.992  1.00 35.49    -0.212 N 
ATOM      6  CZ  ARG D 557     -24.919  -1.974 -14.245  1.00 35.49     0.666 C 
ATOM      7  NH1 ARG D 557     -25.796  -2.960 -14.200  1.00 35.49    -0.235 N 
ATOM      8  NH2 ARG D 557     -23.828  -2.040 -13.540  1.00 35.49    -0.235 N 
ATOM      9  HH  ARG D 557     -26.520  -2.939 -14.657  1.00 35.49     0.174 HD
ATOM     10  HH  ARG D 557     -25.627  -3.633 -13.697  1.00 35.49     0.174 HD
ATOM     11  HH  ARG D 557     -23.276  -1.392 -13.595  1.00 35.49     0.174 HD
ATOM     12  HH  ARG D 557     -23.677  -2.715 -13.049  1.00 35.49     0.174 HD
ATOM     13  HE  ARG D 557     -24.516  -0.290 -14.904  1.00 35.49     0.178 HD
ENDBRANCH   4   5
ENDBRANCH   3   4
ENDBRANCH   2   3
ENDBRANCH   1   2
END_RES ARG D 557
BEGIN_RES GLU D 570
REMARK  3 active torsions:
REMARK  status: ('A' for Active; 'I' for Inactive)
REMARK    5  A    between atoms: CA   and  CB  
REMARK    6  A    between atoms: CB   and  CG  
REMARK    7  A    between atoms: CG   and  CD  
ROOT
ATOM     14  CA  GLU D 570     -18.033  -6.348 -13.375  1.00 32.92     0.160 C 
ENDROOT
BRANCH  14  15
ATOM     15  CB  GLU D 570     -19.500  -6.345 -13.794  1.00 32.92     0.043 C 
BRANCH  15  16
ATOM     16  CG  GLU D 570     -20.447  -5.555 -12.965  1.00 32.92     0.100 C 
BRANCH  16  17
ATOM     17  CD  GLU D 570     -21.677  -5.120 -13.728  1.00 32.92     0.185 C 
ATOM     18  OE1 GLU D 570     -21.602  -4.972 -14.963  1.00 32.92    -0.647 OA
ATOM     19  OE2 GLU D 570     -22.722  -4.910 -13.082  1.00 32.92    -0.647 OA
ENDBRANCH  16  17
ENDBRANCH  15  16
ENDBRANCH  14  15
END_RES GLU D 570
ENDMDL
MODEL 2
REMARK VINA RESULT:      -5.4      2.906      3.487
REMARK  6 active torsions:
REMARK  status: ('A' for Active; 'I' for Inactive)
REMARK    1  A    between atoms: C_2  and  C_3 
REMARK    2  A    between atoms: C_3  and  C_4 
REMARK    3  A    between atoms: C_4  and  N_5 
REMARK       I    between atoms: N_5  and  C_6 
REMARK    4  A    between atoms: C_6  and  O_8 
REMARK    5  A    between atoms: O_8  and  C_9 
REMARK    6  A    between atoms: C_9  and  C_10 
ROOT
HETATM    1  C   UNL     1     -23.214  -5.459 -13.612  1.00  0.00    -0.068 C 
HETATM    2  C   UNL     1     -22.632  -4.819 -12.782  1.00  0.00    -0.028 C 
HETATM    3  I   UNL     1     -21.581  -3.745 -11.352  1.00  0.00     0.018 I 
ENDROOT
BRANCH   1   4
HETATM    4  C   UNL     1     -23.872  -6.289 -14.634  1.00  0.00     0.275 C 
BRANCH   4   5
HETATM    5  O   UNL     1     -24.879  -5.562 -15.354  1.00  0.00    -0.292 OA
BRANCH   5   6
HETATM    6  C   UNL     1     -25.934  -6.311 -15.755  1.00  0.00     0.361 C 
HETATM    7  N   UNL     1     -26.719  -5.572 -16.590  1.00  0.00    -0.337 N 
HETATM    8  H   UNL     1     -26.409  -4.627 -16.770  1.00  0.00     0.164 HD
HETATM    9  O   UNL     1     -26.161  -7.460 -15.411  1.00  0.00    -0.238 OA
BRANCH   7  10
HETATM   10  C   UNL     1     -28.073  -5.960 -16.913  1.00  0.00     0.125 C 
BRANCH  10  11
HETATM   11  C   UNL     1     -28.488  -5.473 -18.305  1.00  0.00     0.019 C 
BRANCH  11  12
HETATM   12  C   UNL     1     -29.636  -4.459 -18.253  1.00  0.00    -0.003 C 
HETATM   13  C   UNL     1     -29.276  -3.236 -17.425  1.00  0.00     0.005 C 
ENDBRANCH  11  12
ENDBRANCH  10  11
ENDBRANCH   7  10
ENDBRANCH   5   6
ENDBRANCH   4   5
ENDBRANCH   1   4
TORSDOF 6
BEGIN_RES ARG D 557
REMARK  4 active torsions:
REMARK  status: ('A' for Active; 'I' for Inactive)
REMARK    1  A    between atoms: CA   and  CB  
REMARK    2  A    between atoms: CB   and  CG  
REMARK    3  A    between atoms: CG   and  CD  
REMARK    4  A    between atoms: CD   and  NE  
REMARK       I    between atoms: NE   and  CZ  
REMARK       I    between atoms: CZ   and  NH1 
REMARK       I    between atoms: CZ   and  NH2 
ROOT
ATOM      1  CA  ARG D 557     -26.217   2.705 -17.014  1.00 35.49     0.159 C 
ENDROOT
BRANCH   1   2
ATOM      2  CB  ARG D 557     -26.789   1.319 -17.183  1.00 35.49     0.034 C 
BRANCH   2   3
ATOM      3  CG  ARG D 557     -25.832   0.206 -17.189  1.00 35.49     0.027 C 
BRANCH   3   4
ATOM      4  CD  ARG D 557     -24.738   0.397 -16.211  1.00 35.49     0.116 C 
BRANCH   4   5
ATOM      5  NE  ARG D 557     -24.911  -0.418 -15.037  1.00 35.49    -0.212 N 
ATOM      6  CZ  ARG D 557     -24.120  -1.397 -14.659  1.00 35.49     0.666 C 
ATOM      7  NH1 ARG D 557     -23.053  -1.755 -15.350  1.00 35.49    -0.235 N 
ATOM      8  NH2 ARG D 557     -24.418  -2.017 -13.554  1.00 35.49    -0.235 N 
ATOM      9  HH  ARG D 557     -22.837  -1.360 -16.079  1.00 35.49     0.174 HD
ATOM     10  HH  ARG D 557     -22.573  -2.399 -15.053  1.00 35.49     0.174 HD
ATOM     11  HH  ARG D 557     -25.108  -1.759 -13.124  1.00 35.49     0.174 HD
ATOM     12  HH  ARG D 557     -23.929  -2.651 -13.275  1.00 35.49     0.174 HD
ATOM     13  HE  ARG D 557     -25.613  -0.304 -14.572  1.00 35.49     0.178 HD
ENDBRANCH   4   5
ENDBRANCH   3   4
ENDBRANCH   2   3
ENDBRANCH   1   2
END_RES ARG D 557
BEGIN_RES GLU D 570
REMARK  3 active torsions:
REMARK  status: ('A' for Active; 'I' for Inactive)
REMARK    5  A    between atoms: CA   and  CB  
REMARK    6  A    between atoms: CB   and  CG  
REMARK    7  A    between atoms: CG   and  CD  
ROOT
ATOM     14  CA  GLU D 570     -18.033  -6.348 -13.375  1.00 32.92     0.160 C 
ENDROOT
BRANCH  14  15
ATOM     15  CB  GLU D 570     -19.500  -6.345 -13.794  1.00 32.92     0.043 C 
BRANCH  15  16
ATOM     16  CG  GLU D 570     -19.802  -6.098 -15.228  1.00 32.92     0.100 C 
BRANCH  16  17
ATOM     17  CD  GLU D 570     -20.599  -7.213 -15.863  1.00 32.92     0.185 C 
ATOM     18  OE1 GLU D 570     -21.197  -6.995 -16.934  1.00 32.92    -0.647 OA
ATOM     19  OE2 GLU D 570     -20.639  -8.312 -15.274  1.00 32.92    -0.647 OA
ENDBRANCH  16  17
ENDBRANCH  15  16
ENDBRANCH  14  15
END_RES GLU D 570
ENDMDL
MODEL 3
REMARK VINA RESULT:      -5.2      3.031      3.594
REMARK  6 active torsions:
REMARK  status: ('A' for Active; 'I' for Inactive)
REMARK    1  A    between atoms: C_2  and  C_3 
REMARK    2  A    between atoms: C_3  and  C_4 
REMARK    3  A    between atoms: C_4  and  N_5 
REMARK       I    between atoms: N_5  and  C_6 
REMARK    4  A    between atoms: C_6  and  O_8 
REMARK    5  A    between atoms: O_8  and  C_9 
REMARK    6  A    between atoms: C_9  and  C_10 
ROOT
HETATM    1  C   UNL     1     -23.610  -5.471 -14.095  1.00  0.00    -0.068 C 
HETATM    2  C   UNL     1     -23.099  -4.820 -13.228  1.00  0.00    -0.028 C 
HETATM    3  I   UNL     1     -22.202  -3.740 -11.701  1.00  0.00     0.018 I 
ENDROOT
BRANCH   1   4
HETATM    4  C   UNL     1     -24.224  -6.329 -15.121  1.00  0.00     0.275 C 
BRANCH   4   5
HETATM    5  O   UNL     1     -25.349  -5.698 -15.752  1.00  0.00    -0.292 OA
BRANCH   5   6
HETATM    6  C   UNL     1     -26.359  -6.540 -16.073  1.00  0.00     0.361 C 
HETATM    7  N   UNL     1     -26.826  -6.230 -17.316  1.00  0.00    -0.337 N 
HETATM    8  H   UNL     1     -26.370  -5.458 -17.781  1.00  0.00     0.164 HD
HETATM    9  O   UNL     1     -26.800  -7.426 -15.357  1.00  0.00    -0.238 OA
BRANCH   7  10
HETATM   10  C   UNL     1     -28.100  -6.713 -17.800  1.00  0.00     0.125 C 
BRANCH  10  11
HETATM   11  C   UNL     1     -28.970  -5.575 -18.344  1.00  0.00     0.019 C 
BRANCH  11  12
HETATM   12  C   UNL     1     -30.341  -5.509 -17.662  1.00  0.00    -0.003 C 
HETATM   13  C   UNL     1     -30.224  -5.546 -16.146  1.00  0.00     0.005 C 
ENDBRANCH  11  12
ENDBRANCH  10  11
ENDBRANCH   7  10
ENDBRANCH   5   6
ENDBRANCH   4   5
ENDBRANCH   1   4
TORSDOF 6
BEGIN_RES ARG D 557
REMARK  4 active torsions:
REMARK  status: ('A' for Active; 'I' for Inactive)
REMARK    1  A    between atoms: CA   and  CB  
REMARK    2  A    between atoms: CB   and  CG  
REMARK    3  A    between atoms: CG   and  CD  
REMARK    4  A    between atoms: CD   and  NE  
REMARK       I    between atoms: NE   and  CZ  
REMARK       I    between atoms: CZ   and  NH1 
REMARK       I    between atoms: CZ   and  NH2 
ROOT
ATOM      1  CA  ARG D 557     -26.217   2.705 -17.014  1.00 35.49     0.159 C 
ENDROOT
BRANCH   1   2
ATOM      2  CB  ARG D 557     -26.789   1.319 -17.183  1.00 35.49     0.034 C 
BRANCH   2   3
ATOM      3  CG  ARG D 557     -28.210   1.147 -16.858  1.00 35.49     0.027 C 
BRANCH   3   4
ATOM      4  CD  ARG D 557     -28.539  -0.249 -16.488  1.00 35.49     0.116 C 
BRANCH   4   5
ATOM      5  NE  ARG D 557     -27.454  -0.898 -15.799  1.00 35.49    -0.212 N 
ATOM      6  CZ  ARG D 557     -27.148  -2.173 -15.878  1.00 35.49     0.666 C 
ATOM      7  NH1 ARG D 557     -27.838  -3.024 -16.614  1.00 35.49    -0.235 N 
ATOM      8  NH2 ARG D 557     -26.116  -2.585 -15.200  1.00 35.49    -0.235 N 
ATOM      9  HH  ARG D 557     -28.519  -2.774 -17.070  1.00 35.49     0.174 HD
ATOM     10  HH  ARG D 557     -27.590  -3.844 -16.628  1.00 35.49     0.174 HD
ATOM     11  HH  ARG D 557     -25.685  -2.012 -14.739  1.00 35.49     0.174 HD
ATOM     12  HH  ARG D 557     -25.885  -3.401 -15.228  1.00 35.49     0.174 HD
ATOM     13  HE  ARG D 557     -27.001  -0.438 -15.245  1.00 35.49     0.178 HD
ENDBRANCH   4   5
ENDBRANCH   3   4
ENDBRANCH   2   3
ENDBRANCH   1   2
END_RES ARG D 557
BEGIN_RES GLU D 570
REMARK  3 active torsions:
REMARK  status: ('A' for Active; 'I' for Inactive)
REMARK    5  A    between atoms: CA   and  CB  
REMARK    6  A    between atoms: CB   and  CG  
REMARK    7  A    between atoms: CG   and  CD  
ROOT
ATOM     14  CA  GLU D 570     -18.033  -6.348 -13.375  1.00 32.92     0.160 C 
ENDROOT
BRANCH  14  15
ATOM     15  CB  GLU D 570     -19.500  -6.345 -13.794  1.00 32.92     0.043 C 
BRANCH  15  16
ATOM     16  CG  GLU D 570     -20.086  -7.634 -14.245  1.00 32.92     0.100 C 
BRANCH  16  17
ATOM     17  CD  GLU D 570     -20.720  -7.545 -15.614  1.00 32.92     0.185 C 
ATOM     18  OE1 GLU D 570     -21.206  -8.574 -16.123  1.00 32.92    -0.647 OA
ATOM     19  OE2 GLU D 570     -20.717  -6.439 -16.189  1.00 32.92    -0.647 OA
ENDBRANCH  16  17
ENDBRANCH  15  16
ENDBRANCH  14  15
END_RES GLU D 570
ENDMDL
MODEL 4
REMARK VINA RESULT:      -5.2      3.406      4.686
REMARK  6 active torsions:
REMARK  status: ('A' for Active; 'I' for Inactive)
REMARK    1  A    between atoms: C_2  and  C_3 
REMARK    2  A    between atoms: C_3  and  C_4 
REMARK    3  A    between atoms: C_4  and  N_5 
REMARK       I    between atoms: N_5  and  C_6 
REMARK    4  A    between atoms: C_6  and  O_8 
REMARK    5  A    between atoms: O_8  and  C_9 
REMARK    6  A    between atoms: C_9  and  C_10 
ROOT
HETATM    1  C   UNL     1     -24.421  -6.188 -15.041  1.00  0.00    -0.068 C 
HETATM    2  C   UNL     1     -23.825  -5.532 -14.234  1.00  0.00    -0.028 C 
HETATM    3  I   UNL     1     -22.763  -4.439 -12.826  1.00  0.00     0.018 I 
ENDROOT
BRANCH   1   4
HETATM    4  C   UNL     1     -25.115  -7.052 -16.009  1.00  0.00     0.275 C 
BRANCH   4   5
HETATM    5  O   UNL     1     -24.201  -7.705 -16.903  1.00  0.00    -0.292 OA
BRANCH   5   6
HETATM    6  C   UNL     1     -24.027  -7.076 -18.089  1.00  0.00     0.361 C 
HETATM    7  N   UNL     1     -25.216  -7.034 -18.756  1.00  0.00    -0.337 N 
HETATM    8  H   UNL     1     -26.003  -7.459 -18.285  1.00  0.00     0.164 HD
HETATM    9  O   UNL     1     -22.971  -6.631 -18.509  1.00  0.00    -0.238 OA
BRANCH   7  10
HETATM   10  C   UNL     1     -25.295  -6.736 -20.168  1.00  0.00     0.125 C 
BRANCH  10  11
HETATM   11  C   UNL     1     -25.159  -8.000 -21.024  1.00  0.00     0.019 C 
BRANCH  11  12
HETATM   12  C   UNL     1     -24.020  -7.896 -22.044  1.00  0.00    -0.003 C 
HETATM   13  C   UNL     1     -22.742  -8.546 -21.536  1.00  0.00     0.005 C 
ENDBRANCH  11  12
ENDBRANCH  10  11
ENDBRANCH   7  10
ENDBRANCH   5   6
ENDBRANCH   4   5
ENDBRANCH   1   4
TORSDOF 6
BEGIN_RES ARG D 557
REMARK  4 active torsions:
REMARK  status: ('A' for Active; 'I' for Inactive)
REMARK    1  A    between atoms: CA   and  CB  
REMARK    2  A    between atoms: CB   and  CG  
REMARK    3  A    between atoms: CG   and  CD  
REMARK    4  A    between atoms: CD   and  NE  
REMARK       I    between atoms: NE   and  CZ  
REMARK       I    between atoms: CZ   and  NH1 
REMARK       I    between atoms: CZ   and  NH2 
ROOT
ATOM      1  CA  ARG D 557     -26.217   2.705 -17.014  1.00 35.49     0.159 C 
ENDROOT
BRANCH   1   2
ATOM      2  CB  ARG D 557     -26.789   1.319 -17.183  1.00 35.49     0.034 C 
BRANCH   2   3
ATOM      3  CG  ARG D 557     -28.152   1.101 -16.682  1.00 35.49     0.027 C 
BRANCH   3   4
ATOM      4  CD  ARG D 557     -28.790  -0.091 -17.285  1.00 35.49     0.116 C 
BRANCH   4   5
ATOM      5  NE  ARG D 557     -28.175  -1.316 -16.847  1.00 35.49    -0.212 N 
ATOM      6  CZ  ARG D 557     -28.654  -2.526 -17.033  1.00 35.49     0.666 C 
ATOM      7  NH1 ARG D 557     -29.799  -2.748 -17.651  1.00 35.49    -0.235 N 
ATOM      8  NH2 ARG D 557     -27.950  -3.525 -16.586  1.00 35.49    -0.235 N 
ATOM      9  HH  ARG D 557     -30.277  -2.105 -17.955  1.00 35.49     0.174 HD
ATOM     10  HH  ARG D 557     -30.060  -3.558 -17.746  1.00 35.49     0.174 HD
ATOM     11  HH  ARG D 557     -27.211  -3.352 -16.198  1.00 35.49     0.174 HD
ATOM     12  HH  ARG D 557     -28.225  -4.321 -16.691  1.00 35.49     0.174 HD
ATOM     13  HE  ARG D 557     -27.469  -1.262 -16.376  1.00 35.49     0.178 HD
ENDBRANCH   4   5
ENDBRANCH   3   4
ENDBRANCH   2   3
ENDBRANCH   1   2
END_RES ARG D 557
BEGIN_RES GLU D 570
REMARK  3 active torsions:
REMARK  status: ('A' for Active; 'I' for Inactive)
REMARK    5  A    between atoms: CA   and  CB  
REMARK    6  A    between atoms: CB   and  CG  
REMARK    7  A    between atoms: CG   and  CD  
ROOT
ATOM     14  CA  GLU D 570     -18.033  -6.348 -13.375  1.00 32.92     0.160 C 
ENDROOT
BRANCH  14  15
ATOM     15  CB  GLU D 570     -19.500  -6.345 -13.794  1.00 32.92     0.043 C 
BRANCH  15  16
ATOM     16  CG  GLU D 570     -20.087  -7.634 -14.242  1.00 32.92     0.100 C 
BRANCH  16  17
ATOM     17  CD  GLU D 570     -20.667  -7.565 -15.635  1.00 32.92     0.185 C 
ATOM     18  OE1 GLU D 570     -20.952  -6.452 -16.118  1.00 32.92    -0.647 OA
ATOM     19  OE2 GLU D 570     -20.855  -8.637 -16.244  1.00 32.92    -0.647 OA
ENDBRANCH  16  17
ENDBRANCH  15  16
ENDBRANCH  14  15
END_RES GLU D 570
ENDMDL
MODEL 5
REMARK VINA RESULT:      -5.0      4.957      7.246
REMARK  6 active torsions:
REMARK  status: ('A' for Active; 'I' for Inactive)
REMARK    1  A    between atoms: C_2  and  C_3 
REMARK    2  A    between atoms: C_3  and  C_4 
REMARK    3  A    between atoms: C_4  and  N_5 
REMARK       I    between atoms: N_5  and  C_6 
REMARK    4  A    between atoms: C_6  and  O_8 
REMARK    5  A    between atoms: O_8  and  C_9 
REMARK    6  A    between atoms: C_9  and  C_10 
ROOT
HETATM    1  C   UNL     1     -21.960  -4.660  -7.781  1.00  0.00    -0.068 C 
HETATM    2  C   UNL     1     -21.559  -5.374  -6.905  1.00  0.00    -0.028 C 
HETATM    3  I   UNL     1     -20.912  -6.636  -5.391  1.00  0.00     0.018 I 
ENDROOT
BRANCH   1   4
HETATM    4  C   UNL     1     -22.516  -3.817  -8.851  1.00  0.00     0.275 C 
BRANCH   4   5
HETATM    5  O   UNL     1     -23.923  -3.588  -8.684  1.00  0.00    -0.292 OA
BRANCH   5   6
HETATM    6  C   UNL     1     -24.605  -3.411  -9.840  1.00  0.00     0.361 C 
HETATM    7  N   UNL     1     -23.743  -3.510 -10.891  1.00  0.00    -0.337 N 
HETATM    8  H   UNL     1     -22.777  -3.689 -10.657  1.00  0.00     0.164 HD
HETATM    9  O   UNL     1     -25.801  -3.180  -9.931  1.00  0.00    -0.238 OA
BRANCH   7  10
HETATM   10  C   UNL     1     -24.089  -3.042 -12.215  1.00  0.00     0.125 C 
BRANCH  10  11
HETATM   11  C   UNL     1     -23.119  -3.570 -13.277  1.00  0.00     0.019 C 
BRANCH  11  12
HETATM   12  C   UNL     1     -22.887  -5.080 -13.159  1.00  0.00    -0.003 C 
HETATM   13  C   UNL     1     -23.699  -5.861 -14.179  1.00  0.00     0.005 C 
ENDBRANCH  11  12
ENDBRANCH  10  11
ENDBRANCH   7  10
ENDBRANCH   5   6
ENDBRANCH   4   5
ENDBRANCH   1   4
TORSDOF 6
BEGIN_RES ARG D 557
REMARK  4 active torsions:
REMARK  status: ('A' for Active; 'I' for Inactive)
REMARK    1  A    between atoms: CA   and  CB  
REMARK    2  A    between atoms: CB   and  CG  
REMARK    3  A    between atoms: CG   and  CD  
REMARK    4  A    between atoms: CD   and  NE  
REMARK       I    between atoms: NE   and  CZ  
REMARK       I    between atoms: CZ   and  NH1 
REMARK       I    between atoms: CZ   and  NH2 
ROOT
ATOM      1  CA  ARG D 557     -26.217   2.705 -17.014  1.00 35.49     0.159 C 
ENDROOT
BRANCH   1   2
ATOM      2  CB  ARG D 557     -26.789   1.319 -17.183  1.00 35.49     0.034 C 
BRANCH   2   3
ATOM      3  CG  ARG D 557     -28.208   1.144 -16.848  1.00 35.49     0.027 C 
BRANCH   3   4
ATOM      4  CD  ARG D 557     -28.722  -0.186 -17.246  1.00 35.49     0.116 C 
BRANCH   4   5
ATOM      5  NE  ARG D 557     -27.980  -1.258 -16.636  1.00 35.49    -0.212 N 
ATOM      6  CZ  ARG D 557     -28.235  -2.541 -16.768  1.00 35.49     0.666 C 
ATOM      7  NH1 ARG D 557     -29.244  -2.993 -17.490  1.00 35.49    -0.235 N 
ATOM      8  NH2 ARG D 557     -27.444  -3.376 -16.159  1.00 35.49    -0.235 N 
ATOM      9  HH  ARG D 557     -29.775  -2.461 -17.901  1.00 35.49     0.174 HD
ATOM     10  HH  ARG D 557     -29.359  -3.840 -17.542  1.00 35.49     0.174 HD
ATOM     11  HH  ARG D 557     -26.797  -3.056 -15.705  1.00 35.49     0.174 HD
ATOM     12  HH  ARG D 557     -27.575  -4.211 -16.224  1.00 35.49     0.174 HD
ATOM     13  HE  ARG D 557     -27.357  -1.055 -16.094  1.00 35.49     0.178 HD
ENDBRANCH   4   5
ENDBRANCH   3   4
ENDBRANCH   2   3
ENDBRANCH   1   2
END_RES ARG D 557
BEGIN_RES GLU D 570
REMARK  3 active torsions:
REMARK  status: ('A' for Active; 'I' for Inactive)
REMARK    5  A    between atoms: CA   and  CB  
REMARK    6  A    between atoms: CB   and  CG  
REMARK    7  A    between atoms: CG   and  CD  
ROOT
ATOM     14  CA  GLU D 570     -18.033  -6.348 -13.375  1.00 32.92     0.160 C 
ENDROOT
BRANCH  14  15
ATOM     15  CB  GLU D 570     -19.500  -6.345 -13.794  1.00 32.92     0.043 C 
BRANCH  15  16
ATOM     16  CG  GLU D 570     -20.093  -7.639 -14.218  1.00 32.92     0.100 C 
BRANCH  16  17
ATOM     17  CD  GLU D 570     -20.709  -7.582 -15.597  1.00 32.92     0.185 C 
ATOM     18  OE1 GLU D 570     -21.164  -8.627 -16.100  1.00 32.92    -0.647 OA
ATOM     19  OE2 GLU D 570     -20.722  -6.483 -16.186  1.00 32.92    -0.647 OA
ENDBRANCH  16  17
ENDBRANCH  15  16
ENDBRANCH  14  15
END_RES GLU D 570
ENDMDL
MODEL 6
REMARK VINA RESULT:      -5.0      6.245      8.970
REMARK  6 active torsions:
REMARK  status: ('A' for Active; 'I' for Inactive)
REMARK    1  A    between atoms: C_2  and  C_3 
REMARK    2  A    between atoms: C_3  and  C_4 
REMARK    3  A    between atoms: C_4  and  N_5 
REMARK       I    between atoms: N_5  and  C_6 
REMARK    4  A    between atoms: C_6  and  O_8 
REMARK    5  A    between atoms: O_8  and  C_9 
REMARK    6  A    between atoms: C_9  and  C_10 
ROOT
HETATM    1  C   UNL     1     -21.549  -6.246  -4.297  1.00  0.00    -0.068 C 
HETATM    2  C   UNL     1     -21.711  -6.597  -3.162  1.00  0.00    -0.028 C 
HETATM    3  I   UNL     1     -22.033  -7.171  -1.195  1.00  0.00     0.018 I 
ENDROOT
BRANCH   1   4
HETATM    4  C   UNL     1     -21.401  -5.765  -5.680  1.00  0.00     0.275 C 
BRANCH   4   5
HETATM    5  O   UNL     1     -22.609  -5.169  -6.177  1.00  0.00    -0.292 OA
BRANCH   5   6
HETATM    6  C   UNL     1     -22.424  -4.277  -7.179  1.00  0.00     0.361 C 
HETATM    7  N   UNL     1     -23.547  -4.229  -7.951  1.00  0.00    -0.337 N 
HETATM    8  H   UNL     1     -24.304  -4.836  -7.671  1.00  0.00     0.164 HD
HETATM    9  O   UNL     1     -21.408  -3.630  -7.376  1.00  0.00    -0.238 OA
BRANCH   7  10
HETATM   10  C   UNL     1     -23.546  -3.638  -9.271  1.00  0.00     0.125 C 
BRANCH  10  11
HETATM   11  C   UNL     1     -22.930  -4.576 -10.314  1.00  0.00     0.019 C 
BRANCH  11  12
HETATM   12  C   UNL     1     -21.830  -3.896 -11.135  1.00  0.00    -0.003 C 
HETATM   13  C   UNL     1     -20.444  -4.379 -10.738  1.00  0.00     0.005 C 
ENDBRANCH  11  12
ENDBRANCH  10  11
ENDBRANCH   7  10
ENDBRANCH   5   6
ENDBRANCH   4   5
ENDBRANCH   1   4
TORSDOF 6
BEGIN_RES ARG D 557
REMARK  4 active torsions:
REMARK  status: ('A' for Active; 'I' for Inactive)
REMARK    1  A    between atoms: CA   and  CB  
REMARK    2  A    between atoms: CB   and  CG  
REMARK    3  A    between atoms: CG   and  CD  
REMARK    4  A    between atoms: CD   and  NE  
REMARK       I    between atoms: NE   and  CZ  
REMARK       I    between atoms: CZ   and  NH1 
REMARK       I    between atoms: CZ   and  NH2 
ROOT
ATOM      1  CA  ARG D 557     -26.217   2.705 -17.014  1.00 35.49     0.159 C 
ENDROOT
BRANCH   1   2
ATOM      2  CB  ARG D 557     -26.789   1.319 -17.183  1.00 35.49     0.034 C 
BRANCH   2   3
ATOM      3  CG  ARG D 557     -25.861   0.195 -17.009  1.00 35.49     0.027 C 
BRANCH   3   4
ATOM      4  CD  ARG D 557     -26.278  -0.718 -15.921  1.00 35.49     0.116 C 
BRANCH   4   5
ATOM      5  NE  ARG D 557     -25.233  -0.922 -14.953  1.00 35.49    -0.212 N 
ATOM      6  CZ  ARG D 557     -24.993  -2.040 -14.305  1.00 35.49     0.666 C 
ATOM      7  NH1 ARG D 557     -25.723  -3.127 -14.472  1.00 35.49    -0.235 N 
ATOM      8  NH2 ARG D 557     -23.989  -2.050 -13.477  1.00 35.49    -0.235 N 
ATOM      9  HH  ARG D 557     -26.388  -3.143 -15.013  1.00 35.49     0.174 HD
ATOM     10  HH  ARG D 557     -25.518  -3.828 -14.024  1.00 35.49     0.174 HD
ATOM     11  HH  ARG D 557     -23.531  -1.336 -13.395  1.00 35.49     0.174 HD
ATOM     12  HH  ARG D 557     -23.801  -2.754 -13.044  1.00 35.49     0.174 HD
ATOM     13  HE  ARG D 557     -24.760  -0.251 -14.730  1.00 35.49     0.178 HD
ENDBRANCH   4   5
ENDBRANCH   3   4
ENDBRANCH   2   3
ENDBRANCH   1   2
END_RES ARG D 557
BEGIN_RES GLU D 570
REMARK  3 active torsions:
REMARK  status: ('A' for Active; 'I' for Inactive)
REMARK    5  A    between atoms: CA   and  CB  
REMARK    6  A    between atoms: CB   and  CG  
REMARK    7  A    between atoms: CG   and  CD  
ROOT
ATOM     14  CA  GLU D 570     -18.033  -6.348 -13.375  1.00 32.92     0.160 C 
ENDROOT
BRANCH  14  15
ATOM     15  CB  GLU D 570     -19.500  -6.345 -13.794  1.00 32.92     0.043 C 
BRANCH  15  16
ATOM     16  CG  GLU D 570     -19.809  -5.983 -15.201  1.00 32.92     0.100 C 
BRANCH  16  17
ATOM     17  CD  GLU D 570     -21.285  -5.764 -15.443  1.00 32.92     0.185 C 
ATOM     18  OE1 GLU D 570     -21.676  -4.644 -15.823  1.00 32.92    -0.647 OA
ATOM     19  OE2 GLU D 570     -22.059  -6.719 -15.234  1.00 32.92    -0.647 OA
ENDBRANCH  16  17
ENDBRANCH  15  16
ENDBRANCH  14  15
END_RES GLU D 570
ENDMDL
MODEL 7
REMARK VINA RESULT:      -4.8      6.904     10.255
REMARK  6 active torsions:
REMARK  status: ('A' for Active; 'I' for Inactive)
REMARK    1  A    between atoms: C_2  and  C_3 
REMARK    2  A    between atoms: C_3  and  C_4 
REMARK    3  A    between atoms: C_4  and  N_5 
REMARK       I    between atoms: N_5  and  C_6 
REMARK    4  A    between atoms: C_6  and  O_8 
REMARK    5  A    between atoms: O_8  and  C_9 
REMARK    6  A    between atoms: C_9  and  C_10 
ROOT
HETATM    1  C   UNL     1     -20.991  -4.328  -8.336  1.00  0.00    -0.068 C 
HETATM    2  C   UNL     1     -22.054  -4.156  -8.863  1.00  0.00    -0.028 C 
HETATM    3  I   UNL     1     -23.918  -3.882  -9.732  1.00  0.00     0.018 I 
ENDROOT
BRANCH   1   4
HETATM    4  C   UNL     1     -19.720  -4.574  -7.637  1.00  0.00     0.275 C 
BRANCH   4   5
HETATM    5  O   UNL     1     -19.897  -4.690  -6.217  1.00  0.00    -0.292 OA
BRANCH   5   6
HETATM    6  C   UNL     1     -20.422  -5.870  -5.811  1.00  0.00     0.361 C 
HETATM    7  N   UNL     1     -21.342  -5.640  -4.831  1.00  0.00    -0.337 N 
HETATM    8  H   UNL     1     -21.482  -4.673  -4.572  1.00  0.00     0.164 HD
HETATM    9  O   UNL     1     -20.109  -6.970  -6.237  1.00  0.00    -0.238 OA
BRANCH   7  10
HETATM   10  C   UNL     1     -21.825  -6.695  -3.968  1.00  0.00     0.125 C 
BRANCH  10  11
HETATM   11  C   UNL     1     -21.881  -6.251  -2.503  1.00  0.00     0.019 C 
BRANCH  11  12
HETATM   12  C   UNL     1     -21.548  -7.389  -1.533  1.00  0.00    -0.003 C 
HETATM   13  C   UNL     1     -22.509  -7.432  -0.356  1.00  0.00     0.005 C 
ENDBRANCH  11  12
ENDBRANCH  10  11
ENDBRANCH   7  10
ENDBRANCH   5   6
ENDBRANCH   4   5
ENDBRANCH   1   4
TORSDOF 6
BEGIN_RES ARG D 557
REMARK  4 active torsions:
REMARK  status: ('A' for Active; 'I' for Inactive)
REMARK    1  A    between atoms: CA   and  CB  
REMARK    2  A    between atoms: CB   and  CG  
REMARK    3  A    between atoms: CG   and  CD  
REMARK    4  A    between atoms: CD   and  NE  
REMARK       I    between atoms: NE   and  CZ  
REMARK       I    between atoms: CZ   and  NH1 
REMARK       I    between atoms: CZ   and  NH2 
ROOT
ATOM      1  CA  ARG D 557     -26.217   2.705 -17.014  1.00 35.49     0.159 C 
ENDROOT
BRANCH   1   2
ATOM      2  CB  ARG D 557     -26.789   1.319 -17.183  1.00 35.49     0.034 C 
BRANCH   2   3
ATOM      3  CG  ARG D 557     -28.232   1.226 -17.439  1.00 35.49     0.027 C 
BRANCH   3   4
ATOM      4  CD  ARG D 557     -28.912   0.300 -16.505  1.00 35.49     0.116 C 
BRANCH   4   5
ATOM      5  NE  ARG D 557     -29.300  -0.928 -17.146  1.00 35.49    -0.212 N 
ATOM      6  CZ  ARG D 557     -28.669  -2.077 -17.050  1.00 35.49     0.666 C 
ATOM      7  NH1 ARG D 557     -27.565  -2.223 -16.341  1.00 35.49    -0.235 N 
ATOM      8  NH2 ARG D 557     -29.177  -3.095 -17.683  1.00 35.49    -0.235 N 
ATOM      9  HH  ARG D 557     -27.215  -1.567 -15.915  1.00 35.49     0.174 HD
ATOM     10  HH  ARG D 557     -27.199  -2.997 -16.313  1.00 35.49     0.174 HD
ATOM     11  HH  ARG D 557     -29.895  -2.973 -18.127  1.00 35.49     0.174 HD
ATOM     12  HH  ARG D 557     -28.800  -3.853 -17.642  1.00 35.49     0.174 HD
ATOM     13  HE  ARG D 557     -29.961  -0.908 -17.681  1.00 35.49     0.178 HD
ENDBRANCH   4   5
ENDBRANCH   3   4
ENDBRANCH   2   3
ENDBRANCH   1   2
END_RES ARG D 557
BEGIN_RES GLU D 570
REMARK  3 active torsions:
REMARK  status: ('A' for Active; 'I' for Inactive)
REMARK    5  A    between atoms: CA   and  CB  
REMARK    6  A    between atoms: CB   and  CG  
REMARK    7  A    between atoms: CG   and  CD  
ROOT
ATOM     14  CA  GLU D 570     -18.033  -6.348 -13.375  1.00 32.92     0.160 C 
ENDROOT
BRANCH  14  15
ATOM     15  CB  GLU D 570     -19.500  -6.345 -13.794  1.00 32.92     0.043 C 
BRANCH  15  16
ATOM     16  CG  GLU D 570     -20.445  -5.547 -12.971  1.00 32.92     0.100 C 
BRANCH  16  17
ATOM     17  CD  GLU D 570     -21.741  -5.247 -13.687  1.00 32.92     0.185 C 
ATOM     18  OE1 GLU D 570     -22.095  -5.979 -14.631  1.00 32.92    -0.647 OA
ATOM     19  OE2 GLU D 570     -22.402  -4.258 -13.311  1.00 32.92    -0.647 OA
ENDBRANCH  16  17
ENDBRANCH  15  16
ENDBRANCH  14  15
END_RES GLU D 570
ENDMDL
MODEL 8
REMARK VINA RESULT:      -4.8      4.747      6.694
REMARK  6 active torsions:
REMARK  status: ('A' for Active; 'I' for Inactive)
REMARK    1  A    between atoms: C_2  and  C_3 
REMARK    2  A    between atoms: C_3  and  C_4 
REMARK    3  A    between atoms: C_4  and  N_5 
REMARK       I    between atoms: N_5  and  C_6 
REMARK    4  A    between atoms: C_6  and  O_8 
REMARK    5  A    between atoms: O_8  and  C_9 
REMARK    6  A    between atoms: C_9  and  C_10 
ROOT
HETATM    1  C   UNL     1     -21.733  -4.766  -7.968  1.00  0.00    -0.068 C 
HETATM    2  C   UNL     1     -21.374  -5.525  -7.112  1.00  0.00    -0.028 C 
HETATM    3  I   UNL     1     -20.793  -6.821  -5.599  1.00  0.00     0.018 I 
ENDROOT
BRANCH   1   4
HETATM    4  C   UNL     1     -22.223  -3.810  -8.973  1.00  0.00     0.275 C 
BRANCH   4   5
HETATM    5  O   UNL     1     -23.619  -3.992  -9.257  1.00  0.00    -0.292 OA
BRANCH   5   6
HETATM    6  C   UNL     1     -23.934  -3.954 -10.573  1.00  0.00     0.361 C 
HETATM    7  N   UNL     1     -23.033  -4.700 -11.274  1.00  0.00    -0.337 N 
HETATM    8  H   UNL     1     -22.304  -5.141 -10.730  1.00  0.00     0.164 HD
HETATM    9  O   UNL     1     -24.866  -3.337 -11.062  1.00  0.00    -0.238 OA
BRANCH   7  10
HETATM   10  C   UNL     1     -22.895  -4.588 -12.709  1.00  0.00     0.125 C 
BRANCH  10  11
HETATM   11  C   UNL     1     -23.366  -5.857 -13.426  1.00  0.00     0.019 C 
BRANCH  11  12
HETATM   12  C   UNL     1     -24.121  -5.550 -14.724  1.00  0.00    -0.003 C 
HETATM   13  C   UNL     1     -24.372  -6.804 -15.546  1.00  0.00     0.005 C 
ENDBRANCH  11  12
ENDBRANCH  10  11
ENDBRANCH   7  10
ENDBRANCH   5   6
ENDBRANCH   4   5
ENDBRANCH   1   4
TORSDOF 6
BEGIN_RES ARG D 557
REMARK  4 active torsions:
REMARK  status: ('A' for Active; 'I' for Inactive)
REMARK    1  A    between atoms: CA   and  CB  
REMARK    2  A    between atoms: CB   and  CG  
REMARK    3  A    between atoms: CG   and  CD  
REMARK    4  A    between atoms: CD   and  NE  
REMARK       I    between atoms: NE   and  CZ  
REMARK       I    between atoms: CZ   and  NH1 
REMARK       I    between atoms: CZ   and  NH2 
ROOT
ATOM      1  CA  ARG D 557     -26.217   2.705 -17.014  1.00 35.49     0.159 C 
ENDROOT
BRANCH   1   2
ATOM      2  CB  ARG D 557     -26.789   1.319 -17.183  1.00 35.49     0.034 C 
BRANCH   2   3
ATOM      3  CG  ARG D 557     -25.830   0.208 -17.216  1.00 35.49     0.027 C 
BRANCH   3   4
ATOM      4  CD  ARG D 557     -24.715   0.396 -16.260  1.00 35.49     0.116 C 
BRANCH   4   5
ATOM      5  NE  ARG D 557     -24.872  -0.412 -15.079  1.00 35.49    -0.212 N 
ATOM      6  CZ  ARG D 557     -24.065  -1.375 -14.695  1.00 35.49     0.666 C 
ATOM      7  NH1 ARG D 557     -22.995  -1.722 -15.387  1.00 35.49    -0.235 N 
ATOM      8  NH2 ARG D 557     -24.349  -1.990 -13.584  1.00 35.49    -0.235 N 
ATOM      9  HH  ARG D 557     -22.787  -1.330 -16.120  1.00 35.49     0.174 HD
ATOM     10  HH  ARG D 557     -22.504  -2.357 -15.086  1.00 35.49     0.174 HD
ATOM     11  HH  ARG D 557     -25.042  -1.739 -13.154  1.00 35.49     0.174 HD
ATOM     12  HH  ARG D 557     -23.850  -2.614 -13.302  1.00 35.49     0.174 HD
ATOM     13  HE  ARG D 557     -25.574  -0.305 -14.612  1.00 35.49     0.178 HD
ENDBRANCH   4   5
ENDBRANCH   3   4
ENDBRANCH   2   3
ENDBRANCH   1   2
END_RES ARG D 557
BEGIN_RES GLU D 570
REMARK  3 active torsions:
REMARK  status: ('A' for Active; 'I' for Inactive)
REMARK    5  A    between atoms: CA   and  CB  
REMARK    6  A    between atoms: CB   and  CG  
REMARK    7  A    between atoms: CG   and  CD  
ROOT
ATOM     14  CA  GLU D 570     -18.033  -6.348 -13.375  1.00 32.92     0.160 C 
ENDROOT
BRANCH  14  15
ATOM     15  CB  GLU D 570     -19.500  -6.345 -13.794  1.00 32.92     0.043 C 
BRANCH  15  16
ATOM     16  CG  GLU D 570     -20.094  -7.640 -14.217  1.00 32.92     0.100 C 
BRANCH  16  17
ATOM     17  CD  GLU D 570     -20.710  -7.583 -15.596  1.00 32.92     0.185 C 
ATOM     18  OE1 GLU D 570     -21.149  -8.631 -16.106  1.00 32.92    -0.647 OA
ATOM     19  OE2 GLU D 570     -20.739  -6.481 -16.178  1.00 32.92    -0.647 OA
ENDBRANCH  16  17
ENDBRANCH  15  16
ENDBRANCH  14  15
END_RES GLU D 570
ENDMDL
MODEL 9
REMARK VINA RESULT:      -4.7      7.285     10.180
REMARK  6 active torsions:
REMARK  status: ('A' for Active; 'I' for Inactive)
REMARK    1  A    between atoms: C_2  and  C_3 
REMARK    2  A    between atoms: C_3  and  C_4 
REMARK    3  A    between atoms: C_4  and  N_5 
REMARK       I    between atoms: N_5  and  C_6 
REMARK    4  A    between atoms: C_6  and  O_8 
REMARK    5  A    between atoms: O_8  and  C_9 
REMARK    6  A    between atoms: C_9  and  C_10 
ROOT
HETATM    1  C   UNL     1     -21.781  -6.691  -2.302  1.00  0.00    -0.068 C 
HETATM    2  C   UNL     1     -22.107  -7.229  -1.282  1.00  0.00    -0.028 C 
HETATM    3  I   UNL     1     -22.620  -8.161   0.500  1.00  0.00     0.018 I 
ENDROOT
BRANCH   1   4
HETATM    4  C   UNL     1     -21.313  -6.035  -3.533  1.00  0.00     0.275 C 
BRANCH   4   5
HETATM    5  O   UNL     1     -21.896  -6.613  -4.710  1.00  0.00    -0.292 OA
BRANCH   5   6
HETATM    6  C   UNL     1     -21.299  -6.252  -5.870  1.00  0.00     0.361 C 
HETATM    7  N   UNL     1     -21.235  -4.891  -5.939  1.00  0.00    -0.337 N 
HETATM    8  H   UNL     1     -21.626  -4.389  -5.154  1.00  0.00     0.164 HD
HETATM    9  O   UNL     1     -20.896  -7.018  -6.730  1.00  0.00    -0.238 OA
BRANCH   7  10
HETATM   10  C   UNL     1     -20.967  -4.197  -7.178  1.00  0.00     0.125 C 
BRANCH  10  11
HETATM   11  C   UNL     1     -22.236  -4.020  -8.018  1.00  0.00     0.019 C 
BRANCH  11  12
HETATM   12  C   UNL     1     -21.942  -3.984  -9.522  1.00  0.00    -0.003 C 
HETATM   13  C   UNL     1     -20.452  -4.076  -9.812  1.00  0.00     0.005 C 
ENDBRANCH  11  12
ENDBRANCH  10  11
ENDBRANCH   7  10
ENDBRANCH   5   6
ENDBRANCH   4   5
ENDBRANCH   1   4
TORSDOF 6
BEGIN_RES ARG D 557
REMARK  4 active torsions:
REMARK  status: ('A' for Active; 'I' for Inactive)
REMARK    1  A    between atoms: CA   and  CB  
REMARK    2  A    between atoms: CB   and  CG  
REMARK    3  A    between atoms: CG   and  CD  
REMARK    4  A    between atoms: CD   and  NE  
REMARK       I    between atoms: NE   and  CZ  
REMARK       I    between atoms: CZ   and  NH1 
REMARK       I    between atoms: CZ   and  NH2 
ROOT
ATOM      1  CA  ARG D 557     -26.217   2.705 -17.014  1.00 35.49     0.159 C 
ENDROOT
BRANCH   1   2
ATOM      2  CB  ARG D 557     -26.789   1.319 -17.183  1.00 35.49     0.034 C 
BRANCH   2   3
ATOM      3  CG  ARG D 557     -25.934   0.197 -16.776  1.00 35.49     0.027 C 
BRANCH   3   4
ATOM      4  CD  ARG D 557     -26.696  -0.873 -16.092  1.00 35.49     0.116 C 
BRANCH   4   5
ATOM      5  NE  ARG D 557     -25.960  -1.447 -14.996  1.00 35.49    -0.212 N 
ATOM      6  CZ  ARG D 557     -25.922  -2.722 -14.681  1.00 35.49     0.666 C 
ATOM      7  NH1 ARG D 557     -26.590  -3.640 -15.355  1.00 35.49    -0.235 N 
ATOM      8  NH2 ARG D 557     -25.184  -3.068 -13.666  1.00 35.49    -0.235 N 
ATOM      9  HH  ARG D 557     -27.080  -3.435 -16.028  1.00 35.49     0.174 HD
ATOM     10  HH  ARG D 557     -26.524  -4.457 -15.105  1.00 35.49     0.174 HD
ATOM     11  HH  ARG D 557     -24.758  -2.454 -13.254  1.00 35.49     0.174 HD
ATOM     12  HH  ARG D 557     -25.131  -3.882 -13.435  1.00 35.49     0.174 HD
ATOM     13  HE  ARG D 557     -25.559  -0.918 -14.465  1.00 35.49     0.178 HD
ENDBRANCH   4   5
ENDBRANCH   3   4
ENDBRANCH   2   3
ENDBRANCH   1   2
END_RES ARG D 557
BEGIN_RES GLU D 570
REMARK  3 active torsions:
REMARK  status: ('A' for Active; 'I' for Inactive)
REMARK    5  A    between atoms: CA   and  CB  
REMARK    6  A    between atoms: CB   and  CG  
REMARK    7  A    between atoms: CG   and  CD  
ROOT
ATOM     14  CA  GLU D 570     -18.033  -6.348 -13.375  1.00 32.92     0.160 C 
ENDROOT
BRANCH  14  15
ATOM     15  CB  GLU D 570     -19.500  -6.345 -13.794  1.00 32.92     0.043 C 
BRANCH  15  16
ATOM     16  CG  GLU D 570     -20.442  -5.533 -12.982  1.00 32.92     0.100 C 
BRANCH  16  17
ATOM     17  CD  GLU D 570     -21.741  -5.244 -13.698  1.00 32.92     0.185 C 
ATOM     18  OE1 GLU D 570     -22.089  -5.983 -14.640  1.00 32.92    -0.647 OA
ATOM     19  OE2 GLU D 570     -22.409  -4.260 -13.325  1.00 32.92    -0.647 OA
ENDBRANCH  16  17
ENDBRANCH  15  16
ENDBRANCH  14  15
END_RES GLU D 570
ENDMDL
