MODEL 1
REMARK VINA RESULT:      -6.7      0.000      0.000
REMARK  5 active torsions:
REMARK  status: ('A' for Active; 'I' for Inactive)
REMARK    1  A    between atoms: C_6  and  C_12 
REMARK    2  A    between atoms: C_7  and  C_10 
REMARK    3  A    between atoms: C_8  and  O_9 
REMARK    4  A    between atoms: C_10  and  O_11 
REMARK    5  A    between atoms: C_12  and  O_13 
ROOT
HETATM    1  C   UNL     1     -20.497  -4.361  -6.629  1.00  0.00     0.071 C 
HETATM    2  C   UNL     1     -21.031  -4.375  -8.030  1.00  0.00     0.039 A 
HETATM    3  N   UNL     1     -20.158  -4.502  -9.060  1.00  0.00    -0.367 N 
ATOM      4  HN  UNL     1     -19.164  -4.600  -8.853  1.00  0.00     0.165 HD
HETATM    5  C   UNL     1     -20.561  -4.501 -10.350  1.00  0.00     0.098 A 
HETATM    6  C   UNL     1     -21.918  -4.369 -10.679  1.00  0.00    -0.008 A 
HETATM    7  C   UNL     1     -22.876  -4.252  -9.629  1.00  0.00     0.010 A 
HETATM    8  C   UNL     1     -22.409  -4.250  -8.281  1.00  0.00     0.096 A 
ENDROOT
BRANCH   6   9
HETATM    9  C   UNL     1     -22.291  -4.343 -12.148  1.00  0.00     0.205 C 
BRANCH   9  10
HETATM   10  O   UNL     1     -21.752  -3.211 -12.778  1.00  0.00    -0.396 OA
HETATM   11  H   UNL     1     -20.776  -3.209 -12.600  1.00  0.00     0.209 HD
ENDBRANCH   9  10
ENDBRANCH   6   9
BRANCH   7  12
HETATM   12  C   UNL     1     -24.358  -4.140  -9.967  1.00  0.00     0.206 C 
BRANCH  12  13
HETATM   13  O   UNL     1     -24.935  -3.038  -9.321  1.00  0.00    -0.396 OA
HETATM   14  H   UNL     1     -25.653  -2.702  -9.920  1.00  0.00     0.209 HD
ENDBRANCH  12  13
ENDBRANCH   7  12
BRANCH   8  15
HETATM   15  O   UNL     1     -23.228  -4.122  -7.211  1.00  0.00    -0.358 OA
HETATM   16  H   UNL     1     -23.423  -4.800  -6.556  1.00  0.00     0.217 HD
ENDBRANCH   8  15
TORSDOF 5
BEGIN_RES ARG D 557
REMARK  4 active torsions:
REMARK  status: ('A' for Active; 'I' for Inactive)
REMARK    1  A    between atoms: CA   and  CB  
REMARK    2  A    between atoms: CB   and  CG  
REMARK    3  A    between atoms: CG   and  CD  
REMARK    4  A    between atoms: CD   and  NE  
REMARK       I    between atoms: NE   and  CZ  
REMARK       I    between atoms: CZ   and  NH1 
REMARK       I    between atoms: CZ   and  NH2 
ROOT
ATOM      1  CA  ARG D 557     -26.217   2.705 -17.014  1.00 35.49     0.159 C 
ENDROOT
BRANCH   1   2
ATOM      2  CB  ARG D 557     -26.789   1.319 -17.183  1.00 35.49     0.034 C 
BRANCH   2   3
ATOM      3  CG  ARG D 557     -25.834   0.204 -17.169  1.00 35.49     0.027 C 
BRANCH   3   4
ATOM      4  CD  ARG D 557     -24.770   0.386 -16.156  1.00 35.49     0.116 C 
BRANCH   4   5
ATOM      5  NE  ARG D 557     -24.956  -0.469 -15.013  1.00 35.49    -0.212 N 
ATOM      6  CZ  ARG D 557     -24.156  -1.444 -14.644  1.00 35.49     0.666 C 
ATOM      7  NH1 ARG D 557     -23.066  -1.760 -15.318  1.00 35.49    -0.235 N 
ATOM      8  NH2 ARG D 557     -24.470  -2.103 -13.567  1.00 35.49    -0.235 N 
ATOM      9  HH  ARG D 557     -22.839  -1.338 -16.029  1.00 35.49     0.174 HD
ATOM     10  HH  ARG D 557     -22.581  -2.404 -15.028  1.00 35.49     0.174 HD
ATOM     11  HH  ARG D 557     -25.176  -1.872 -13.148  1.00 35.49     0.174 HD
ATOM     12  HH  ARG D 557     -23.976  -2.737 -13.296  1.00 35.49     0.174 HD
ATOM     13  HE  ARG D 557     -25.673  -0.383 -14.563  1.00 35.49     0.178 HD
ENDBRANCH   4   5
ENDBRANCH   3   4
ENDBRANCH   2   3
ENDBRANCH   1   2
END_RES ARG D 557
BEGIN_RES GLU D 570
REMARK  3 active torsions:
REMARK  status: ('A' for Active; 'I' for Inactive)
REMARK    5  A    between atoms: CA   and  CB  
REMARK    6  A    between atoms: CB   and  CG  
REMARK    7  A    between atoms: CG   and  CD  
ROOT
ATOM     14  CA  GLU D 570     -18.033  -6.348 -13.375  1.00 32.92     0.160 C 
ENDROOT
BRANCH  14  15
ATOM     15  CB  GLU D 570     -19.500  -6.345 -13.794  1.00 32.92     0.043 C 
BRANCH  15  16
ATOM     16  CG  GLU D 570     -19.818  -5.882 -15.170  1.00 32.92     0.100 C 
BRANCH  16  17
ATOM     17  CD  GLU D 570     -21.296  -5.654 -15.388  1.00 32.92     0.185 C 
ATOM     18  OE1 GLU D 570     -21.701  -4.500 -15.627  1.00 32.92    -0.647 OA
ATOM     19  OE2 GLU D 570     -22.058  -6.637 -15.302  1.00 32.92    -0.647 OA
ENDBRANCH  16  17
ENDBRANCH  15  16
ENDBRANCH  14  15
END_RES GLU D 570
ENDMDL
MODEL 2
REMARK VINA RESULT:      -6.4      2.228      4.089
REMARK  5 active torsions:
REMARK  status: ('A' for Active; 'I' for Inactive)
REMARK    1  A    between atoms: C_6  and  C_12 
REMARK    2  A    between atoms: C_7  and  C_10 
REMARK    3  A    between atoms: C_8  and  O_9 
REMARK    4  A    between atoms: C_10  and  O_11 
REMARK    5  A    between atoms: C_12  and  O_13 
ROOT
HETATM    1  C   UNL     1     -24.201  -2.777 -12.993  1.00  0.00     0.071 C 
HETATM    2  C   UNL     1     -23.758  -3.206 -11.626  1.00  0.00     0.039 A 
HETATM    3  N   UNL     1     -24.694  -3.374 -10.660  1.00  0.00    -0.367 N 
ATOM      4  HN  UNL     1     -25.675  -3.220 -10.892  1.00  0.00     0.165 HD
HETATM    5  C   UNL     1     -24.370  -3.738  -9.399  1.00  0.00     0.098 A 
HETATM    6  C   UNL     1     -23.034  -3.961  -9.036  1.00  0.00    -0.008 A 
HETATM    7  C   UNL     1     -22.015  -3.815 -10.024  1.00  0.00     0.010 A 
HETATM    8  C   UNL     1     -22.398  -3.423 -11.341  1.00  0.00     0.096 A 
ENDROOT
BRANCH   6   9
HETATM    9  C   UNL     1     -22.745  -4.334  -7.596  1.00  0.00     0.205 C 
BRANCH   9  10
HETATM   10  O   UNL     1     -23.928  -4.376  -6.845  1.00  0.00    -0.396 OA
HETATM   11  H   UNL     1     -23.886  -3.636  -6.183  1.00  0.00     0.209 HD
ENDBRANCH   9  10
ENDBRANCH   6   9
BRANCH   7  12
HETATM   12  C   UNL     1     -20.561  -4.084  -9.655  1.00  0.00     0.206 C 
BRANCH  12  13
HETATM   13  O   UNL     1     -19.926  -4.842 -10.648  1.00  0.00    -0.396 OA
HETATM   14  H   UNL     1     -19.457  -4.199 -11.241  1.00  0.00     0.209 HD
ENDBRANCH  12  13
ENDBRANCH   7  12
BRANCH   8  15
HETATM   15  O   UNL     1     -21.512  -3.233 -12.347  1.00  0.00    -0.358 OA
HETATM   16  H   UNL     1     -20.709  -3.739 -12.504  1.00  0.00     0.217 HD
ENDBRANCH   8  15
TORSDOF 5
BEGIN_RES ARG D 557
REMARK  4 active torsions:
REMARK  status: ('A' for Active; 'I' for Inactive)
REMARK    1  A    between atoms: CA   and  CB  
REMARK    2  A    between atoms: CB   and  CG  
REMARK    3  A    between atoms: CG   and  CD  
REMARK    4  A    between atoms: CD   and  NE  
REMARK       I    between atoms: NE   and  CZ  
REMARK       I    between atoms: CZ   and  NH1 
REMARK       I    between atoms: CZ   and  NH2 
ROOT
ATOM      1  CA  ARG D 557     -26.217   2.705 -17.014  1.00 35.49     0.159 C 
ENDROOT
BRANCH   1   2
ATOM      2  CB  ARG D 557     -26.789   1.319 -17.183  1.00 35.49     0.034 C 
BRANCH   2   3
ATOM      3  CG  ARG D 557     -28.228   1.164 -16.940  1.00 35.49     0.027 C 
BRANCH   3   4
ATOM      4  CD  ARG D 557     -28.643  -0.257 -16.890  1.00 35.49     0.116 C 
BRANCH   4   5
ATOM      5  NE  ARG D 557     -27.689  -1.075 -16.188  1.00 35.49    -0.212 N 
ATOM      6  CZ  ARG D 557     -27.602  -2.385 -16.259  1.00 35.49     0.666 C 
ATOM      7  NH1 ARG D 557     -28.419  -3.111 -16.998  1.00 35.49    -0.235 N 
ATOM      8  NH2 ARG D 557     -26.661  -2.962 -15.569  1.00 35.49    -0.235 N 
ATOM      9  HH  ARG D 557     -29.044  -2.752 -17.462  1.00 35.49     0.174 HD
ATOM     10  HH  ARG D 557     -28.313  -3.961 -17.008  1.00 35.49     0.174 HD
ATOM     11  HH  ARG D 557     -26.143  -2.467 -15.106  1.00 35.49     0.174 HD
ATOM     12  HH  ARG D 557     -26.571  -3.804 -15.593  1.00 35.49     0.174 HD
ATOM     13  HE  ARG D 557     -27.170  -0.696 -15.632  1.00 35.49     0.178 HD
ENDBRANCH   4   5
ENDBRANCH   3   4
ENDBRANCH   2   3
ENDBRANCH   1   2
END_RES ARG D 557
BEGIN_RES GLU D 570
REMARK  3 active torsions:
REMARK  status: ('A' for Active; 'I' for Inactive)
REMARK    5  A    between atoms: CA   and  CB  
REMARK    6  A    between atoms: CB   and  CG  
REMARK    7  A    between atoms: CG   and  CD  
ROOT
ATOM     14  CA  GLU D 570     -18.033  -6.348 -13.375  1.00 32.92     0.160 C 
ENDROOT
BRANCH  14  15
ATOM     15  CB  GLU D 570     -19.500  -6.345 -13.794  1.00 32.92     0.043 C 
BRANCH  15  16
ATOM     16  CG  GLU D 570     -19.809  -5.991 -15.204  1.00 32.92     0.100 C 
BRANCH  16  17
ATOM     17  CD  GLU D 570     -21.182  -5.383 -15.372  1.00 32.92     0.185 C 
ATOM     18  OE1 GLU D 570     -21.922  -5.276 -14.375  1.00 32.92    -0.647 OA
ATOM     19  OE2 GLU D 570     -21.527  -5.027 -16.515  1.00 32.92    -0.647 OA
ENDBRANCH  16  17
ENDBRANCH  15  16
ENDBRANCH  14  15
END_RES GLU D 570
ENDMDL
MODEL 3
REMARK VINA RESULT:      -6.3      0.964      2.309
REMARK  5 active torsions:
REMARK  status: ('A' for Active; 'I' for Inactive)
REMARK    1  A    between atoms: C_6  and  C_12 
REMARK    2  A    between atoms: C_7  and  C_10 
REMARK    3  A    between atoms: C_8  and  O_9 
REMARK    4  A    between atoms: C_10  and  O_11 
REMARK    5  A    between atoms: C_12  and  O_13 
ROOT
HETATM    1  C   UNL     1     -19.254  -4.432  -7.909  1.00  0.00     0.071 C 
HETATM    2  C   UNL     1     -20.607  -4.256  -8.532  1.00  0.00     0.039 A 
HETATM    3  N   UNL     1     -21.659  -3.953  -7.732  1.00  0.00    -0.367 N 
ATOM      4  HN  UNL     1     -21.499  -3.837  -6.731  1.00  0.00     0.165 HD
HETATM    5  C   UNL     1     -22.911  -3.799  -8.217  1.00  0.00     0.098 A 
HETATM    6  C   UNL     1     -23.175  -3.948  -9.586  1.00  0.00    -0.008 A 
HETATM    7  C   UNL     1     -22.097  -4.248 -10.470  1.00  0.00     0.010 A 
HETATM    8  C   UNL     1     -20.792  -4.409  -9.917  1.00  0.00     0.096 A 
ENDROOT
BRANCH   6   9
HETATM    9  C   UNL     1     -24.610  -3.794 -10.051  1.00  0.00     0.205 C 
BRANCH   9  10
HETATM   10  O   UNL     1     -25.273  -2.810  -9.304  1.00  0.00    -0.396 OA
HETATM   11  H   UNL     1     -24.579  -2.263  -8.851  1.00  0.00     0.209 HD
ENDBRANCH   9  10
ENDBRANCH   6   9
BRANCH   7  12
HETATM   12  C   UNL     1     -22.360  -4.383 -11.965  1.00  0.00     0.206 C 
BRANCH  12  13
HETATM   13  O   UNL     1     -21.731  -3.353 -12.678  1.00  0.00    -0.396 OA
HETATM   14  H   UNL     1     -21.008  -3.003 -12.094  1.00  0.00     0.209 HD
ENDBRANCH  12  13
ENDBRANCH   7  12
BRANCH   8  15
HETATM   15  O   UNL     1     -19.703  -4.717 -10.661  1.00  0.00    -0.358 OA
HETATM   16  H   UNL     1     -19.703  -5.058 -11.561  1.00  0.00     0.217 HD
ENDBRANCH   8  15
TORSDOF 5
BEGIN_RES ARG D 557
REMARK  4 active torsions:
REMARK  status: ('A' for Active; 'I' for Inactive)
REMARK    1  A    between atoms: CA   and  CB  
REMARK    2  A    between atoms: CB   and  CG  
REMARK    3  A    between atoms: CG   and  CD  
REMARK    4  A    between atoms: CD   and  NE  
REMARK       I    between atoms: NE   and  CZ  
REMARK       I    between atoms: CZ   and  NH1 
REMARK       I    between atoms: CZ   and  NH2 
ROOT
ATOM      1  CA  ARG D 557     -26.217   2.705 -17.014  1.00 35.49     0.159 C 
ENDROOT
BRANCH   1   2
ATOM      2  CB  ARG D 557     -26.789   1.319 -17.183  1.00 35.49     0.034 C 
BRANCH   2   3
ATOM      3  CG  ARG D 557     -25.835   0.204 -17.166  1.00 35.49     0.027 C 
BRANCH   3   4
ATOM      4  CD  ARG D 557     -24.772   0.386 -16.151  1.00 35.49     0.116 C 
BRANCH   4   5
ATOM      5  NE  ARG D 557     -24.949  -0.483 -15.018  1.00 35.49    -0.212 N 
ATOM      6  CZ  ARG D 557     -24.127  -1.439 -14.646  1.00 35.49     0.666 C 
ATOM      7  NH1 ARG D 557     -23.020  -1.719 -15.309  1.00 35.49    -0.235 N 
ATOM      8  NH2 ARG D 557     -24.436  -2.115 -13.579  1.00 35.49    -0.235 N 
ATOM      9  HH  ARG D 557     -22.796  -1.285 -16.013  1.00 35.49     0.174 HD
ATOM     10  HH  ARG D 557     -22.521  -2.352 -15.018  1.00 35.49     0.174 HD
ATOM     11  HH  ARG D 557     -25.154  -1.907 -13.167  1.00 35.49     0.174 HD
ATOM     12  HH  ARG D 557     -23.929  -2.737 -13.306  1.00 35.49     0.174 HD
ATOM     13  HE  ARG D 557     -25.673  -0.420 -14.576  1.00 35.49     0.178 HD
ENDBRANCH   4   5
ENDBRANCH   3   4
ENDBRANCH   2   3
ENDBRANCH   1   2
END_RES ARG D 557
BEGIN_RES GLU D 570
REMARK  3 active torsions:
REMARK  status: ('A' for Active; 'I' for Inactive)
REMARK    5  A    between atoms: CA   and  CB  
REMARK    6  A    between atoms: CB   and  CG  
REMARK    7  A    between atoms: CG   and  CD  
ROOT
ATOM     14  CA  GLU D 570     -18.033  -6.348 -13.375  1.00 32.92     0.160 C 
ENDROOT
BRANCH  14  15
ATOM     15  CB  GLU D 570     -19.500  -6.345 -13.794  1.00 32.92     0.043 C 
BRANCH  15  16
ATOM     16  CG  GLU D 570     -19.835  -5.742 -15.110  1.00 32.92     0.100 C 
BRANCH  16  17
ATOM     17  CD  GLU D 570     -21.320  -5.542 -15.306  1.00 32.92     0.185 C 
ATOM     18  OE1 GLU D 570     -21.734  -4.435 -15.699  1.00 32.92    -0.647 OA
ATOM     19  OE2 GLU D 570     -22.077  -6.497 -15.047  1.00 32.92    -0.647 OA
ENDBRANCH  16  17
ENDBRANCH  15  16
ENDBRANCH  14  15
END_RES GLU D 570
ENDMDL
MODEL 4
REMARK VINA RESULT:      -6.3      2.220      3.536
REMARK  5 active torsions:
REMARK  status: ('A' for Active; 'I' for Inactive)
REMARK    1  A    between atoms: C_6  and  C_12 
REMARK    2  A    between atoms: C_7  and  C_10 
REMARK    3  A    between atoms: C_8  and  O_9 
REMARK    4  A    between atoms: C_10  and  O_11 
REMARK    5  A    between atoms: C_12  and  O_13 
ROOT
HETATM    1  C   UNL     1     -22.926  -2.851 -14.368  1.00  0.00     0.071 C 
HETATM    2  C   UNL     1     -22.687  -3.230 -12.936  1.00  0.00     0.039 A 
HETATM    3  N   UNL     1     -21.488  -3.761 -12.593  1.00  0.00    -0.367 N 
ATOM      4  HN  UNL     1     -20.775  -3.874 -13.315  1.00  0.00     0.165 HD
HETATM    5  C   UNL     1     -21.205  -4.146 -11.329  1.00  0.00     0.098 A 
HETATM    6  C   UNL     1     -22.155  -4.008 -10.306  1.00  0.00    -0.008 A 
HETATM    7  C   UNL     1     -23.425  -3.437 -10.615  1.00  0.00     0.010 A 
HETATM    8  C   UNL     1     -23.685  -3.050 -11.963  1.00  0.00     0.096 A 
ENDROOT
BRANCH   6   9
HETATM    9  C   UNL     1     -21.778  -4.493  -8.921  1.00  0.00     0.205 C 
BRANCH   9  10
HETATM   10  O   UNL     1     -20.439  -4.907  -8.885  1.00  0.00    -0.396 OA
HETATM   11  H   UNL     1     -20.434  -5.878  -8.674  1.00  0.00     0.209 HD
ENDBRANCH   9  10
ENDBRANCH   6   9
BRANCH   7  12
HETATM   12  C   UNL     1     -24.458  -3.250  -9.510  1.00  0.00     0.206 C 
BRANCH  12  13
HETATM   13  O   UNL     1     -25.754  -3.467  -9.997  1.00  0.00    -0.396 OA
HETATM   14  H   UNL     1     -26.344  -3.558  -9.203  1.00  0.00     0.209 HD
ENDBRANCH  12  13
ENDBRANCH   7  12
BRANCH   8  15
HETATM   15  O   UNL     1     -24.863  -2.519 -12.369  1.00  0.00    -0.358 OA
HETATM   16  H   UNL     1     -25.047  -1.588 -12.523  1.00  0.00     0.217 HD
ENDBRANCH   8  15
TORSDOF 5
BEGIN_RES ARG D 557
REMARK  4 active torsions:
REMARK  status: ('A' for Active; 'I' for Inactive)
REMARK    1  A    between atoms: CA   and  CB  
REMARK    2  A    between atoms: CB   and  CG  
REMARK    3  A    between atoms: CG   and  CD  
REMARK    4  A    between atoms: CD   and  NE  
REMARK       I    between atoms: NE   and  CZ  
REMARK       I    between atoms: CZ   and  NH1 
REMARK       I    between atoms: CZ   and  NH2 
ROOT
ATOM      1  CA  ARG D 557     -26.217   2.705 -17.014  1.00 35.49     0.159 C 
ENDROOT
BRANCH   1   2
ATOM      2  CB  ARG D 557     -26.789   1.319 -17.183  1.00 35.49     0.034 C 
BRANCH   2   3
ATOM      3  CG  ARG D 557     -28.241   1.179 -17.020  1.00 35.49     0.027 C 
BRANCH   3   4
ATOM      4  CD  ARG D 557     -28.635  -0.193 -16.627  1.00 35.49     0.116 C 
BRANCH   4   5
ATOM      5  NE  ARG D 557     -27.599  -0.864 -15.888  1.00 35.49    -0.212 N 
ATOM      6  CZ  ARG D 557     -27.314  -2.146 -15.954  1.00 35.49     0.666 C 
ATOM      7  NH1 ARG D 557     -27.985  -2.982 -16.725  1.00 35.49    -0.235 N 
ATOM      8  NH2 ARG D 557     -26.325  -2.580 -15.228  1.00 35.49    -0.235 N 
ATOM      9  HH  ARG D 557     -28.638  -2.717 -17.213  1.00 35.49     0.174 HD
ATOM     10  HH  ARG D 557     -27.753  -3.806 -16.730  1.00 35.49     0.174 HD
ATOM     11  HH  ARG D 557     -25.905  -2.015 -14.746  1.00 35.49     0.174 HD
ATOM     12  HH  ARG D 557     -26.110  -3.399 -15.248  1.00 35.49     0.174 HD
ATOM     13  HE  ARG D 557     -27.163  -0.414 -15.312  1.00 35.49     0.178 HD
ENDBRANCH   4   5
ENDBRANCH   3   4
ENDBRANCH   2   3
ENDBRANCH   1   2
END_RES ARG D 557
BEGIN_RES GLU D 570
REMARK  3 active torsions:
REMARK  status: ('A' for Active; 'I' for Inactive)
REMARK    5  A    between atoms: CA   and  CB  
REMARK    6  A    between atoms: CB   and  CG  
REMARK    7  A    between atoms: CG   and  CD  
ROOT
ATOM     14  CA  GLU D 570     -18.033  -6.348 -13.375  1.00 32.92     0.160 C 
ENDROOT
BRANCH  14  15
ATOM     15  CB  GLU D 570     -19.500  -6.345 -13.794  1.00 32.92     0.043 C 
BRANCH  15  16
ATOM     16  CG  GLU D 570     -19.809  -5.986 -15.202  1.00 32.92     0.100 C 
BRANCH  16  17
ATOM     17  CD  GLU D 570     -21.292  -5.913 -15.480  1.00 32.92     0.185 C 
ATOM     18  OE1 GLU D 570     -21.681  -5.491 -16.586  1.00 32.92    -0.647 OA
ATOM     19  OE2 GLU D 570     -22.075  -6.267 -14.576  1.00 32.92    -0.647 OA
ENDBRANCH  16  17
ENDBRANCH  15  16
ENDBRANCH  14  15
END_RES GLU D 570
ENDMDL
MODEL 5
REMARK VINA RESULT:      -6.2      1.823      3.334
REMARK  5 active torsions:
REMARK  status: ('A' for Active; 'I' for Inactive)
REMARK    1  A    between atoms: C_6  and  C_12 
REMARK    2  A    between atoms: C_7  and  C_10 
REMARK    3  A    between atoms: C_8  and  O_9 
REMARK    4  A    between atoms: C_10  and  O_11 
REMARK    5  A    between atoms: C_12  and  O_13 
ROOT
HETATM    1  C   UNL     1     -25.178  -3.309  -9.818  1.00  0.00     0.071 C 
HETATM    2  C   UNL     1     -23.813  -3.750  -9.379  1.00  0.00     0.039 A 
HETATM    3  N   UNL     1     -23.602  -4.011  -8.066  1.00  0.00    -0.367 N 
ATOM      4  HN  UNL     1     -24.381  -3.916  -7.414  1.00  0.00     0.165 HD
HETATM    5  C   UNL     1     -22.396  -4.393  -7.591  1.00  0.00     0.098 A 
HETATM    6  C   UNL     1     -21.298  -4.538  -8.452  1.00  0.00    -0.008 A 
HETATM    7  C   UNL     1     -21.475  -4.292  -9.846  1.00  0.00     0.010 A 
HETATM    8  C   UNL     1     -22.763  -3.885 -10.305  1.00  0.00     0.096 A 
ENDROOT
BRANCH   6   9
HETATM    9  C   UNL     1     -19.969  -4.936  -7.843  1.00  0.00     0.205 C 
BRANCH   9  10
HETATM   10  O   UNL     1     -19.992  -6.275  -7.427  1.00  0.00    -0.396 OA
HETATM   11  H   UNL     1     -20.774  -6.386  -6.826  1.00  0.00     0.209 HD
ENDBRANCH   9  10
ENDBRANCH   6   9
BRANCH   7  12
HETATM   12  C   UNL     1     -20.302  -4.474 -10.800  1.00  0.00     0.206 C 
BRANCH  12  13
HETATM   13  O   UNL     1     -20.323  -3.503 -11.810  1.00  0.00    -0.396 OA
HETATM   14  H   UNL     1     -21.011  -2.836 -11.549  1.00  0.00     0.209 HD
ENDBRANCH  12  13
ENDBRANCH   7  12
BRANCH   8  15
HETATM   15  O   UNL     1     -23.035  -3.604 -11.601  1.00  0.00    -0.358 OA
HETATM   16  H   UNL     1     -22.471  -3.120 -12.212  1.00  0.00     0.217 HD
ENDBRANCH   8  15
TORSDOF 5
BEGIN_RES ARG D 557
REMARK  4 active torsions:
REMARK  status: ('A' for Active; 'I' for Inactive)
REMARK    1  A    between atoms: CA   and  CB  
REMARK    2  A    between atoms: CB   and  CG  
REMARK    3  A    between atoms: CG   and  CD  
REMARK    4  A    between atoms: CD   and  NE  
REMARK       I    between atoms: NE   and  CZ  
REMARK       I    between atoms: CZ   and  NH1 
REMARK       I    between atoms: CZ   and  NH2 
ROOT
ATOM      1  CA  ARG D 557     -26.217   2.705 -17.014  1.00 35.49     0.159 C 
ENDROOT
BRANCH   1   2
ATOM      2  CB  ARG D 557     -26.789   1.319 -17.183  1.00 35.49     0.034 C 
BRANCH   2   3
ATOM      3  CG  ARG D 557     -25.930   0.197 -16.786  1.00 35.49     0.027 C 
BRANCH   3   4
ATOM      4  CD  ARG D 557     -26.680  -0.866 -16.079  1.00 35.49     0.116 C 
BRANCH   4   5
ATOM      5  NE  ARG D 557     -25.940  -1.406 -14.969  1.00 35.49    -0.212 N 
ATOM      6  CZ  ARG D 557     -25.907  -2.669 -14.610  1.00 35.49     0.666 C 
ATOM      7  NH1 ARG D 557     -26.586  -3.606 -15.246  1.00 35.49    -0.235 N 
ATOM      8  NH2 ARG D 557     -25.164  -2.984 -13.589  1.00 35.49    -0.235 N 
ATOM      9  HH  ARG D 557     -27.080  -3.422 -15.922  1.00 35.49     0.174 HD
ATOM     10  HH  ARG D 557     -26.524  -4.414 -14.968  1.00 35.49     0.174 HD
ATOM     11  HH  ARG D 557     -24.731  -2.359 -13.202  1.00 35.49     0.174 HD
ATOM     12  HH  ARG D 557     -25.114  -3.790 -13.329  1.00 35.49     0.174 HD
ATOM     13  HE  ARG D 557     -25.531  -0.861 -14.460  1.00 35.49     0.178 HD
ENDBRANCH   4   5
ENDBRANCH   3   4
ENDBRANCH   2   3
ENDBRANCH   1   2
END_RES ARG D 557
BEGIN_RES GLU D 570
REMARK  3 active torsions:
REMARK  status: ('A' for Active; 'I' for Inactive)
REMARK    5  A    between atoms: CA   and  CB  
REMARK    6  A    between atoms: CB   and  CG  
REMARK    7  A    between atoms: CG   and  CD  
ROOT
ATOM     14  CA  GLU D 570     -18.033  -6.348 -13.375  1.00 32.92     0.160 C 
ENDROOT
BRANCH  14  15
ATOM     15  CB  GLU D 570     -19.500  -6.345 -13.794  1.00 32.92     0.043 C 
BRANCH  15  16
ATOM     16  CG  GLU D 570     -19.821  -5.853 -15.159  1.00 32.92     0.100 C 
BRANCH  16  17
ATOM     17  CD  GLU D 570     -21.168  -5.173 -15.238  1.00 32.92     0.185 C 
ATOM     18  OE1 GLU D 570     -21.780  -4.918 -14.184  1.00 32.92    -0.647 OA
ATOM     19  OE2 GLU D 570     -21.622  -4.906 -16.368  1.00 32.92    -0.647 OA
ENDBRANCH  16  17
ENDBRANCH  15  16
ENDBRANCH  14  15
END_RES GLU D 570
ENDMDL
MODEL 6
REMARK VINA RESULT:      -6.2      2.360      2.694
REMARK  5 active torsions:
REMARK  status: ('A' for Active; 'I' for Inactive)
REMARK    1  A    between atoms: C_6  and  C_12 
REMARK    2  A    between atoms: C_7  and  C_10 
REMARK    3  A    between atoms: C_8  and  O_9 
REMARK    4  A    between atoms: C_10  and  O_11 
REMARK    5  A    between atoms: C_12  and  O_13 
ROOT
HETATM    1  C   UNL     1     -21.437  -5.403  -5.994  1.00  0.00     0.071 C 
HETATM    2  C   UNL     1     -21.656  -4.858  -7.374  1.00  0.00     0.039 A 
HETATM    3  N   UNL     1     -20.616  -4.846  -8.244  1.00  0.00    -0.367 N 
ATOM      4  HN  UNL     1     -19.717  -5.222  -7.941  1.00  0.00     0.165 HD
HETATM    5  C   UNL     1     -20.729  -4.351  -9.496  1.00  0.00     0.098 A 
HETATM    6  C   UNL     1     -21.947  -3.826  -9.953  1.00  0.00    -0.008 A 
HETATM    7  C   UNL     1     -23.075  -3.834  -9.081  1.00  0.00     0.010 A 
HETATM    8  C   UNL     1     -22.911  -4.359  -7.764  1.00  0.00     0.096 A 
ENDROOT
BRANCH   6   9
HETATM    9  C   UNL     1     -21.990  -3.259 -11.358  1.00  0.00     0.205 C 
BRANCH   9  10
HETATM   10  O   UNL     1     -20.793  -3.526 -12.040  1.00  0.00    -0.396 OA
HETATM   11  H   UNL     1     -20.694  -4.512 -12.090  1.00  0.00     0.209 HD
ENDBRANCH   9  10
ENDBRANCH   6   9
BRANCH   7  12
HETATM   12  C   UNL     1     -24.413  -3.296  -9.571  1.00  0.00     0.206 C 
BRANCH  12  13
HETATM   13  O   UNL     1     -25.393  -4.298  -9.552  1.00  0.00    -0.396 OA
HETATM   14  H   UNL     1     -25.725  -4.389 -10.483  1.00  0.00     0.209 HD
ENDBRANCH  12  13
ENDBRANCH   7  12
BRANCH   8  15
HETATM   15  O   UNL     1     -23.908  -4.394  -6.849  1.00  0.00    -0.358 OA
HETATM   16  H   UNL     1     -24.095  -5.111  -6.236  1.00  0.00     0.217 HD
ENDBRANCH   8  15
TORSDOF 5
BEGIN_RES ARG D 557
REMARK  4 active torsions:
REMARK  status: ('A' for Active; 'I' for Inactive)
REMARK    1  A    between atoms: CA   and  CB  
REMARK    2  A    between atoms: CB   and  CG  
REMARK    3  A    between atoms: CG   and  CD  
REMARK    4  A    between atoms: CD   and  NE  
REMARK       I    between atoms: NE   and  CZ  
REMARK       I    between atoms: CZ   and  NH1 
REMARK       I    between atoms: CZ   and  NH2 
ROOT
ATOM      1  CA  ARG D 557     -26.217   2.705 -17.014  1.00 35.49     0.159 C 
ENDROOT
BRANCH   1   2
ATOM      2  CB  ARG D 557     -26.789   1.319 -17.183  1.00 35.49     0.034 C 
BRANCH   2   3
ATOM      3  CG  ARG D 557     -28.155   1.104 -16.691  1.00 35.49     0.027 C 
BRANCH   3   4
ATOM      4  CD  ARG D 557     -28.791  -0.090 -17.295  1.00 35.49     0.116 C 
BRANCH   4   5
ATOM      5  NE  ARG D 557     -28.180  -1.314 -16.849  1.00 35.49    -0.212 N 
ATOM      6  CZ  ARG D 557     -28.663  -2.523 -17.028  1.00 35.49     0.666 C 
ATOM      7  NH1 ARG D 557     -29.809  -2.745 -17.646  1.00 35.49    -0.235 N 
ATOM      8  NH2 ARG D 557     -27.964  -3.522 -16.574  1.00 35.49    -0.235 N 
ATOM      9  HH  ARG D 557     -30.284  -2.102 -17.955  1.00 35.49     0.174 HD
ATOM     10  HH  ARG D 557     -30.072  -3.555 -17.736  1.00 35.49     0.174 HD
ATOM     11  HH  ARG D 557     -27.225  -3.350 -16.186  1.00 35.49     0.174 HD
ATOM     12  HH  ARG D 557     -28.241  -4.317 -16.674  1.00 35.49     0.174 HD
ATOM     13  HE  ARG D 557     -27.475  -1.260 -16.377  1.00 35.49     0.178 HD
ENDBRANCH   4   5
ENDBRANCH   3   4
ENDBRANCH   2   3
ENDBRANCH   1   2
END_RES ARG D 557
BEGIN_RES GLU D 570
REMARK  3 active torsions:
REMARK  status: ('A' for Active; 'I' for Inactive)
REMARK    5  A    between atoms: CA   and  CB  
REMARK    6  A    between atoms: CB   and  CG  
REMARK    7  A    between atoms: CG   and  CD  
ROOT
ATOM     14  CA  GLU D 570     -18.033  -6.348 -13.375  1.00 32.92     0.160 C 
ENDROOT
BRANCH  14  15
ATOM     15  CB  GLU D 570     -19.500  -6.345 -13.794  1.00 32.92     0.043 C 
BRANCH  15  16
ATOM     16  CG  GLU D 570     -19.804  -6.067 -15.222  1.00 32.92     0.100 C 
BRANCH  16  17
ATOM     17  CD  GLU D 570     -21.126  -5.363 -15.416  1.00 32.92     0.185 C 
ATOM     18  OE1 GLU D 570     -21.517  -5.118 -16.574  1.00 32.92    -0.647 OA
ATOM     19  OE2 GLU D 570     -21.771  -5.037 -14.400  1.00 32.92    -0.647 OA
ENDBRANCH  16  17
ENDBRANCH  15  16
ENDBRANCH  14  15
END_RES GLU D 570
ENDMDL
MODEL 7
REMARK VINA RESULT:      -5.8      2.333      3.394
REMARK  5 active torsions:
REMARK  status: ('A' for Active; 'I' for Inactive)
REMARK    1  A    between atoms: C_6  and  C_12 
REMARK    2  A    between atoms: C_7  and  C_10 
REMARK    3  A    between atoms: C_8  and  O_9 
REMARK    4  A    between atoms: C_10  and  O_11 
REMARK    5  A    between atoms: C_12  and  O_13 
ROOT
HETATM    1  C   UNL     1     -19.625  -4.387  -7.824  1.00  0.00     0.071 C 
HETATM    2  C   UNL     1     -20.882  -4.159  -8.609  1.00  0.00     0.039 A 
HETATM    3  N   UNL     1     -21.986  -3.714  -7.960  1.00  0.00    -0.367 N 
ATOM      4  HN  UNL     1     -21.927  -3.531  -6.958  1.00  0.00     0.165 HD
HETATM    5  C   UNL     1     -23.161  -3.506  -8.595  1.00  0.00     0.098 A 
HETATM    6  C   UNL     1     -23.286  -3.744  -9.971  1.00  0.00    -0.008 A 
HETATM    7  C   UNL     1     -22.147  -4.194 -10.702  1.00  0.00     0.010 A 
HETATM    8  C   UNL     1     -20.927  -4.409  -9.992  1.00  0.00     0.096 A 
ENDROOT
BRANCH   6   9
HETATM    9  C   UNL     1     -24.643  -3.520 -10.608  1.00  0.00     0.205 C 
BRANCH   9  10
HETATM   10  O   UNL     1     -25.604  -3.207  -9.635  1.00  0.00    -0.396 OA
HETATM   11  H   UNL     1     -26.027  -4.059  -9.351  1.00  0.00     0.209 HD
ENDBRANCH   9  10
ENDBRANCH   6   9
BRANCH   7  12
HETATM   12  C   UNL     1     -22.255  -4.428 -12.203  1.00  0.00     0.206 C 
BRANCH  12  13
HETATM   13  O   UNL     1     -21.829  -3.300 -12.917  1.00  0.00    -0.396 OA
HETATM   14  H   UNL     1     -22.397  -3.247 -13.730  1.00  0.00     0.209 HD
ENDBRANCH  12  13
ENDBRANCH   7  12
BRANCH   8  15
HETATM   15  O   UNL     1     -19.794  -4.856 -10.582  1.00  0.00    -0.358 OA
HETATM   16  H   UNL     1     -18.993  -4.347 -10.743  1.00  0.00     0.217 HD
ENDBRANCH   8  15
TORSDOF 5
BEGIN_RES ARG D 557
REMARK  4 active torsions:
REMARK  status: ('A' for Active; 'I' for Inactive)
REMARK    1  A    between atoms: CA   and  CB  
REMARK    2  A    between atoms: CB   and  CG  
REMARK    3  A    between atoms: CG   and  CD  
REMARK    4  A    between atoms: CD   and  NE  
REMARK       I    between atoms: NE   and  CZ  
REMARK       I    between atoms: CZ   and  NH1 
REMARK       I    between atoms: CZ   and  NH2 
ROOT
ATOM      1  CA  ARG D 557     -26.217   2.705 -17.014  1.00 35.49     0.159 C 
ENDROOT
BRANCH   1   2
ATOM      2  CB  ARG D 557     -26.789   1.319 -17.183  1.00 35.49     0.034 C 
BRANCH   2   3
ATOM      3  CG  ARG D 557     -28.228   1.227 -17.456  1.00 35.49     0.027 C 
BRANCH   3   4
ATOM      4  CD  ARG D 557     -28.923   0.311 -16.523  1.00 35.49     0.116 C 
BRANCH   4   5
ATOM      5  NE  ARG D 557     -29.303  -0.924 -17.157  1.00 35.49    -0.212 N 
ATOM      6  CZ  ARG D 557     -28.675  -2.072 -17.042  1.00 35.49     0.666 C 
ATOM      7  NH1 ARG D 557     -27.581  -2.212 -16.315  1.00 35.49    -0.235 N 
ATOM      8  NH2 ARG D 557     -29.174  -3.096 -17.672  1.00 35.49    -0.235 N 
ATOM      9  HH  ARG D 557     -27.236  -1.553 -15.891  1.00 35.49     0.174 HD
ATOM     10  HH  ARG D 557     -27.216  -2.986 -16.275  1.00 35.49     0.174 HD
ATOM     11  HH  ARG D 557     -29.885  -2.977 -18.127  1.00 35.49     0.174 HD
ATOM     12  HH  ARG D 557     -28.799  -3.854 -17.618  1.00 35.49     0.174 HD
ATOM     13  HE  ARG D 557     -29.956  -0.908 -17.702  1.00 35.49     0.178 HD
ENDBRANCH   4   5
ENDBRANCH   3   4
ENDBRANCH   2   3
ENDBRANCH   1   2
END_RES ARG D 557
BEGIN_RES GLU D 570
REMARK  3 active torsions:
REMARK  status: ('A' for Active; 'I' for Inactive)
REMARK    5  A    between atoms: CA   and  CB  
REMARK    6  A    between atoms: CB   and  CG  
REMARK    7  A    between atoms: CG   and  CD  
ROOT
ATOM     14  CA  GLU D 570     -18.033  -6.348 -13.375  1.00 32.92     0.160 C 
ENDROOT
BRANCH  14  15
ATOM     15  CB  GLU D 570     -19.500  -6.345 -13.794  1.00 32.92     0.043 C 
BRANCH  15  16
ATOM     16  CG  GLU D 570     -19.810  -5.971 -15.198  1.00 32.92     0.100 C 
BRANCH  16  17
ATOM     17  CD  GLU D 570     -21.285  -5.749 -15.437  1.00 32.92     0.185 C 
ATOM     18  OE1 GLU D 570     -21.689  -4.601 -15.705  1.00 32.92    -0.647 OA
ATOM     19  OE2 GLU D 570     -22.048  -6.731 -15.338  1.00 32.92    -0.647 OA
ENDBRANCH  16  17
ENDBRANCH  15  16
ENDBRANCH  14  15
END_RES GLU D 570
ENDMDL
MODEL 8
REMARK VINA RESULT:      -5.5      4.212      7.599
REMARK  5 active torsions:
REMARK  status: ('A' for Active; 'I' for Inactive)
REMARK    1  A    between atoms: C_6  and  C_12 
REMARK    2  A    between atoms: C_7  and  C_10 
REMARK    3  A    between atoms: C_8  and  O_9 
REMARK    4  A    between atoms: C_10  and  O_11 
REMARK    5  A    between atoms: C_12  and  O_13 
ROOT
HETATM    1  C   UNL     1     -24.821  -7.374 -20.807  1.00  0.00     0.071 C 
HETATM    2  C   UNL     1     -25.557  -6.957 -19.569  1.00  0.00     0.039 A 
HETATM    3  N   UNL     1     -26.840  -6.533 -19.684  1.00  0.00    -0.367 N 
ATOM      4  HN  UNL     1     -27.274  -6.524 -20.607  1.00  0.00     0.165 HD
HETATM    5  C   UNL     1     -27.562  -6.121 -18.618  1.00  0.00     0.098 A 
HETATM    6  C   UNL     1     -27.004  -6.118 -17.331  1.00  0.00    -0.008 A 
HETATM    7  C   UNL     1     -25.664  -6.573 -17.156  1.00  0.00     0.010 A 
HETATM    8  C   UNL     1     -24.934  -6.993 -18.309  1.00  0.00     0.096 A 
ENDROOT
BRANCH   6   9
HETATM    9  C   UNL     1     -27.862  -5.610 -16.189  1.00  0.00     0.205 C 
BRANCH   9  10
HETATM   10  O   UNL     1     -27.588  -4.261 -15.921  1.00  0.00    -0.396 OA
HETATM   11  H   UNL     1     -27.060  -3.908 -16.684  1.00  0.00     0.209 HD
ENDBRANCH   9  10
ENDBRANCH   6   9
BRANCH   7  12
HETATM   12  C   UNL     1     -25.052  -6.606 -15.762  1.00  0.00     0.206 C 
BRANCH  12  13
HETATM   13  O   UNL     1     -24.635  -5.327 -15.368  1.00  0.00    -0.396 OA
HETATM   14  H   UNL     1     -24.990  -5.182 -14.452  1.00  0.00     0.209 HD
ENDBRANCH  12  13
ENDBRANCH   7  12
BRANCH   8  15
HETATM   15  O   UNL     1     -23.651  -7.421 -18.260  1.00  0.00    -0.358 OA
HETATM   16  H   UNL     1     -23.020  -7.257 -17.552  1.00  0.00     0.217 HD
ENDBRANCH   8  15
TORSDOF 5
BEGIN_RES ARG D 557
REMARK  4 active torsions:
REMARK  status: ('A' for Active; 'I' for Inactive)
REMARK    1  A    between atoms: CA   and  CB  
REMARK    2  A    between atoms: CB   and  CG  
REMARK    3  A    between atoms: CG   and  CD  
REMARK    4  A    between atoms: CD   and  NE  
REMARK       I    between atoms: NE   and  CZ  
REMARK       I    between atoms: CZ   and  NH1 
REMARK       I    between atoms: CZ   and  NH2 
ROOT
ATOM      1  CA  ARG D 557     -26.217   2.705 -17.014  1.00 35.49     0.159 C 
ENDROOT
BRANCH   1   2
ATOM      2  CB  ARG D 557     -26.789   1.319 -17.183  1.00 35.49     0.034 C 
BRANCH   2   3
ATOM      3  CG  ARG D 557     -25.861   0.195 -17.005  1.00 35.49     0.027 C 
BRANCH   3   4
ATOM      4  CD  ARG D 557     -26.220  -0.654 -15.846  1.00 35.49     0.116 C 
BRANCH   4   5
ATOM      5  NE  ARG D 557     -25.091  -0.908 -14.990  1.00 35.49    -0.212 N 
ATOM      6  CZ  ARG D 557     -24.916  -1.978 -14.247  1.00 35.49     0.666 C 
ATOM      7  NH1 ARG D 557     -25.798  -2.959 -14.197  1.00 35.49    -0.235 N 
ATOM      8  NH2 ARG D 557     -23.820  -2.051 -13.549  1.00 35.49    -0.235 N 
ATOM      9  HH  ARG D 557     -26.525  -2.933 -14.650  1.00 35.49     0.174 HD
ATOM     10  HH  ARG D 557     -25.629  -3.633 -13.696  1.00 35.49     0.174 HD
ATOM     11  HH  ARG D 557     -23.265  -1.406 -13.606  1.00 35.49     0.174 HD
ATOM     12  HH  ARG D 557     -23.671  -2.727 -13.060  1.00 35.49     0.174 HD
ATOM     13  HE  ARG D 557     -24.508  -0.295 -14.906  1.00 35.49     0.178 HD
ENDBRANCH   4   5
ENDBRANCH   3   4
ENDBRANCH   2   3
ENDBRANCH   1   2
END_RES ARG D 557
BEGIN_RES GLU D 570
REMARK  3 active torsions:
REMARK  status: ('A' for Active; 'I' for Inactive)
REMARK    5  A    between atoms: CA   and  CB  
REMARK    6  A    between atoms: CB   and  CG  
REMARK    7  A    between atoms: CG   and  CD  
ROOT
ATOM     14  CA  GLU D 570     -18.033  -6.348 -13.375  1.00 32.92     0.160 C 
ENDROOT
BRANCH  14  15
ATOM     15  CB  GLU D 570     -19.500  -6.345 -13.794  1.00 32.92     0.043 C 
BRANCH  15  16
ATOM     16  CG  GLU D 570     -20.446  -5.548 -12.970  1.00 32.92     0.100 C 
BRANCH  16  17
ATOM     17  CD  GLU D 570     -21.689  -5.143 -13.727  1.00 32.92     0.185 C 
ATOM     18  OE1 GLU D 570     -21.657  -5.110 -14.972  1.00 32.92    -0.647 OA
ATOM     19  OE2 GLU D 570     -22.703  -4.840 -13.066  1.00 32.92    -0.647 OA
ENDBRANCH  16  17
ENDBRANCH  15  16
ENDBRANCH  14  15
END_RES GLU D 570
ENDMDL
MODEL 9
REMARK VINA RESULT:      -5.3      5.550      7.773
REMARK  5 active torsions:
REMARK  status: ('A' for Active; 'I' for Inactive)
REMARK    1  A    between atoms: C_6  and  C_12 
REMARK    2  A    between atoms: C_7  and  C_10 
REMARK    3  A    between atoms: C_8  and  O_9 
REMARK    4  A    between atoms: C_10  and  O_11 
REMARK    5  A    between atoms: C_12  and  O_13 
ROOT
HETATM    1  C   UNL     1     -24.507  -7.396 -20.445  1.00  0.00     0.071 C 
HETATM    2  C   UNL     1     -25.199  -7.006 -19.173  1.00  0.00     0.039 A 
HETATM    3  N   UNL     1     -26.499  -6.627 -19.227  1.00  0.00    -0.367 N 
ATOM      4  HN  UNL     1     -26.977  -6.633 -20.128  1.00  0.00     0.165 HD
HETATM    5  C   UNL     1     -27.184  -6.241 -18.127  1.00  0.00     0.098 A 
HETATM    6  C   UNL     1     -26.566  -6.219 -16.868  1.00  0.00    -0.008 A 
HETATM    7  C   UNL     1     -25.204  -6.627 -16.758  1.00  0.00     0.010 A 
HETATM    8  C   UNL     1     -24.516  -7.020 -17.944  1.00  0.00     0.096 A 
ENDROOT
BRANCH   6   9
HETATM    9  C   UNL     1     -27.387  -5.743 -15.686  1.00  0.00     0.205 C 
BRANCH   9  10
HETATM   10  O   UNL     1     -28.698  -5.435 -16.081  1.00  0.00    -0.396 OA
HETATM   11  H   UNL     1     -29.299  -6.101 -15.656  1.00  0.00     0.209 HD
ENDBRANCH   9  10
ENDBRANCH   6   9
BRANCH   7  12
HETATM   12  C   UNL     1     -24.527  -6.639 -15.393  1.00  0.00     0.206 C 
BRANCH  12  13
HETATM   13  O   UNL     1     -23.540  -5.647 -15.316  1.00  0.00    -0.396 OA
HETATM   14  H   UNL     1     -24.014  -4.776 -15.273  1.00  0.00     0.209 HD
ENDBRANCH  12  13
ENDBRANCH   7  12
BRANCH   8  15
HETATM   15  O   UNL     1     -23.217  -7.403 -17.957  1.00  0.00    -0.358 OA
HETATM   16  H   UNL     1     -22.867  -8.246 -17.652  1.00  0.00     0.217 HD
ENDBRANCH   8  15
TORSDOF 5
BEGIN_RES ARG D 557
REMARK  4 active torsions:
REMARK  status: ('A' for Active; 'I' for Inactive)
REMARK    1  A    between atoms: CA   and  CB  
REMARK    2  A    between atoms: CB   and  CG  
REMARK    3  A    between atoms: CG   and  CD  
REMARK    4  A    between atoms: CD   and  NE  
REMARK       I    between atoms: NE   and  CZ  
REMARK       I    between atoms: CZ   and  NH1 
REMARK       I    between atoms: CZ   and  NH2 
ROOT
ATOM      1  CA  ARG D 557     -26.217   2.705 -17.014  1.00 35.49     0.159 C 
ENDROOT
BRANCH   1   2
ATOM      2  CB  ARG D 557     -26.789   1.319 -17.183  1.00 35.49     0.034 C 
BRANCH   2   3
ATOM      3  CG  ARG D 557     -28.244   1.221 -17.349  1.00 35.49     0.027 C 
BRANCH   3   4
ATOM      4  CD  ARG D 557     -28.851   0.228 -16.434  1.00 35.49     0.116 C 
BRANCH   4   5
ATOM      5  NE  ARG D 557     -29.306  -0.946 -17.131  1.00 35.49    -0.212 N 
ATOM      6  CZ  ARG D 557     -28.747  -2.134 -17.082  1.00 35.49     0.666 C 
ATOM      7  NH1 ARG D 557     -27.661  -2.378 -16.372  1.00 35.49    -0.235 N 
ATOM      8  NH2 ARG D 557     -29.308  -3.091 -17.763  1.00 35.49    -0.235 N 
ATOM      9  HH  ARG D 557     -27.276  -1.764 -15.915  1.00 35.49     0.174 HD
ATOM     10  HH  ARG D 557     -27.342  -3.173 -16.376  1.00 35.49     0.174 HD
ATOM     11  HH  ARG D 557     -30.013  -2.906 -18.206  1.00 35.49     0.174 HD
ATOM     12  HH  ARG D 557     -28.978  -3.872 -17.753  1.00 35.49     0.174 HD
ATOM     13  HE  ARG D 557     -29.959  -0.862 -17.670  1.00 35.49     0.178 HD
ENDBRANCH   4   5
ENDBRANCH   3   4
ENDBRANCH   2   3
ENDBRANCH   1   2
END_RES ARG D 557
BEGIN_RES GLU D 570
REMARK  3 active torsions:
REMARK  status: ('A' for Active; 'I' for Inactive)
REMARK    5  A    between atoms: CA   and  CB  
REMARK    6  A    between atoms: CB   and  CG  
REMARK    7  A    between atoms: CG   and  CD  
ROOT
ATOM     14  CA  GLU D 570     -18.033  -6.348 -13.375  1.00 32.92     0.160 C 
ENDROOT
BRANCH  14  15
ATOM     15  CB  GLU D 570     -19.500  -6.345 -13.794  1.00 32.92     0.043 C 
BRANCH  15  16
ATOM     16  CG  GLU D 570     -20.094  -7.640 -14.216  1.00 32.92     0.100 C 
BRANCH  16  17
ATOM     17  CD  GLU D 570     -20.741  -7.575 -15.580  1.00 32.92     0.185 C 
ATOM     18  OE1 GLU D 570     -21.157  -8.626 -16.103  1.00 32.92    -0.647 OA
ATOM     19  OE2 GLU D 570     -20.818  -6.462 -16.138  1.00 32.92    -0.647 OA
ENDBRANCH  16  17
ENDBRANCH  15  16
ENDBRANCH  14  15
END_RES GLU D 570
ENDMDL
