MODEL 1
REMARK VINA RESULT:      -7.0      0.000      0.000
REMARK  12 active torsions:
REMARK  status: ('A' for Active; 'I' for Inactive)
REMARK    1  A    between atoms: C_2  and  C_3 
REMARK    2  A    between atoms: C_3  and  C_4 
REMARK    3  A    between atoms: C_4  and  C_5 
REMARK    4  A    between atoms: C_5  and  C_6 
REMARK    5  A    between atoms: C_6  and  C_7 
REMARK    6  A    between atoms: C_7  and  C_8 
REMARK    7  A    between atoms: C_8  and  O_10 
REMARK    8  A    between atoms: O_10  and  C_11 
REMARK    9  A    between atoms: C_11  and  C_12 
REMARK   10  A    between atoms: C_12  and  C_13 
REMARK   11  A    between atoms: C_12  and  O_15 
REMARK   12  A    between atoms: C_13  and  O_14 
ROOT
HETATM    1  C   UNL     1     -24.646  -3.439 -10.379  1.00  0.00     0.258 C 
HETATM    2  O   UNL     1     -24.948  -2.819  -9.368  1.00  0.00    -0.265 OA
ENDROOT
BRANCH   1   3
HETATM    3  C   UNL     1     -23.725  -4.633 -10.417  1.00  0.00     0.111 C 
BRANCH   3   4
HETATM    4  C   UNL     1     -22.620  -4.478  -9.374  1.00  0.00     0.010 C 
BRANCH   4   5
HETATM    5  C   UNL     1     -21.338  -3.900  -9.962  1.00  0.00     0.000 C 
BRANCH   5   6
HETATM    6  C   UNL     1     -20.121  -4.642  -9.408  1.00  0.00     0.000 C 
BRANCH   6   7
HETATM    7  C   UNL     1     -19.704  -4.091  -8.047  1.00  0.00    -0.000 C 
BRANCH   7   8
HETATM    8  C   UNL     1     -19.664  -5.196  -6.993  1.00  0.00    -0.005 C 
HETATM    9  C   UNL     1     -20.229  -4.710  -5.669  1.00  0.00     0.005 C 
ENDBRANCH   7   8
ENDBRANCH   6   7
ENDBRANCH   5   6
ENDBRANCH   4   5
ENDBRANCH   3   4
ENDBRANCH   1   3
BRANCH   1  10
HETATM   10  O   UNL     1     -25.156  -3.189 -11.616  1.00  0.00    -0.319 OA
BRANCH  10  11
HETATM   11  C   UNL     1     -24.176  -2.805 -12.593  1.00  0.00     0.212 C 
BRANCH  11  12
HETATM   12  C   UNL     1     -24.728  -2.549 -14.001  1.00  0.00     0.166 C 
BRANCH  12  13
HETATM   13  C   UNL     1     -23.957  -1.454 -14.742  1.00  0.00     0.198 C 
BRANCH  13  14
HETATM   14  O   UNL     1     -22.902  -2.039 -15.505  1.00  0.00    -0.398 OA
HETATM   15  H   UNL     1     -23.258  -2.873 -15.870  1.00  0.00     0.209 HD
ENDBRANCH  13  14
ENDBRANCH  12  13
BRANCH  12  16
HETATM   16  O   UNL     1     -24.653  -3.756 -14.782  1.00  0.00    -0.391 OA
HETATM   17  H   UNL     1     -24.138  -4.411 -14.281  1.00  0.00     0.210 HD
ENDBRANCH  12  16
ENDBRANCH  11  12
ENDBRANCH  10  11
ENDBRANCH   1  10
TORSDOF 12
BEGIN_RES ARG D 557
REMARK  4 active torsions:
REMARK  status: ('A' for Active; 'I' for Inactive)
REMARK    1  A    between atoms: CA   and  CB  
REMARK    2  A    between atoms: CB   and  CG  
REMARK    3  A    between atoms: CG   and  CD  
REMARK    4  A    between atoms: CD   and  NE  
REMARK       I    between atoms: NE   and  CZ  
REMARK       I    between atoms: CZ   and  NH1 
REMARK       I    between atoms: CZ   and  NH2 
ROOT
ATOM      1  CA  ARG D 557     -26.217   2.705 -17.014  1.00 35.49     0.159 C 
ENDROOT
BRANCH   1   2
ATOM      2  CB  ARG D 557     -26.789   1.319 -17.183  1.00 35.49     0.034 C 
BRANCH   2   3
ATOM      3  CG  ARG D 557     -28.182   1.123 -16.763  1.00 35.49     0.027 C 
BRANCH   3   4
ATOM      4  CD  ARG D 557     -28.714  -0.197 -17.171  1.00 35.49     0.116 C 
BRANCH   4   5
ATOM      5  NE  ARG D 557     -27.975  -1.284 -16.585  1.00 35.49    -0.212 N 
ATOM      6  CZ  ARG D 557     -28.215  -2.563 -16.769  1.00 35.49     0.666 C 
ATOM      7  NH1 ARG D 557     -29.204  -2.997 -17.527  1.00 35.49    -0.235 N 
ATOM      8  NH2 ARG D 557     -27.428  -3.413 -16.174  1.00 35.49    -0.235 N 
ATOM      9  HH  ARG D 557     -29.733  -2.456 -17.930  1.00 35.49     0.174 HD
ATOM     10  HH  ARG D 557     -29.311  -3.843 -17.613  1.00 35.49     0.174 HD
ATOM     11  HH  ARG D 557     -26.793  -3.104 -15.697  1.00 35.49     0.174 HD
ATOM     12  HH  ARG D 557     -27.549  -4.246 -16.272  1.00 35.49     0.174 HD
ATOM     13  HE  ARG D 557     -27.365  -1.095 -16.024  1.00 35.49     0.178 HD
ENDBRANCH   4   5
ENDBRANCH   3   4
ENDBRANCH   2   3
ENDBRANCH   1   2
END_RES ARG D 557
BEGIN_RES GLU D 570
REMARK  3 active torsions:
REMARK  status: ('A' for Active; 'I' for Inactive)
REMARK    5  A    between atoms: CA   and  CB  
REMARK    6  A    between atoms: CB   and  CG  
REMARK    7  A    between atoms: CG   and  CD  
ROOT
ATOM     14  CA  GLU D 570     -18.033  -6.348 -13.375  1.00 32.92     0.160 C 
ENDROOT
BRANCH  14  15
ATOM     15  CB  GLU D 570     -19.500  -6.345 -13.794  1.00 32.92     0.043 C 
BRANCH  15  16
ATOM     16  CG  GLU D 570     -20.415  -5.422 -13.075  1.00 32.92     0.100 C 
BRANCH  16  17
ATOM     17  CD  GLU D 570     -21.716  -5.191 -13.809  1.00 32.92     0.185 C 
ATOM     18  OE1 GLU D 570     -22.746  -5.768 -13.412  1.00 32.92    -0.647 OA
ATOM     19  OE2 GLU D 570     -21.700  -4.438 -14.803  1.00 32.92    -0.647 OA
ENDBRANCH  16  17
ENDBRANCH  15  16
ENDBRANCH  14  15
END_RES GLU D 570
ENDMDL
MODEL 2
REMARK VINA RESULT:      -6.9      7.656     10.140
REMARK  12 active torsions:
REMARK  status: ('A' for Active; 'I' for Inactive)
REMARK    1  A    between atoms: C_2  and  C_3 
REMARK    2  A    between atoms: C_3  and  C_4 
REMARK    3  A    between atoms: C_4  and  C_5 
REMARK    4  A    between atoms: C_5  and  C_6 
REMARK    5  A    between atoms: C_6  and  C_7 
REMARK    6  A    between atoms: C_7  and  C_8 
REMARK    7  A    between atoms: C_8  and  O_10 
REMARK    8  A    between atoms: O_10  and  C_11 
REMARK    9  A    between atoms: C_11  and  C_12 
REMARK   10  A    between atoms: C_12  and  C_13 
REMARK   11  A    between atoms: C_12  and  O_15 
REMARK   12  A    between atoms: C_13  and  O_14 
ROOT
HETATM    1  C   UNL     1     -35.327  -0.856 -12.250  1.00  0.00     0.258 C 
HETATM    2  O   UNL     1     -34.840   0.263 -12.157  1.00  0.00    -0.265 OA
ENDROOT
BRANCH   1   3
HETATM    3  C   UNL     1     -35.146  -1.965 -11.243  1.00  0.00     0.111 C 
BRANCH   3   4
HETATM    4  C   UNL     1     -33.659  -2.205 -10.990  1.00  0.00     0.010 C 
BRANCH   4   5
HETATM    5  C   UNL     1     -33.244  -3.646 -11.272  1.00  0.00     0.000 C 
BRANCH   5   6
HETATM    6  C   UNL     1     -34.089  -4.611 -10.437  1.00  0.00     0.000 C 
BRANCH   6   7
HETATM    7  C   UNL     1     -33.830  -6.062 -10.832  1.00  0.00    -0.000 C 
BRANCH   7   8
HETATM    8  C   UNL     1     -34.800  -7.008 -10.126  1.00  0.00    -0.005 C 
HETATM    9  C   UNL     1     -34.156  -8.359  -9.867  1.00  0.00     0.005 C 
ENDBRANCH   7   8
ENDBRANCH   6   7
ENDBRANCH   5   6
ENDBRANCH   4   5
ENDBRANCH   3   4
ENDBRANCH   1   3
BRANCH   1  10
HETATM   10  O   UNL     1     -36.171  -1.248 -13.245  1.00  0.00    -0.319 OA
BRANCH  10  11
HETATM   11  C   UNL     1     -36.881  -0.171 -13.875  1.00  0.00     0.212 C 
BRANCH  11  12
HETATM   12  C   UNL     1     -36.246   0.359 -15.166  1.00  0.00     0.166 C 
BRANCH  12  13
HETATM   13  C   UNL     1     -35.835  -0.765 -16.121  1.00  0.00     0.198 C 
BRANCH  13  14
HETATM   14  O   UNL     1     -36.640  -0.714 -17.300  1.00  0.00    -0.398 OA
HETATM   15  H   UNL     1     -36.844  -1.641 -17.532  1.00  0.00     0.209 HD
ENDBRANCH  13  14
ENDBRANCH  12  13
BRANCH  12  16
HETATM   16  O   UNL     1     -37.178   1.213 -15.855  1.00  0.00    -0.391 OA
HETATM   17  H   UNL     1     -38.067   0.827 -15.766  1.00  0.00     0.210 HD
ENDBRANCH  12  16
ENDBRANCH  11  12
ENDBRANCH  10  11
ENDBRANCH   1  10
TORSDOF 12
BEGIN_RES ARG D 557
REMARK  4 active torsions:
REMARK  status: ('A' for Active; 'I' for Inactive)
REMARK    1  A    between atoms: CA   and  CB  
REMARK    2  A    between atoms: CB   and  CG  
REMARK    3  A    between atoms: CG   and  CD  
REMARK    4  A    between atoms: CD   and  NE  
REMARK       I    between atoms: NE   and  CZ  
REMARK       I    between atoms: CZ   and  NH1 
REMARK       I    between atoms: CZ   and  NH2 
ROOT
ATOM      1  CA  ARG D 557     -26.217   2.705 -17.014  1.00 35.49     0.159 C 
ENDROOT
BRANCH   1   2
ATOM      2  CB  ARG D 557     -26.789   1.319 -17.183  1.00 35.49     0.034 C 
BRANCH   2   3
ATOM      3  CG  ARG D 557     -25.862   0.195 -17.001  1.00 35.49     0.027 C 
BRANCH   3   4
ATOM      4  CD  ARG D 557     -26.281  -0.710 -15.906  1.00 35.49     0.116 C 
BRANCH   4   5
ATOM      5  NE  ARG D 557     -25.234  -0.915 -14.941  1.00 35.49    -0.212 N 
ATOM      6  CZ  ARG D 557     -24.954  -2.050 -14.340  1.00 35.49     0.666 C 
ATOM      7  NH1 ARG D 557     -25.642  -3.156 -14.558  1.00 35.49    -0.235 N 
ATOM      8  NH2 ARG D 557     -23.954  -2.058 -13.508  1.00 35.49    -0.235 N 
ATOM      9  HH  ARG D 557     -26.303  -3.174 -15.103  1.00 35.49     0.174 HD
ATOM     10  HH  ARG D 557     -25.412  -3.867 -14.140  1.00 35.49     0.174 HD
ATOM     11  HH  ARG D 557     -23.523  -1.331 -13.393  1.00 35.49     0.174 HD
ATOM     12  HH  ARG D 557     -23.741  -2.773 -13.104  1.00 35.49     0.174 HD
ATOM     13  HE  ARG D 557     -24.787  -0.238 -14.687  1.00 35.49     0.178 HD
ENDBRANCH   4   5
ENDBRANCH   3   4
ENDBRANCH   2   3
ENDBRANCH   1   2
END_RES ARG D 557
BEGIN_RES GLU D 570
REMARK  3 active torsions:
REMARK  status: ('A' for Active; 'I' for Inactive)
REMARK    5  A    between atoms: CA   and  CB  
REMARK    6  A    between atoms: CB   and  CG  
REMARK    7  A    between atoms: CG   and  CD  
ROOT
ATOM     14  CA  GLU D 570     -18.033  -6.348 -13.375  1.00 32.92     0.160 C 
ENDROOT
BRANCH  14  15
ATOM     15  CB  GLU D 570     -19.500  -6.345 -13.794  1.00 32.92     0.043 C 
BRANCH  15  16
ATOM     16  CG  GLU D 570     -20.447  -5.555 -12.966  1.00 32.92     0.100 C 
BRANCH  16  17
ATOM     17  CD  GLU D 570     -21.675  -5.118 -13.729  1.00 32.92     0.185 C 
ATOM     18  OE1 GLU D 570     -22.735  -4.917 -13.106  1.00 32.92    -0.647 OA
ATOM     19  OE2 GLU D 570     -21.581  -4.992 -14.966  1.00 32.92    -0.647 OA
ENDBRANCH  16  17
ENDBRANCH  15  16
ENDBRANCH  14  15
END_RES GLU D 570
ENDMDL
MODEL 3
REMARK VINA RESULT:      -6.8      7.249      9.854
REMARK  12 active torsions:
REMARK  status: ('A' for Active; 'I' for Inactive)
REMARK    1  A    between atoms: C_2  and  C_3 
REMARK    2  A    between atoms: C_3  and  C_4 
REMARK    3  A    between atoms: C_4  and  C_5 
REMARK    4  A    between atoms: C_5  and  C_6 
REMARK    5  A    between atoms: C_6  and  C_7 
REMARK    6  A    between atoms: C_7  and  C_8 
REMARK    7  A    between atoms: C_8  and  O_10 
REMARK    8  A    between atoms: O_10  and  C_11 
REMARK    9  A    between atoms: C_11  and  C_12 
REMARK   10  A    between atoms: C_12  and  C_13 
REMARK   11  A    between atoms: C_12  and  O_15 
REMARK   12  A    between atoms: C_13  and  O_14 
ROOT
HETATM    1  C   UNL     1     -35.297  -1.100 -12.302  1.00  0.00     0.258 C 
HETATM    2  O   UNL     1     -34.732  -0.033 -12.101  1.00  0.00    -0.265 OA
ENDROOT
BRANCH   1   3
HETATM    3  C   UNL     1     -35.323  -2.259 -11.338  1.00  0.00     0.111 C 
BRANCH   3   4
HETATM    4  C   UNL     1     -33.974  -2.388 -10.634  1.00  0.00     0.010 C 
BRANCH   4   5
HETATM    5  C   UNL     1     -32.999  -3.277 -11.399  1.00  0.00     0.000 C 
BRANCH   5   6
HETATM    6  C   UNL     1     -33.727  -4.500 -11.958  1.00  0.00     0.000 C 
BRANCH   6   7
HETATM    7  C   UNL     1     -33.453  -5.745 -11.118  1.00  0.00    -0.000 C 
BRANCH   7   8
HETATM    8  C   UNL     1     -34.646  -6.081 -10.224  1.00  0.00    -0.005 C 
HETATM    9  C   UNL     1     -34.755  -7.579  -9.999  1.00  0.00     0.005 C 
ENDBRANCH   7   8
ENDBRANCH   6   7
ENDBRANCH   5   6
ENDBRANCH   4   5
ENDBRANCH   3   4
ENDBRANCH   1   3
BRANCH   1  10
HETATM   10  O   UNL     1     -36.052  -1.374 -13.402  1.00  0.00    -0.319 OA
BRANCH  10  11
HETATM   11  C   UNL     1     -36.643  -0.219 -14.016  1.00  0.00     0.212 C 
BRANCH  11  12
HETATM   12  C   UNL     1     -35.985   0.227 -15.327  1.00  0.00     0.166 C 
BRANCH  12  13
HETATM   13  C   UNL     1     -35.972  -0.880 -16.384  1.00  0.00     0.198 C 
BRANCH  13  14
HETATM   14  O   UNL     1     -35.114  -1.940 -15.961  1.00  0.00    -0.398 OA
HETATM   15  H   UNL     1     -35.532  -2.769 -16.266  1.00  0.00     0.209 HD
ENDBRANCH  13  14
ENDBRANCH  12  13
BRANCH  12  16
HETATM   16  O   UNL     1     -36.696   1.356 -15.871  1.00  0.00    -0.391 OA
HETATM   17  H   UNL     1     -36.601   1.338 -16.839  1.00  0.00     0.210 HD
ENDBRANCH  12  16
ENDBRANCH  11  12
ENDBRANCH  10  11
ENDBRANCH   1  10
TORSDOF 12
BEGIN_RES ARG D 557
REMARK  4 active torsions:
REMARK  status: ('A' for Active; 'I' for Inactive)
REMARK    1  A    between atoms: CA   and  CB  
REMARK    2  A    between atoms: CB   and  CG  
REMARK    3  A    between atoms: CG   and  CD  
REMARK    4  A    between atoms: CD   and  NE  
REMARK       I    between atoms: NE   and  CZ  
REMARK       I    between atoms: CZ   and  NH1 
REMARK       I    between atoms: CZ   and  NH2 
ROOT
ATOM      1  CA  ARG D 557     -26.217   2.705 -17.014  1.00 35.49     0.159 C 
ENDROOT
BRANCH   1   2
ATOM      2  CB  ARG D 557     -26.789   1.319 -17.183  1.00 35.49     0.034 C 
BRANCH   2   3
ATOM      3  CG  ARG D 557     -28.232   1.226 -17.438  1.00 35.49     0.027 C 
BRANCH   3   4
ATOM      4  CD  ARG D 557     -28.913   0.306 -16.499  1.00 35.49     0.116 C 
BRANCH   4   5
ATOM      5  NE  ARG D 557     -29.292  -0.930 -17.130  1.00 35.49    -0.212 N 
ATOM      6  CZ  ARG D 557     -28.653  -2.074 -17.025  1.00 35.49     0.666 C 
ATOM      7  NH1 ARG D 557     -27.548  -2.206 -16.315  1.00 35.49    -0.235 N 
ATOM      8  NH2 ARG D 557     -29.153  -3.100 -17.650  1.00 35.49    -0.235 N 
ATOM      9  HH  ARG D 557     -27.203  -1.544 -15.894  1.00 35.49     0.174 HD
ATOM     10  HH  ARG D 557     -27.176  -2.977 -16.282  1.00 35.49     0.174 HD
ATOM     11  HH  ARG D 557     -29.872  -2.987 -18.095  1.00 35.49     0.174 HD
ATOM     12  HH  ARG D 557     -28.771  -3.855 -17.603  1.00 35.49     0.174 HD
ATOM     13  HE  ARG D 557     -29.953  -0.919 -17.665  1.00 35.49     0.178 HD
ENDBRANCH   4   5
ENDBRANCH   3   4
ENDBRANCH   2   3
ENDBRANCH   1   2
END_RES ARG D 557
BEGIN_RES GLU D 570
REMARK  3 active torsions:
REMARK  status: ('A' for Active; 'I' for Inactive)
REMARK    5  A    between atoms: CA   and  CB  
REMARK    6  A    between atoms: CB   and  CG  
REMARK    7  A    between atoms: CG   and  CD  
ROOT
ATOM     14  CA  GLU D 570     -18.033  -6.348 -13.375  1.00 32.92     0.160 C 
ENDROOT
BRANCH  14  15
ATOM     15  CB  GLU D 570     -19.500  -6.345 -13.794  1.00 32.92     0.043 C 
BRANCH  15  16
ATOM     16  CG  GLU D 570     -20.441  -5.528 -12.985  1.00 32.92     0.100 C 
BRANCH  16  17
ATOM     17  CD  GLU D 570     -21.731  -5.223 -13.711  1.00 32.92     0.185 C 
ATOM     18  OE1 GLU D 570     -22.470  -4.318 -13.278  1.00 32.92    -0.647 OA
ATOM     19  OE2 GLU D 570     -22.013  -5.908 -14.715  1.00 32.92    -0.647 OA
ENDBRANCH  16  17
ENDBRANCH  15  16
ENDBRANCH  14  15
END_RES GLU D 570
ENDMDL
MODEL 4
REMARK VINA RESULT:      -6.8      1.265      1.411
REMARK  12 active torsions:
REMARK  status: ('A' for Active; 'I' for Inactive)
REMARK    1  A    between atoms: C_2  and  C_3 
REMARK    2  A    between atoms: C_3  and  C_4 
REMARK    3  A    between atoms: C_4  and  C_5 
REMARK    4  A    between atoms: C_5  and  C_6 
REMARK    5  A    between atoms: C_6  and  C_7 
REMARK    6  A    between atoms: C_7  and  C_8 
REMARK    7  A    between atoms: C_8  and  O_10 
REMARK    8  A    between atoms: O_10  and  C_11 
REMARK    9  A    between atoms: C_11  and  C_12 
REMARK   10  A    between atoms: C_12  and  C_13 
REMARK   11  A    between atoms: C_12  and  O_15 
REMARK   12  A    between atoms: C_13  and  O_14 
ROOT
HETATM    1  C   UNL     1     -24.443  -3.371 -10.932  1.00  0.00     0.258 C 
HETATM    2  O   UNL     1     -25.382  -3.233 -10.158  1.00  0.00    -0.265 OA
ENDROOT
BRANCH   1   3
HETATM    3  C   UNL     1     -23.400  -4.456 -10.840  1.00  0.00     0.111 C 
BRANCH   3   4
HETATM    4  C   UNL     1     -22.006  -3.838 -10.752  1.00  0.00     0.010 C 
BRANCH   4   5
HETATM    5  C   UNL     1     -21.250  -4.277  -9.503  1.00  0.00     0.000 C 
BRANCH   5   6
HETATM    6  C   UNL     1     -22.025  -3.874  -8.247  1.00  0.00     0.000 C 
BRANCH   6   7
HETATM    7  C   UNL     1     -21.108  -3.783  -7.030  1.00  0.00    -0.000 C 
BRANCH   7   8
HETATM    8  C   UNL     1     -19.891  -4.692  -7.187  1.00  0.00    -0.005 C 
HETATM    9  C   UNL     1     -20.065  -5.980  -6.400  1.00  0.00     0.005 C 
ENDBRANCH   7   8
ENDBRANCH   6   7
ENDBRANCH   5   6
ENDBRANCH   4   5
ENDBRANCH   3   4
ENDBRANCH   1   3
BRANCH   1  10
HETATM   10  O   UNL     1     -24.242  -2.606 -12.040  1.00  0.00    -0.319 OA
BRANCH  10  11
HETATM   11  C   UNL     1     -24.591  -3.251 -13.274  1.00  0.00     0.212 C 
BRANCH  11  12
HETATM   12  C   UNL     1     -23.733  -2.852 -14.481  1.00  0.00     0.166 C 
BRANCH  12  13
HETATM   13  C   UNL     1     -23.915  -1.384 -14.871  1.00  0.00     0.198 C 
BRANCH  13  14
HETATM   14  O   UNL     1     -25.249  -0.969 -14.575  1.00  0.00    -0.398 OA
HETATM   15  H   UNL     1     -25.671  -1.716 -14.106  1.00  0.00     0.209 HD
ENDBRANCH  13  14
ENDBRANCH  12  13
BRANCH  12  16
HETATM   16  O   UNL     1     -22.340  -3.066 -14.182  1.00  0.00    -0.391 OA
HETATM   17  H   UNL     1     -22.267  -3.859 -13.623  1.00  0.00     0.210 HD
ENDBRANCH  12  16
ENDBRANCH  11  12
ENDBRANCH  10  11
ENDBRANCH   1  10
TORSDOF 12
BEGIN_RES ARG D 557
REMARK  4 active torsions:
REMARK  status: ('A' for Active; 'I' for Inactive)
REMARK    1  A    between atoms: CA   and  CB  
REMARK    2  A    between atoms: CB   and  CG  
REMARK    3  A    between atoms: CG   and  CD  
REMARK    4  A    between atoms: CD   and  NE  
REMARK       I    between atoms: NE   and  CZ  
REMARK       I    between atoms: CZ   and  NH1 
REMARK       I    between atoms: CZ   and  NH2 
ROOT
ATOM      1  CA  ARG D 557     -26.217   2.705 -17.014  1.00 35.49     0.159 C 
ENDROOT
BRANCH   1   2
ATOM      2  CB  ARG D 557     -26.789   1.319 -17.183  1.00 35.49     0.034 C 
BRANCH   2   3
ATOM      3  CG  ARG D 557     -28.235   1.225 -17.418  1.00 35.49     0.027 C 
BRANCH   3   4
ATOM      4  CD  ARG D 557     -28.888   0.236 -16.530  1.00 35.49     0.116 C 
BRANCH   4   5
ATOM      5  NE  ARG D 557     -27.987  -0.812 -16.131  1.00 35.49    -0.212 N 
ATOM      6  CZ  ARG D 557     -28.038  -2.063 -16.531  1.00 35.49     0.666 C 
ATOM      7  NH1 ARG D 557     -28.966  -2.505 -17.360  1.00 35.49    -0.235 N 
ATOM      8  NH2 ARG D 557     -27.125  -2.875 -16.083  1.00 35.49    -0.235 N 
ATOM      9  HH  ARG D 557     -29.575  -1.987 -17.669  1.00 35.49     0.174 HD
ATOM     10  HH  ARG D 557     -28.948  -3.330 -17.589  1.00 35.49     0.174 HD
ATOM     11  HH  ARG D 557     -26.534  -2.560 -15.555  1.00 35.49     0.174 HD
ATOM     12  HH  ARG D 557     -27.123  -3.689 -16.322  1.00 35.49     0.174 HD
ATOM     13  HE  ARG D 557     -27.401  -0.633 -15.541  1.00 35.49     0.178 HD
ENDBRANCH   4   5
ENDBRANCH   3   4
ENDBRANCH   2   3
ENDBRANCH   1   2
END_RES ARG D 557
BEGIN_RES GLU D 570
REMARK  3 active torsions:
REMARK  status: ('A' for Active; 'I' for Inactive)
REMARK    5  A    between atoms: CA   and  CB  
REMARK    6  A    between atoms: CB   and  CG  
REMARK    7  A    between atoms: CG   and  CD  
ROOT
ATOM     14  CA  GLU D 570     -18.033  -6.348 -13.375  1.00 32.92     0.160 C 
ENDROOT
BRANCH  14  15
ATOM     15  CB  GLU D 570     -19.500  -6.345 -13.794  1.00 32.92     0.043 C 
BRANCH  15  16
ATOM     16  CG  GLU D 570     -19.801  -6.120 -15.231  1.00 32.92     0.100 C 
BRANCH  16  17
ATOM     17  CD  GLU D 570     -21.234  -5.709 -15.476  1.00 32.92     0.185 C 
ATOM     18  OE1 GLU D 570     -22.118  -6.098 -14.689  1.00 32.92    -0.647 OA
ATOM     19  OE2 GLU D 570     -21.477  -5.004 -16.475  1.00 32.92    -0.647 OA
ENDBRANCH  16  17
ENDBRANCH  15  16
ENDBRANCH  14  15
END_RES GLU D 570
ENDMDL
MODEL 5
REMARK VINA RESULT:      -6.7      1.364      1.920
REMARK  12 active torsions:
REMARK  status: ('A' for Active; 'I' for Inactive)
REMARK    1  A    between atoms: C_2  and  C_3 
REMARK    2  A    between atoms: C_3  and  C_4 
REMARK    3  A    between atoms: C_4  and  C_5 
REMARK    4  A    between atoms: C_5  and  C_6 
REMARK    5  A    between atoms: C_6  and  C_7 
REMARK    6  A    between atoms: C_7  and  C_8 
REMARK    7  A    between atoms: C_8  and  O_10 
REMARK    8  A    between atoms: O_10  and  C_11 
REMARK    9  A    between atoms: C_11  and  C_12 
REMARK   10  A    between atoms: C_12  and  C_13 
REMARK   11  A    between atoms: C_12  and  O_15 
REMARK   12  A    between atoms: C_13  and  O_14 
ROOT
HETATM    1  C   UNL     1     -24.140  -3.602 -12.310  1.00  0.00     0.258 C 
HETATM    2  O   UNL     1     -24.959  -3.117 -11.540  1.00  0.00    -0.265 OA
ENDROOT
BRANCH   1   3
HETATM    3  C   UNL     1     -22.751  -4.045 -11.928  1.00  0.00     0.111 C 
BRANCH   3   4
HETATM    4  C   UNL     1     -21.864  -2.828 -11.667  1.00  0.00     0.010 C 
BRANCH   4   5
HETATM    5  C   UNL     1     -20.473  -3.213 -11.178  1.00  0.00     0.000 C 
BRANCH   5   6
HETATM    6  C   UNL     1     -20.545  -4.483 -10.326  1.00  0.00     0.000 C 
BRANCH   6   7
HETATM    7  C   UNL     1     -20.137  -4.209  -8.881  1.00  0.00    -0.000 C 
BRANCH   7   8
HETATM    8  C   UNL     1     -21.188  -4.728  -7.902  1.00  0.00    -0.005 C 
HETATM    9  C   UNL     1     -22.558  -4.150  -8.214  1.00  0.00     0.005 C 
ENDBRANCH   7   8
ENDBRANCH   6   7
ENDBRANCH   5   6
ENDBRANCH   4   5
ENDBRANCH   3   4
ENDBRANCH   1   3
BRANCH   1  10
HETATM   10  O   UNL     1     -24.389  -3.883 -13.619  1.00  0.00    -0.319 OA
BRANCH  10  11
HETATM   11  C   UNL     1     -24.952  -2.791 -14.362  1.00  0.00     0.212 C 
BRANCH  11  12
HETATM   12  C   UNL     1     -24.107  -1.511 -14.376  1.00  0.00     0.166 C 
BRANCH  12  13
HETATM   13  C   UNL     1     -22.947  -1.586 -15.372  1.00  0.00     0.198 C 
BRANCH  13  14
HETATM   14  O   UNL     1     -22.303  -2.856 -15.268  1.00  0.00    -0.398 OA
HETATM   15  H   UNL     1     -21.780  -2.831 -14.442  1.00  0.00     0.209 HD
ENDBRANCH  13  14
ENDBRANCH  12  13
BRANCH  12  16
HETATM   16  O   UNL     1     -24.931  -0.386 -14.733  1.00  0.00    -0.391 OA
HETATM   17  H   UNL     1     -25.652  -0.705 -15.304  1.00  0.00     0.210 HD
ENDBRANCH  12  16
ENDBRANCH  11  12
ENDBRANCH  10  11
ENDBRANCH   1  10
TORSDOF 12
BEGIN_RES ARG D 557
REMARK  4 active torsions:
REMARK  status: ('A' for Active; 'I' for Inactive)
REMARK    1  A    between atoms: CA   and  CB  
REMARK    2  A    between atoms: CB   and  CG  
REMARK    3  A    between atoms: CG   and  CD  
REMARK    4  A    between atoms: CD   and  NE  
REMARK       I    between atoms: NE   and  CZ  
REMARK       I    between atoms: CZ   and  NH1 
REMARK       I    between atoms: CZ   and  NH2 
ROOT
ATOM      1  CA  ARG D 557     -26.217   2.705 -17.014  1.00 35.49     0.159 C 
ENDROOT
BRANCH   1   2
ATOM      2  CB  ARG D 557     -26.789   1.319 -17.183  1.00 35.49     0.034 C 
BRANCH   2   3
ATOM      3  CG  ARG D 557     -28.152   1.101 -16.684  1.00 35.49     0.027 C 
BRANCH   3   4
ATOM      4  CD  ARG D 557     -28.784  -0.101 -17.274  1.00 35.49     0.116 C 
BRANCH   4   5
ATOM      5  NE  ARG D 557     -28.156  -1.317 -16.831  1.00 35.49    -0.212 N 
ATOM      6  CZ  ARG D 557     -28.615  -2.533 -17.023  1.00 35.49     0.666 C 
ATOM      7  NH1 ARG D 557     -29.750  -2.771 -17.654  1.00 35.49    -0.235 N 
ATOM      8  NH2 ARG D 557     -27.902  -3.523 -16.570  1.00 35.49    -0.235 N 
ATOM      9  HH  ARG D 557     -30.234  -2.135 -17.963  1.00 35.49     0.174 HD
ATOM     10  HH  ARG D 557     -29.998  -3.585 -17.752  1.00 35.49     0.174 HD
ATOM     11  HH  ARG D 557     -27.170  -3.340 -16.173  1.00 35.49     0.174 HD
ATOM     12  HH  ARG D 557     -28.164  -4.322 -16.679  1.00 35.49     0.174 HD
ATOM     13  HE  ARG D 557     -27.456  -1.253 -16.352  1.00 35.49     0.178 HD
ENDBRANCH   4   5
ENDBRANCH   3   4
ENDBRANCH   2   3
ENDBRANCH   1   2
END_RES ARG D 557
BEGIN_RES GLU D 570
REMARK  3 active torsions:
REMARK  status: ('A' for Active; 'I' for Inactive)
REMARK    5  A    between atoms: CA   and  CB  
REMARK    6  A    between atoms: CB   and  CG  
REMARK    7  A    between atoms: CG   and  CD  
ROOT
ATOM     14  CA  GLU D 570     -18.033  -6.348 -13.375  1.00 32.92     0.160 C 
ENDROOT
BRANCH  14  15
ATOM     15  CB  GLU D 570     -19.500  -6.345 -13.794  1.00 32.92     0.043 C 
BRANCH  15  16
ATOM     16  CG  GLU D 570     -19.796  -6.393 -15.249  1.00 32.92     0.100 C 
BRANCH  16  17
ATOM     17  CD  GLU D 570     -21.170  -5.863 -15.589  1.00 32.92     0.185 C 
ATOM     18  OE1 GLU D 570     -21.342  -5.282 -16.677  1.00 32.92    -0.647 OA
ATOM     19  OE2 GLU D 570     -22.079  -6.016 -14.750  1.00 32.92    -0.647 OA
ENDBRANCH  16  17
ENDBRANCH  15  16
ENDBRANCH  14  15
END_RES GLU D 570
ENDMDL
MODEL 6
REMARK VINA RESULT:      -6.5      1.599      1.879
REMARK  12 active torsions:
REMARK  status: ('A' for Active; 'I' for Inactive)
REMARK    1  A    between atoms: C_2  and  C_3 
REMARK    2  A    between atoms: C_3  and  C_4 
REMARK    3  A    between atoms: C_4  and  C_5 
REMARK    4  A    between atoms: C_5  and  C_6 
REMARK    5  A    between atoms: C_6  and  C_7 
REMARK    6  A    between atoms: C_7  and  C_8 
REMARK    7  A    between atoms: C_8  and  O_10 
REMARK    8  A    between atoms: O_10  and  C_11 
REMARK    9  A    between atoms: C_11  and  C_12 
REMARK   10  A    between atoms: C_12  and  C_13 
REMARK   11  A    between atoms: C_12  and  O_15 
REMARK   12  A    between atoms: C_13  and  O_14 
ROOT
HETATM    1  C   UNL     1     -24.196  -3.348 -10.821  1.00  0.00     0.258 C 
HETATM    2  O   UNL     1     -25.334  -3.175 -10.405  1.00  0.00    -0.265 OA
ENDROOT
BRANCH   1   3
HETATM    3  C   UNL     1     -23.106  -4.077 -10.077  1.00  0.00     0.111 C 
BRANCH   3   4
HETATM    4  C   UNL     1     -21.908  -4.310 -10.996  1.00  0.00     0.010 C 
BRANCH   4   5
HETATM    5  C   UNL     1     -20.604  -3.793 -10.398  1.00  0.00     0.000 C 
BRANCH   5   6
HETATM    6  C   UNL     1     -20.090  -4.765  -9.333  1.00  0.00     0.000 C 
BRANCH   6   7
HETATM    7  C   UNL     1     -19.744  -4.039  -8.036  1.00  0.00    -0.000 C 
BRANCH   7   8
HETATM    8  C   UNL     1     -20.999  -3.742  -7.218  1.00  0.00    -0.005 C 
HETATM    9  C   UNL     1     -21.582  -5.016  -6.629  1.00  0.00     0.005 C 
ENDBRANCH   7   8
ENDBRANCH   6   7
ENDBRANCH   5   6
ENDBRANCH   4   5
ENDBRANCH   3   4
ENDBRANCH   1   3
BRANCH   1  10
HETATM   10  O   UNL     1     -23.763  -2.970 -12.055  1.00  0.00    -0.319 OA
BRANCH  10  11
HETATM   11  C   UNL     1     -24.791  -2.935 -13.057  1.00  0.00     0.212 C 
BRANCH  11  12
HETATM   12  C   UNL     1     -24.376  -3.474 -14.432  1.00  0.00     0.166 C 
BRANCH  12  13
HETATM   13  C   UNL     1     -23.312  -4.570 -14.335  1.00  0.00     0.198 C 
BRANCH  13  14
HETATM   14  O   UNL     1     -22.016  -4.001 -14.520  1.00  0.00    -0.398 OA
HETATM   15  H   UNL     1     -21.706  -3.732 -13.633  1.00  0.00     0.209 HD
ENDBRANCH  13  14
ENDBRANCH  12  13
BRANCH  12  16
HETATM   16  O   UNL     1     -25.524  -4.022 -15.108  1.00  0.00    -0.391 OA
HETATM   17  H   UNL     1     -26.136  -3.293 -15.308  1.00  0.00     0.210 HD
ENDBRANCH  12  16
ENDBRANCH  11  12
ENDBRANCH  10  11
ENDBRANCH   1  10
TORSDOF 12
BEGIN_RES ARG D 557
REMARK  4 active torsions:
REMARK  status: ('A' for Active; 'I' for Inactive)
REMARK    1  A    between atoms: CA   and  CB  
REMARK    2  A    between atoms: CB   and  CG  
REMARK    3  A    between atoms: CG   and  CD  
REMARK    4  A    between atoms: CD   and  NE  
REMARK       I    between atoms: NE   and  CZ  
REMARK       I    between atoms: CZ   and  NH1 
REMARK       I    between atoms: CZ   and  NH2 
ROOT
ATOM      1  CA  ARG D 557     -26.217   2.705 -17.014  1.00 35.49     0.159 C 
ENDROOT
BRANCH   1   2
ATOM      2  CB  ARG D 557     -26.789   1.319 -17.183  1.00 35.49     0.034 C 
BRANCH   2   3
ATOM      3  CG  ARG D 557     -28.229   1.227 -17.453  1.00 35.49     0.027 C 
BRANCH   3   4
ATOM      4  CD  ARG D 557     -28.922   0.317 -16.513  1.00 35.49     0.116 C 
BRANCH   4   5
ATOM      5  NE  ARG D 557     -29.287  -0.929 -17.133  1.00 35.49    -0.212 N 
ATOM      6  CZ  ARG D 557     -28.635  -2.065 -17.018  1.00 35.49     0.666 C 
ATOM      7  NH1 ARG D 557     -27.530  -2.179 -16.306  1.00 35.49    -0.235 N 
ATOM      8  NH2 ARG D 557     -29.123  -3.102 -17.635  1.00 35.49    -0.235 N 
ATOM      9  HH  ARG D 557     -27.192  -1.510 -15.890  1.00 35.49     0.174 HD
ATOM     10  HH  ARG D 557     -27.149  -2.945 -16.265  1.00 35.49     0.174 HD
ATOM     11  HH  ARG D 557     -29.842  -3.000 -18.082  1.00 35.49     0.174 HD
ATOM     12  HH  ARG D 557     -28.733  -3.852 -17.581  1.00 35.49     0.174 HD
ATOM     13  HE  ARG D 557     -29.947  -0.930 -17.670  1.00 35.49     0.178 HD
ENDBRANCH   4   5
ENDBRANCH   3   4
ENDBRANCH   2   3
ENDBRANCH   1   2
END_RES ARG D 557
BEGIN_RES GLU D 570
REMARK  3 active torsions:
REMARK  status: ('A' for Active; 'I' for Inactive)
REMARK    5  A    between atoms: CA   and  CB  
REMARK    6  A    between atoms: CB   and  CG  
REMARK    7  A    between atoms: CG   and  CD  
ROOT
ATOM     14  CA  GLU D 570     -18.033  -6.348 -13.375  1.00 32.92     0.160 C 
ENDROOT
BRANCH  14  15
ATOM     15  CB  GLU D 570     -19.500  -6.345 -13.794  1.00 32.92     0.043 C 
BRANCH  15  16
ATOM     16  CG  GLU D 570     -20.080  -7.629 -14.265  1.00 32.92     0.100 C 
BRANCH  16  17
ATOM     17  CD  GLU D 570     -20.744  -7.516 -15.617  1.00 32.92     0.185 C 
ATOM     18  OE1 GLU D 570     -21.156  -8.549 -16.178  1.00 32.92    -0.647 OA
ATOM     19  OE2 GLU D 570     -20.838  -6.382 -16.129  1.00 32.92    -0.647 OA
ENDBRANCH  16  17
ENDBRANCH  15  16
ENDBRANCH  14  15
END_RES GLU D 570
ENDMDL
MODEL 7
REMARK VINA RESULT:      -6.2      3.096      5.060
REMARK  12 active torsions:
REMARK  status: ('A' for Active; 'I' for Inactive)
REMARK    1  A    between atoms: C_2  and  C_3 
REMARK    2  A    between atoms: C_3  and  C_4 
REMARK    3  A    between atoms: C_4  and  C_5 
REMARK    4  A    between atoms: C_5  and  C_6 
REMARK    5  A    between atoms: C_6  and  C_7 
REMARK    6  A    between atoms: C_7  and  C_8 
REMARK    7  A    between atoms: C_8  and  O_10 
REMARK    8  A    between atoms: O_10  and  C_11 
REMARK    9  A    between atoms: C_11  and  C_12 
REMARK   10  A    between atoms: C_12  and  C_13 
REMARK   11  A    between atoms: C_12  and  O_15 
REMARK   12  A    between atoms: C_13  and  O_14 
ROOT
HETATM    1  C   UNL     1     -20.371  -4.729  -7.460  1.00  0.00     0.258 C 
HETATM    2  O   UNL     1     -19.560  -4.125  -8.151  1.00  0.00    -0.265 OA
ENDROOT
BRANCH   1   3
HETATM    3  C   UNL     1     -20.285  -4.885  -5.963  1.00  0.00     0.111 C 
BRANCH   3   4
HETATM    4  C   UNL     1     -20.762  -6.276  -5.551  1.00  0.00     0.010 C 
BRANCH   4   5
HETATM    5  C   UNL     1     -21.789  -6.232  -4.425  1.00  0.00     0.000 C 
BRANCH   5   6
HETATM    6  C   UNL     1     -21.174  -6.765  -3.129  1.00  0.00     0.000 C 
BRANCH   6   7
HETATM    7  C   UNL     1     -22.108  -6.555  -1.941  1.00  0.00    -0.000 C 
BRANCH   7   8
HETATM    8  C   UNL     1     -21.765  -7.504  -0.794  1.00  0.00    -0.005 C 
HETATM    9  C   UNL     1     -22.963  -7.720   0.115  1.00  0.00     0.005 C 
ENDBRANCH   7   8
ENDBRANCH   6   7
ENDBRANCH   5   6
ENDBRANCH   4   5
ENDBRANCH   3   4
ENDBRANCH   1   3
BRANCH   1  10
HETATM   10  O   UNL     1     -21.517  -5.290  -7.934  1.00  0.00    -0.319 OA
BRANCH  10  11
HETATM   11  C   UNL     1     -22.061  -4.637  -9.091  1.00  0.00     0.212 C 
BRANCH  11  12
HETATM   12  C   UNL     1     -23.366  -3.869  -8.850  1.00  0.00     0.166 C 
BRANCH  12  13
HETATM   13  C   UNL     1     -24.432  -4.178  -9.904  1.00  0.00     0.198 C 
BRANCH  13  14
HETATM   14  O   UNL     1     -25.555  -3.316  -9.721  1.00  0.00    -0.398 OA
HETATM   15  H   UNL     1     -25.224  -2.404  -9.844  1.00  0.00     0.209 HD
ENDBRANCH  13  14
ENDBRANCH  12  13
BRANCH  12  16
HETATM   16  O   UNL     1     -23.903  -4.211  -7.558  1.00  0.00    -0.391 OA
HETATM   17  H   UNL     1     -24.742  -4.685  -7.693  1.00  0.00     0.210 HD
ENDBRANCH  12  16
ENDBRANCH  11  12
ENDBRANCH  10  11
ENDBRANCH   1  10
TORSDOF 12
BEGIN_RES ARG D 557
REMARK  4 active torsions:
REMARK  status: ('A' for Active; 'I' for Inactive)
REMARK    1  A    between atoms: CA   and  CB  
REMARK    2  A    between atoms: CB   and  CG  
REMARK    3  A    between atoms: CG   and  CD  
REMARK    4  A    between atoms: CD   and  NE  
REMARK       I    between atoms: NE   and  CZ  
REMARK       I    between atoms: CZ   and  NH1 
REMARK       I    between atoms: CZ   and  NH2 
ROOT
ATOM      1  CA  ARG D 557     -26.217   2.705 -17.014  1.00 35.49     0.159 C 
ENDROOT
BRANCH   1   2
ATOM      2  CB  ARG D 557     -26.789   1.319 -17.183  1.00 35.49     0.034 C 
BRANCH   2   3
ATOM      3  CG  ARG D 557     -25.866   0.195 -16.985  1.00 35.49     0.027 C 
BRANCH   3   4
ATOM      4  CD  ARG D 557     -26.310  -0.717 -15.906  1.00 35.49     0.116 C 
BRANCH   4   5
ATOM      5  NE  ARG D 557     -25.277  -0.948 -14.931  1.00 35.49    -0.212 N 
ATOM      6  CZ  ARG D 557     -25.015  -2.096 -14.347  1.00 35.49     0.666 C 
ATOM      7  NH1 ARG D 557     -25.708  -3.192 -14.594  1.00 35.49    -0.235 N 
ATOM      8  NH2 ARG D 557     -24.026  -2.127 -13.502  1.00 35.49    -0.235 N 
ATOM      9  HH  ARG D 557     -26.362  -3.195 -15.148  1.00 35.49     0.174 HD
ATOM     10  HH  ARG D 557     -25.490  -3.912 -14.185  1.00 35.49     0.174 HD
ATOM     11  HH  ARG D 557     -23.591  -1.405 -13.368  1.00 35.49     0.174 HD
ATOM     12  HH  ARG D 557     -23.824  -2.850 -13.109  1.00 35.49     0.174 HD
ATOM     13  HE  ARG D 557     -24.829  -0.279 -14.659  1.00 35.49     0.178 HD
ENDBRANCH   4   5
ENDBRANCH   3   4
ENDBRANCH   2   3
ENDBRANCH   1   2
END_RES ARG D 557
BEGIN_RES GLU D 570
REMARK  3 active torsions:
REMARK  status: ('A' for Active; 'I' for Inactive)
REMARK    5  A    between atoms: CA   and  CB  
REMARK    6  A    between atoms: CB   and  CG  
REMARK    7  A    between atoms: CG   and  CD  
ROOT
ATOM     14  CA  GLU D 570     -18.033  -6.348 -13.375  1.00 32.92     0.160 C 
ENDROOT
BRANCH  14  15
ATOM     15  CB  GLU D 570     -19.500  -6.345 -13.794  1.00 32.92     0.043 C 
BRANCH  15  16
ATOM     16  CG  GLU D 570     -20.455  -5.597 -12.936  1.00 32.92     0.100 C 
BRANCH  16  17
ATOM     17  CD  GLU D 570     -21.687  -5.142 -13.684  1.00 32.92     0.185 C 
ATOM     18  OE1 GLU D 570     -21.636  -5.032 -14.924  1.00 32.92    -0.647 OA
ATOM     19  OE2 GLU D 570     -22.709  -4.877 -13.021  1.00 32.92    -0.647 OA
ENDBRANCH  16  17
ENDBRANCH  15  16
ENDBRANCH  14  15
END_RES GLU D 570
ENDMDL
MODEL 8
REMARK VINA RESULT:      -6.1      3.452      5.332
REMARK  12 active torsions:
REMARK  status: ('A' for Active; 'I' for Inactive)
REMARK    1  A    between atoms: C_2  and  C_3 
REMARK    2  A    between atoms: C_3  and  C_4 
REMARK    3  A    between atoms: C_4  and  C_5 
REMARK    4  A    between atoms: C_5  and  C_6 
REMARK    5  A    between atoms: C_6  and  C_7 
REMARK    6  A    between atoms: C_7  and  C_8 
REMARK    7  A    between atoms: C_8  and  O_10 
REMARK    8  A    between atoms: O_10  and  C_11 
REMARK    9  A    between atoms: C_11  and  C_12 
REMARK   10  A    between atoms: C_12  and  C_13 
REMARK   11  A    between atoms: C_12  and  O_15 
REMARK   12  A    between atoms: C_13  and  O_14 
ROOT
HETATM    1  C   UNL     1     -26.340  -6.037 -15.953  1.00  0.00     0.258 C 
HETATM    2  O   UNL     1     -26.568  -4.886 -16.302  1.00  0.00    -0.265 OA
ENDROOT
BRANCH   1   3
HETATM    3  C   UNL     1     -24.997  -6.551 -15.497  1.00  0.00     0.111 C 
BRANCH   3   4
HETATM    4  C   UNL     1     -24.190  -5.420 -14.863  1.00  0.00     0.010 C 
BRANCH   4   5
HETATM    5  C   UNL     1     -23.414  -5.876 -13.632  1.00  0.00     0.000 C 
BRANCH   5   6
HETATM    6  C   UNL     1     -23.434  -4.783 -12.561  1.00  0.00     0.000 C 
BRANCH   6   7
HETATM    7  C   UNL     1     -22.417  -3.686 -12.864  1.00  0.00    -0.000 C 
BRANCH   7   8
HETATM    8  C   UNL     1     -21.624  -3.308 -11.614  1.00  0.00    -0.005 C 
HETATM    9  C   UNL     1     -21.852  -4.312 -10.497  1.00  0.00     0.005 C 
ENDBRANCH   7   8
ENDBRANCH   6   7
ENDBRANCH   5   6
ENDBRANCH   4   5
ENDBRANCH   3   4
ENDBRANCH   1   3
BRANCH   1  10
HETATM   10  O   UNL     1     -27.284  -7.013 -15.854  1.00  0.00    -0.319 OA
BRANCH  10  11
HETATM   11  C   UNL     1     -28.551  -6.670 -16.435  1.00  0.00     0.212 C 
BRANCH  11  12
HETATM   12  C   UNL     1     -28.667  -6.932 -17.942  1.00  0.00     0.166 C 
BRANCH  12  13
HETATM   13  C   UNL     1     -29.989  -7.605 -18.320  1.00  0.00     0.198 C 
BRANCH  13  14
HETATM   14  O   UNL     1     -29.731  -8.749 -19.134  1.00  0.00    -0.398 OA
HETATM   15  H   UNL     1     -29.824  -8.452 -20.061  1.00  0.00     0.209 HD
ENDBRANCH  13  14
ENDBRANCH  12  13
BRANCH  12  16
HETATM   16  O   UNL     1     -28.576  -5.688 -18.662  1.00  0.00    -0.391 OA
HETATM   17  H   UNL     1     -27.635  -5.452 -18.743  1.00  0.00     0.210 HD
ENDBRANCH  12  16
ENDBRANCH  11  12
ENDBRANCH  10  11
ENDBRANCH   1  10
TORSDOF 12
BEGIN_RES ARG D 557
REMARK  4 active torsions:
REMARK  status: ('A' for Active; 'I' for Inactive)
REMARK    1  A    between atoms: CA   and  CB  
REMARK    2  A    between atoms: CB   and  CG  
REMARK    3  A    between atoms: CG   and  CD  
REMARK    4  A    between atoms: CD   and  NE  
REMARK       I    between atoms: NE   and  CZ  
REMARK       I    between atoms: CZ   and  NH1 
REMARK       I    between atoms: CZ   and  NH2 
ROOT
ATOM      1  CA  ARG D 557     -26.217   2.705 -17.014  1.00 35.49     0.159 C 
ENDROOT
BRANCH   1   2
ATOM      2  CB  ARG D 557     -26.789   1.319 -17.183  1.00 35.49     0.034 C 
BRANCH   2   3
ATOM      3  CG  ARG D 557     -28.225   1.228 -17.473  1.00 35.49     0.027 C 
BRANCH   3   4
ATOM      4  CD  ARG D 557     -28.934   0.327 -16.535  1.00 35.49     0.116 C 
BRANCH   4   5
ATOM      5  NE  ARG D 557     -29.246  -0.943 -17.135  1.00 35.49    -0.212 N 
ATOM      6  CZ  ARG D 557     -28.566  -2.056 -16.974  1.00 35.49     0.666 C 
ATOM      7  NH1 ARG D 557     -27.477  -2.121 -16.229  1.00 35.49    -0.235 N 
ATOM      8  NH2 ARG D 557     -29.006  -3.122 -17.577  1.00 35.49    -0.235 N 
ATOM      9  HH  ARG D 557     -27.171  -1.432 -15.821  1.00 35.49     0.174 HD
ATOM     10  HH  ARG D 557     -27.076  -2.874 -16.159  1.00 35.49     0.174 HD
ATOM     11  HH  ARG D 557     -29.716  -3.052 -18.046  1.00 35.49     0.174 HD
ATOM     12  HH  ARG D 557     -28.596  -3.859 -17.494  1.00 35.49     0.174 HD
ATOM     13  HE  ARG D 557     -29.891  -0.976 -17.688  1.00 35.49     0.178 HD
ENDBRANCH   4   5
ENDBRANCH   3   4
ENDBRANCH   2   3
ENDBRANCH   1   2
END_RES ARG D 557
BEGIN_RES GLU D 570
REMARK  3 active torsions:
REMARK  status: ('A' for Active; 'I' for Inactive)
REMARK    5  A    between atoms: CA   and  CB  
REMARK    6  A    between atoms: CB   and  CG  
REMARK    7  A    between atoms: CG   and  CD  
ROOT
ATOM     14  CA  GLU D 570     -18.033  -6.348 -13.375  1.00 32.92     0.160 C 
ENDROOT
BRANCH  14  15
ATOM     15  CB  GLU D 570     -19.500  -6.345 -13.794  1.00 32.92     0.043 C 
BRANCH  15  16
ATOM     16  CG  GLU D 570     -19.799  -6.179 -15.240  1.00 32.92     0.100 C 
BRANCH  16  17
ATOM     17  CD  GLU D 570     -20.682  -7.275 -15.789  1.00 32.92     0.185 C 
ATOM     18  OE1 GLU D 570     -21.450  -7.017 -16.736  1.00 32.92    -0.647 OA
ATOM     19  OE2 GLU D 570     -20.619  -8.400 -15.254  1.00 32.92    -0.647 OA
ENDBRANCH  16  17
ENDBRANCH  15  16
ENDBRANCH  14  15
END_RES GLU D 570
ENDMDL
MODEL 9
REMARK VINA RESULT:      -5.8      2.608      3.496
REMARK  12 active torsions:
REMARK  status: ('A' for Active; 'I' for Inactive)
REMARK    1  A    between atoms: C_2  and  C_3 
REMARK    2  A    between atoms: C_3  and  C_4 
REMARK    3  A    between atoms: C_4  and  C_5 
REMARK    4  A    between atoms: C_5  and  C_6 
REMARK    5  A    between atoms: C_6  and  C_7 
REMARK    6  A    between atoms: C_7  and  C_8 
REMARK    7  A    between atoms: C_8  and  O_10 
REMARK    8  A    between atoms: O_10  and  C_11 
REMARK    9  A    between atoms: C_11  and  C_12 
REMARK   10  A    between atoms: C_12  and  C_13 
REMARK   11  A    between atoms: C_12  and  O_15 
REMARK   12  A    between atoms: C_13  and  O_14 
ROOT
HETATM    1  C   UNL     1     -23.001  -4.632 -10.747  1.00  0.00     0.258 C 
HETATM    2  O   UNL     1     -24.052  -4.993 -10.234  1.00  0.00    -0.265 OA
ENDROOT
BRANCH   1   3
HETATM    3  C   UNL     1     -21.771  -4.203  -9.986  1.00  0.00     0.111 C 
BRANCH   3   4
HETATM    4  C   UNL     1     -22.154  -3.764  -8.574  1.00  0.00     0.010 C 
BRANCH   4   5
HETATM    5  C   UNL     1     -20.980  -3.831  -7.603  1.00  0.00     0.000 C 
BRANCH   5   6
HETATM    6  C   UNL     1     -20.177  -5.113  -7.834  1.00  0.00     0.000 C 
BRANCH   6   7
HETATM    7  C   UNL     1     -20.004  -5.903  -6.540  1.00  0.00    -0.000 C 
BRANCH   7   8
HETATM    8  C   UNL     1     -21.357  -6.262  -5.927  1.00  0.00    -0.005 C 
HETATM    9  C   UNL     1     -21.383  -7.711  -5.470  1.00  0.00     0.005 C 
ENDBRANCH   7   8
ENDBRANCH   6   7
ENDBRANCH   5   6
ENDBRANCH   4   5
ENDBRANCH   3   4
ENDBRANCH   1   3
BRANCH   1  10
HETATM   10  O   UNL     1     -22.758  -4.635 -12.086  1.00  0.00    -0.319 OA
BRANCH  10  11
HETATM   11  C   UNL     1     -23.775  -5.275 -12.871  1.00  0.00     0.212 C 
BRANCH  11  12
HETATM   12  C   UNL     1     -23.330  -5.729 -14.266  1.00  0.00     0.166 C 
BRANCH  12  13
HETATM   13  C   UNL     1     -24.498  -6.230 -15.120  1.00  0.00     0.198 C 
BRANCH  13  14
HETATM   14  O   UNL     1     -24.150  -7.472 -15.731  1.00  0.00    -0.398 OA
HETATM   15  H   UNL     1     -24.325  -7.366 -16.687  1.00  0.00     0.209 HD
ENDBRANCH  13  14
ENDBRANCH  12  13
BRANCH  12  16
HETATM   16  O   UNL     1     -22.706  -4.632 -14.961  1.00  0.00    -0.391 OA
HETATM   17  H   UNL     1     -23.230  -3.829 -14.793  1.00  0.00     0.210 HD
ENDBRANCH  12  16
ENDBRANCH  11  12
ENDBRANCH  10  11
ENDBRANCH   1  10
TORSDOF 12
BEGIN_RES ARG D 557
REMARK  4 active torsions:
REMARK  status: ('A' for Active; 'I' for Inactive)
REMARK    1  A    between atoms: CA   and  CB  
REMARK    2  A    between atoms: CB   and  CG  
REMARK    3  A    between atoms: CG   and  CD  
REMARK    4  A    between atoms: CD   and  NE  
REMARK       I    between atoms: NE   and  CZ  
REMARK       I    between atoms: CZ   and  NH1 
REMARK       I    between atoms: CZ   and  NH2 
ROOT
ATOM      1  CA  ARG D 557     -26.217   2.705 -17.014  1.00 35.49     0.159 C 
ENDROOT
BRANCH   1   2
ATOM      2  CB  ARG D 557     -26.789   1.319 -17.183  1.00 35.49     0.034 C 
BRANCH   2   3
ATOM      3  CG  ARG D 557     -25.846   0.198 -17.084  1.00 35.49     0.027 C 
BRANCH   3   4
ATOM      4  CD  ARG D 557     -24.740   0.473 -16.138  1.00 35.49     0.116 C 
BRANCH   4   5
ATOM      5  NE  ARG D 557     -24.778  -0.398 -14.993  1.00 35.49    -0.212 N 
ATOM      6  CZ  ARG D 557     -23.920  -1.359 -14.730  1.00 35.49     0.666 C 
ATOM      7  NH1 ARG D 557     -22.906  -1.642 -15.528  1.00 35.49    -0.235 N 
ATOM      8  NH2 ARG D 557     -24.095  -2.037 -13.633  1.00 35.49    -0.235 N 
ATOM      9  HH  ARG D 557     -22.771  -1.207 -16.254  1.00 35.49     0.174 HD
ATOM     10  HH  ARG D 557     -22.378  -2.278 -15.304  1.00 35.49     0.174 HD
ATOM     11  HH  ARG D 557     -24.754  -1.827 -13.134  1.00 35.49     0.174 HD
ATOM     12  HH  ARG D 557     -23.560  -2.662 -13.428  1.00 35.49     0.174 HD
ATOM     13  HE  ARG D 557     -25.440  -0.334 -14.463  1.00 35.49     0.178 HD
ENDBRANCH   4   5
ENDBRANCH   3   4
ENDBRANCH   2   3
ENDBRANCH   1   2
END_RES ARG D 557
BEGIN_RES GLU D 570
REMARK  3 active torsions:
REMARK  status: ('A' for Active; 'I' for Inactive)
REMARK    5  A    between atoms: CA   and  CB  
REMARK    6  A    between atoms: CB   and  CG  
REMARK    7  A    between atoms: CG   and  CD  
ROOT
ATOM     14  CA  GLU D 570     -18.033  -6.348 -13.375  1.00 32.92     0.160 C 
ENDROOT
BRANCH  14  15
ATOM     15  CB  GLU D 570     -19.500  -6.345 -13.794  1.00 32.92     0.043 C 
BRANCH  15  16
ATOM     16  CG  GLU D 570     -20.076  -7.626 -14.279  1.00 32.92     0.100 C 
BRANCH  16  17
ATOM     17  CD  GLU D 570     -20.681  -7.515 -15.659  1.00 32.92     0.185 C 
ATOM     18  OE1 GLU D 570     -20.576  -6.441 -16.281  1.00 32.92    -0.647 OA
ATOM     19  OE2 GLU D 570     -21.280  -8.508 -16.116  1.00 32.92    -0.647 OA
ENDBRANCH  16  17
ENDBRANCH  15  16
ENDBRANCH  14  15
END_RES GLU D 570
ENDMDL
