MODEL 1
REMARK VINA RESULT:      -6.4      0.000      0.000
REMARK  11 active torsions:
REMARK  status: ('A' for Active; 'I' for Inactive)
REMARK    1  A    between atoms: C_2  and  C_3 
REMARK    2  A    between atoms: C_3  and  C_4 
REMARK    3  A    between atoms: C_4  and  C_5 
REMARK    4  A    between atoms: C_5  and  C_6 
REMARK    5  A    between atoms: C_6  and  C_7 
REMARK    6  A    between atoms: C_7  and  C_8 
REMARK    7  A    between atoms: C_8  and  C_9 
REMARK    8  A    between atoms: C_9  and  C_10 
REMARK    9  A    between atoms: C_10  and  C_11 
REMARK   10  A    between atoms: C_11  and  C_12 
REMARK   11  A    between atoms: C_12  and  N_13 
ROOT
HETATM    1  C   UNL     1     -34.963  -2.594 -10.800  1.00  0.00     0.000 C 
ENDROOT
BRANCH   1   2
HETATM    2  C   UNL     1     -33.446  -2.457 -10.858  1.00  0.00     0.000 C 
BRANCH   2   3
HETATM    3  C   UNL     1     -32.839  -3.628 -11.620  1.00  0.00     0.000 C 
BRANCH   3   4
HETATM    4  C   UNL     1     -33.875  -4.719 -11.844  1.00  0.00     0.000 C 
BRANCH   4   5
HETATM    5  C   UNL     1     -33.519  -5.962 -11.038  1.00  0.00     0.000 C 
BRANCH   5   6
HETATM    6  C   UNL     1     -34.592  -6.254  -9.996  1.00  0.00    -0.000 C 
BRANCH   6   7
HETATM    7  C   UNL     1     -35.020  -7.717 -10.050  1.00  0.00    -0.005 C 
HETATM    8  C   UNL     1     -33.831  -8.636  -9.833  1.00  0.00     0.005 C 
ENDBRANCH   6   7
ENDBRANCH   5   6
ENDBRANCH   4   5
ENDBRANCH   3   4
ENDBRANCH   2   3
ENDBRANCH   1   2
BRANCH   1   9
HETATM    9  C   UNL     1     -35.625  -1.359 -11.393  1.00  0.00     0.000 C 
BRANCH   9  10
HETATM   10  C   UNL     1     -34.714  -0.678 -12.409  1.00  0.00     0.002 C 
BRANCH  10  11
HETATM   11  C   UNL     1     -35.473   0.462 -13.076  1.00  0.00     0.036 C 
BRANCH  11  12
HETATM   12  C   UNL     1     -35.079   0.635 -14.539  1.00  0.00     0.311 C 
BRANCH  12  13
HETATM   13  N   UNL     1     -36.219   0.361 -15.509  1.00  0.00     0.005 N 
HETATM   14  C   UNL     1     -35.908  -0.819 -16.389  1.00  0.00     0.355 C 
HETATM   15  C   UNL     1     -37.471   0.067 -14.728  1.00  0.00     0.355 C 
HETATM   16  O   UNL     1     -36.447   1.467 -16.290  1.00  0.00    -0.065 OA
ENDBRANCH  12  13
ENDBRANCH  11  12
ENDBRANCH  10  11
ENDBRANCH   9  10
ENDBRANCH   1   9
TORSDOF 11
BEGIN_RES ARG D 557
REMARK  4 active torsions:
REMARK  status: ('A' for Active; 'I' for Inactive)
REMARK    1  A    between atoms: CA   and  CB  
REMARK    2  A    between atoms: CB   and  CG  
REMARK    3  A    between atoms: CG   and  CD  
REMARK    4  A    between atoms: CD   and  NE  
REMARK       I    between atoms: NE   and  CZ  
REMARK       I    between atoms: CZ   and  NH1 
REMARK       I    between atoms: CZ   and  NH2 
ROOT
ATOM      1  CA  ARG D 557     -26.217   2.705 -17.014  1.00 35.49     0.159 C 
ENDROOT
BRANCH   1   2
ATOM      2  CB  ARG D 557     -26.789   1.319 -17.183  1.00 35.49     0.034 C 
BRANCH   2   3
ATOM      3  CG  ARG D 557     -28.150   1.100 -16.679  1.00 35.49     0.027 C 
BRANCH   3   4
ATOM      4  CD  ARG D 557     -28.790  -0.092 -17.281  1.00 35.49     0.116 C 
BRANCH   4   5
ATOM      5  NE  ARG D 557     -28.176  -1.317 -16.840  1.00 35.49    -0.212 N 
ATOM      6  CZ  ARG D 557     -28.654  -2.527 -17.029  1.00 35.49     0.666 C 
ATOM      7  NH1 ARG D 557     -29.796  -2.749 -17.653  1.00 35.49    -0.235 N 
ATOM      8  NH2 ARG D 557     -27.952  -3.526 -16.579  1.00 35.49    -0.235 N 
ATOM      9  HH  ARG D 557     -30.273  -2.106 -17.959  1.00 35.49     0.174 HD
ATOM     10  HH  ARG D 557     -30.056  -3.560 -17.749  1.00 35.49     0.174 HD
ATOM     11  HH  ARG D 557     -27.215  -3.353 -16.187  1.00 35.49     0.174 HD
ATOM     12  HH  ARG D 557     -28.226  -4.322 -16.685  1.00 35.49     0.174 HD
ATOM     13  HE  ARG D 557     -27.473  -1.263 -16.366  1.00 35.49     0.178 HD
ENDBRANCH   4   5
ENDBRANCH   3   4
ENDBRANCH   2   3
ENDBRANCH   1   2
END_RES ARG D 557
BEGIN_RES GLU D 570
REMARK  3 active torsions:
REMARK  status: ('A' for Active; 'I' for Inactive)
REMARK    5  A    between atoms: CA   and  CB  
REMARK    6  A    between atoms: CB   and  CG  
REMARK    7  A    between atoms: CG   and  CD  
ROOT
ATOM     14  CA  GLU D 570     -18.033  -6.348 -13.375  1.00 32.92     0.160 C 
ENDROOT
BRANCH  14  15
ATOM     15  CB  GLU D 570     -19.500  -6.345 -13.794  1.00 32.92     0.043 C 
BRANCH  15  16
ATOM     16  CG  GLU D 570     -20.449  -5.565 -12.958  1.00 32.92     0.100 C 
BRANCH  16  17
ATOM     17  CD  GLU D 570     -21.700  -5.164 -13.705  1.00 32.92     0.185 C 
ATOM     18  OE1 GLU D 570     -22.731  -4.898 -13.059  1.00 32.92    -0.647 OA
ATOM     19  OE2 GLU D 570     -21.651  -5.130 -14.950  1.00 32.92    -0.647 OA
ENDBRANCH  16  17
ENDBRANCH  15  16
ENDBRANCH  14  15
END_RES GLU D 570
ENDMDL
MODEL 2
REMARK VINA RESULT:      -6.2      6.954     10.516
REMARK  11 active torsions:
REMARK  status: ('A' for Active; 'I' for Inactive)
REMARK    1  A    between atoms: C_2  and  C_3 
REMARK    2  A    between atoms: C_3  and  C_4 
REMARK    3  A    between atoms: C_4  and  C_5 
REMARK    4  A    between atoms: C_5  and  C_6 
REMARK    5  A    between atoms: C_6  and  C_7 
REMARK    6  A    between atoms: C_7  and  C_8 
REMARK    7  A    between atoms: C_8  and  C_9 
REMARK    8  A    between atoms: C_9  and  C_10 
REMARK    9  A    between atoms: C_10  and  C_11 
REMARK   10  A    between atoms: C_11  and  C_12 
REMARK   11  A    between atoms: C_12  and  N_13 
ROOT
HETATM    1  C   UNL     1     -20.792  -4.330  -9.685  1.00  0.00     0.000 C 
ENDROOT
BRANCH   1   2
HETATM    2  C   UNL     1     -21.944  -4.202  -8.696  1.00  0.00     0.000 C 
BRANCH   2   3
HETATM    3  C   UNL     1     -21.437  -3.671  -7.361  1.00  0.00     0.000 C 
BRANCH   3   4
HETATM    4  C   UNL     1     -20.073  -4.259  -7.031  1.00  0.00     0.000 C 
BRANCH   4   5
HETATM    5  C   UNL     1     -20.152  -5.098  -5.762  1.00  0.00     0.000 C 
BRANCH   5   6
HETATM    6  C   UNL     1     -20.154  -6.585  -6.097  1.00  0.00    -0.000 C 
BRANCH   6   7
HETATM    7  C   UNL     1     -21.144  -7.341  -5.215  1.00  0.00    -0.005 C 
HETATM    8  C   UNL     1     -22.393  -6.512  -4.975  1.00  0.00     0.005 C 
ENDBRANCH   6   7
ENDBRANCH   5   6
ENDBRANCH   4   5
ENDBRANCH   3   4
ENDBRANCH   2   3
ENDBRANCH   1   2
BRANCH   1   9
HETATM    9  C   UNL     1     -21.274  -4.029 -11.096  1.00  0.00     0.000 C 
BRANCH   9  10
HETATM   10  C   UNL     1     -22.790  -3.860 -11.137  1.00  0.00     0.002 C 
BRANCH  10  11
HETATM   11  C   UNL     1     -23.138  -2.688 -12.045  1.00  0.00     0.036 C 
BRANCH  11  12
HETATM   12  C   UNL     1     -24.448  -2.911 -12.794  1.00  0.00     0.311 C 
BRANCH  12  13
HETATM   13  N   UNL     1     -24.318  -2.748 -14.301  1.00  0.00     0.005 N 
HETATM   14  C   UNL     1     -24.861  -1.418 -14.750  1.00  0.00     0.355 C 
HETATM   15  C   UNL     1     -22.866  -2.833 -14.683  1.00  0.00     0.355 C 
HETATM   16  O   UNL     1     -24.993  -3.758 -14.942  1.00  0.00    -0.065 OA
ENDBRANCH  12  13
ENDBRANCH  11  12
ENDBRANCH  10  11
ENDBRANCH   9  10
ENDBRANCH   1   9
TORSDOF 11
BEGIN_RES ARG D 557
REMARK  4 active torsions:
REMARK  status: ('A' for Active; 'I' for Inactive)
REMARK    1  A    between atoms: CA   and  CB  
REMARK    2  A    between atoms: CB   and  CG  
REMARK    3  A    between atoms: CG   and  CD  
REMARK    4  A    between atoms: CD   and  NE  
REMARK       I    between atoms: NE   and  CZ  
REMARK       I    between atoms: CZ   and  NH1 
REMARK       I    between atoms: CZ   and  NH2 
ROOT
ATOM      1  CA  ARG D 557     -26.217   2.705 -17.014  1.00 35.49     0.159 C 
ENDROOT
BRANCH   1   2
ATOM      2  CB  ARG D 557     -26.789   1.319 -17.183  1.00 35.49     0.034 C 
BRANCH   2   3
ATOM      3  CG  ARG D 557     -28.230   1.227 -17.446  1.00 35.49     0.027 C 
BRANCH   3   4
ATOM      4  CD  ARG D 557     -28.916   0.305 -16.511  1.00 35.49     0.116 C 
BRANCH   4   5
ATOM      5  NE  ARG D 557     -28.151  -0.889 -16.268  1.00 35.49    -0.212 N 
ATOM      6  CZ  ARG D 557     -28.421  -2.084 -16.743  1.00 35.49     0.666 C 
ATOM      7  NH1 ARG D 557     -29.469  -2.323 -17.510  1.00 35.49    -0.235 N 
ATOM      8  NH2 ARG D 557     -27.605  -3.050 -16.436  1.00 35.49    -0.235 N 
ATOM      9  HH  ARG D 557     -30.018  -1.701 -17.726  1.00 35.49     0.174 HD
ATOM     10  HH  ARG D 557     -29.592  -3.122 -17.793  1.00 35.49     0.174 HD
ATOM     11  HH  ARG D 557     -26.932  -2.865 -15.945  1.00 35.49     0.174 HD
ATOM     12  HH  ARG D 557     -27.744  -3.835 -16.727  1.00 35.49     0.174 HD
ATOM     13  HE  ARG D 557     -27.499  -0.841 -15.724  1.00 35.49     0.178 HD
ENDBRANCH   4   5
ENDBRANCH   3   4
ENDBRANCH   2   3
ENDBRANCH   1   2
END_RES ARG D 557
BEGIN_RES GLU D 570
REMARK  3 active torsions:
REMARK  status: ('A' for Active; 'I' for Inactive)
REMARK    5  A    between atoms: CA   and  CB  
REMARK    6  A    between atoms: CB   and  CG  
REMARK    7  A    between atoms: CG   and  CD  
ROOT
ATOM     14  CA  GLU D 570     -18.033  -6.348 -13.375  1.00 32.92     0.160 C 
ENDROOT
BRANCH  14  15
ATOM     15  CB  GLU D 570     -19.500  -6.345 -13.794  1.00 32.92     0.043 C 
BRANCH  15  16
ATOM     16  CG  GLU D 570     -19.796  -6.369 -15.250  1.00 32.92     0.100 C 
BRANCH  16  17
ATOM     17  CD  GLU D 570     -20.911  -7.323 -15.609  1.00 32.92     0.185 C 
ATOM     18  OE1 GLU D 570     -22.052  -6.869 -15.818  1.00 32.92    -0.647 OA
ATOM     19  OE2 GLU D 570     -20.644  -8.540 -15.665  1.00 32.92    -0.647 OA
ENDBRANCH  16  17
ENDBRANCH  15  16
ENDBRANCH  14  15
END_RES GLU D 570
ENDMDL
MODEL 3
REMARK VINA RESULT:      -6.2      6.963     10.958
REMARK  11 active torsions:
REMARK  status: ('A' for Active; 'I' for Inactive)
REMARK    1  A    between atoms: C_2  and  C_3 
REMARK    2  A    between atoms: C_3  and  C_4 
REMARK    3  A    between atoms: C_4  and  C_5 
REMARK    4  A    between atoms: C_5  and  C_6 
REMARK    5  A    between atoms: C_6  and  C_7 
REMARK    6  A    between atoms: C_7  and  C_8 
REMARK    7  A    between atoms: C_8  and  C_9 
REMARK    8  A    between atoms: C_9  and  C_10 
REMARK    9  A    between atoms: C_10  and  C_11 
REMARK   10  A    between atoms: C_11  and  C_12 
REMARK   11  A    between atoms: C_12  and  N_13 
ROOT
HETATM    1  C   UNL     1     -21.692  -3.915  -8.643  1.00  0.00     0.000 C 
ENDROOT
BRANCH   1   2
HETATM    2  C   UNL     1     -21.304  -3.616  -7.199  1.00  0.00     0.000 C 
BRANCH   2   3
HETATM    3  C   UNL     1     -20.186  -4.547  -6.749  1.00  0.00     0.000 C 
BRANCH   3   4
HETATM    4  C   UNL     1     -20.461  -5.082  -5.351  1.00  0.00     0.000 C 
BRANCH   4   5
HETATM    5  C   UNL     1     -20.998  -6.506  -5.425  1.00  0.00     0.000 C 
BRANCH   5   6
HETATM    6  C   UNL     1     -21.873  -6.816  -4.216  1.00  0.00    -0.000 C 
BRANCH   6   7
HETATM    7  C   UNL     1     -21.320  -6.149  -2.959  1.00  0.00    -0.005 C 
HETATM    8  C   UNL     1     -22.279  -6.318  -1.794  1.00  0.00     0.005 C 
ENDBRANCH   6   7
ENDBRANCH   5   6
ENDBRANCH   4   5
ENDBRANCH   3   4
ENDBRANCH   2   3
ENDBRANCH   1   2
BRANCH   1   9
HETATM    9  C   UNL     1     -20.447  -4.025  -9.510  1.00  0.00     0.000 C 
BRANCH   9  10
HETATM   10  C   UNL     1     -20.811  -4.179 -10.983  1.00  0.00     0.002 C 
BRANCH  10  11
HETATM   11  C   UNL     1     -22.319  -4.032 -11.144  1.00  0.00     0.036 C 
BRANCH  11  12
HETATM   12  C   UNL     1     -22.688  -2.864 -12.053  1.00  0.00     0.311 C 
BRANCH  12  13
HETATM   13  N   UNL     1     -23.945  -3.111 -12.873  1.00  0.00     0.005 N 
HETATM   14  C   UNL     1     -24.027  -2.158 -14.035  1.00  0.00     0.355 C 
HETATM   15  C   UNL     1     -23.921  -4.519 -13.402  1.00  0.00     0.355 C 
HETATM   16  O   UNL     1     -25.058  -2.965 -12.083  1.00  0.00    -0.065 OA
ENDBRANCH  12  13
ENDBRANCH  11  12
ENDBRANCH  10  11
ENDBRANCH   9  10
ENDBRANCH   1   9
TORSDOF 11
BEGIN_RES ARG D 557
REMARK  4 active torsions:
REMARK  status: ('A' for Active; 'I' for Inactive)
REMARK    1  A    between atoms: CA   and  CB  
REMARK    2  A    between atoms: CB   and  CG  
REMARK    3  A    between atoms: CG   and  CD  
REMARK    4  A    between atoms: CD   and  NE  
REMARK       I    between atoms: NE   and  CZ  
REMARK       I    between atoms: CZ   and  NH1 
REMARK       I    between atoms: CZ   and  NH2 
ROOT
ATOM      1  CA  ARG D 557     -26.217   2.705 -17.014  1.00 35.49     0.159 C 
ENDROOT
BRANCH   1   2
ATOM      2  CB  ARG D 557     -26.789   1.319 -17.183  1.00 35.49     0.034 C 
BRANCH   2   3
ATOM      3  CG  ARG D 557     -28.232   1.226 -17.437  1.00 35.49     0.027 C 
BRANCH   3   4
ATOM      4  CD  ARG D 557     -28.911   0.301 -16.502  1.00 35.49     0.116 C 
BRANCH   4   5
ATOM      5  NE  ARG D 557     -29.312  -0.922 -17.144  1.00 35.49    -0.212 N 
ATOM      6  CZ  ARG D 557     -28.690  -2.077 -17.055  1.00 35.49     0.666 C 
ATOM      7  NH1 ARG D 557     -27.584  -2.233 -16.351  1.00 35.49    -0.235 N 
ATOM      8  NH2 ARG D 557     -29.208  -3.089 -17.688  1.00 35.49    -0.235 N 
ATOM      9  HH  ARG D 557     -27.227  -1.582 -15.925  1.00 35.49     0.174 HD
ATOM     10  HH  ARG D 557     -27.224  -3.010 -16.327  1.00 35.49     0.174 HD
ATOM     11  HH  ARG D 557     -29.927  -2.959 -18.128  1.00 35.49     0.174 HD
ATOM     12  HH  ARG D 557     -28.837  -3.850 -17.651  1.00 35.49     0.174 HD
ATOM     13  HE  ARG D 557     -29.975  -0.895 -17.677  1.00 35.49     0.178 HD
ENDBRANCH   4   5
ENDBRANCH   3   4
ENDBRANCH   2   3
ENDBRANCH   1   2
END_RES ARG D 557
BEGIN_RES GLU D 570
REMARK  3 active torsions:
REMARK  status: ('A' for Active; 'I' for Inactive)
REMARK    5  A    between atoms: CA   and  CB  
REMARK    6  A    between atoms: CB   and  CG  
REMARK    7  A    between atoms: CG   and  CD  
ROOT
ATOM     14  CA  GLU D 570     -18.033  -6.348 -13.375  1.00 32.92     0.160 C 
ENDROOT
BRANCH  14  15
ATOM     15  CB  GLU D 570     -19.500  -6.345 -13.794  1.00 32.92     0.043 C 
BRANCH  15  16
ATOM     16  CG  GLU D 570     -19.806  -6.027 -15.213  1.00 32.92     0.100 C 
BRANCH  16  17
ATOM     17  CD  GLU D 570     -21.289  -5.995 -15.503  1.00 32.92     0.185 C 
ATOM     18  OE1 GLU D 570     -21.997  -6.955 -15.143  1.00 32.92    -0.647 OA
ATOM     19  OE2 GLU D 570     -21.744  -5.006 -16.111  1.00 32.92    -0.647 OA
ENDBRANCH  16  17
ENDBRANCH  15  16
ENDBRANCH  14  15
END_RES GLU D 570
ENDMDL
MODEL 4
REMARK VINA RESULT:      -6.1      8.529     14.095
REMARK  11 active torsions:
REMARK  status: ('A' for Active; 'I' for Inactive)
REMARK    1  A    between atoms: C_2  and  C_3 
REMARK    2  A    between atoms: C_3  and  C_4 
REMARK    3  A    between atoms: C_4  and  C_5 
REMARK    4  A    between atoms: C_5  and  C_6 
REMARK    5  A    between atoms: C_6  and  C_7 
REMARK    6  A    between atoms: C_7  and  C_8 
REMARK    7  A    between atoms: C_8  and  C_9 
REMARK    8  A    between atoms: C_9  and  C_10 
REMARK    9  A    between atoms: C_10  and  C_11 
REMARK   10  A    between atoms: C_11  and  C_12 
REMARK   11  A    between atoms: C_12  and  N_13 
ROOT
HETATM    1  C   UNL     1     -21.859  -6.143  -5.507  1.00  0.00     0.000 C 
ENDROOT
BRANCH   1   2
HETATM    2  C   UNL     1     -20.421  -6.153  -6.012  1.00  0.00     0.000 C 
BRANCH   2   3
HETATM    3  C   UNL     1     -19.890  -4.730  -6.121  1.00  0.00     0.000 C 
BRANCH   3   4
HETATM    4  C   UNL     1     -19.251  -4.496  -7.482  1.00  0.00     0.000 C 
BRANCH   4   5
HETATM    5  C   UNL     1     -20.122  -5.088  -8.584  1.00  0.00     0.000 C 
BRANCH   5   6
HETATM    6  C   UNL     1     -20.466  -4.029  -9.625  1.00  0.00    -0.000 C 
BRANCH   6   7
HETATM    7  C   UNL     1     -21.974  -3.957  -9.850  1.00  0.00    -0.005 C 
HETATM    8  C   UNL     1     -22.723  -4.102  -8.538  1.00  0.00     0.005 C 
ENDBRANCH   6   7
ENDBRANCH   5   6
ENDBRANCH   4   5
ENDBRANCH   3   4
ENDBRANCH   2   3
ENDBRANCH   1   2
BRANCH   1   9
HETATM    9  C   UNL     1     -21.963  -6.919  -4.203  1.00  0.00     0.000 C 
BRANCH   9  10
HETATM   10  C   UNL     1     -21.432  -6.101  -3.030  1.00  0.00     0.002 C 
BRANCH  10  11
HETATM   11  C   UNL     1     -22.144  -6.534  -1.755  1.00  0.00     0.036 C 
BRANCH  11  12
HETATM   12  C   UNL     1     -21.517  -7.782  -1.142  1.00  0.00     0.311 C 
BRANCH  12  13
HETATM   13  N   UNL     1     -22.328  -8.365   0.006  1.00  0.00     0.005 N 
HETATM   14  C   UNL     1     -22.856  -9.730  -0.345  1.00  0.00     0.355 C 
HETATM   15  C   UNL     1     -21.449  -8.483   1.221  1.00  0.00     0.355 C 
HETATM   16  O   UNL     1     -23.377  -7.533   0.309  1.00  0.00    -0.065 OA
ENDBRANCH  12  13
ENDBRANCH  11  12
ENDBRANCH  10  11
ENDBRANCH   9  10
ENDBRANCH   1   9
TORSDOF 11
BEGIN_RES ARG D 557
REMARK  4 active torsions:
REMARK  status: ('A' for Active; 'I' for Inactive)
REMARK    1  A    between atoms: CA   and  CB  
REMARK    2  A    between atoms: CB   and  CG  
REMARK    3  A    between atoms: CG   and  CD  
REMARK    4  A    between atoms: CD   and  NE  
REMARK       I    between atoms: NE   and  CZ  
REMARK       I    between atoms: CZ   and  NH1 
REMARK       I    between atoms: CZ   and  NH2 
ROOT
ATOM      1  CA  ARG D 557     -26.217   2.705 -17.014  1.00 35.49     0.159 C 
ENDROOT
BRANCH   1   2
ATOM      2  CB  ARG D 557     -26.789   1.319 -17.183  1.00 35.49     0.034 C 
BRANCH   2   3
ATOM      3  CG  ARG D 557     -25.867   0.195 -16.980  1.00 35.49     0.027 C 
BRANCH   3   4
ATOM      4  CD  ARG D 557     -26.285  -0.683 -15.862  1.00 35.49     0.116 C 
BRANCH   4   5
ATOM      5  NE  ARG D 557     -25.216  -0.916 -14.927  1.00 35.49    -0.212 N 
ATOM      6  CZ  ARG D 557     -24.924  -2.068 -14.367  1.00 35.49     0.666 C 
ATOM      7  NH1 ARG D 557     -25.615  -3.167 -14.603  1.00 35.49    -0.235 N 
ATOM      8  NH2 ARG D 557     -23.905  -2.101 -13.558  1.00 35.49    -0.235 N 
ATOM      9  HH  ARG D 557     -26.288  -3.170 -15.134  1.00 35.49     0.174 HD
ATOM     10  HH  ARG D 557     -25.376  -3.891 -14.211  1.00 35.49     0.174 HD
ATOM     11  HH  ARG D 557     -23.472  -1.377 -13.430  1.00 35.49     0.174 HD
ATOM     12  HH  ARG D 557     -23.683  -2.827 -13.180  1.00 35.49     0.174 HD
ATOM     13  HE  ARG D 557     -24.764  -0.246 -14.662  1.00 35.49     0.178 HD
ENDBRANCH   4   5
ENDBRANCH   3   4
ENDBRANCH   2   3
ENDBRANCH   1   2
END_RES ARG D 557
BEGIN_RES GLU D 570
REMARK  3 active torsions:
REMARK  status: ('A' for Active; 'I' for Inactive)
REMARK    5  A    between atoms: CA   and  CB  
REMARK    6  A    between atoms: CB   and  CG  
REMARK    7  A    between atoms: CG   and  CD  
ROOT
ATOM     14  CA  GLU D 570     -18.033  -6.348 -13.375  1.00 32.92     0.160 C 
ENDROOT
BRANCH  14  15
ATOM     15  CB  GLU D 570     -19.500  -6.345 -13.794  1.00 32.92     0.043 C 
BRANCH  15  16
ATOM     16  CG  GLU D 570     -20.439  -5.516 -12.994  1.00 32.92     0.100 C 
BRANCH  16  17
ATOM     17  CD  GLU D 570     -21.691  -5.146 -13.754  1.00 32.92     0.185 C 
ATOM     18  OE1 GLU D 570     -21.616  -4.935 -14.980  1.00 32.92    -0.647 OA
ATOM     19  OE2 GLU D 570     -22.756  -5.049 -13.113  1.00 32.92    -0.647 OA
ENDBRANCH  16  17
ENDBRANCH  15  16
ENDBRANCH  14  15
END_RES GLU D 570
ENDMDL
MODEL 5
REMARK VINA RESULT:      -6.1      8.009     11.902
REMARK  11 active torsions:
REMARK  status: ('A' for Active; 'I' for Inactive)
REMARK    1  A    between atoms: C_2  and  C_3 
REMARK    2  A    between atoms: C_3  and  C_4 
REMARK    3  A    between atoms: C_4  and  C_5 
REMARK    4  A    between atoms: C_5  and  C_6 
REMARK    5  A    between atoms: C_6  and  C_7 
REMARK    6  A    between atoms: C_7  and  C_8 
REMARK    7  A    between atoms: C_8  and  C_9 
REMARK    8  A    between atoms: C_9  and  C_10 
REMARK    9  A    between atoms: C_10  and  C_11 
REMARK   10  A    between atoms: C_11  and  C_12 
REMARK   11  A    between atoms: C_12  and  N_13 
ROOT
HETATM    1  C   UNL     1     -20.635  -5.637  -5.906  1.00  0.00     0.000 C 
ENDROOT
BRANCH   1   2
HETATM    2  C   UNL     1     -20.276  -7.062  -5.501  1.00  0.00     0.000 C 
BRANCH   2   3
HETATM    3  C   UNL     1     -20.898  -7.401  -4.153  1.00  0.00     0.000 C 
BRANCH   3   4
HETATM    4  C   UNL     1     -21.928  -6.353  -3.757  1.00  0.00     0.000 C 
BRANCH   4   5
HETATM    5  C   UNL     1     -21.912  -6.139  -2.249  1.00  0.00     0.000 C 
BRANCH   5   6
HETATM    6  C   UNL     1     -21.670  -7.455  -1.520  1.00  0.00    -0.000 C 
BRANCH   6   7
HETATM    7  C   UNL     1     -22.587  -7.582  -0.306  1.00  0.00    -0.005 C 
HETATM    8  C   UNL     1     -21.831  -8.147   0.883  1.00  0.00     0.005 C 
ENDBRANCH   6   7
ENDBRANCH   5   6
ENDBRANCH   4   5
ENDBRANCH   3   4
ENDBRANCH   2   3
ENDBRANCH   1   2
BRANCH   1   9
HETATM    9  C   UNL     1     -21.199  -5.617  -7.318  1.00  0.00     0.000 C 
BRANCH   9  10
HETATM   10  C   UNL     1     -20.314  -4.801  -8.255  1.00  0.00     0.002 C 
BRANCH  10  11
HETATM   11  C   UNL     1     -21.137  -4.349  -9.454  1.00  0.00     0.036 C 
BRANCH  11  12
HETATM   12  C   UNL     1     -22.457  -3.709  -9.037  1.00  0.00     0.311 C 
BRANCH  12  13
HETATM   13  N   UNL     1     -23.515  -3.736 -10.131  1.00  0.00     0.005 N 
HETATM   14  C   UNL     1     -23.704  -5.131 -10.663  1.00  0.00     0.355 C 
HETATM   15  C   UNL     1     -24.821  -3.251  -9.566  1.00  0.00     0.355 C 
HETATM   16  O   UNL     1     -23.150  -2.901 -11.157  1.00  0.00    -0.065 OA
ENDBRANCH  12  13
ENDBRANCH  11  12
ENDBRANCH  10  11
ENDBRANCH   9  10
ENDBRANCH   1   9
TORSDOF 11
BEGIN_RES ARG D 557
REMARK  4 active torsions:
REMARK  status: ('A' for Active; 'I' for Inactive)
REMARK    1  A    between atoms: CA   and  CB  
REMARK    2  A    between atoms: CB   and  CG  
REMARK    3  A    between atoms: CG   and  CD  
REMARK    4  A    between atoms: CD   and  NE  
REMARK       I    between atoms: NE   and  CZ  
REMARK       I    between atoms: CZ   and  NH1 
REMARK       I    between atoms: CZ   and  NH2 
ROOT
ATOM      1  CA  ARG D 557     -26.217   2.705 -17.014  1.00 35.49     0.159 C 
ENDROOT
BRANCH   1   2
ATOM      2  CB  ARG D 557     -26.789   1.319 -17.183  1.00 35.49     0.034 C 
BRANCH   2   3
ATOM      3  CG  ARG D 557     -25.914   0.195 -16.828  1.00 35.49     0.027 C 
BRANCH   3   4
ATOM      4  CD  ARG D 557     -26.629  -0.861 -16.076  1.00 35.49     0.116 C 
BRANCH   4   5
ATOM      5  NE  ARG D 557     -25.818  -1.427 -15.030  1.00 35.49    -0.212 N 
ATOM      6  CZ  ARG D 557     -25.816  -2.686 -14.656  1.00 35.49     0.666 C 
ATOM      7  NH1 ARG D 557     -26.596  -3.593 -15.214  1.00 35.49    -0.235 N 
ATOM      8  NH2 ARG D 557     -24.999  -3.028 -13.702  1.00 35.49    -0.235 N 
ATOM      9  HH  ARG D 557     -27.140  -3.391 -15.844  1.00 35.49     0.174 HD
ATOM     10  HH  ARG D 557     -26.550  -4.401 -14.930  1.00 35.49     0.174 HD
ATOM     11  HH  ARG D 557     -24.501  -2.422 -13.366  1.00 35.49     0.174 HD
ATOM     12  HH  ARG D 557     -24.966  -3.832 -13.437  1.00 35.49     0.174 HD
ATOM     13  HE  ARG D 557     -25.337  -0.899 -14.569  1.00 35.49     0.178 HD
ENDBRANCH   4   5
ENDBRANCH   3   4
ENDBRANCH   2   3
ENDBRANCH   1   2
END_RES ARG D 557
BEGIN_RES GLU D 570
REMARK  3 active torsions:
REMARK  status: ('A' for Active; 'I' for Inactive)
REMARK    5  A    between atoms: CA   and  CB  
REMARK    6  A    between atoms: CB   and  CG  
REMARK    7  A    between atoms: CG   and  CD  
ROOT
ATOM     14  CA  GLU D 570     -18.033  -6.348 -13.375  1.00 32.92     0.160 C 
ENDROOT
BRANCH  14  15
ATOM     15  CB  GLU D 570     -19.500  -6.345 -13.794  1.00 32.92     0.043 C 
BRANCH  15  16
ATOM     16  CG  GLU D 570     -20.429  -5.474 -13.028  1.00 32.92     0.100 C 
BRANCH  16  17
ATOM     17  CD  GLU D 570     -21.734  -5.228 -13.748  1.00 32.92     0.185 C 
ATOM     18  OE1 GLU D 570     -22.358  -6.198 -14.219  1.00 32.92    -0.647 OA
ATOM     19  OE2 GLU D 570     -22.128  -4.050 -13.858  1.00 32.92    -0.647 OA
ENDBRANCH  16  17
ENDBRANCH  15  16
ENDBRANCH  14  15
END_RES GLU D 570
ENDMDL
MODEL 6
REMARK VINA RESULT:      -5.9      6.351      9.885
REMARK  11 active torsions:
REMARK  status: ('A' for Active; 'I' for Inactive)
REMARK    1  A    between atoms: C_2  and  C_3 
REMARK    2  A    between atoms: C_3  and  C_4 
REMARK    3  A    between atoms: C_4  and  C_5 
REMARK    4  A    between atoms: C_5  and  C_6 
REMARK    5  A    between atoms: C_6  and  C_7 
REMARK    6  A    between atoms: C_7  and  C_8 
REMARK    7  A    between atoms: C_8  and  C_9 
REMARK    8  A    between atoms: C_9  and  C_10 
REMARK    9  A    between atoms: C_10  and  C_11 
REMARK   10  A    between atoms: C_11  and  C_12 
REMARK   11  A    between atoms: C_12  and  N_13 
ROOT
HETATM    1  C   UNL     1     -22.761  -4.838 -13.709  1.00  0.00     0.000 C 
ENDROOT
BRANCH   1   2
HETATM    2  C   UNL     1     -22.977  -4.724 -12.205  1.00  0.00     0.000 C 
BRANCH   2   3
HETATM    3  C   UNL     1     -22.618  -3.324 -11.725  1.00  0.00     0.000 C 
BRANCH   3   4
HETATM    4  C   UNL     1     -21.129  -3.223 -11.425  1.00  0.00     0.000 C 
BRANCH   4   5
HETATM    5  C   UNL     1     -20.673  -4.422 -10.603  1.00  0.00     0.000 C 
BRANCH   5   6
HETATM    6  C   UNL     1     -21.002  -4.221  -9.129  1.00  0.00    -0.000 C 
BRANCH   6   7
HETATM    7  C   UNL     1     -19.729  -4.036  -8.307  1.00  0.00    -0.005 C 
HETATM    8  C   UNL     1     -19.877  -4.669  -6.935  1.00  0.00     0.005 C 
ENDBRANCH   6   7
ENDBRANCH   5   6
ENDBRANCH   4   5
ENDBRANCH   3   4
ENDBRANCH   2   3
ENDBRANCH   1   2
BRANCH   1   9
HETATM    9  C   UNL     1     -24.053  -5.255 -14.396  1.00  0.00     0.000 C 
BRANCH   9  10
HETATM   10  C   UNL     1     -23.956  -6.677 -14.939  1.00  0.00     0.002 C 
BRANCH  10  11
HETATM   11  C   UNL     1     -24.828  -6.800 -16.181  1.00  0.00     0.036 C 
BRANCH  11  12
HETATM   12  C   UNL     1     -26.294  -7.034 -15.832  1.00  0.00     0.311 C 
BRANCH  12  13
HETATM   13  N   UNL     1     -27.226  -5.967 -16.387  1.00  0.00     0.005 N 
HETATM   14  C   UNL     1     -27.521  -6.211 -17.842  1.00  0.00     0.355 C 
HETATM   15  C   UNL     1     -28.519  -5.993 -15.619  1.00  0.00     0.355 C 
HETATM   16  O   UNL     1     -26.659  -4.725 -16.237  1.00  0.00    -0.065 OA
ENDBRANCH  12  13
ENDBRANCH  11  12
ENDBRANCH  10  11
ENDBRANCH   9  10
ENDBRANCH   1   9
TORSDOF 11
BEGIN_RES ARG D 557
REMARK  4 active torsions:
REMARK  status: ('A' for Active; 'I' for Inactive)
REMARK    1  A    between atoms: CA   and  CB  
REMARK    2  A    between atoms: CB   and  CG  
REMARK    3  A    between atoms: CG   and  CD  
REMARK    4  A    between atoms: CD   and  NE  
REMARK       I    between atoms: NE   and  CZ  
REMARK       I    between atoms: CZ   and  NH1 
REMARK       I    between atoms: CZ   and  NH2 
ROOT
ATOM      1  CA  ARG D 557     -26.217   2.705 -17.014  1.00 35.49     0.159 C 
ENDROOT
BRANCH   1   2
ATOM      2  CB  ARG D 557     -26.789   1.319 -17.183  1.00 35.49     0.034 C 
BRANCH   2   3
ATOM      3  CG  ARG D 557     -28.209   1.230 -17.545  1.00 35.49     0.027 C 
BRANCH   3   4
ATOM      4  CD  ARG D 557     -28.979   0.384 -16.605  1.00 35.49     0.116 C 
BRANCH   4   5
ATOM      5  NE  ARG D 557     -29.309  -0.897 -17.173  1.00 35.49    -0.212 N 
ATOM      6  CZ  ARG D 557     -28.629  -2.009 -17.007  1.00 35.49     0.666 C 
ATOM      7  NH1 ARG D 557     -27.524  -2.063 -16.286  1.00 35.49    -0.235 N 
ATOM      8  NH2 ARG D 557     -29.087  -3.084 -17.580  1.00 35.49    -0.235 N 
ATOM      9  HH  ARG D 557     -27.206  -1.369 -15.898  1.00 35.49     0.174 HD
ATOM     10  HH  ARG D 557     -27.124  -2.817 -16.210  1.00 35.49     0.174 HD
ATOM     11  HH  ARG D 557     -29.806  -3.020 -18.033  1.00 35.49     0.174 HD
ATOM     12  HH  ARG D 557     -28.677  -3.821 -17.492  1.00 35.49     0.174 HD
ATOM     13  HE  ARG D 557     -29.966  -0.937 -17.711  1.00 35.49     0.178 HD
ENDBRANCH   4   5
ENDBRANCH   3   4
ENDBRANCH   2   3
ENDBRANCH   1   2
END_RES ARG D 557
BEGIN_RES GLU D 570
REMARK  3 active torsions:
REMARK  status: ('A' for Active; 'I' for Inactive)
REMARK    5  A    between atoms: CA   and  CB  
REMARK    6  A    between atoms: CB   and  CG  
REMARK    7  A    between atoms: CG   and  CD  
ROOT
ATOM     14  CA  GLU D 570     -18.033  -6.348 -13.375  1.00 32.92     0.160 C 
ENDROOT
BRANCH  14  15
ATOM     15  CB  GLU D 570     -19.500  -6.345 -13.794  1.00 32.92     0.043 C 
BRANCH  15  16
ATOM     16  CG  GLU D 570     -20.088  -7.635 -14.238  1.00 32.92     0.100 C 
BRANCH  16  17
ATOM     17  CD  GLU D 570     -20.643  -7.578 -15.642  1.00 32.92     0.185 C 
ATOM     18  OE1 GLU D 570     -20.646  -6.490 -16.248  1.00 32.92    -0.647 OA
ATOM     19  OE2 GLU D 570     -21.096  -8.630 -16.135  1.00 32.92    -0.647 OA
ENDBRANCH  16  17
ENDBRANCH  15  16
ENDBRANCH  14  15
END_RES GLU D 570
ENDMDL
MODEL 7
REMARK VINA RESULT:      -5.8      8.237     14.338
REMARK  11 active torsions:
REMARK  status: ('A' for Active; 'I' for Inactive)
REMARK    1  A    between atoms: C_2  and  C_3 
REMARK    2  A    between atoms: C_3  and  C_4 
REMARK    3  A    between atoms: C_4  and  C_5 
REMARK    4  A    between atoms: C_5  and  C_6 
REMARK    5  A    between atoms: C_6  and  C_7 
REMARK    6  A    between atoms: C_7  and  C_8 
REMARK    7  A    between atoms: C_8  and  C_9 
REMARK    8  A    between atoms: C_9  and  C_10 
REMARK    9  A    between atoms: C_10  and  C_11 
REMARK   10  A    between atoms: C_11  and  C_12 
REMARK   11  A    between atoms: C_12  and  N_13 
ROOT
HETATM    1  C   UNL     1     -21.516  -6.360  -4.232  1.00  0.00     0.000 C 
ENDROOT
BRANCH   1   2
HETATM    2  C   UNL     1     -20.607  -7.097  -5.209  1.00  0.00     0.000 C 
BRANCH   2   3
HETATM    3  C   UNL     1     -20.135  -6.152  -6.306  1.00  0.00     0.000 C 
BRANCH   3   4
HETATM    4  C   UNL     1     -20.385  -4.703  -5.913  1.00  0.00     0.000 C 
BRANCH   4   5
HETATM    5  C   UNL     1     -20.884  -3.908  -7.113  1.00  0.00     0.000 C 
BRANCH   5   6
HETATM    6  C   UNL     1     -19.839  -3.894  -8.222  1.00  0.00    -0.000 C 
BRANCH   6   7
HETATM    7  C   UNL     1     -20.464  -4.265  -9.564  1.00  0.00    -0.005 C 
HETATM    8  C   UNL     1     -21.963  -4.460  -9.425  1.00  0.00     0.005 C 
ENDBRANCH   6   7
ENDBRANCH   5   6
ENDBRANCH   4   5
ENDBRANCH   3   4
ENDBRANCH   2   3
ENDBRANCH   1   2
BRANCH   1   9
HETATM    9  C   UNL     1     -21.211  -6.787  -2.805  1.00  0.00     0.000 C 
BRANCH   9  10
HETATM   10  C   UNL     1     -22.271  -6.274  -1.836  1.00  0.00     0.002 C 
BRANCH  10  11
HETATM   11  C   UNL     1     -22.282  -7.155  -0.593  1.00  0.00     0.036 C 
BRANCH  11  12
HETATM   12  C   UNL     1     -21.177  -8.205  -0.624  1.00  0.00     0.311 C 
BRANCH  12  13
HETATM   13  N   UNL     1     -21.699  -9.633  -0.561  1.00  0.00     0.005 N 
HETATM   14  C   UNL     1     -20.912 -10.452   0.427  1.00  0.00     0.355 C 
HETATM   15  C   UNL     1     -23.141  -9.613  -0.133  1.00  0.00     0.355 C 
HETATM   16  O   UNL     1     -21.624 -10.216  -1.801  1.00  0.00    -0.065 OA
ENDBRANCH  12  13
ENDBRANCH  11  12
ENDBRANCH  10  11
ENDBRANCH   9  10
ENDBRANCH   1   9
TORSDOF 11
BEGIN_RES ARG D 557
REMARK  4 active torsions:
REMARK  status: ('A' for Active; 'I' for Inactive)
REMARK    1  A    between atoms: CA   and  CB  
REMARK    2  A    between atoms: CB   and  CG  
REMARK    3  A    between atoms: CG   and  CD  
REMARK    4  A    between atoms: CD   and  NE  
REMARK       I    between atoms: NE   and  CZ  
REMARK       I    between atoms: CZ   and  NH1 
REMARK       I    between atoms: CZ   and  NH2 
ROOT
ATOM      1  CA  ARG D 557     -26.217   2.705 -17.014  1.00 35.49     0.159 C 
ENDROOT
BRANCH   1   2
ATOM      2  CB  ARG D 557     -26.789   1.319 -17.183  1.00 35.49     0.034 C 
BRANCH   2   3
ATOM      3  CG  ARG D 557     -28.231   1.227 -17.444  1.00 35.49     0.027 C 
BRANCH   3   4
ATOM      4  CD  ARG D 557     -28.916   0.309 -16.506  1.00 35.49     0.116 C 
BRANCH   4   5
ATOM      5  NE  ARG D 557     -29.283  -0.933 -17.134  1.00 35.49    -0.212 N 
ATOM      6  CZ  ARG D 557     -28.637  -2.072 -17.021  1.00 35.49     0.666 C 
ATOM      7  NH1 ARG D 557     -27.534  -2.193 -16.304  1.00 35.49    -0.235 N 
ATOM      8  NH2 ARG D 557     -29.126  -3.105 -17.643  1.00 35.49    -0.235 N 
ATOM      9  HH  ARG D 557     -27.196  -1.527 -15.884  1.00 35.49     0.174 HD
ATOM     10  HH  ARG D 557     -27.157  -2.961 -16.265  1.00 35.49     0.174 HD
ATOM     11  HH  ARG D 557     -29.843  -2.998 -18.093  1.00 35.49     0.174 HD
ATOM     12  HH  ARG D 557     -28.738  -3.857 -17.591  1.00 35.49     0.174 HD
ATOM     13  HE  ARG D 557     -29.941  -0.929 -17.673  1.00 35.49     0.178 HD
ENDBRANCH   4   5
ENDBRANCH   3   4
ENDBRANCH   2   3
ENDBRANCH   1   2
END_RES ARG D 557
BEGIN_RES GLU D 570
REMARK  3 active torsions:
REMARK  status: ('A' for Active; 'I' for Inactive)
REMARK    5  A    between atoms: CA   and  CB  
REMARK    6  A    between atoms: CB   and  CG  
REMARK    7  A    between atoms: CG   and  CD  
ROOT
ATOM     14  CA  GLU D 570     -18.033  -6.348 -13.375  1.00 32.92     0.160 C 
ENDROOT
BRANCH  14  15
ATOM     15  CB  GLU D 570     -19.500  -6.345 -13.794  1.00 32.92     0.043 C 
BRANCH  15  16
ATOM     16  CG  GLU D 570     -20.451  -5.575 -12.952  1.00 32.92     0.100 C 
BRANCH  16  17
ATOM     17  CD  GLU D 570     -21.693  -5.151 -13.701  1.00 32.92     0.185 C 
ATOM     18  OE1 GLU D 570     -22.739  -4.929 -13.062  1.00 32.92    -0.647 OA
ATOM     19  OE2 GLU D 570     -21.623  -5.057 -14.942  1.00 32.92    -0.647 OA
ENDBRANCH  16  17
ENDBRANCH  15  16
ENDBRANCH  14  15
END_RES GLU D 570
ENDMDL
MODEL 8
REMARK VINA RESULT:      -5.8      9.508     13.873
REMARK  11 active torsions:
REMARK  status: ('A' for Active; 'I' for Inactive)
REMARK    1  A    between atoms: C_2  and  C_3 
REMARK    2  A    between atoms: C_3  and  C_4 
REMARK    3  A    between atoms: C_4  and  C_5 
REMARK    4  A    between atoms: C_5  and  C_6 
REMARK    5  A    between atoms: C_6  and  C_7 
REMARK    6  A    between atoms: C_7  and  C_8 
REMARK    7  A    between atoms: C_8  and  C_9 
REMARK    8  A    between atoms: C_9  and  C_10 
REMARK    9  A    between atoms: C_10  and  C_11 
REMARK   10  A    between atoms: C_11  and  C_12 
REMARK   11  A    between atoms: C_12  and  N_13 
ROOT
HETATM    1  C   UNL     1     -22.322  -6.816  -1.354  1.00  0.00     0.000 C 
ENDROOT
BRANCH   1   2
HETATM    2  C   UNL     1     -22.080  -7.484  -0.005  1.00  0.00     0.000 C 
BRANCH   2   3
HETATM    3  C   UNL     1     -23.208  -8.457   0.312  1.00  0.00     0.000 C 
BRANCH   3   4
HETATM    4  C   UNL     1     -22.838  -9.868  -0.121  1.00  0.00     0.000 C 
BRANCH   4   5
HETATM    5  C   UNL     1     -24.077 -10.755  -0.148  1.00  0.00     0.000 C 
BRANCH   5   6
HETATM    6  C   UNL     1     -23.695 -12.205  -0.421  1.00  0.00    -0.000 C 
BRANCH   6   7
HETATM    7  C   UNL     1     -22.708 -12.715   0.626  1.00  0.00    -0.005 C 
HETATM    8  C   UNL     1     -23.424 -13.521   1.694  1.00  0.00     0.005 C 
ENDBRANCH   6   7
ENDBRANCH   5   6
ENDBRANCH   4   5
ENDBRANCH   3   4
ENDBRANCH   2   3
ENDBRANCH   1   2
BRANCH   1   9
HETATM    9  C   UNL     1     -21.144  -7.066  -2.283  1.00  0.00     0.000 C 
BRANCH   9  10
HETATM   10  C   UNL     1     -21.472  -8.141  -3.314  1.00  0.00     0.002 C 
BRANCH  10  11
HETATM   11  C   UNL     1     -21.045  -7.658  -4.694  1.00  0.00     0.036 C 
BRANCH  11  12
HETATM   12  C   UNL     1     -21.892  -6.488  -5.182  1.00  0.00     0.311 C 
BRANCH  12  13
HETATM   13  N   UNL     1     -21.213  -5.659  -6.263  1.00  0.00     0.005 N 
HETATM   14  C   UNL     1     -22.202  -4.755  -6.950  1.00  0.00     0.355 C 
HETATM   15  C   UNL     1     -20.138  -4.815  -5.636  1.00  0.00     0.355 C 
HETATM   16  O   UNL     1     -20.629  -6.486  -7.190  1.00  0.00    -0.065 OA
ENDBRANCH  12  13
ENDBRANCH  11  12
ENDBRANCH  10  11
ENDBRANCH   9  10
ENDBRANCH   1   9
TORSDOF 11
BEGIN_RES ARG D 557
REMARK  4 active torsions:
REMARK  status: ('A' for Active; 'I' for Inactive)
REMARK    1  A    between atoms: CA   and  CB  
REMARK    2  A    between atoms: CB   and  CG  
REMARK    3  A    between atoms: CG   and  CD  
REMARK    4  A    between atoms: CD   and  NE  
REMARK       I    between atoms: NE   and  CZ  
REMARK       I    between atoms: CZ   and  NH1 
REMARK       I    between atoms: CZ   and  NH2 
ROOT
ATOM      1  CA  ARG D 557     -26.217   2.705 -17.014  1.00 35.49     0.159 C 
ENDROOT
BRANCH   1   2
ATOM      2  CB  ARG D 557     -26.789   1.319 -17.183  1.00 35.49     0.034 C 
BRANCH   2   3
ATOM      3  CG  ARG D 557     -25.834   0.204 -17.174  1.00 35.49     0.027 C 
BRANCH   3   4
ATOM      4  CD  ARG D 557     -24.765   0.385 -16.165  1.00 35.49     0.116 C 
BRANCH   4   5
ATOM      5  NE  ARG D 557     -24.946  -0.472 -15.023  1.00 35.49    -0.212 N 
ATOM      6  CZ  ARG D 557     -24.137  -1.439 -14.653  1.00 35.49     0.666 C 
ATOM      7  NH1 ARG D 557     -23.042  -1.744 -15.325  1.00 35.49    -0.235 N 
ATOM      8  NH2 ARG D 557     -24.447  -2.103 -13.578  1.00 35.49    -0.235 N 
ATOM      9  HH  ARG D 557     -22.817  -1.319 -16.035  1.00 35.49     0.174 HD
ATOM     10  HH  ARG D 557     -22.551  -2.383 -15.035  1.00 35.49     0.174 HD
ATOM     11  HH  ARG D 557     -25.156  -1.879 -13.160  1.00 35.49     0.174 HD
ATOM     12  HH  ARG D 557     -23.947  -2.731 -13.305  1.00 35.49     0.174 HD
ATOM     13  HE  ARG D 557     -25.664  -0.394 -14.575  1.00 35.49     0.178 HD
ENDBRANCH   4   5
ENDBRANCH   3   4
ENDBRANCH   2   3
ENDBRANCH   1   2
END_RES ARG D 557
BEGIN_RES GLU D 570
REMARK  3 active torsions:
REMARK  status: ('A' for Active; 'I' for Inactive)
REMARK    5  A    between atoms: CA   and  CB  
REMARK    6  A    between atoms: CB   and  CG  
REMARK    7  A    between atoms: CG   and  CD  
ROOT
ATOM     14  CA  GLU D 570     -18.033  -6.348 -13.375  1.00 32.92     0.160 C 
ENDROOT
BRANCH  14  15
ATOM     15  CB  GLU D 570     -19.500  -6.345 -13.794  1.00 32.92     0.043 C 
BRANCH  15  16
ATOM     16  CG  GLU D 570     -20.445  -5.548 -12.971  1.00 32.92     0.100 C 
BRANCH  16  17
ATOM     17  CD  GLU D 570     -21.587  -4.971 -13.776  1.00 32.92     0.185 C 
ATOM     18  OE1 GLU D 570     -21.726  -5.320 -14.964  1.00 32.92    -0.647 OA
ATOM     19  OE2 GLU D 570     -22.339  -4.149 -13.218  1.00 32.92    -0.647 OA
ENDBRANCH  16  17
ENDBRANCH  15  16
ENDBRANCH  14  15
END_RES GLU D 570
ENDMDL
MODEL 9
REMARK VINA RESULT:      -5.6      9.212     13.221
REMARK  11 active torsions:
REMARK  status: ('A' for Active; 'I' for Inactive)
REMARK    1  A    between atoms: C_2  and  C_3 
REMARK    2  A    between atoms: C_3  and  C_4 
REMARK    3  A    between atoms: C_4  and  C_5 
REMARK    4  A    between atoms: C_5  and  C_6 
REMARK    5  A    between atoms: C_6  and  C_7 
REMARK    6  A    between atoms: C_7  and  C_8 
REMARK    7  A    between atoms: C_8  and  C_9 
REMARK    8  A    between atoms: C_9  and  C_10 
REMARK    9  A    between atoms: C_10  and  C_11 
REMARK   10  A    between atoms: C_11  and  C_12 
REMARK   11  A    between atoms: C_12  and  N_13 
ROOT
HETATM    1  C   UNL     1     -21.341  -6.041  -3.451  1.00  0.00     0.000 C 
ENDROOT
BRANCH   1   2
HETATM    2  C   UNL     1     -22.106  -6.115  -2.135  1.00  0.00     0.000 C 
BRANCH   2   3
HETATM    3  C   UNL     1     -21.911  -7.479  -1.487  1.00  0.00     0.000 C 
BRANCH   3   4
HETATM    4  C   UNL     1     -22.567  -7.520  -0.114  1.00  0.00     0.000 C 
BRANCH   4   5
HETATM    5  C   UNL     1     -22.052  -8.713   0.683  1.00  0.00     0.000 C 
BRANCH   5   6
HETATM    6  C   UNL     1     -22.203 -10.001  -0.117  1.00  0.00    -0.000 C 
BRANCH   6   7
HETATM    7  C   UNL     1     -23.616 -10.562   0.016  1.00  0.00    -0.005 C 
HETATM    8  C   UNL     1     -23.975 -11.409  -1.192  1.00  0.00     0.005 C 
ENDBRANCH   6   7
ENDBRANCH   5   6
ENDBRANCH   4   5
ENDBRANCH   3   4
ENDBRANCH   2   3
ENDBRANCH   1   2
BRANCH   1   9
HETATM    9  C   UNL     1     -21.040  -7.441  -3.964  1.00  0.00     0.000 C 
BRANCH   9  10
HETATM   10  C   UNL     1     -20.555  -7.407  -5.410  1.00  0.00     0.002 C 
BRANCH  10  11
HETATM   11  C   UNL     1     -20.605  -5.974  -5.922  1.00  0.00     0.036 C 
BRANCH  11  12
HETATM   12  C   UNL     1     -21.109  -5.894  -7.359  1.00  0.00     0.311 C 
BRANCH  12  13
HETATM   13  N   UNL     1     -21.241  -4.469  -7.876  1.00  0.00     0.005 N 
HETATM   14  C   UNL     1     -20.220  -4.186  -8.945  1.00  0.00     0.355 C 
HETATM   15  C   UNL     1     -22.615  -4.280  -8.456  1.00  0.00     0.355 C 
HETATM   16  O   UNL     1     -21.081  -3.579  -6.843  1.00  0.00    -0.065 OA
ENDBRANCH  12  13
ENDBRANCH  11  12
ENDBRANCH  10  11
ENDBRANCH   9  10
ENDBRANCH   1   9
TORSDOF 11
BEGIN_RES ARG D 557
REMARK  4 active torsions:
REMARK  status: ('A' for Active; 'I' for Inactive)
REMARK    1  A    between atoms: CA   and  CB  
REMARK    2  A    between atoms: CB   and  CG  
REMARK    3  A    between atoms: CG   and  CD  
REMARK    4  A    between atoms: CD   and  NE  
REMARK       I    between atoms: NE   and  CZ  
REMARK       I    between atoms: CZ   and  NH1 
REMARK       I    between atoms: CZ   and  NH2 
ROOT
ATOM      1  CA  ARG D 557     -26.217   2.705 -17.014  1.00 35.49     0.159 C 
ENDROOT
BRANCH   1   2
ATOM      2  CB  ARG D 557     -26.789   1.319 -17.183  1.00 35.49     0.034 C 
BRANCH   2   3
ATOM      3  CG  ARG D 557     -25.839   0.201 -17.133  1.00 35.49     0.027 C 
BRANCH   3   4
ATOM      4  CD  ARG D 557     -24.762   0.420 -16.139  1.00 35.49     0.116 C 
BRANCH   4   5
ATOM      5  NE  ARG D 557     -24.890  -0.451 -15.001  1.00 35.49    -0.212 N 
ATOM      6  CZ  ARG D 557     -24.072  -1.431 -14.688  1.00 35.49     0.666 C 
ATOM      7  NH1 ARG D 557     -23.018  -1.737 -15.422  1.00 35.49    -0.235 N 
ATOM      8  NH2 ARG D 557     -24.330  -2.105 -13.605  1.00 35.49    -0.235 N 
ATOM      9  HH  ARG D 557     -22.828  -1.305 -16.137  1.00 35.49     0.174 HD
ATOM     10  HH  ARG D 557     -22.519  -2.385 -15.167  1.00 35.49     0.174 HD
ATOM     11  HH  ARG D 557     -25.014  -1.881 -13.147  1.00 35.49     0.174 HD
ATOM     12  HH  ARG D 557     -23.823  -2.742 -13.369  1.00 35.49     0.174 HD
ATOM     13  HE  ARG D 557     -25.582  -0.371 -14.513  1.00 35.49     0.178 HD
ENDBRANCH   4   5
ENDBRANCH   3   4
ENDBRANCH   2   3
ENDBRANCH   1   2
END_RES ARG D 557
BEGIN_RES GLU D 570
REMARK  3 active torsions:
REMARK  status: ('A' for Active; 'I' for Inactive)
REMARK    5  A    between atoms: CA   and  CB  
REMARK    6  A    between atoms: CB   and  CG  
REMARK    7  A    between atoms: CG   and  CD  
ROOT
ATOM     14  CA  GLU D 570     -18.033  -6.348 -13.375  1.00 32.92     0.160 C 
ENDROOT
BRANCH  14  15
ATOM     15  CB  GLU D 570     -19.500  -6.345 -13.794  1.00 32.92     0.043 C 
BRANCH  15  16
ATOM     16  CG  GLU D 570     -19.837  -5.727 -15.102  1.00 32.92     0.100 C 
BRANCH  16  17
ATOM     17  CD  GLU D 570     -21.198  -5.070 -15.111  1.00 32.92     0.185 C 
ATOM     18  OE1 GLU D 570     -21.836  -4.987 -14.044  1.00 32.92    -0.647 OA
ATOM     19  OE2 GLU D 570     -21.637  -4.650 -16.199  1.00 32.92    -0.647 OA
ENDBRANCH  16  17
ENDBRANCH  15  16
ENDBRANCH  14  15
END_RES GLU D 570
ENDMDL
