MODEL 1
REMARK VINA RESULT:      -5.4      0.000      0.000
REMARK  6 active torsions:
REMARK  status: ('A' for Active; 'I' for Inactive)
REMARK    1  A    between atoms: C_2  and  O_12 
REMARK    2  A    between atoms: C_3  and  O_11 
REMARK    3  A    between atoms: C_4  and  O_10 
REMARK    4  A    between atoms: C_5  and  C_7 
REMARK    5  A    between atoms: C_5  and  O_9 
REMARK    6  A    between atoms: C_7  and  O_8 
ROOT
HETATM    1  C   UNL     1     -27.906  -4.821 -16.190  1.00  0.00     0.206 C 
HETATM    2  C   UNL     1     -27.338  -5.869 -17.150  1.00  0.00     0.173 C 
HETATM    3  C   UNL     1     -28.165  -5.916 -18.441  1.00  0.00     0.183 C 
HETATM    4  C   UNL     1     -29.650  -6.119 -18.110  1.00  0.00     0.213 C 
HETATM    5  C   UNL     1     -30.150  -5.092 -17.060  1.00  0.00     0.212 C 
HETATM    6  O   UNL     1     -29.289  -5.055 -15.914  1.00  0.00    -0.349 OA
ENDROOT
BRANCH   5   7
HETATM    7  C   UNL     1     -30.386  -3.674 -17.637  1.00  0.00     0.235 C 
BRANCH   7   8
HETATM    8  O   UNL     1     -31.726  -3.211 -17.498  1.00  0.00    -0.395 OA
HETATM    9  H   UNL     1     -32.233  -3.592 -18.238  1.00  0.00     0.209 HD
ENDBRANCH   7   8
ENDBRANCH   5   7
BRANCH   5  10
HETATM   10  O   UNL     1     -31.427  -5.547 -16.584  1.00  0.00    -0.362 OA
HETATM   11  H   UNL     1     -31.569  -6.394 -17.051  1.00  0.00     0.213 HD
ENDBRANCH   5  10
BRANCH   4  12
HETATM   12  O   UNL     1     -29.855  -7.452 -17.555  1.00  0.00    -0.387 OA
HETATM   13  H   UNL     1     -29.103  -7.997 -17.878  1.00  0.00     0.210 HD
ENDBRANCH   4  12
BRANCH   3  14
HETATM   14  O   UNL     1     -27.690  -6.988 -19.268  1.00  0.00    -0.390 OA
HETATM   15  H   UNL     1     -27.096  -6.566 -19.921  1.00  0.00     0.210 HD
ENDBRANCH   3  14
BRANCH   2  16
HETATM   16  O   UNL     1     -27.411  -7.171 -16.529  1.00  0.00    -0.391 OA
HETATM   17  H   UNL     1     -27.850  -7.768 -17.165  1.00  0.00     0.210 HD
ENDBRANCH   2  16
TORSDOF 6
BEGIN_RES ARG D 557
REMARK  4 active torsions:
REMARK  status: ('A' for Active; 'I' for Inactive)
REMARK    1  A    between atoms: CA   and  CB  
REMARK    2  A    between atoms: CB   and  CG  
REMARK    3  A    between atoms: CG   and  CD  
REMARK    4  A    between atoms: CD   and  NE  
REMARK       I    between atoms: NE   and  CZ  
REMARK       I    between atoms: CZ   and  NH1 
REMARK       I    between atoms: CZ   and  NH2 
ROOT
ATOM      1  CA  ARG D 557     -26.217   2.705 -17.014  1.00 35.49     0.159 C 
ENDROOT
BRANCH   1   2
ATOM      2  CB  ARG D 557     -26.789   1.319 -17.183  1.00 35.49     0.034 C 
BRANCH   2   3
ATOM      3  CG  ARG D 557     -25.835   0.204 -17.165  1.00 35.49     0.027 C 
BRANCH   3   4
ATOM      4  CD  ARG D 557     -24.742   0.412 -16.188  1.00 35.49     0.116 C 
BRANCH   4   5
ATOM      5  NE  ARG D 557     -24.886  -0.425 -15.026  1.00 35.49    -0.212 N 
ATOM      6  CZ  ARG D 557     -24.072  -1.395 -14.672  1.00 35.49     0.666 C 
ATOM      7  NH1 ARG D 557     -23.007  -1.721 -15.381  1.00 35.49    -0.235 N 
ATOM      8  NH2 ARG D 557     -24.346  -2.038 -13.574  1.00 35.49    -0.235 N 
ATOM      9  HH  ARG D 557     -22.807  -1.310 -16.105  1.00 35.49     0.174 HD
ATOM     10  HH  ARG D 557     -22.511  -2.360 -15.099  1.00 35.49     0.174 HD
ATOM     11  HH  ARG D 557     -25.037  -1.801 -13.133  1.00 35.49     0.174 HD
ATOM     12  HH  ARG D 557     -23.842  -2.667 -13.312  1.00 35.49     0.174 HD
ATOM     13  HE  ARG D 557     -25.586  -0.333 -14.551  1.00 35.49     0.178 HD
ENDBRANCH   4   5
ENDBRANCH   3   4
ENDBRANCH   2   3
ENDBRANCH   1   2
END_RES ARG D 557
BEGIN_RES GLU D 570
REMARK  3 active torsions:
REMARK  status: ('A' for Active; 'I' for Inactive)
REMARK    5  A    between atoms: CA   and  CB  
REMARK    6  A    between atoms: CB   and  CG  
REMARK    7  A    between atoms: CG   and  CD  
ROOT
ATOM     14  CA  GLU D 570     -18.033  -6.348 -13.375  1.00 32.92     0.160 C 
ENDROOT
BRANCH  14  15
ATOM     15  CB  GLU D 570     -19.500  -6.345 -13.794  1.00 32.92     0.043 C 
BRANCH  15  16
ATOM     16  CG  GLU D 570     -20.440  -5.522 -12.990  1.00 32.92     0.100 C 
BRANCH  16  17
ATOM     17  CD  GLU D 570     -21.740  -5.242 -13.707  1.00 32.92     0.185 C 
ATOM     18  OE1 GLU D 570     -22.204  -6.104 -14.478  1.00 32.92    -0.647 OA
ATOM     19  OE2 GLU D 570     -22.291  -4.141 -13.510  1.00 32.92    -0.647 OA
ENDBRANCH  16  17
ENDBRANCH  15  16
ENDBRANCH  14  15
END_RES GLU D 570
ENDMDL
MODEL 2
REMARK VINA RESULT:      -5.4      4.196      6.317
REMARK  6 active torsions:
REMARK  status: ('A' for Active; 'I' for Inactive)
REMARK    1  A    between atoms: C_2  and  O_12 
REMARK    2  A    between atoms: C_3  and  O_11 
REMARK    3  A    between atoms: C_4  and  O_10 
REMARK    4  A    between atoms: C_5  and  C_7 
REMARK    5  A    between atoms: C_5  and  O_9 
REMARK    6  A    between atoms: C_7  and  O_8 
ROOT
HETATM    1  C   UNL     1     -24.482  -2.979 -11.556  1.00  0.00     0.206 C 
HETATM    2  C   UNL     1     -23.140  -3.615 -11.183  1.00  0.00     0.173 C 
HETATM    3  C   UNL     1     -22.115  -3.398 -12.303  1.00  0.00     0.183 C 
HETATM    4  C   UNL     1     -22.683  -3.889 -13.642  1.00  0.00     0.213 C 
HETATM    5  C   UNL     1     -24.085  -3.288 -13.925  1.00  0.00     0.212 C 
HETATM    6  O   UNL     1     -24.966  -3.469 -12.809  1.00  0.00    -0.349 OA
ENDROOT
BRANCH   5   7
HETATM    7  C   UNL     1     -24.050  -1.810 -14.386  1.00  0.00     0.235 C 
BRANCH   7   8
HETATM    8  O   UNL     1     -25.338  -1.219 -14.530  1.00  0.00    -0.395 OA
HETATM    9  H   UNL     1     -25.845  -1.455 -13.731  1.00  0.00     0.209 HD
ENDBRANCH   7   8
ENDBRANCH   5   7
BRANCH   5  10
HETATM   10  O   UNL     1     -24.662  -4.031 -15.011  1.00  0.00    -0.362 OA
HETATM   11  H   UNL     1     -24.439  -4.961 -14.811  1.00  0.00     0.213 HD
ENDBRANCH   5  10
BRANCH   4  12
HETATM   12  O   UNL     1     -22.821  -5.340 -13.618  1.00  0.00    -0.387 OA
HETATM   13  H   UNL     1     -23.716  -5.519 -13.254  1.00  0.00     0.210 HD
ENDBRANCH   4  12
BRANCH   3  14
HETATM   14  O   UNL     1     -20.910  -4.109 -11.985  1.00  0.00    -0.390 OA
HETATM   15  H   UNL     1     -21.198  -4.885 -11.465  1.00  0.00     0.210 HD
ENDBRANCH   3  14
BRANCH   2  16
HETATM   16  O   UNL     1     -23.321  -5.040 -11.018  1.00  0.00    -0.391 OA
HETATM   17  H   UNL     1     -22.940  -5.470 -11.807  1.00  0.00     0.210 HD
ENDBRANCH   2  16
TORSDOF 6
BEGIN_RES ARG D 557
REMARK  4 active torsions:
REMARK  status: ('A' for Active; 'I' for Inactive)
REMARK    1  A    between atoms: CA   and  CB  
REMARK    2  A    between atoms: CB   and  CG  
REMARK    3  A    between atoms: CG   and  CD  
REMARK    4  A    between atoms: CD   and  NE  
REMARK       I    between atoms: NE   and  CZ  
REMARK       I    between atoms: CZ   and  NH1 
REMARK       I    between atoms: CZ   and  NH2 
ROOT
ATOM      1  CA  ARG D 557     -26.217   2.705 -17.014  1.00 35.49     0.159 C 
ENDROOT
BRANCH   1   2
ATOM      2  CB  ARG D 557     -26.789   1.319 -17.183  1.00 35.49     0.034 C 
BRANCH   2   3
ATOM      3  CG  ARG D 557     -28.234   1.225 -17.423  1.00 35.49     0.027 C 
BRANCH   3   4
ATOM      4  CD  ARG D 557     -28.891   0.242 -16.532  1.00 35.49     0.116 C 
BRANCH   4   5
ATOM      5  NE  ARG D 557     -28.007  -0.832 -16.163  1.00 35.49    -0.212 N 
ATOM      6  CZ  ARG D 557     -28.099  -2.078 -16.572  1.00 35.49     0.666 C 
ATOM      7  NH1 ARG D 557     -29.058  -2.489 -17.381  1.00 35.49    -0.235 N 
ATOM      8  NH2 ARG D 557     -27.196  -2.915 -16.153  1.00 35.49    -0.235 N 
ATOM      9  HH  ARG D 557     -29.662  -1.955 -17.670  1.00 35.49     0.174 HD
ATOM     10  HH  ARG D 557     -29.066  -3.313 -17.616  1.00 35.49     0.174 HD
ATOM     11  HH  ARG D 557     -26.584  -2.620 -15.637  1.00 35.49     0.174 HD
ATOM     12  HH  ARG D 557     -27.220  -3.727 -16.398  1.00 35.49     0.174 HD
ATOM     13  HE  ARG D 557     -27.402  -0.672 -15.587  1.00 35.49     0.178 HD
ENDBRANCH   4   5
ENDBRANCH   3   4
ENDBRANCH   2   3
ENDBRANCH   1   2
END_RES ARG D 557
BEGIN_RES GLU D 570
REMARK  3 active torsions:
REMARK  status: ('A' for Active; 'I' for Inactive)
REMARK    5  A    between atoms: CA   and  CB  
REMARK    6  A    between atoms: CB   and  CG  
REMARK    7  A    between atoms: CG   and  CD  
ROOT
ATOM     14  CA  GLU D 570     -18.033  -6.348 -13.375  1.00 32.92     0.160 C 
ENDROOT
BRANCH  14  15
ATOM     15  CB  GLU D 570     -19.500  -6.345 -13.794  1.00 32.92     0.043 C 
BRANCH  15  16
ATOM     16  CG  GLU D 570     -20.100  -7.644 -14.196  1.00 32.92     0.100 C 
BRANCH  16  17
ATOM     17  CD  GLU D 570     -20.764  -7.591 -15.552  1.00 32.92     0.185 C 
ATOM     18  OE1 GLU D 570     -21.288  -6.526 -15.929  1.00 32.92    -0.647 OA
ATOM     19  OE2 GLU D 570     -20.774  -8.632 -16.238  1.00 32.92    -0.647 OA
ENDBRANCH  16  17
ENDBRANCH  15  16
ENDBRANCH  14  15
END_RES GLU D 570
ENDMDL
MODEL 3
REMARK VINA RESULT:      -5.3      1.294      2.994
REMARK  6 active torsions:
REMARK  status: ('A' for Active; 'I' for Inactive)
REMARK    1  A    between atoms: C_2  and  O_12 
REMARK    2  A    between atoms: C_3  and  O_11 
REMARK    3  A    between atoms: C_4  and  O_10 
REMARK    4  A    between atoms: C_5  and  C_7 
REMARK    5  A    between atoms: C_5  and  O_9 
REMARK    6  A    between atoms: C_7  and  O_8 
ROOT
HETATM    1  C   UNL     1     -27.732  -4.233 -15.867  1.00  0.00     0.206 C 
HETATM    2  C   UNL     1     -29.054  -4.407 -16.619  1.00  0.00     0.173 C 
HETATM    3  C   UNL     1     -29.296  -5.887 -16.941  1.00  0.00     0.183 C 
HETATM    4  C   UNL     1     -28.083  -6.472 -17.677  1.00  0.00     0.213 C 
HETATM    5  C   UNL     1     -26.759  -6.185 -16.920  1.00  0.00     0.212 C 
HETATM    6  O   UNL     1     -26.636  -4.795 -16.593  1.00  0.00    -0.349 OA
ENDROOT
BRANCH   5   7
HETATM    7  C   UNL     1     -26.543  -7.082 -15.676  1.00  0.00     0.235 C 
BRANCH   7   8
HETATM    8  O   UNL     1     -25.184  -7.175 -15.262  1.00  0.00    -0.395 OA
HETATM    9  H   UNL     1     -24.849  -8.030 -15.587  1.00  0.00     0.209 HD
ENDBRANCH   7   8
ENDBRANCH   5   7
BRANCH   5  10
HETATM   10  O   UNL     1     -25.676  -6.479 -17.817  1.00  0.00    -0.362 OA
HETATM   11  H   UNL     1     -24.988  -5.824 -17.586  1.00  0.00     0.213 HD
ENDBRANCH   5  10
BRANCH   4  12
HETATM   12  O   UNL     1     -27.973  -5.875 -19.002  1.00  0.00    -0.387 OA
HETATM   13  H   UNL     1     -28.870  -5.934 -19.400  1.00  0.00     0.210 HD
ENDBRANCH   4  12
BRANCH   3  14
HETATM   14  O   UNL     1     -30.474  -6.008 -17.752  1.00  0.00    -0.390 OA
HETATM   15  H   UNL     1     -30.251  -5.569 -18.597  1.00  0.00     0.210 HD
ENDBRANCH   3  14
BRANCH   2  16
HETATM   16  O   UNL     1     -28.986  -3.686 -17.869  1.00  0.00    -0.391 OA
HETATM   17  H   UNL     1     -28.057  -3.713 -18.165  1.00  0.00     0.210 HD
ENDBRANCH   2  16
TORSDOF 6
BEGIN_RES ARG D 557
REMARK  4 active torsions:
REMARK  status: ('A' for Active; 'I' for Inactive)
REMARK    1  A    between atoms: CA   and  CB  
REMARK    2  A    between atoms: CB   and  CG  
REMARK    3  A    between atoms: CG   and  CD  
REMARK    4  A    between atoms: CD   and  NE  
REMARK       I    between atoms: NE   and  CZ  
REMARK       I    between atoms: CZ   and  NH1 
REMARK       I    between atoms: CZ   and  NH2 
ROOT
ATOM      1  CA  ARG D 557     -26.217   2.705 -17.014  1.00 35.49     0.159 C 
ENDROOT
BRANCH   1   2
ATOM      2  CB  ARG D 557     -26.789   1.319 -17.183  1.00 35.49     0.034 C 
BRANCH   2   3
ATOM      3  CG  ARG D 557     -25.835   0.203 -17.161  1.00 35.49     0.027 C 
BRANCH   3   4
ATOM      4  CD  ARG D 557     -24.752   0.407 -16.171  1.00 35.49     0.116 C 
BRANCH   4   5
ATOM      5  NE  ARG D 557     -24.902  -0.445 -15.021  1.00 35.49    -0.212 N 
ATOM      6  CZ  ARG D 557     -24.084  -1.412 -14.670  1.00 35.49     0.666 C 
ATOM      7  NH1 ARG D 557     -23.009  -1.722 -15.371  1.00 35.49    -0.235 N 
ATOM      8  NH2 ARG D 557     -24.364  -2.070 -13.583  1.00 35.49    -0.235 N 
ATOM      9  HH  ARG D 557     -22.804  -1.300 -16.089  1.00 35.49     0.174 HD
ATOM     10  HH  ARG D 557     -22.511  -2.360 -15.092  1.00 35.49     0.174 HD
ATOM     11  HH  ARG D 557     -25.060  -1.844 -13.146  1.00 35.49     0.174 HD
ATOM     12  HH  ARG D 557     -23.857  -2.699 -13.322  1.00 35.49     0.174 HD
ATOM     13  HE  ARG D 557     -25.607  -0.364 -14.552  1.00 35.49     0.178 HD
ENDBRANCH   4   5
ENDBRANCH   3   4
ENDBRANCH   2   3
ENDBRANCH   1   2
END_RES ARG D 557
BEGIN_RES GLU D 570
REMARK  3 active torsions:
REMARK  status: ('A' for Active; 'I' for Inactive)
REMARK    5  A    between atoms: CA   and  CB  
REMARK    6  A    between atoms: CB   and  CG  
REMARK    7  A    between atoms: CG   and  CD  
ROOT
ATOM     14  CA  GLU D 570     -18.033  -6.348 -13.375  1.00 32.92     0.160 C 
ENDROOT
BRANCH  14  15
ATOM     15  CB  GLU D 570     -19.500  -6.345 -13.794  1.00 32.92     0.043 C 
BRANCH  15  16
ATOM     16  CG  GLU D 570     -20.448  -5.559 -12.963  1.00 32.92     0.100 C 
BRANCH  16  17
ATOM     17  CD  GLU D 570     -21.751  -5.268 -13.670  1.00 32.92     0.185 C 
ATOM     18  OE1 GLU D 570     -22.280  -6.163 -14.357  1.00 32.92    -0.647 OA
ATOM     19  OE2 GLU D 570     -22.240  -4.128 -13.549  1.00 32.92    -0.647 OA
ENDBRANCH  16  17
ENDBRANCH  15  16
ENDBRANCH  14  15
END_RES GLU D 570
ENDMDL
MODEL 4
REMARK VINA RESULT:      -5.3      1.216      3.106
REMARK  6 active torsions:
REMARK  status: ('A' for Active; 'I' for Inactive)
REMARK    1  A    between atoms: C_2  and  O_12 
REMARK    2  A    between atoms: C_3  and  O_11 
REMARK    3  A    between atoms: C_4  and  O_10 
REMARK    4  A    between atoms: C_5  and  C_7 
REMARK    5  A    between atoms: C_5  and  O_9 
REMARK    6  A    between atoms: C_7  and  O_8 
ROOT
HETATM    1  C   UNL     1     -29.880  -6.917 -17.338  1.00  0.00     0.206 C 
HETATM    2  C   UNL     1     -30.653  -5.600 -17.232  1.00  0.00     0.173 C 
HETATM    3  C   UNL     1     -29.938  -4.495 -18.020  1.00  0.00     0.183 C 
HETATM    4  C   UNL     1     -28.473  -4.392 -17.575  1.00  0.00     0.213 C 
HETATM    5  C   UNL     1     -27.764  -5.772 -17.610  1.00  0.00     0.212 C 
HETATM    6  O   UNL     1     -28.524  -6.768 -16.912  1.00  0.00    -0.349 OA
ENDROOT
BRANCH   5   7
HETATM    7  C   UNL     1     -27.385  -6.243 -19.036  1.00  0.00     0.235 C 
BRANCH   7   8
HETATM    8  O   UNL     1     -26.078  -6.801 -19.130  1.00  0.00    -0.395 OA
HETATM    9  H   UNL     1     -26.082  -7.398 -19.900  1.00  0.00     0.209 HD
ENDBRANCH   7   8
ENDBRANCH   5   7
BRANCH   5  10
HETATM   10  O   UNL     1     -26.527  -5.641 -16.891  1.00  0.00    -0.362 OA
HETATM   11  H   UNL     1     -26.790  -5.268 -16.026  1.00  0.00     0.213 HD
ENDBRANCH   5  10
BRANCH   4  12
HETATM   12  O   UNL     1     -28.406  -3.897 -16.205  1.00  0.00    -0.387 OA
HETATM   13  H   UNL     1     -27.554  -3.412 -16.135  1.00  0.00     0.210 HD
ENDBRANCH   4  12
BRANCH   3  14
HETATM   14  O   UNL     1     -30.612  -3.247 -17.802  1.00  0.00    -0.390 OA
HETATM   15  H   UNL     1     -31.541  -3.408 -18.061  1.00  0.00     0.210 HD
ENDBRANCH   3  14
BRANCH   2  16
HETATM   16  O   UNL     1     -30.707  -5.193 -15.847  1.00  0.00    -0.391 OA
HETATM   17  H   UNL     1     -31.529  -5.563 -15.471  1.00  0.00     0.210 HD
ENDBRANCH   2  16
TORSDOF 6
BEGIN_RES ARG D 557
REMARK  4 active torsions:
REMARK  status: ('A' for Active; 'I' for Inactive)
REMARK    1  A    between atoms: CA   and  CB  
REMARK    2  A    between atoms: CB   and  CG  
REMARK    3  A    between atoms: CG   and  CD  
REMARK    4  A    between atoms: CD   and  NE  
REMARK       I    between atoms: NE   and  CZ  
REMARK       I    between atoms: CZ   and  NH1 
REMARK       I    between atoms: CZ   and  NH2 
ROOT
ATOM      1  CA  ARG D 557     -26.217   2.705 -17.014  1.00 35.49     0.159 C 
ENDROOT
BRANCH   1   2
ATOM      2  CB  ARG D 557     -26.789   1.319 -17.183  1.00 35.49     0.034 C 
BRANCH   2   3
ATOM      3  CG  ARG D 557     -25.871   0.194 -16.964  1.00 35.49     0.027 C 
BRANCH   3   4
ATOM      4  CD  ARG D 557     -26.389  -0.771 -15.967  1.00 35.49     0.116 C 
BRANCH   4   5
ATOM      5  NE  ARG D 557     -25.428  -1.048 -14.932  1.00 35.49    -0.212 N 
ATOM      6  CZ  ARG D 557     -25.194  -2.225 -14.397  1.00 35.49     0.666 C 
ATOM      7  NH1 ARG D 557     -25.850  -3.312 -14.760  1.00 35.49    -0.235 N 
ATOM      8  NH2 ARG D 557     -24.270  -2.296 -13.483  1.00 35.49    -0.235 N 
ATOM      9  HH  ARG D 557     -26.460  -3.289 -15.361  1.00 35.49     0.174 HD
ATOM     10  HH  ARG D 557     -25.652  -4.053 -14.378  1.00 35.49     0.174 HD
ATOM     11  HH  ARG D 557     -23.858  -1.579 -13.274  1.00 35.49     0.174 HD
ATOM     12  HH  ARG D 557     -24.088  -3.039 -13.118  1.00 35.49     0.174 HD
ATOM     13  HE  ARG D 557     -25.011  -0.391 -14.588  1.00 35.49     0.178 HD
ENDBRANCH   4   5
ENDBRANCH   3   4
ENDBRANCH   2   3
ENDBRANCH   1   2
END_RES ARG D 557
BEGIN_RES GLU D 570
REMARK  3 active torsions:
REMARK  status: ('A' for Active; 'I' for Inactive)
REMARK    5  A    between atoms: CA   and  CB  
REMARK    6  A    between atoms: CB   and  CG  
REMARK    7  A    between atoms: CG   and  CD  
ROOT
ATOM     14  CA  GLU D 570     -18.033  -6.348 -13.375  1.00 32.92     0.160 C 
ENDROOT
BRANCH  14  15
ATOM     15  CB  GLU D 570     -19.500  -6.345 -13.794  1.00 32.92     0.043 C 
BRANCH  15  16
ATOM     16  CG  GLU D 570     -20.448  -5.558 -12.963  1.00 32.92     0.100 C 
BRANCH  16  17
ATOM     17  CD  GLU D 570     -21.685  -5.136 -13.721  1.00 32.92     0.185 C 
ATOM     18  OE1 GLU D 570     -22.740  -4.931 -13.090  1.00 32.92    -0.647 OA
ATOM     19  OE2 GLU D 570     -21.603  -5.026 -14.960  1.00 32.92    -0.647 OA
ENDBRANCH  16  17
ENDBRANCH  15  16
ENDBRANCH  14  15
END_RES GLU D 570
ENDMDL
MODEL 5
REMARK VINA RESULT:      -5.1      2.126      2.840
REMARK  6 active torsions:
REMARK  status: ('A' for Active; 'I' for Inactive)
REMARK    1  A    between atoms: C_2  and  O_12 
REMARK    2  A    between atoms: C_3  and  O_11 
REMARK    3  A    between atoms: C_4  and  O_10 
REMARK    4  A    between atoms: C_5  and  C_7 
REMARK    5  A    between atoms: C_5  and  O_9 
REMARK    6  A    between atoms: C_7  and  O_8 
ROOT
HETATM    1  C   UNL     1     -28.111  -6.040 -18.505  1.00  0.00     0.206 C 
HETATM    2  C   UNL     1     -27.150  -6.462 -17.391  1.00  0.00     0.173 C 
HETATM    3  C   UNL     1     -27.916  -7.163 -16.261  1.00  0.00     0.183 C 
HETATM    4  C   UNL     1     -29.073  -6.278 -15.779  1.00  0.00     0.213 C 
HETATM    5  C   UNL     1     -29.959  -5.799 -16.959  1.00  0.00     0.212 C 
HETATM    6  O   UNL     1     -29.169  -5.218 -18.005  1.00  0.00    -0.349 OA
ENDROOT
BRANCH   5   7
HETATM    7  C   UNL     1     -30.912  -6.890 -17.508  1.00  0.00     0.235 C 
BRANCH   7   8
HETATM    8  O   UNL     1     -32.278  -6.693 -17.157  1.00  0.00    -0.395 OA
HETATM    9  H   UNL     1     -32.796  -7.339 -17.670  1.00  0.00     0.209 HD
ENDBRANCH   7   8
ENDBRANCH   5   7
BRANCH   5  10
HETATM   10  O   UNL     1     -30.802  -4.745 -16.467  1.00  0.00    -0.362 OA
HETATM   11  H   UNL     1     -30.274  -4.326 -15.759  1.00  0.00     0.213 HD
ENDBRANCH   5  10
BRANCH   4  12
HETATM   12  O   UNL     1     -28.545  -5.092 -15.115  1.00  0.00    -0.387 OA
HETATM   13  H   UNL     1     -29.322  -4.635 -14.721  1.00  0.00     0.210 HD
ENDBRANCH   4  12
BRANCH   3  14
HETATM   14  O   UNL     1     -27.016  -7.436 -15.178  1.00  0.00    -0.390 OA
HETATM   15  H   UNL     1     -26.243  -7.872 -15.589  1.00  0.00     0.210 HD
ENDBRANCH   3  14
BRANCH   2  16
HETATM   16  O   UNL     1     -26.520  -5.286 -16.836  1.00  0.00    -0.391 OA
HETATM   17  H   UNL     1     -26.481  -5.411 -15.869  1.00  0.00     0.210 HD
ENDBRANCH   2  16
TORSDOF 6
BEGIN_RES ARG D 557
REMARK  4 active torsions:
REMARK  status: ('A' for Active; 'I' for Inactive)
REMARK    1  A    between atoms: CA   and  CB  
REMARK    2  A    between atoms: CB   and  CG  
REMARK    3  A    between atoms: CG   and  CD  
REMARK    4  A    between atoms: CD   and  NE  
REMARK       I    between atoms: NE   and  CZ  
REMARK       I    between atoms: CZ   and  NH1 
REMARK       I    between atoms: CZ   and  NH2 
ROOT
ATOM      1  CA  ARG D 557     -26.217   2.705 -17.014  1.00 35.49     0.159 C 
ENDROOT
BRANCH   1   2
ATOM      2  CB  ARG D 557     -26.789   1.319 -17.183  1.00 35.49     0.034 C 
BRANCH   2   3
ATOM      3  CG  ARG D 557     -28.250   1.215 -17.287  1.00 35.49     0.027 C 
BRANCH   3   4
ATOM      4  CD  ARG D 557     -28.779   0.008 -16.612  1.00 35.49     0.116 C 
BRANCH   4   5
ATOM      5  NE  ARG D 557     -27.741  -0.753 -15.970  1.00 35.49    -0.212 N 
ATOM      6  CZ  ARG D 557     -27.519  -2.039 -16.132  1.00 35.49     0.666 C 
ATOM      7  NH1 ARG D 557     -28.263  -2.793 -16.920  1.00 35.49    -0.235 N 
ATOM      8  NH2 ARG D 557     -26.518  -2.561 -15.485  1.00 35.49    -0.235 N 
ATOM      9  HH  ARG D 557     -28.925  -2.470 -17.357  1.00 35.49     0.174 HD
ATOM     10  HH  ARG D 557     -28.069  -3.625 -16.989  1.00 35.49     0.174 HD
ATOM     11  HH  ARG D 557     -26.050  -2.048 -14.990  1.00 35.49     0.174 HD
ATOM     12  HH  ARG D 557     -26.341  -3.386 -15.568  1.00 35.49     0.174 HD
ATOM     13  HE  ARG D 557     -27.259  -0.361 -15.389  1.00 35.49     0.178 HD
ENDBRANCH   4   5
ENDBRANCH   3   4
ENDBRANCH   2   3
ENDBRANCH   1   2
END_RES ARG D 557
BEGIN_RES GLU D 570
REMARK  3 active torsions:
REMARK  status: ('A' for Active; 'I' for Inactive)
REMARK    5  A    between atoms: CA   and  CB  
REMARK    6  A    between atoms: CB   and  CG  
REMARK    7  A    between atoms: CG   and  CD  
ROOT
ATOM     14  CA  GLU D 570     -18.033  -6.348 -13.375  1.00 32.92     0.160 C 
ENDROOT
BRANCH  14  15
ATOM     15  CB  GLU D 570     -19.500  -6.345 -13.794  1.00 32.92     0.043 C 
BRANCH  15  16
ATOM     16  CG  GLU D 570     -20.451  -5.575 -12.951  1.00 32.92     0.100 C 
BRANCH  16  17
ATOM     17  CD  GLU D 570     -21.692  -5.150 -13.701  1.00 32.92     0.185 C 
ATOM     18  OE1 GLU D 570     -22.748  -4.963 -13.067  1.00 32.92    -0.647 OA
ATOM     19  OE2 GLU D 570     -21.611  -5.018 -14.938  1.00 32.92    -0.647 OA
ENDBRANCH  16  17
ENDBRANCH  15  16
ENDBRANCH  14  15
END_RES GLU D 570
ENDMDL
MODEL 6
REMARK VINA RESULT:      -5.1      4.720      5.790
REMARK  6 active torsions:
REMARK  status: ('A' for Active; 'I' for Inactive)
REMARK    1  A    between atoms: C_2  and  O_12 
REMARK    2  A    between atoms: C_3  and  O_11 
REMARK    3  A    between atoms: C_4  and  O_10 
REMARK    4  A    between atoms: C_5  and  C_7 
REMARK    5  A    between atoms: C_5  and  O_9 
REMARK    6  A    between atoms: C_7  and  O_8 
ROOT
HETATM    1  C   UNL     1     -35.516  -4.348 -10.870  1.00  0.00     0.206 C 
HETATM    2  C   UNL     1     -34.380  -5.333 -11.156  1.00  0.00     0.173 C 
HETATM    3  C   UNL     1     -33.092  -4.578 -11.510  1.00  0.00     0.183 C 
HETATM    4  C   UNL     1     -33.358  -3.589 -12.653  1.00  0.00     0.213 C 
HETATM    5  C   UNL     1     -34.578  -2.679 -12.352  1.00  0.00     0.212 C 
HETATM    6  O   UNL     1     -35.722  -3.450 -11.963  1.00  0.00    -0.349 OA
ENDROOT
BRANCH   5   7
HETATM    7  C   UNL     1     -34.281  -1.551 -11.333  1.00  0.00     0.235 C 
BRANCH   7   8
HETATM    8  O   UNL     1     -35.058  -0.374 -11.533  1.00  0.00    -0.395 OA
HETATM    9  H   UNL     1     -35.929  -0.542 -11.129  1.00  0.00     0.209 HD
ENDBRANCH   7   8
ENDBRANCH   5   7
BRANCH   5  10
HETATM   10  O   UNL     1     -34.940  -2.023 -13.579  1.00  0.00    -0.362 OA
HETATM   11  H   UNL     1     -34.163  -2.151 -14.158  1.00  0.00     0.213 HD
ENDBRANCH   5  10
BRANCH   4  12
HETATM   12  O   UNL     1     -33.643  -4.318 -13.882  1.00  0.00    -0.387 OA
HETATM   13  H   UNL     1     -34.150  -3.698 -14.452  1.00  0.00     0.210 HD
ENDBRANCH   4  12
BRANCH   3  14
HETATM   14  O   UNL     1     -32.082  -5.521 -11.895  1.00  0.00    -0.390 OA
HETATM   15  H   UNL     1     -31.647  -5.127 -12.678  1.00  0.00     0.210 HD
ENDBRANCH   3  14
BRANCH   2  16
HETATM   16  O   UNL     1     -34.739  -6.154 -12.291  1.00  0.00    -0.391 OA
HETATM   17  H   UNL     1     -35.556  -6.631 -12.052  1.00  0.00     0.210 HD
ENDBRANCH   2  16
TORSDOF 6
BEGIN_RES ARG D 557
REMARK  4 active torsions:
REMARK  status: ('A' for Active; 'I' for Inactive)
REMARK    1  A    between atoms: CA   and  CB  
REMARK    2  A    between atoms: CB   and  CG  
REMARK    3  A    between atoms: CG   and  CD  
REMARK    4  A    between atoms: CD   and  NE  
REMARK       I    between atoms: NE   and  CZ  
REMARK       I    between atoms: CZ   and  NH1 
REMARK       I    between atoms: CZ   and  NH2 
ROOT
ATOM      1  CA  ARG D 557     -26.217   2.705 -17.014  1.00 35.49     0.159 C 
ENDROOT
BRANCH   1   2
ATOM      2  CB  ARG D 557     -26.789   1.319 -17.183  1.00 35.49     0.034 C 
BRANCH   2   3
ATOM      3  CG  ARG D 557     -25.836   0.203 -17.157  1.00 35.49     0.027 C 
BRANCH   3   4
ATOM      4  CD  ARG D 557     -24.747   0.414 -16.176  1.00 35.49     0.116 C 
BRANCH   4   5
ATOM      5  NE  ARG D 557     -24.889  -0.431 -15.019  1.00 35.49    -0.212 N 
ATOM      6  CZ  ARG D 557     -24.074  -1.401 -14.672  1.00 35.49     0.666 C 
ATOM      7  NH1 ARG D 557     -23.009  -1.722 -15.384  1.00 35.49    -0.235 N 
ATOM      8  NH2 ARG D 557     -24.346  -2.051 -13.577  1.00 35.49    -0.235 N 
ATOM      9  HH  ARG D 557     -22.810  -1.307 -16.106  1.00 35.49     0.174 HD
ATOM     10  HH  ARG D 557     -22.512  -2.363 -15.107  1.00 35.49     0.174 HD
ATOM     11  HH  ARG D 557     -25.036  -1.817 -13.134  1.00 35.49     0.174 HD
ATOM     12  HH  ARG D 557     -23.841  -2.681 -13.319  1.00 35.49     0.174 HD
ATOM     13  HE  ARG D 557     -25.588  -0.341 -14.543  1.00 35.49     0.178 HD
ENDBRANCH   4   5
ENDBRANCH   3   4
ENDBRANCH   2   3
ENDBRANCH   1   2
END_RES ARG D 557
BEGIN_RES GLU D 570
REMARK  3 active torsions:
REMARK  status: ('A' for Active; 'I' for Inactive)
REMARK    5  A    between atoms: CA   and  CB  
REMARK    6  A    between atoms: CB   and  CG  
REMARK    7  A    between atoms: CG   and  CD  
ROOT
ATOM     14  CA  GLU D 570     -18.033  -6.348 -13.375  1.00 32.92     0.160 C 
ENDROOT
BRANCH  14  15
ATOM     15  CB  GLU D 570     -19.500  -6.345 -13.794  1.00 32.92     0.043 C 
BRANCH  15  16
ATOM     16  CG  GLU D 570     -20.443  -5.538 -12.978  1.00 32.92     0.100 C 
BRANCH  16  17
ATOM     17  CD  GLU D 570     -21.744  -5.252 -13.691  1.00 32.92     0.185 C 
ATOM     18  OE1 GLU D 570     -22.243  -6.134 -14.416  1.00 32.92    -0.647 OA
ATOM     19  OE2 GLU D 570     -22.262  -4.129 -13.536  1.00 32.92    -0.647 OA
ENDBRANCH  16  17
ENDBRANCH  15  16
ENDBRANCH  14  15
END_RES GLU D 570
ENDMDL
MODEL 7
REMARK VINA RESULT:      -4.9      1.580      2.361
REMARK  6 active torsions:
REMARK  status: ('A' for Active; 'I' for Inactive)
REMARK    1  A    between atoms: C_2  and  O_12 
REMARK    2  A    between atoms: C_3  and  O_11 
REMARK    3  A    between atoms: C_4  and  O_10 
REMARK    4  A    between atoms: C_5  and  C_7 
REMARK    5  A    between atoms: C_5  and  O_9 
REMARK    6  A    between atoms: C_7  and  O_8 
ROOT
HETATM    1  C   UNL     1     -29.450  -6.053 -18.707  1.00  0.00     0.206 C 
HETATM    2  C   UNL     1     -28.544  -6.660 -17.632  1.00  0.00     0.173 C 
HETATM    3  C   UNL     1     -28.911  -6.106 -16.249  1.00  0.00     0.183 C 
HETATM    4  C   UNL     1     -28.901  -4.572 -16.275  1.00  0.00     0.213 C 
HETATM    5  C   UNL     1     -29.758  -4.012 -17.441  1.00  0.00     0.212 C 
HETATM    6  O   UNL     1     -29.406  -4.624 -18.689  1.00  0.00    -0.349 OA
ENDROOT
BRANCH   5   7
HETATM    7  C   UNL     1     -31.283  -4.081 -17.186  1.00  0.00     0.235 C 
BRANCH   7   8
HETATM    8  O   UNL     1     -32.017  -3.017 -17.783  1.00  0.00    -0.395 OA
HETATM    9  H   UNL     1     -32.714  -3.428 -18.328  1.00  0.00     0.209 HD
ENDBRANCH   7   8
ENDBRANCH   5   7
BRANCH   5  10
HETATM   10  O   UNL     1     -29.440  -2.617 -17.580  1.00  0.00    -0.362 OA
HETATM   11  H   UNL     1     -28.579  -2.521 -17.127  1.00  0.00     0.213 HD
ENDBRANCH   5  10
BRANCH   4  12
HETATM   12  O   UNL     1     -27.538  -4.089 -16.457  1.00  0.00    -0.387 OA
HETATM   13  H   UNL     1     -27.600  -3.108 -16.482  1.00  0.00     0.210 HD
ENDBRANCH   4  12
BRANCH   3  14
HETATM   14  O   UNL     1     -27.970  -6.592 -15.281  1.00  0.00    -0.390 OA
HETATM   15  H   UNL     1     -28.355  -6.365 -14.411  1.00  0.00     0.210 HD
ENDBRANCH   3  14
BRANCH   2  16
HETATM   16  O   UNL     1     -27.173  -6.294 -17.907  1.00  0.00    -0.391 OA
HETATM   17  H   UNL     1     -26.943  -5.568 -17.297  1.00  0.00     0.210 HD
ENDBRANCH   2  16
TORSDOF 6
BEGIN_RES ARG D 557
REMARK  4 active torsions:
REMARK  status: ('A' for Active; 'I' for Inactive)
REMARK    1  A    between atoms: CA   and  CB  
REMARK    2  A    between atoms: CB   and  CG  
REMARK    3  A    between atoms: CG   and  CD  
REMARK    4  A    between atoms: CD   and  NE  
REMARK       I    between atoms: NE   and  CZ  
REMARK       I    between atoms: CZ   and  NH1 
REMARK       I    between atoms: CZ   and  NH2 
ROOT
ATOM      1  CA  ARG D 557     -26.217   2.705 -17.014  1.00 35.49     0.159 C 
ENDROOT
BRANCH   1   2
ATOM      2  CB  ARG D 557     -26.789   1.319 -17.183  1.00 35.49     0.034 C 
BRANCH   2   3
ATOM      3  CG  ARG D 557     -25.860   0.195 -17.011  1.00 35.49     0.027 C 
BRANCH   3   4
ATOM      4  CD  ARG D 557     -26.257  -0.700 -15.900  1.00 35.49     0.116 C 
BRANCH   4   5
ATOM      5  NE  ARG D 557     -25.190  -0.896 -14.954  1.00 35.49    -0.212 N 
ATOM      6  CZ  ARG D 557     -24.920  -2.016 -14.322  1.00 35.49     0.666 C 
ATOM      7  NH1 ARG D 557     -25.637  -3.113 -14.485  1.00 35.49    -0.235 N 
ATOM      8  NH2 ARG D 557     -23.900  -2.018 -13.514  1.00 35.49    -0.235 N 
ATOM      9  HH  ARG D 557     -26.311  -3.134 -15.013  1.00 35.49     0.174 HD
ATOM     10  HH  ARG D 557     -25.412  -3.814 -14.048  1.00 35.49     0.174 HD
ATOM     11  HH  ARG D 557     -23.451  -1.297 -13.434  1.00 35.49     0.174 HD
ATOM     12  HH  ARG D 557     -23.693  -2.723 -13.091  1.00 35.49     0.174 HD
ATOM     13  HE  ARG D 557     -24.723  -0.220 -14.734  1.00 35.49     0.178 HD
ENDBRANCH   4   5
ENDBRANCH   3   4
ENDBRANCH   2   3
ENDBRANCH   1   2
END_RES ARG D 557
BEGIN_RES GLU D 570
REMARK  3 active torsions:
REMARK  status: ('A' for Active; 'I' for Inactive)
REMARK    5  A    between atoms: CA   and  CB  
REMARK    6  A    between atoms: CB   and  CG  
REMARK    7  A    between atoms: CG   and  CD  
ROOT
ATOM     14  CA  GLU D 570     -18.033  -6.348 -13.375  1.00 32.92     0.160 C 
ENDROOT
BRANCH  14  15
ATOM     15  CB  GLU D 570     -19.500  -6.345 -13.794  1.00 32.92     0.043 C 
BRANCH  15  16
ATOM     16  CG  GLU D 570     -19.800  -6.143 -15.235  1.00 32.92     0.100 C 
BRANCH  16  17
ATOM     17  CD  GLU D 570     -21.090  -5.391 -15.469  1.00 32.92     0.185 C 
ATOM     18  OE1 GLU D 570     -21.773  -5.042 -14.487  1.00 32.92    -0.647 OA
ATOM     19  OE2 GLU D 570     -21.428  -5.163 -16.647  1.00 32.92    -0.647 OA
ENDBRANCH  16  17
ENDBRANCH  15  16
ENDBRANCH  14  15
END_RES GLU D 570
ENDMDL
MODEL 8
REMARK VINA RESULT:      -4.8      4.747      7.845
REMARK  6 active torsions:
REMARK  status: ('A' for Active; 'I' for Inactive)
REMARK    1  A    between atoms: C_2  and  O_12 
REMARK    2  A    between atoms: C_3  and  O_11 
REMARK    3  A    between atoms: C_4  and  O_10 
REMARK    4  A    between atoms: C_5  and  C_7 
REMARK    5  A    between atoms: C_5  and  O_9 
REMARK    6  A    between atoms: C_7  and  O_8 
ROOT
HETATM    1  C   UNL     1     -23.358  -3.708  -9.971  1.00  0.00     0.206 C 
HETATM    2  C   UNL     1     -24.103  -4.136 -11.237  1.00  0.00     0.173 C 
HETATM    3  C   UNL     1     -23.174  -4.930 -12.163  1.00  0.00     0.183 C 
HETATM    4  C   UNL     1     -21.892  -4.131 -12.438  1.00  0.00     0.213 C 
HETATM    5  C   UNL     1     -21.229  -3.640 -11.123  1.00  0.00     0.212 C 
HETATM    6  O   UNL     1     -22.174  -2.968 -10.281  1.00  0.00    -0.349 OA
ENDROOT
BRANCH   5   7
HETATM    7  C   UNL     1     -20.471  -4.750 -10.354  1.00  0.00     0.235 C 
BRANCH   7   8
HETATM    8  O   UNL     1     -19.978  -4.337  -9.083  1.00  0.00    -0.395 OA
HETATM    9  H   UNL     1     -19.679  -3.415  -9.185  1.00  0.00     0.209 HD
ENDBRANCH   7   8
ENDBRANCH   5   7
BRANCH   5  10
HETATM   10  O   UNL     1     -20.244  -2.657 -11.478  1.00  0.00    -0.362 OA
HETATM   11  H   UNL     1     -20.580  -2.269 -12.310  1.00  0.00     0.213 HD
ENDBRANCH   5  10
BRANCH   4  12
HETATM   12  O   UNL     1     -22.206  -2.955 -13.239  1.00  0.00    -0.387 OA
HETATM   13  H   UNL     1     -23.185  -2.939 -13.324  1.00  0.00     0.210 HD
ENDBRANCH   4  12
BRANCH   3  14
HETATM   14  O   UNL     1     -23.857  -5.210 -13.393  1.00  0.00    -0.390 OA
HETATM   15  H   UNL     1     -23.232  -4.951 -14.100  1.00  0.00     0.210 HD
ENDBRANCH   3  14
BRANCH   2  16
HETATM   16  O   UNL     1     -24.539  -2.957 -11.951  1.00  0.00    -0.391 OA
HETATM   17  H   UNL     1     -25.442  -3.136 -12.275  1.00  0.00     0.210 HD
ENDBRANCH   2  16
TORSDOF 6
BEGIN_RES ARG D 557
REMARK  4 active torsions:
REMARK  status: ('A' for Active; 'I' for Inactive)
REMARK    1  A    between atoms: CA   and  CB  
REMARK    2  A    between atoms: CB   and  CG  
REMARK    3  A    between atoms: CG   and  CD  
REMARK    4  A    between atoms: CD   and  NE  
REMARK       I    between atoms: NE   and  CZ  
REMARK       I    between atoms: CZ   and  NH1 
REMARK       I    between atoms: CZ   and  NH2 
ROOT
ATOM      1  CA  ARG D 557     -26.217   2.705 -17.014  1.00 35.49     0.159 C 
ENDROOT
BRANCH   1   2
ATOM      2  CB  ARG D 557     -26.789   1.319 -17.183  1.00 35.49     0.034 C 
BRANCH   2   3
ATOM      3  CG  ARG D 557     -28.231   1.226 -17.440  1.00 35.49     0.027 C 
BRANCH   3   4
ATOM      4  CD  ARG D 557     -28.914   0.306 -16.503  1.00 35.49     0.116 C 
BRANCH   4   5
ATOM      5  NE  ARG D 557     -29.283  -0.934 -17.133  1.00 35.49    -0.212 N 
ATOM      6  CZ  ARG D 557     -28.638  -2.074 -17.023  1.00 35.49     0.666 C 
ATOM      7  NH1 ARG D 557     -27.535  -2.198 -16.307  1.00 35.49    -0.235 N 
ATOM      8  NH2 ARG D 557     -29.129  -3.105 -17.647  1.00 35.49    -0.235 N 
ATOM      9  HH  ARG D 557     -27.195  -1.534 -15.886  1.00 35.49     0.174 HD
ATOM     10  HH  ARG D 557     -27.159  -2.967 -16.270  1.00 35.49     0.174 HD
ATOM     11  HH  ARG D 557     -29.846  -2.997 -18.096  1.00 35.49     0.174 HD
ATOM     12  HH  ARG D 557     -28.742  -3.858 -17.597  1.00 35.49     0.174 HD
ATOM     13  HE  ARG D 557     -29.941  -0.928 -17.671  1.00 35.49     0.178 HD
ENDBRANCH   4   5
ENDBRANCH   3   4
ENDBRANCH   2   3
ENDBRANCH   1   2
END_RES ARG D 557
BEGIN_RES GLU D 570
REMARK  3 active torsions:
REMARK  status: ('A' for Active; 'I' for Inactive)
REMARK    5  A    between atoms: CA   and  CB  
REMARK    6  A    between atoms: CB   and  CG  
REMARK    7  A    between atoms: CG   and  CD  
ROOT
ATOM     14  CA  GLU D 570     -18.033  -6.348 -13.375  1.00 32.92     0.160 C 
ENDROOT
BRANCH  14  15
ATOM     15  CB  GLU D 570     -19.500  -6.345 -13.794  1.00 32.92     0.043 C 
BRANCH  15  16
ATOM     16  CG  GLU D 570     -19.807  -6.016 -15.210  1.00 32.92     0.100 C 
BRANCH  16  17
ATOM     17  CD  GLU D 570     -21.285  -5.838 -15.467  1.00 32.92     0.185 C 
ATOM     18  OE1 GLU D 570     -21.709  -4.717 -15.810  1.00 32.92    -0.647 OA
ATOM     19  OE2 GLU D 570     -22.030  -6.825 -15.306  1.00 32.92    -0.647 OA
ENDBRANCH  16  17
ENDBRANCH  15  16
ENDBRANCH  14  15
END_RES GLU D 570
ENDMDL
MODEL 9
REMARK VINA RESULT:      -4.8      5.047      6.157
REMARK  6 active torsions:
REMARK  status: ('A' for Active; 'I' for Inactive)
REMARK    1  A    between atoms: C_2  and  O_12 
REMARK    2  A    between atoms: C_3  and  O_11 
REMARK    3  A    between atoms: C_4  and  O_10 
REMARK    4  A    between atoms: C_5  and  C_7 
REMARK    5  A    between atoms: C_5  and  O_9 
REMARK    6  A    between atoms: C_7  and  O_8 
ROOT
HETATM    1  C   UNL     1     -35.508  -4.340 -10.864  1.00  0.00     0.206 C 
HETATM    2  C   UNL     1     -34.359  -5.312 -11.146  1.00  0.00     0.173 C 
HETATM    3  C   UNL     1     -33.089  -4.541 -11.527  1.00  0.00     0.183 C 
HETATM    4  C   UNL     1     -33.383  -3.576 -12.684  1.00  0.00     0.213 C 
HETATM    5  C   UNL     1     -34.615  -2.682 -12.386  1.00  0.00     0.212 C 
HETATM    6  O   UNL     1     -35.742  -3.465 -11.970  1.00  0.00    -0.349 OA
ENDROOT
BRANCH   5   7
HETATM    7  C   UNL     1     -34.326  -1.532 -11.390  1.00  0.00     0.235 C 
BRANCH   7   8
HETATM    8  O   UNL     1     -34.686  -0.243 -11.877  1.00  0.00    -0.395 OA
HETATM    9  H   UNL     1     -34.990   0.273 -11.108  1.00  0.00     0.209 HD
ENDBRANCH   7   8
ENDBRANCH   5   7
BRANCH   5  10
HETATM   10  O   UNL     1     -35.002  -2.054 -13.619  1.00  0.00    -0.362 OA
HETATM   11  H   UNL     1     -35.885  -2.427 -13.812  1.00  0.00     0.213 HD
ENDBRANCH   5  10
BRANCH   4  12
HETATM   12  O   UNL     1     -33.670  -4.332 -13.897  1.00  0.00    -0.387 OA
HETATM   13  H   UNL     1     -34.367  -4.980 -13.652  1.00  0.00     0.210 HD
ENDBRANCH   4  12
BRANCH   3  14
HETATM   14  O   UNL     1     -32.066  -5.473 -11.907  1.00  0.00    -0.390 OA
HETATM   15  H   UNL     1     -31.421  -5.461 -11.172  1.00  0.00     0.210 HD
ENDBRANCH   3  14
BRANCH   2  16
HETATM   16  O   UNL     1     -34.717  -6.157 -12.262  1.00  0.00    -0.391 OA
HETATM   17  H   UNL     1     -34.516  -7.076 -12.000  1.00  0.00     0.210 HD
ENDBRANCH   2  16
TORSDOF 6
BEGIN_RES ARG D 557
REMARK  4 active torsions:
REMARK  status: ('A' for Active; 'I' for Inactive)
REMARK    1  A    between atoms: CA   and  CB  
REMARK    2  A    between atoms: CB   and  CG  
REMARK    3  A    between atoms: CG   and  CD  
REMARK    4  A    between atoms: CD   and  NE  
REMARK       I    between atoms: NE   and  CZ  
REMARK       I    between atoms: CZ   and  NH1 
REMARK       I    between atoms: CZ   and  NH2 
ROOT
ATOM      1  CA  ARG D 557     -26.217   2.705 -17.014  1.00 35.49     0.159 C 
ENDROOT
BRANCH   1   2
ATOM      2  CB  ARG D 557     -26.789   1.319 -17.183  1.00 35.49     0.034 C 
BRANCH   2   3
ATOM      3  CG  ARG D 557     -28.215   1.151 -16.876  1.00 35.49     0.027 C 
BRANCH   3   4
ATOM      4  CD  ARG D 557     -28.602  -0.274 -16.760  1.00 35.49     0.116 C 
BRANCH   4   5
ATOM      5  NE  ARG D 557     -27.620  -1.047 -16.046  1.00 35.49    -0.212 N 
ATOM      6  CZ  ARG D 557     -27.464  -2.349 -16.123  1.00 35.49     0.666 C 
ATOM      7  NH1 ARG D 557     -28.231  -3.112 -16.879  1.00 35.49    -0.235 N 
ATOM      8  NH2 ARG D 557     -26.506  -2.881 -15.421  1.00 35.49    -0.235 N 
ATOM      9  HH  ARG D 557     -28.866  -2.783 -17.351  1.00 35.49     0.174 HD
ATOM     10  HH  ARG D 557     -28.081  -3.956 -16.891  1.00 35.49     0.174 HD
ATOM     11  HH  ARG D 557     -26.022  -2.363 -14.947  1.00 35.49     0.174 HD
ATOM     12  HH  ARG D 557     -26.372  -3.718 -15.447  1.00 35.49     0.174 HD
ATOM     13  HE  ARG D 557     -27.130  -0.644 -15.480  1.00 35.49     0.178 HD
ENDBRANCH   4   5
ENDBRANCH   3   4
ENDBRANCH   2   3
ENDBRANCH   1   2
END_RES ARG D 557
BEGIN_RES GLU D 570
REMARK  3 active torsions:
REMARK  status: ('A' for Active; 'I' for Inactive)
REMARK    5  A    between atoms: CA   and  CB  
REMARK    6  A    between atoms: CB   and  CG  
REMARK    7  A    between atoms: CG   and  CD  
ROOT
ATOM     14  CA  GLU D 570     -18.033  -6.348 -13.375  1.00 32.92     0.160 C 
ENDROOT
BRANCH  14  15
ATOM     15  CB  GLU D 570     -19.500  -6.345 -13.794  1.00 32.92     0.043 C 
BRANCH  15  16
ATOM     16  CG  GLU D 570     -19.805  -6.047 -15.217  1.00 32.92     0.100 C 
BRANCH  16  17
ATOM     17  CD  GLU D 570     -21.142  -5.370 -15.405  1.00 32.92     0.185 C 
ATOM     18  OE1 GLU D 570     -21.499  -5.043 -16.553  1.00 32.92    -0.647 OA
ATOM     19  OE2 GLU D 570     -21.832  -5.149 -14.390  1.00 32.92    -0.647 OA
ENDBRANCH  16  17
ENDBRANCH  15  16
ENDBRANCH  14  15
END_RES GLU D 570
ENDMDL
