MODEL 1
REMARK VINA RESULT:      -1.2      0.000      0.000
REMARK  12 active torsions:
REMARK  status: ('A' for Active; 'I' for Inactive)
REMARK    1  A    between atoms: C_2  and  C_3 
REMARK    2  A    between atoms: C_3  and  C_4 
REMARK    3  A    between atoms: C_4  and  C_5 
REMARK    4  A    between atoms: C_5  and  C_6 
REMARK    5  A    between atoms: C_6  and  C_7 
REMARK    6  A    between atoms: C_7  and  C_8 
REMARK    7  A    between atoms: C_8  and  C_9 
REMARK    8  A    between atoms: C_9  and  C_10 
REMARK    9  A    between atoms: C_10  and  C_11 
REMARK   10  A    between atoms: C_11  and  C_12 
REMARK   11  A    between atoms: C_12  and  O_13 
REMARK   12  A    between atoms: O_13  and  S_14 
ROOT
HETATM    1  H   UNL     1     -20.765  -8.704 -15.173  1.00  0.00     0.271 HD
HETATM    2  H   UNL     1     -21.093  -7.857 -16.579  1.00  0.00     0.271 HD
HETATM    3  H   UNL     1     -22.272  -8.835 -15.890  1.00  0.00     0.271 HD
HETATM    4  H   UNL     1     -20.928  -9.526 -16.625  1.00  0.00     0.271 HD
HETATM    5  N   UNL     2     -21.268  -8.732 -16.071  1.00  0.00    -0.084 N 
ENDROOT
TORSDOF 12
BEGIN_RES ARG D 557
REMARK  4 active torsions:
REMARK  status: ('A' for Active; 'I' for Inactive)
REMARK    1  A    between atoms: CA   and  CB  
REMARK    2  A    between atoms: CB   and  CG  
REMARK    3  A    between atoms: CG   and  CD  
REMARK    4  A    between atoms: CD   and  NE  
REMARK       I    between atoms: NE   and  CZ  
REMARK       I    between atoms: CZ   and  NH1 
REMARK       I    between atoms: CZ   and  NH2 
ROOT
ATOM      1  CA  ARG D 557     -26.217   2.705 -17.014  1.00 35.49     0.159 C 
ENDROOT
BRANCH   1   2
ATOM      2  CB  ARG D 557     -26.789   1.319 -17.183  1.00 35.49     0.034 C 
BRANCH   2   3
ATOM      3  CG  ARG D 557     -25.836   0.203 -17.152  1.00 35.49     0.027 C 
BRANCH   3   4
ATOM      4  CD  ARG D 557     -24.753   0.412 -16.164  1.00 35.49     0.116 C 
BRANCH   4   5
ATOM      5  NE  ARG D 557     -24.898  -0.437 -15.012  1.00 35.49    -0.212 N 
ATOM      6  CZ  ARG D 557     -24.084  -1.409 -14.667  1.00 35.49     0.666 C 
ATOM      7  NH1 ARG D 557     -23.017  -1.726 -15.377  1.00 35.49    -0.235 N 
ATOM      8  NH2 ARG D 557     -24.359  -2.064 -13.576  1.00 35.49    -0.235 N 
ATOM      9  HH  ARG D 557     -22.815  -1.307 -16.097  1.00 35.49     0.174 HD
ATOM     10  HH  ARG D 557     -22.520  -2.368 -15.101  1.00 35.49     0.174 HD
ATOM     11  HH  ARG D 557     -25.050  -1.833 -13.134  1.00 35.49     0.174 HD
ATOM     12  HH  ARG D 557     -23.854  -2.695 -13.319  1.00 35.49     0.174 HD
ATOM     13  HE  ARG D 557     -25.599  -0.351 -14.538  1.00 35.49     0.178 HD
ENDBRANCH   4   5
ENDBRANCH   3   4
ENDBRANCH   2   3
ENDBRANCH   1   2
END_RES ARG D 557
BEGIN_RES GLU D 570
REMARK  3 active torsions:
REMARK  status: ('A' for Active; 'I' for Inactive)
REMARK    5  A    between atoms: CA   and  CB  
REMARK    6  A    between atoms: CB   and  CG  
REMARK    7  A    between atoms: CG   and  CD  
ROOT
ATOM     14  CA  GLU D 570     -18.033  -6.348 -13.375  1.00 32.92     0.160 C 
ENDROOT
BRANCH  14  15
ATOM     15  CB  GLU D 570     -19.500  -6.345 -13.794  1.00 32.92     0.043 C 
BRANCH  15  16
ATOM     16  CG  GLU D 570     -20.437  -5.508 -13.001  1.00 32.92     0.100 C 
BRANCH  16  17
ATOM     17  CD  GLU D 570     -21.752  -5.268 -13.704  1.00 32.92     0.185 C 
ATOM     18  OE1 GLU D 570     -22.214  -6.157 -14.444  1.00 32.92    -0.647 OA
ATOM     19  OE2 GLU D 570     -22.319  -4.172 -13.526  1.00 32.92    -0.647 OA
ENDBRANCH  16  17
ENDBRANCH  15  16
ENDBRANCH  14  15
END_RES GLU D 570
ENDMDL
MODEL 2
REMARK VINA RESULT:      -1.0      2.189      2.914
REMARK  12 active torsions:
REMARK  status: ('A' for Active; 'I' for Inactive)
REMARK    1  A    between atoms: C_2  and  C_3 
REMARK    2  A    between atoms: C_3  and  C_4 
REMARK    3  A    between atoms: C_4  and  C_5 
REMARK    4  A    between atoms: C_5  and  C_6 
REMARK    5  A    between atoms: C_6  and  C_7 
REMARK    6  A    between atoms: C_7  and  C_8 
REMARK    7  A    between atoms: C_8  and  C_9 
REMARK    8  A    between atoms: C_9  and  C_10 
REMARK    9  A    between atoms: C_10  and  C_11 
REMARK   10  A    between atoms: C_11  and  C_12 
REMARK   11  A    between atoms: C_12  and  O_13 
REMARK   12  A    between atoms: O_13  and  S_14 
ROOT
HETATM    1  H   UNL     1     -24.607  -4.116  -9.233  1.00  0.00     0.271 HD
HETATM    2  H   UNL     1     -25.149  -3.445 -10.667  1.00  0.00     0.271 HD
HETATM    3  H   UNL     1     -25.571  -2.748  -9.198  1.00  0.00     0.271 HD
HETATM    4  H   UNL     1     -26.227  -4.229  -9.648  1.00  0.00     0.271 HD
HETATM    5  N   UNL     2     -25.393  -3.631  -9.687  1.00  0.00    -0.084 N 
ENDROOT
TORSDOF 12
BEGIN_RES ARG D 557
REMARK  4 active torsions:
REMARK  status: ('A' for Active; 'I' for Inactive)
REMARK    1  A    between atoms: CA   and  CB  
REMARK    2  A    between atoms: CB   and  CG  
REMARK    3  A    between atoms: CG   and  CD  
REMARK    4  A    between atoms: CD   and  NE  
REMARK       I    between atoms: NE   and  CZ  
REMARK       I    between atoms: CZ   and  NH1 
REMARK       I    between atoms: CZ   and  NH2 
ROOT
ATOM      1  CA  ARG D 557     -26.217   2.705 -17.014  1.00 35.49     0.159 C 
ENDROOT
BRANCH   1   2
ATOM      2  CB  ARG D 557     -26.789   1.319 -17.183  1.00 35.49     0.034 C 
BRANCH   2   3
ATOM      3  CG  ARG D 557     -25.837   0.202 -17.145  1.00 35.49     0.027 C 
BRANCH   3   4
ATOM      4  CD  ARG D 557     -24.763   0.410 -16.146  1.00 35.49     0.116 C 
BRANCH   4   5
ATOM      5  NE  ARG D 557     -24.909  -0.454 -15.005  1.00 35.49    -0.212 N 
ATOM      6  CZ  ARG D 557     -24.087  -1.422 -14.664  1.00 35.49     0.666 C 
ATOM      7  NH1 ARG D 557     -23.011  -1.719 -15.368  1.00 35.49    -0.235 N 
ATOM      8  NH2 ARG D 557     -24.365  -2.092 -13.583  1.00 35.49    -0.235 N 
ATOM      9  HH  ARG D 557     -22.808  -1.290 -16.081  1.00 35.49     0.174 HD
ATOM     10  HH  ARG D 557     -22.510  -2.359 -15.095  1.00 35.49     0.174 HD
ATOM     11  HH  ARG D 557     -25.063  -1.873 -13.144  1.00 35.49     0.174 HD
ATOM     12  HH  ARG D 557     -23.856  -2.721 -13.329  1.00 35.49     0.174 HD
ATOM     13  HE  ARG D 557     -25.615  -0.381 -14.535  1.00 35.49     0.178 HD
ENDBRANCH   4   5
ENDBRANCH   3   4
ENDBRANCH   2   3
ENDBRANCH   1   2
END_RES ARG D 557
BEGIN_RES GLU D 570
REMARK  3 active torsions:
REMARK  status: ('A' for Active; 'I' for Inactive)
REMARK    5  A    between atoms: CA   and  CB  
REMARK    6  A    between atoms: CB   and  CG  
REMARK    7  A    between atoms: CG   and  CD  
ROOT
ATOM     14  CA  GLU D 570     -18.033  -6.348 -13.375  1.00 32.92     0.160 C 
ENDROOT
BRANCH  14  15
ATOM     15  CB  GLU D 570     -19.500  -6.345 -13.794  1.00 32.92     0.043 C 
BRANCH  15  16
ATOM     16  CG  GLU D 570     -20.444  -5.543 -12.974  1.00 32.92     0.100 C 
BRANCH  16  17
ATOM     17  CD  GLU D 570     -21.742  -5.248 -13.690  1.00 32.92     0.185 C 
ATOM     18  OE1 GLU D 570     -22.274  -4.131 -13.542  1.00 32.92    -0.647 OA
ATOM     19  OE2 GLU D 570     -22.240  -6.149 -14.392  1.00 32.92    -0.647 OA
ENDBRANCH  16  17
ENDBRANCH  15  16
ENDBRANCH  14  15
END_RES GLU D 570
ENDMDL
MODEL 3
REMARK VINA RESULT:      -1.0      4.940      6.151
REMARK  12 active torsions:
REMARK  status: ('A' for Active; 'I' for Inactive)
REMARK    1  A    between atoms: C_2  and  C_3 
REMARK    2  A    between atoms: C_3  and  C_4 
REMARK    3  A    between atoms: C_4  and  C_5 
REMARK    4  A    between atoms: C_5  and  C_6 
REMARK    5  A    between atoms: C_6  and  C_7 
REMARK    6  A    between atoms: C_7  and  C_8 
REMARK    7  A    between atoms: C_8  and  C_9 
REMARK    8  A    between atoms: C_9  and  C_10 
REMARK    9  A    between atoms: C_10  and  C_11 
REMARK   10  A    between atoms: C_11  and  C_12 
REMARK   11  A    between atoms: C_12  and  O_13 
REMARK   12  A    between atoms: O_13  and  S_14 
ROOT
HETATM    1  H   UNL     1     -35.365  -5.303  -0.791  1.00  0.00     0.271 HD
HETATM    2  H   UNL     1     -34.440  -6.455  -1.579  1.00  0.00     0.271 HD
HETATM    3  H   UNL     1     -33.781  -5.564  -0.317  1.00  0.00     0.271 HD
HETATM    4  H   UNL     1     -34.107  -4.824  -1.790  1.00  0.00     0.271 HD
HETATM    5  N   UNL     2     -34.418  -5.537  -1.120  1.00  0.00    -0.084 N 
ENDROOT
TORSDOF 12
BEGIN_RES ARG D 557
REMARK  4 active torsions:
REMARK  status: ('A' for Active; 'I' for Inactive)
REMARK    1  A    between atoms: CA   and  CB  
REMARK    2  A    between atoms: CB   and  CG  
REMARK    3  A    between atoms: CG   and  CD  
REMARK    4  A    between atoms: CD   and  NE  
REMARK       I    between atoms: NE   and  CZ  
REMARK       I    between atoms: CZ   and  NH1 
REMARK       I    between atoms: CZ   and  NH2 
ROOT
ATOM      1  CA  ARG D 557     -26.217   2.705 -17.014  1.00 35.49     0.159 C 
ENDROOT
BRANCH   1   2
ATOM      2  CB  ARG D 557     -26.789   1.319 -17.183  1.00 35.49     0.034 C 
BRANCH   2   3
ATOM      3  CG  ARG D 557     -25.835   0.203 -17.160  1.00 35.49     0.027 C 
BRANCH   3   4
ATOM      4  CD  ARG D 557     -24.749   0.410 -16.175  1.00 35.49     0.116 C 
BRANCH   4   5
ATOM      5  NE  ARG D 557     -24.895  -0.435 -15.020  1.00 35.49    -0.212 N 
ATOM      6  CZ  ARG D 557     -24.080  -1.405 -14.670  1.00 35.49     0.666 C 
ATOM      7  NH1 ARG D 557     -23.011  -1.723 -15.376  1.00 35.49    -0.235 N 
ATOM      8  NH2 ARG D 557     -24.356  -2.056 -13.577  1.00 35.49    -0.235 N 
ATOM      9  HH  ARG D 557     -22.809  -1.306 -16.097  1.00 35.49     0.174 HD
ATOM     10  HH  ARG D 557     -22.514  -2.363 -15.097  1.00 35.49     0.174 HD
ATOM     11  HH  ARG D 557     -25.049  -1.824 -13.137  1.00 35.49     0.174 HD
ATOM     12  HH  ARG D 557     -23.851  -2.686 -13.317  1.00 35.49     0.174 HD
ATOM     13  HE  ARG D 557     -25.596  -0.348 -14.547  1.00 35.49     0.178 HD
ENDBRANCH   4   5
ENDBRANCH   3   4
ENDBRANCH   2   3
ENDBRANCH   1   2
END_RES ARG D 557
BEGIN_RES GLU D 570
REMARK  3 active torsions:
REMARK  status: ('A' for Active; 'I' for Inactive)
REMARK    5  A    between atoms: CA   and  CB  
REMARK    6  A    between atoms: CB   and  CG  
REMARK    7  A    between atoms: CG   and  CD  
ROOT
ATOM     14  CA  GLU D 570     -18.033  -6.348 -13.375  1.00 32.92     0.160 C 
ENDROOT
BRANCH  14  15
ATOM     15  CB  GLU D 570     -19.500  -6.345 -13.794  1.00 32.92     0.043 C 
BRANCH  15  16
ATOM     16  CG  GLU D 570     -20.443  -5.535 -12.980  1.00 32.92     0.100 C 
BRANCH  16  17
ATOM     17  CD  GLU D 570     -21.739  -5.241 -13.698  1.00 32.92     0.185 C 
ATOM     18  OE1 GLU D 570     -22.315  -4.157 -13.489  1.00 32.92    -0.647 OA
ATOM     19  OE2 GLU D 570     -22.193  -6.113 -14.466  1.00 32.92    -0.647 OA
ENDBRANCH  16  17
ENDBRANCH  15  16
ENDBRANCH  14  15
END_RES GLU D 570
ENDMDL
MODEL 4
REMARK VINA RESULT:      -1.0      3.642      4.165
REMARK  12 active torsions:
REMARK  status: ('A' for Active; 'I' for Inactive)
REMARK    1  A    between atoms: C_2  and  C_3 
REMARK    2  A    between atoms: C_3  and  C_4 
REMARK    3  A    between atoms: C_4  and  C_5 
REMARK    4  A    between atoms: C_5  and  C_6 
REMARK    5  A    between atoms: C_6  and  C_7 
REMARK    6  A    between atoms: C_7  and  C_8 
REMARK    7  A    between atoms: C_8  and  C_9 
REMARK    8  A    between atoms: C_9  and  C_10 
REMARK    9  A    between atoms: C_10  and  C_11 
REMARK   10  A    between atoms: C_11  and  C_12 
REMARK   11  A    between atoms: C_12  and  O_13 
REMARK   12  A    between atoms: O_13  and  S_14 
ROOT
HETATM    1  H   UNL     1     -33.629  -8.450  -9.397  1.00  0.00     0.271 HD
HETATM    2  H   UNL     1     -33.662  -8.548 -11.067  1.00  0.00     0.271 HD
HETATM    3  H   UNL     1     -34.078  -9.883 -10.136  1.00  0.00     0.271 HD
HETATM    4  H   UNL     1     -32.480  -9.367 -10.202  1.00  0.00     0.271 HD
HETATM    5  N   UNL     2     -33.462  -9.067 -10.203  1.00  0.00    -0.084 N 
ENDROOT
TORSDOF 12
BEGIN_RES ARG D 557
REMARK  4 active torsions:
REMARK  status: ('A' for Active; 'I' for Inactive)
REMARK    1  A    between atoms: CA   and  CB  
REMARK    2  A    between atoms: CB   and  CG  
REMARK    3  A    between atoms: CG   and  CD  
REMARK    4  A    between atoms: CD   and  NE  
REMARK       I    between atoms: NE   and  CZ  
REMARK       I    between atoms: CZ   and  NH1 
REMARK       I    between atoms: CZ   and  NH2 
ROOT
ATOM      1  CA  ARG D 557     -26.217   2.705 -17.014  1.00 35.49     0.159 C 
ENDROOT
BRANCH   1   2
ATOM      2  CB  ARG D 557     -26.789   1.319 -17.183  1.00 35.49     0.034 C 
BRANCH   2   3
ATOM      3  CG  ARG D 557     -25.839   0.201 -17.131  1.00 35.49     0.027 C 
BRANCH   3   4
ATOM      4  CD  ARG D 557     -24.763   0.421 -16.137  1.00 35.49     0.116 C 
BRANCH   4   5
ATOM      5  NE  ARG D 557     -24.880  -0.461 -15.006  1.00 35.49    -0.212 N 
ATOM      6  CZ  ARG D 557     -24.041  -1.422 -14.692  1.00 35.49     0.666 C 
ATOM      7  NH1 ARG D 557     -22.972  -1.695 -15.416  1.00 35.49    -0.235 N 
ATOM      8  NH2 ARG D 557     -24.293  -2.112 -13.617  1.00 35.49    -0.235 N 
ATOM      9  HH  ARG D 557     -22.785  -1.253 -16.126  1.00 35.49     0.174 HD
ATOM     10  HH  ARG D 557     -22.458  -2.332 -15.161  1.00 35.49     0.174 HD
ATOM     11  HH  ARG D 557     -24.987  -1.908 -13.165  1.00 35.49     0.174 HD
ATOM     12  HH  ARG D 557     -23.772  -2.737 -13.380  1.00 35.49     0.174 HD
ATOM     13  HE  ARG D 557     -25.579  -0.403 -14.525  1.00 35.49     0.178 HD
ENDBRANCH   4   5
ENDBRANCH   3   4
ENDBRANCH   2   3
ENDBRANCH   1   2
END_RES ARG D 557
BEGIN_RES GLU D 570
REMARK  3 active torsions:
REMARK  status: ('A' for Active; 'I' for Inactive)
REMARK    5  A    between atoms: CA   and  CB  
REMARK    6  A    between atoms: CB   and  CG  
REMARK    7  A    between atoms: CG   and  CD  
ROOT
ATOM     14  CA  GLU D 570     -18.033  -6.348 -13.375  1.00 32.92     0.160 C 
ENDROOT
BRANCH  14  15
ATOM     15  CB  GLU D 570     -19.500  -6.345 -13.794  1.00 32.92     0.043 C 
BRANCH  15  16
ATOM     16  CG  GLU D 570     -20.446  -5.549 -12.970  1.00 32.92     0.100 C 
BRANCH  16  17
ATOM     17  CD  GLU D 570     -21.645  -5.065 -13.751  1.00 32.92     0.185 C 
ATOM     18  OE1 GLU D 570     -22.670  -4.718 -13.133  1.00 32.92    -0.647 OA
ATOM     19  OE2 GLU D 570     -21.565  -5.049 -14.995  1.00 32.92    -0.647 OA
ENDBRANCH  16  17
ENDBRANCH  15  16
ENDBRANCH  14  15
END_RES GLU D 570
ENDMDL
MODEL 5
REMARK VINA RESULT:      -1.0      4.090      4.390
REMARK  12 active torsions:
REMARK  status: ('A' for Active; 'I' for Inactive)
REMARK    1  A    between atoms: C_2  and  C_3 
REMARK    2  A    between atoms: C_3  and  C_4 
REMARK    3  A    between atoms: C_4  and  C_5 
REMARK    4  A    between atoms: C_5  and  C_6 
REMARK    5  A    between atoms: C_6  and  C_7 
REMARK    6  A    between atoms: C_7  and  C_8 
REMARK    7  A    between atoms: C_8  and  C_9 
REMARK    8  A    between atoms: C_9  and  C_10 
REMARK    9  A    between atoms: C_10  and  C_11 
REMARK   10  A    between atoms: C_11  and  C_12 
REMARK   11  A    between atoms: C_12  and  O_13 
REMARK   12  A    between atoms: O_13  and  S_14 
ROOT
HETATM    1  H   UNL     1     -34.073  -8.364 -19.739  1.00  0.00     0.271 HD
HETATM    2  H   UNL     1     -35.508  -7.672 -20.251  1.00  0.00     0.271 HD
HETATM    3  H   UNL     1     -35.123  -7.702 -18.616  1.00  0.00     0.271 HD
HETATM    4  H   UNL     1     -35.531  -9.125 -19.412  1.00  0.00     0.271 HD
HETATM    5  N   UNL     2     -35.063  -8.215 -19.502  1.00  0.00    -0.084 N 
ENDROOT
TORSDOF 12
BEGIN_RES ARG D 557
REMARK  4 active torsions:
REMARK  status: ('A' for Active; 'I' for Inactive)
REMARK    1  A    between atoms: CA   and  CB  
REMARK    2  A    between atoms: CB   and  CG  
REMARK    3  A    between atoms: CG   and  CD  
REMARK    4  A    between atoms: CD   and  NE  
REMARK       I    between atoms: NE   and  CZ  
REMARK       I    between atoms: CZ   and  NH1 
REMARK       I    between atoms: CZ   and  NH2 
ROOT
ATOM      1  CA  ARG D 557     -26.217   2.705 -17.014  1.00 35.49     0.159 C 
ENDROOT
BRANCH   1   2
ATOM      2  CB  ARG D 557     -26.789   1.319 -17.183  1.00 35.49     0.034 C 
BRANCH   2   3
ATOM      3  CG  ARG D 557     -25.836   0.203 -17.153  1.00 35.49     0.027 C 
BRANCH   3   4
ATOM      4  CD  ARG D 557     -24.759   0.407 -16.158  1.00 35.49     0.116 C 
BRANCH   4   5
ATOM      5  NE  ARG D 557     -24.911  -0.447 -15.010  1.00 35.49    -0.212 N 
ATOM      6  CZ  ARG D 557     -24.098  -1.421 -14.664  1.00 35.49     0.666 C 
ATOM      7  NH1 ARG D 557     -23.027  -1.734 -15.368  1.00 35.49    -0.235 N 
ATOM      8  NH2 ARG D 557     -24.380  -2.080 -13.578  1.00 35.49    -0.235 N 
ATOM      9  HH  ARG D 557     -22.821  -1.312 -16.085  1.00 35.49     0.174 HD
ATOM     10  HH  ARG D 557     -22.532  -2.377 -15.092  1.00 35.49     0.174 HD
ATOM     11  HH  ARG D 557     -25.075  -1.851 -13.139  1.00 35.49     0.174 HD
ATOM     12  HH  ARG D 557     -23.877  -2.712 -13.320  1.00 35.49     0.174 HD
ATOM     13  HE  ARG D 557     -25.614  -0.363 -14.539  1.00 35.49     0.178 HD
ENDBRANCH   4   5
ENDBRANCH   3   4
ENDBRANCH   2   3
ENDBRANCH   1   2
END_RES ARG D 557
BEGIN_RES GLU D 570
REMARK  3 active torsions:
REMARK  status: ('A' for Active; 'I' for Inactive)
REMARK    5  A    between atoms: CA   and  CB  
REMARK    6  A    between atoms: CB   and  CG  
REMARK    7  A    between atoms: CG   and  CD  
ROOT
ATOM     14  CA  GLU D 570     -18.033  -6.348 -13.375  1.00 32.92     0.160 C 
ENDROOT
BRANCH  14  15
ATOM     15  CB  GLU D 570     -19.500  -6.345 -13.794  1.00 32.92     0.043 C 
BRANCH  15  16
ATOM     16  CG  GLU D 570     -20.442  -5.532 -12.982  1.00 32.92     0.100 C 
BRANCH  16  17
ATOM     17  CD  GLU D 570     -21.735  -5.233 -13.704  1.00 32.92     0.185 C 
ATOM     18  OE1 GLU D 570     -22.299  -4.139 -13.507  1.00 32.92    -0.647 OA
ATOM     19  OE2 GLU D 570     -22.199  -6.108 -14.461  1.00 32.92    -0.647 OA
ENDBRANCH  16  17
ENDBRANCH  15  16
ENDBRANCH  14  15
END_RES GLU D 570
ENDMDL
MODEL 6
REMARK VINA RESULT:      -1.0      3.690      4.405
REMARK  12 active torsions:
REMARK  status: ('A' for Active; 'I' for Inactive)
REMARK    1  A    between atoms: C_2  and  C_3 
REMARK    2  A    between atoms: C_3  and  C_4 
REMARK    3  A    between atoms: C_4  and  C_5 
REMARK    4  A    between atoms: C_5  and  C_6 
REMARK    5  A    between atoms: C_6  and  C_7 
REMARK    6  A    between atoms: C_7  and  C_8 
REMARK    7  A    between atoms: C_8  and  C_9 
REMARK    8  A    between atoms: C_9  and  C_10 
REMARK    9  A    between atoms: C_10  and  C_11 
REMARK   10  A    between atoms: C_11  and  C_12 
REMARK   11  A    between atoms: C_12  and  O_13 
REMARK   12  A    between atoms: O_13  and  S_14 
ROOT
HETATM    1  H   UNL     1     -22.583  -6.562  -1.383  1.00  0.00     0.271 HD
HETATM    2  H   UNL     1     -21.877  -5.079  -1.704  1.00  0.00     0.271 HD
HETATM    3  H   UNL     1     -23.222  -5.579  -2.577  1.00  0.00     0.271 HD
HETATM    4  H   UNL     1     -21.738  -6.331  -2.812  1.00  0.00     0.271 HD
HETATM    5  N   UNL     2     -22.355  -5.885  -2.124  1.00  0.00    -0.084 N 
ENDROOT
TORSDOF 12
BEGIN_RES ARG D 557
REMARK  4 active torsions:
REMARK  status: ('A' for Active; 'I' for Inactive)
REMARK    1  A    between atoms: CA   and  CB  
REMARK    2  A    between atoms: CB   and  CG  
REMARK    3  A    between atoms: CG   and  CD  
REMARK    4  A    between atoms: CD   and  NE  
REMARK       I    between atoms: NE   and  CZ  
REMARK       I    between atoms: CZ   and  NH1 
REMARK       I    between atoms: CZ   and  NH2 
ROOT
ATOM      1  CA  ARG D 557     -26.217   2.705 -17.014  1.00 35.49     0.159 C 
ENDROOT
BRANCH   1   2
ATOM      2  CB  ARG D 557     -26.789   1.319 -17.183  1.00 35.49     0.034 C 
BRANCH   2   3
ATOM      3  CG  ARG D 557     -25.834   0.204 -17.168  1.00 35.49     0.027 C 
BRANCH   3   4
ATOM      4  CD  ARG D 557     -24.748   0.405 -16.182  1.00 35.49     0.116 C 
BRANCH   4   5
ATOM      5  NE  ARG D 557     -24.901  -0.440 -15.026  1.00 35.49    -0.212 N 
ATOM      6  CZ  ARG D 557     -24.087  -1.409 -14.670  1.00 35.49     0.666 C 
ATOM      7  NH1 ARG D 557     -23.014  -1.727 -15.371  1.00 35.49    -0.235 N 
ATOM      8  NH2 ARG D 557     -24.370  -2.059 -13.579  1.00 35.49    -0.235 N 
ATOM      9  HH  ARG D 557     -22.808  -1.311 -16.091  1.00 35.49     0.174 HD
ATOM     10  HH  ARG D 557     -22.519  -2.367 -15.088  1.00 35.49     0.174 HD
ATOM     11  HH  ARG D 557     -25.065  -1.827 -13.143  1.00 35.49     0.174 HD
ATOM     12  HH  ARG D 557     -23.866  -2.688 -13.315  1.00 35.49     0.174 HD
ATOM     13  HE  ARG D 557     -25.605  -0.352 -14.558  1.00 35.49     0.178 HD
ENDBRANCH   4   5
ENDBRANCH   3   4
ENDBRANCH   2   3
ENDBRANCH   1   2
END_RES ARG D 557
BEGIN_RES GLU D 570
REMARK  3 active torsions:
REMARK  status: ('A' for Active; 'I' for Inactive)
REMARK    5  A    between atoms: CA   and  CB  
REMARK    6  A    between atoms: CB   and  CG  
REMARK    7  A    between atoms: CG   and  CD  
ROOT
ATOM     14  CA  GLU D 570     -18.033  -6.348 -13.375  1.00 32.92     0.160 C 
ENDROOT
BRANCH  14  15
ATOM     15  CB  GLU D 570     -19.500  -6.345 -13.794  1.00 32.92     0.043 C 
BRANCH  15  16
ATOM     16  CG  GLU D 570     -20.442  -5.529 -12.984  1.00 32.92     0.100 C 
BRANCH  16  17
ATOM     17  CD  GLU D 570     -21.742  -5.247 -13.700  1.00 32.92     0.185 C 
ATOM     18  OE1 GLU D 570     -22.312  -4.155 -13.510  1.00 32.92    -0.647 OA
ATOM     19  OE2 GLU D 570     -22.204  -6.133 -14.444  1.00 32.92    -0.647 OA
ENDBRANCH  16  17
ENDBRANCH  15  16
ENDBRANCH  14  15
END_RES GLU D 570
ENDMDL
MODEL 7
REMARK VINA RESULT:      -0.9      4.164      5.384
REMARK  12 active torsions:
REMARK  status: ('A' for Active; 'I' for Inactive)
REMARK    1  A    between atoms: C_2  and  C_3 
REMARK    2  A    between atoms: C_3  and  C_4 
REMARK    3  A    between atoms: C_4  and  C_5 
REMARK    4  A    between atoms: C_5  and  C_6 
REMARK    5  A    between atoms: C_6  and  C_7 
REMARK    6  A    between atoms: C_7  and  C_8 
REMARK    7  A    between atoms: C_8  and  C_9 
REMARK    8  A    between atoms: C_9  and  C_10 
REMARK    9  A    between atoms: C_10  and  C_11 
REMARK   10  A    between atoms: C_11  and  C_12 
REMARK   11  A    between atoms: C_12  and  O_13 
REMARK   12  A    between atoms: O_13  and  S_14 
ROOT
HETATM    1  H   UNL     1     -11.581   4.702 -12.787  1.00  0.00     0.271 HD
HETATM    2  H   UNL     1     -11.126   6.285 -12.493  1.00  0.00     0.271 HD
HETATM    3  H   UNL     1     -12.537   5.958 -13.345  1.00  0.00     0.271 HD
HETATM    4  H   UNL     1     -11.039   5.662 -14.049  1.00  0.00     0.271 HD
HETATM    5  N   UNL     2     -11.572   5.656 -13.172  1.00  0.00    -0.084 N 
ENDROOT
TORSDOF 12
BEGIN_RES ARG D 557
REMARK  4 active torsions:
REMARK  status: ('A' for Active; 'I' for Inactive)
REMARK    1  A    between atoms: CA   and  CB  
REMARK    2  A    between atoms: CB   and  CG  
REMARK    3  A    between atoms: CG   and  CD  
REMARK    4  A    between atoms: CD   and  NE  
REMARK       I    between atoms: NE   and  CZ  
REMARK       I    between atoms: CZ   and  NH1 
REMARK       I    between atoms: CZ   and  NH2 
ROOT
ATOM      1  CA  ARG D 557     -26.217   2.705 -17.014  1.00 35.49     0.159 C 
ENDROOT
BRANCH   1   2
ATOM      2  CB  ARG D 557     -26.789   1.319 -17.183  1.00 35.49     0.034 C 
BRANCH   2   3
ATOM      3  CG  ARG D 557     -25.835   0.204 -17.163  1.00 35.49     0.027 C 
BRANCH   3   4
ATOM      4  CD  ARG D 557     -24.760   0.399 -16.164  1.00 35.49     0.116 C 
BRANCH   4   5
ATOM      5  NE  ARG D 557     -24.924  -0.453 -15.016  1.00 35.49    -0.212 N 
ATOM      6  CZ  ARG D 557     -24.122  -1.434 -14.665  1.00 35.49     0.666 C 
ATOM      7  NH1 ARG D 557     -23.051  -1.758 -15.365  1.00 35.49    -0.235 N 
ATOM      8  NH2 ARG D 557     -24.414  -2.090 -13.580  1.00 35.49    -0.235 N 
ATOM      9  HH  ARG D 557     -22.838  -1.338 -16.082  1.00 35.49     0.174 HD
ATOM     10  HH  ARG D 557     -22.563  -2.405 -15.087  1.00 35.49     0.174 HD
ATOM     11  HH  ARG D 557     -25.108  -1.853 -13.144  1.00 35.49     0.174 HD
ATOM     12  HH  ARG D 557     -23.918  -2.726 -13.320  1.00 35.49     0.174 HD
ATOM     13  HE  ARG D 557     -25.629  -0.362 -14.548  1.00 35.49     0.178 HD
ENDBRANCH   4   5
ENDBRANCH   3   4
ENDBRANCH   2   3
ENDBRANCH   1   2
END_RES ARG D 557
BEGIN_RES GLU D 570
REMARK  3 active torsions:
REMARK  status: ('A' for Active; 'I' for Inactive)
REMARK    5  A    between atoms: CA   and  CB  
REMARK    6  A    between atoms: CB   and  CG  
REMARK    7  A    between atoms: CG   and  CD  
ROOT
ATOM     14  CA  GLU D 570     -18.033  -6.348 -13.375  1.00 32.92     0.160 C 
ENDROOT
BRANCH  14  15
ATOM     15  CB  GLU D 570     -19.500  -6.345 -13.794  1.00 32.92     0.043 C 
BRANCH  15  16
ATOM     16  CG  GLU D 570     -20.442  -5.529 -12.984  1.00 32.92     0.100 C 
BRANCH  16  17
ATOM     17  CD  GLU D 570     -21.683  -5.130 -13.748  1.00 32.92     0.185 C 
ATOM     18  OE1 GLU D 570     -22.374  -4.183 -13.327  1.00 32.92    -0.647 OA
ATOM     19  OE2 GLU D 570     -21.976  -5.783 -14.769  1.00 32.92    -0.647 OA
ENDBRANCH  16  17
ENDBRANCH  15  16
ENDBRANCH  14  15
END_RES GLU D 570
ENDMDL
MODEL 8
REMARK VINA RESULT:      -0.9      3.497      4.556
REMARK  12 active torsions:
REMARK  status: ('A' for Active; 'I' for Inactive)
REMARK    1  A    between atoms: C_2  and  C_3 
REMARK    2  A    between atoms: C_3  and  C_4 
REMARK    3  A    between atoms: C_4  and  C_5 
REMARK    4  A    between atoms: C_5  and  C_6 
REMARK    5  A    between atoms: C_6  and  C_7 
REMARK    6  A    between atoms: C_7  and  C_8 
REMARK    7  A    between atoms: C_8  and  C_9 
REMARK    8  A    between atoms: C_9  and  C_10 
REMARK    9  A    between atoms: C_10  and  C_11 
REMARK   10  A    between atoms: C_11  and  C_12 
REMARK   11  A    between atoms: C_12  and  O_13 
REMARK   12  A    between atoms: O_13  and  S_14 
ROOT
HETATM    1  H   UNL     1     -23.541  -0.510 -14.965  1.00  0.00     0.271 HD
HETATM    2  H   UNL     1     -24.975  -0.405 -14.110  1.00  0.00     0.271 HD
HETATM    3  H   UNL     1     -24.965  -1.046 -15.663  1.00  0.00     0.271 HD
HETATM    4  H   UNL     1     -24.710   0.599 -15.428  1.00  0.00     0.271 HD
HETATM    5  N   UNL     2     -24.553  -0.340 -15.044  1.00  0.00    -0.084 N 
ENDROOT
TORSDOF 12
BEGIN_RES ARG D 557
REMARK  4 active torsions:
REMARK  status: ('A' for Active; 'I' for Inactive)
REMARK    1  A    between atoms: CA   and  CB  
REMARK    2  A    between atoms: CB   and  CG  
REMARK    3  A    between atoms: CG   and  CD  
REMARK    4  A    between atoms: CD   and  NE  
REMARK       I    between atoms: NE   and  CZ  
REMARK       I    between atoms: CZ   and  NH1 
REMARK       I    between atoms: CZ   and  NH2 
ROOT
ATOM      1  CA  ARG D 557     -26.217   2.705 -17.014  1.00 35.49     0.159 C 
ENDROOT
BRANCH   1   2
ATOM      2  CB  ARG D 557     -26.789   1.319 -17.183  1.00 35.49     0.034 C 
BRANCH   2   3
ATOM      3  CG  ARG D 557     -28.233   1.226 -17.431  1.00 35.49     0.027 C 
BRANCH   3   4
ATOM      4  CD  ARG D 557     -28.908   0.300 -16.493  1.00 35.49     0.116 C 
BRANCH   4   5
ATOM      5  NE  ARG D 557     -29.288  -0.934 -17.129  1.00 35.49    -0.212 N 
ATOM      6  CZ  ARG D 557     -28.646  -2.077 -17.031  1.00 35.49     0.666 C 
ATOM      7  NH1 ARG D 557     -27.539  -2.211 -16.325  1.00 35.49    -0.235 N 
ATOM      8  NH2 ARG D 557     -29.147  -3.102 -17.659  1.00 35.49    -0.235 N 
ATOM      9  HH  ARG D 557     -27.193  -1.551 -15.902  1.00 35.49     0.174 HD
ATOM     10  HH  ARG D 557     -27.165  -2.982 -16.296  1.00 35.49     0.174 HD
ATOM     11  HH  ARG D 557     -29.867  -2.987 -18.101  1.00 35.49     0.174 HD
ATOM     12  HH  ARG D 557     -28.763  -3.857 -17.617  1.00 35.49     0.174 HD
ATOM     13  HE  ARG D 557     -29.950  -0.922 -17.662  1.00 35.49     0.178 HD
ENDBRANCH   4   5
ENDBRANCH   3   4
ENDBRANCH   2   3
ENDBRANCH   1   2
END_RES ARG D 557
BEGIN_RES GLU D 570
REMARK  3 active torsions:
REMARK  status: ('A' for Active; 'I' for Inactive)
REMARK    5  A    between atoms: CA   and  CB  
REMARK    6  A    between atoms: CB   and  CG  
REMARK    7  A    between atoms: CG   and  CD  
ROOT
ATOM     14  CA  GLU D 570     -18.033  -6.348 -13.375  1.00 32.92     0.160 C 
ENDROOT
BRANCH  14  15
ATOM     15  CB  GLU D 570     -19.500  -6.345 -13.794  1.00 32.92     0.043 C 
BRANCH  15  16
ATOM     16  CG  GLU D 570     -20.447  -5.556 -12.965  1.00 32.92     0.100 C 
BRANCH  16  17
ATOM     17  CD  GLU D 570     -21.711  -5.184 -13.705  1.00 32.92     0.185 C 
ATOM     18  OE1 GLU D 570     -22.563  -4.480 -13.132  1.00 32.92    -0.647 OA
ATOM     19  OE2 GLU D 570     -21.856  -5.616 -14.866  1.00 32.92    -0.647 OA
ENDBRANCH  16  17
ENDBRANCH  15  16
ENDBRANCH  14  15
END_RES GLU D 570
ENDMDL
MODEL 9
REMARK VINA RESULT:      -0.9      2.910      4.187
REMARK  12 active torsions:
REMARK  status: ('A' for Active; 'I' for Inactive)
REMARK    1  A    between atoms: C_2  and  C_3 
REMARK    2  A    between atoms: C_3  and  C_4 
REMARK    3  A    between atoms: C_4  and  C_5 
REMARK    4  A    between atoms: C_5  and  C_6 
REMARK    5  A    between atoms: C_6  and  C_7 
REMARK    6  A    between atoms: C_7  and  C_8 
REMARK    7  A    between atoms: C_8  and  C_9 
REMARK    8  A    between atoms: C_9  and  C_10 
REMARK    9  A    between atoms: C_10  and  C_11 
REMARK   10  A    between atoms: C_11  and  C_12 
REMARK   11  A    between atoms: C_12  and  O_13 
REMARK   12  A    between atoms: O_13  and  S_14 
ROOT
HETATM    1  H   UNL     1     -33.740  -3.965 -17.052  1.00  0.00     0.271 HD
HETATM    2  H   UNL     1     -32.387  -3.010 -16.816  1.00  0.00     0.271 HD
HETATM    3  H   UNL     1     -33.797  -2.336 -17.431  1.00  0.00     0.271 HD
HETATM    4  H   UNL     1     -32.885  -3.387 -18.373  1.00  0.00     0.271 HD
HETATM    5  N   UNL     2     -33.201  -3.170 -17.421  1.00  0.00    -0.084 N 
ENDROOT
TORSDOF 12
BEGIN_RES ARG D 557
REMARK  4 active torsions:
REMARK  status: ('A' for Active; 'I' for Inactive)
REMARK    1  A    between atoms: CA   and  CB  
REMARK    2  A    between atoms: CB   and  CG  
REMARK    3  A    between atoms: CG   and  CD  
REMARK    4  A    between atoms: CD   and  NE  
REMARK       I    between atoms: NE   and  CZ  
REMARK       I    between atoms: CZ   and  NH1 
REMARK       I    between atoms: CZ   and  NH2 
ROOT
ATOM      1  CA  ARG D 557     -26.217   2.705 -17.014  1.00 35.49     0.159 C 
ENDROOT
BRANCH   1   2
ATOM      2  CB  ARG D 557     -26.789   1.319 -17.183  1.00 35.49     0.034 C 
BRANCH   2   3
ATOM      3  CG  ARG D 557     -25.865   0.195 -16.990  1.00 35.49     0.027 C 
BRANCH   3   4
ATOM      4  CD  ARG D 557     -26.292  -0.706 -15.895  1.00 35.49     0.116 C 
BRANCH   4   5
ATOM      5  NE  ARG D 557     -25.246  -0.922 -14.931  1.00 35.49    -0.212 N 
ATOM      6  CZ  ARG D 557     -24.959  -2.067 -14.353  1.00 35.49     0.666 C 
ATOM      7  NH1 ARG D 557     -25.636  -3.174 -14.597  1.00 35.49    -0.235 N 
ATOM      8  NH2 ARG D 557     -23.960  -2.084 -13.518  1.00 35.49    -0.235 N 
ATOM      9  HH  ARG D 557     -26.295  -3.186 -15.144  1.00 35.49     0.174 HD
ATOM     10  HH  ARG D 557     -25.401  -3.892 -14.192  1.00 35.49     0.174 HD
ATOM     11  HH  ARG D 557     -23.537  -1.356 -13.386  1.00 35.49     0.174 HD
ATOM     12  HH  ARG D 557     -23.743  -2.805 -13.129  1.00 35.49     0.174 HD
ATOM     13  HE  ARG D 557     -24.806  -0.246 -14.661  1.00 35.49     0.178 HD
ENDBRANCH   4   5
ENDBRANCH   3   4
ENDBRANCH   2   3
ENDBRANCH   1   2
END_RES ARG D 557
BEGIN_RES GLU D 570
REMARK  3 active torsions:
REMARK  status: ('A' for Active; 'I' for Inactive)
REMARK    5  A    between atoms: CA   and  CB  
REMARK    6  A    between atoms: CB   and  CG  
REMARK    7  A    between atoms: CG   and  CD  
ROOT
ATOM     14  CA  GLU D 570     -18.033  -6.348 -13.375  1.00 32.92     0.160 C 
ENDROOT
BRANCH  14  15
ATOM     15  CB  GLU D 570     -19.500  -6.345 -13.794  1.00 32.92     0.043 C 
BRANCH  15  16
ATOM     16  CG  GLU D 570     -20.450  -5.569 -12.956  1.00 32.92     0.100 C 
BRANCH  16  17
ATOM     17  CD  GLU D 570     -21.681  -5.129 -13.713  1.00 32.92     0.185 C 
ATOM     18  OE1 GLU D 570     -21.636  -5.066 -14.957  1.00 32.92    -0.647 OA
ATOM     19  OE2 GLU D 570     -22.696  -4.827 -13.055  1.00 32.92    -0.647 OA
ENDBRANCH  16  17
ENDBRANCH  15  16
ENDBRANCH  14  15
END_RES GLU D 570
ENDMDL
