MODEL 1
REMARK VINA RESULT:      -9.2      0.000      0.000
REMARK  4 active torsions:
REMARK  status: ('A' for Active; 'I' for Inactive)
REMARK    1  A    between atoms: C_4  and  O_10 
REMARK    2  A    between atoms: O_10  and  C_11 
REMARK    3  A    between atoms: C_11  and  C_13 
REMARK    4  A    between atoms: C_18  and  O_19 
ROOT
HETATM    1  O   UNL     1     -22.842  -3.211 -10.582  1.00  0.00    -0.312 OA
ENDROOT
BRANCH   1   2
HETATM    2  C   UNL     1     -23.304  -3.580 -11.892  1.00  0.00     0.133 C 
HETATM    3  C   UNL     1     -22.259  -4.480 -12.555  1.00  0.00     0.037 C 
HETATM    4  C   UNL     1     -22.587  -4.808 -14.013  1.00  0.00    -0.015 C 
HETATM    5  C   UNL     1     -23.682  -5.869 -14.127  1.00  0.00     0.010 C 
HETATM    6  C   UNL     1     -22.886  -3.528 -14.808  1.00  0.00     0.013 C 
HETATM    7  C   UNL     1     -23.903  -2.549 -14.172  1.00  0.00    -0.045 C 
HETATM    8  C   UNL     1     -23.511  -2.288 -12.701  1.00  0.00     0.041 C 
HETATM    9  C   UNL     1     -25.350  -3.071 -14.266  1.00  0.00     0.015 C 
HETATM   10  C   UNL     1     -23.854  -1.227 -14.967  1.00  0.00     0.015 C 
ENDBRANCH   1   2
BRANCH   1  11
HETATM   11  C   UNL     1     -23.246  -4.008  -9.565  1.00  0.00     0.296 C 
HETATM   12  O   UNL     1     -24.338  -4.554  -9.459  1.00  0.00    -0.259 OA
BRANCH  11  13
HETATM   13  C   UNL     1     -22.140  -4.232  -8.608  1.00  0.00     0.072 A 
HETATM   14  C   UNL     1     -20.833  -4.243  -9.121  1.00  0.00     0.020 A 
HETATM   15  C   UNL     1     -19.747  -4.457  -8.272  1.00  0.00     0.001 A 
HETATM   16  C   UNL     1     -19.958  -4.659  -6.909  1.00  0.00     0.003 A 
HETATM   17  C   UNL     1     -21.255  -4.663  -6.394  1.00  0.00     0.037 A 
HETATM   18  C   UNL     1     -22.346  -4.461  -7.242  1.00  0.00     0.082 A 
BRANCH  18  19
HETATM   19  O   UNL     1     -23.608  -4.531  -6.731  1.00  0.00    -0.360 OA
HETATM   20  H   UNL     1     -23.896  -5.456  -6.697  1.00  0.00     0.217 HD
ENDBRANCH  18  19
ENDBRANCH  11  13
ENDBRANCH   1  11
TORSDOF 4
BEGIN_RES ARG D 557
REMARK  4 active torsions:
REMARK  status: ('A' for Active; 'I' for Inactive)
REMARK    1  A    between atoms: CA   and  CB  
REMARK    2  A    between atoms: CB   and  CG  
REMARK    3  A    between atoms: CG   and  CD  
REMARK    4  A    between atoms: CD   and  NE  
REMARK       I    between atoms: NE   and  CZ  
REMARK       I    between atoms: CZ   and  NH1 
REMARK       I    between atoms: CZ   and  NH2 
ROOT
ATOM      1  CA  ARG D 557     -26.217   2.705 -17.014  1.00 35.49     0.159 C 
ENDROOT
BRANCH   1   2
ATOM      2  CB  ARG D 557     -26.789   1.319 -17.183  1.00 35.49     0.034 C 
BRANCH   2   3
ATOM      3  CG  ARG D 557     -28.139   1.092 -16.653  1.00 35.49     0.027 C 
BRANCH   3   4
ATOM      4  CD  ARG D 557     -28.803  -0.074 -17.280  1.00 35.49     0.116 C 
BRANCH   4   5
ATOM      5  NE  ARG D 557     -28.207  -1.319 -16.875  1.00 35.49    -0.212 N 
ATOM      6  CZ  ARG D 557     -28.721  -2.514 -17.064  1.00 35.49     0.666 C 
ATOM      7  NH1 ARG D 557     -29.888  -2.699 -17.654  1.00 35.49    -0.235 N 
ATOM      8  NH2 ARG D 557     -28.032  -3.537 -16.650  1.00 35.49    -0.235 N 
ATOM      9  HH  ARG D 557     -30.358  -2.040 -17.936  1.00 35.49     0.174 HD
ATOM     10  HH  ARG D 557     -30.172  -3.501 -17.752  1.00 35.49     0.174 HD
ATOM     11  HH  ARG D 557     -27.278  -3.388 -16.279  1.00 35.49     0.174 HD
ATOM     12  HH  ARG D 557     -28.329  -4.324 -16.757  1.00 35.49     0.174 HD
ATOM     13  HE  ARG D 557     -27.488  -1.290 -16.422  1.00 35.49     0.178 HD
ENDBRANCH   4   5
ENDBRANCH   3   4
ENDBRANCH   2   3
ENDBRANCH   1   2
END_RES ARG D 557
BEGIN_RES GLU D 570
REMARK  3 active torsions:
REMARK  status: ('A' for Active; 'I' for Inactive)
REMARK    5  A    between atoms: CA   and  CB  
REMARK    6  A    between atoms: CB   and  CG  
REMARK    7  A    between atoms: CG   and  CD  
ROOT
ATOM     14  CA  GLU D 570     -18.033  -6.348 -13.375  1.00 32.92     0.160 C 
ENDROOT
BRANCH  14  15
ATOM     15  CB  GLU D 570     -19.500  -6.345 -13.794  1.00 32.92     0.043 C 
BRANCH  15  16
ATOM     16  CG  GLU D 570     -20.087  -7.635 -14.240  1.00 32.92     0.100 C 
BRANCH  16  17
ATOM     17  CD  GLU D 570     -20.656  -7.572 -15.638  1.00 32.92     0.185 C 
ATOM     18  OE1 GLU D 570     -20.560  -6.510 -16.283  1.00 32.92    -0.647 OA
ATOM     19  OE2 GLU D 570     -21.219  -8.590 -16.086  1.00 32.92    -0.647 OA
ENDBRANCH  16  17
ENDBRANCH  15  16
ENDBRANCH  14  15
END_RES GLU D 570
ENDMDL
MODEL 2
REMARK VINA RESULT:      -8.4      0.929      2.151
REMARK  4 active torsions:
REMARK  status: ('A' for Active; 'I' for Inactive)
REMARK    1  A    between atoms: C_4  and  O_10 
REMARK    2  A    between atoms: O_10  and  C_11 
REMARK    3  A    between atoms: C_11  and  C_13 
REMARK    4  A    between atoms: C_18  and  O_19 
ROOT
HETATM    1  O   UNL     1     -22.929  -3.914 -10.641  1.00  0.00    -0.312 OA
ENDROOT
BRANCH   1   2
HETATM    2  C   UNL     1     -23.163  -3.693 -12.042  1.00  0.00     0.133 C 
HETATM    3  C   UNL     1     -24.508  -2.983 -12.217  1.00  0.00     0.037 C 
HETATM    4  C   UNL     1     -24.921  -2.833 -13.683  1.00  0.00    -0.015 C 
HETATM    5  C   UNL     1     -24.152  -1.711 -14.381  1.00  0.00     0.010 C 
HETATM    6  C   UNL     1     -24.840  -4.182 -14.414  1.00  0.00     0.013 C 
HETATM    7  C   UNL     1     -23.522  -4.976 -14.243  1.00  0.00    -0.045 C 
HETATM    8  C   UNL     1     -23.169  -5.062 -12.742  1.00  0.00     0.041 C 
HETATM    9  C   UNL     1     -22.360  -4.354 -15.042  1.00  0.00     0.015 C 
HETATM   10  C   UNL     1     -23.742  -6.394 -14.810  1.00  0.00     0.015 C 
ENDBRANCH   1   2
BRANCH   1  11
HETATM   11  C   UNL     1     -21.642  -3.819 -10.233  1.00  0.00     0.296 C 
HETATM   12  O   UNL     1     -20.725  -3.279 -10.841  1.00  0.00    -0.259 OA
BRANCH  11  13
HETATM   13  C   UNL     1     -21.484  -4.378  -8.873  1.00  0.00     0.072 A 
HETATM   14  C   UNL     1     -20.257  -4.989  -8.563  1.00  0.00     0.020 A 
HETATM   15  C   UNL     1     -20.047  -5.542  -7.300  1.00  0.00     0.001 A 
HETATM   16  C   UNL     1     -21.058  -5.489  -6.340  1.00  0.00     0.003 A 
HETATM   17  C   UNL     1     -22.284  -4.896  -6.645  1.00  0.00     0.037 A 
HETATM   18  C   UNL     1     -22.501  -4.352  -7.912  1.00  0.00     0.082 A 
BRANCH  18  19
HETATM   19  O   UNL     1     -23.727  -3.833  -8.212  1.00  0.00    -0.360 OA
HETATM   20  H   UNL     1     -23.774  -3.633  -9.158  1.00  0.00     0.217 HD
ENDBRANCH  18  19
ENDBRANCH  11  13
ENDBRANCH   1  11
TORSDOF 4
BEGIN_RES ARG D 557
REMARK  4 active torsions:
REMARK  status: ('A' for Active; 'I' for Inactive)
REMARK    1  A    between atoms: CA   and  CB  
REMARK    2  A    between atoms: CB   and  CG  
REMARK    3  A    between atoms: CG   and  CD  
REMARK    4  A    between atoms: CD   and  NE  
REMARK       I    between atoms: NE   and  CZ  
REMARK       I    between atoms: CZ   and  NH1 
REMARK       I    between atoms: CZ   and  NH2 
ROOT
ATOM      1  CA  ARG D 557     -26.217   2.705 -17.014  1.00 35.49     0.159 C 
ENDROOT
BRANCH   1   2
ATOM      2  CB  ARG D 557     -26.789   1.319 -17.183  1.00 35.49     0.034 C 
BRANCH   2   3
ATOM      3  CG  ARG D 557     -28.231   1.227 -17.445  1.00 35.49     0.027 C 
BRANCH   3   4
ATOM      4  CD  ARG D 557     -28.917   0.310 -16.505  1.00 35.49     0.116 C 
BRANCH   4   5
ATOM      5  NE  ARG D 557     -28.155  -0.885 -16.259  1.00 35.49    -0.212 N 
ATOM      6  CZ  ARG D 557     -28.419  -2.078 -16.744  1.00 35.49     0.666 C 
ATOM      7  NH1 ARG D 557     -29.459  -2.312 -17.523  1.00 35.49    -0.235 N 
ATOM      8  NH2 ARG D 557     -27.607  -3.046 -16.433  1.00 35.49    -0.235 N 
ATOM      9  HH  ARG D 557     -30.006  -1.690 -17.741  1.00 35.49     0.174 HD
ATOM     10  HH  ARG D 557     -29.580  -3.110 -17.811  1.00 35.49     0.174 HD
ATOM     11  HH  ARG D 557     -26.939  -2.864 -15.934  1.00 35.49     0.174 HD
ATOM     12  HH  ARG D 557     -27.743  -3.829 -16.729  1.00 35.49     0.174 HD
ATOM     13  HE  ARG D 557     -27.508  -0.841 -15.709  1.00 35.49     0.178 HD
ENDBRANCH   4   5
ENDBRANCH   3   4
ENDBRANCH   2   3
ENDBRANCH   1   2
END_RES ARG D 557
BEGIN_RES GLU D 570
REMARK  3 active torsions:
REMARK  status: ('A' for Active; 'I' for Inactive)
REMARK    5  A    between atoms: CA   and  CB  
REMARK    6  A    between atoms: CB   and  CG  
REMARK    7  A    between atoms: CG   and  CD  
ROOT
ATOM     14  CA  GLU D 570     -18.033  -6.348 -13.375  1.00 32.92     0.160 C 
ENDROOT
BRANCH  14  15
ATOM     15  CB  GLU D 570     -19.500  -6.345 -13.794  1.00 32.92     0.043 C 
BRANCH  15  16
ATOM     16  CG  GLU D 570     -20.104  -7.646 -14.180  1.00 32.92     0.100 C 
BRANCH  16  17
ATOM     17  CD  GLU D 570     -20.568  -7.677 -15.618  1.00 32.92     0.185 C 
ATOM     18  OE1 GLU D 570     -21.128  -8.702 -16.051  1.00 32.92    -0.647 OA
ATOM     19  OE2 GLU D 570     -20.353  -6.672 -16.323  1.00 32.92    -0.647 OA
ENDBRANCH  16  17
ENDBRANCH  15  16
ENDBRANCH  14  15
END_RES GLU D 570
ENDMDL
MODEL 3
REMARK VINA RESULT:      -8.4      3.451      7.379
REMARK  4 active torsions:
REMARK  status: ('A' for Active; 'I' for Inactive)
REMARK    1  A    between atoms: C_4  and  O_10 
REMARK    2  A    between atoms: O_10  and  C_11 
REMARK    3  A    between atoms: C_11  and  C_13 
REMARK    4  A    between atoms: C_18  and  O_19 
ROOT
HETATM    1  O   UNL     1     -21.883  -5.728  -5.207  1.00  0.00    -0.312 OA
ENDROOT
BRANCH   1   2
HETATM    2  C   UNL     1     -21.325  -6.824  -4.464  1.00  0.00     0.133 C 
HETATM    3  C   UNL     1     -21.711  -8.138  -5.148  1.00  0.00     0.037 C 
HETATM    4  C   UNL     1     -21.290  -9.375  -4.353  1.00  0.00    -0.015 C 
HETATM    5  C   UNL     1     -19.794  -9.659  -4.486  1.00  0.00     0.010 C 
HETATM    6  C   UNL     1     -21.771  -9.278  -2.896  1.00  0.00     0.013 C 
HETATM    7  C   UNL     1     -21.452  -7.955  -2.157  1.00  0.00    -0.045 C 
HETATM    8  C   UNL     1     -21.888  -6.762  -3.035  1.00  0.00     0.041 C 
HETATM    9  C   UNL     1     -19.961  -7.842  -1.783  1.00  0.00     0.015 C 
HETATM   10  C   UNL     1     -22.245  -7.946  -0.833  1.00  0.00     0.015 C 
ENDBRANCH   1   2
BRANCH   1  11
HETATM   11  C   UNL     1     -20.991  -4.878  -5.769  1.00  0.00     0.296 C 
HETATM   12  O   UNL     1     -19.970  -4.446  -5.246  1.00  0.00    -0.259 OA
BRANCH  11  13
HETATM   13  C   UNL     1     -21.353  -4.596  -7.175  1.00  0.00     0.072 A 
HETATM   14  C   UNL     1     -20.307  -4.511  -8.108  1.00  0.00     0.020 A 
HETATM   15  C   UNL     1     -20.581  -4.241  -9.449  1.00  0.00     0.001 A 
HETATM   16  C   UNL     1     -21.899  -4.054  -9.866  1.00  0.00     0.003 A 
HETATM   17  C   UNL     1     -22.942  -4.123  -8.942  1.00  0.00     0.037 A 
HETATM   18  C   UNL     1     -22.671  -4.383  -7.597  1.00  0.00     0.082 A 
BRANCH  18  19
HETATM   19  O   UNL     1     -23.698  -4.384  -6.700  1.00  0.00    -0.360 OA
HETATM   20  H   UNL     1     -23.720  -3.538  -6.228  1.00  0.00     0.217 HD
ENDBRANCH  18  19
ENDBRANCH  11  13
ENDBRANCH   1  11
TORSDOF 4
BEGIN_RES ARG D 557
REMARK  4 active torsions:
REMARK  status: ('A' for Active; 'I' for Inactive)
REMARK    1  A    between atoms: CA   and  CB  
REMARK    2  A    between atoms: CB   and  CG  
REMARK    3  A    between atoms: CG   and  CD  
REMARK    4  A    between atoms: CD   and  NE  
REMARK       I    between atoms: NE   and  CZ  
REMARK       I    between atoms: CZ   and  NH1 
REMARK       I    between atoms: CZ   and  NH2 
ROOT
ATOM      1  CA  ARG D 557     -26.217   2.705 -17.014  1.00 35.49     0.159 C 
ENDROOT
BRANCH   1   2
ATOM      2  CB  ARG D 557     -26.789   1.319 -17.183  1.00 35.49     0.034 C 
BRANCH   2   3
ATOM      3  CG  ARG D 557     -25.863   0.195 -17.000  1.00 35.49     0.027 C 
BRANCH   3   4
ATOM      4  CD  ARG D 557     -26.285  -0.712 -15.908  1.00 35.49     0.116 C 
BRANCH   4   5
ATOM      5  NE  ARG D 557     -25.236  -0.928 -14.946  1.00 35.49    -0.212 N 
ATOM      6  CZ  ARG D 557     -24.966  -2.066 -14.347  1.00 35.49     0.666 C 
ATOM      7  NH1 ARG D 557     -25.666  -3.165 -14.563  1.00 35.49    -0.235 N 
ATOM      8  NH2 ARG D 557     -23.963  -2.085 -13.518  1.00 35.49    -0.235 N 
ATOM      9  HH  ARG D 557     -26.328  -3.176 -15.106  1.00 35.49     0.174 HD
ATOM     10  HH  ARG D 557     -25.442  -3.878 -14.145  1.00 35.49     0.174 HD
ATOM     11  HH  ARG D 557     -23.525  -1.362 -13.403  1.00 35.49     0.174 HD
ATOM     12  HH  ARG D 557     -23.756  -2.802 -13.115  1.00 35.49     0.174 HD
ATOM     13  HE  ARG D 557     -24.782  -0.255 -14.693  1.00 35.49     0.178 HD
ENDBRANCH   4   5
ENDBRANCH   3   4
ENDBRANCH   2   3
ENDBRANCH   1   2
END_RES ARG D 557
BEGIN_RES GLU D 570
REMARK  3 active torsions:
REMARK  status: ('A' for Active; 'I' for Inactive)
REMARK    5  A    between atoms: CA   and  CB  
REMARK    6  A    between atoms: CB   and  CG  
REMARK    7  A    between atoms: CG   and  CD  
ROOT
ATOM     14  CA  GLU D 570     -18.033  -6.348 -13.375  1.00 32.92     0.160 C 
ENDROOT
BRANCH  14  15
ATOM     15  CB  GLU D 570     -19.500  -6.345 -13.794  1.00 32.92     0.043 C 
BRANCH  15  16
ATOM     16  CG  GLU D 570     -20.446  -5.551 -12.968  1.00 32.92     0.100 C 
BRANCH  16  17
ATOM     17  CD  GLU D 570     -21.677  -5.121 -13.731  1.00 32.92     0.185 C 
ATOM     18  OE1 GLU D 570     -22.727  -4.886 -13.104  1.00 32.92    -0.647 OA
ATOM     19  OE2 GLU D 570     -21.594  -5.033 -14.972  1.00 32.92    -0.647 OA
ENDBRANCH  16  17
ENDBRANCH  15  16
ENDBRANCH  14  15
END_RES GLU D 570
ENDMDL
MODEL 4
REMARK VINA RESULT:      -8.2      3.132      7.149
REMARK  4 active torsions:
REMARK  status: ('A' for Active; 'I' for Inactive)
REMARK    1  A    between atoms: C_4  and  O_10 
REMARK    2  A    between atoms: O_10  and  C_11 
REMARK    3  A    between atoms: C_11  and  C_13 
REMARK    4  A    between atoms: C_18  and  O_19 
ROOT
HETATM    1  O   UNL     1     -21.885  -5.724  -5.233  1.00  0.00    -0.312 OA
ENDROOT
BRANCH   1   2
HETATM    2  C   UNL     1     -21.319  -6.820  -4.495  1.00  0.00     0.133 C 
HETATM    3  C   UNL     1     -21.694  -8.133  -5.186  1.00  0.00     0.037 C 
HETATM    4  C   UNL     1     -21.264  -9.371  -4.396  1.00  0.00    -0.015 C 
HETATM    5  C   UNL     1     -19.765  -9.641  -4.529  1.00  0.00     0.010 C 
HETATM    6  C   UNL     1     -21.746  -9.285  -2.939  1.00  0.00     0.013 C 
HETATM    7  C   UNL     1     -21.440  -7.963  -2.193  1.00  0.00    -0.045 C 
HETATM    8  C   UNL     1     -21.885  -6.769  -3.066  1.00  0.00     0.041 C 
HETATM    9  C   UNL     1     -19.950  -7.839  -1.817  1.00  0.00     0.015 C 
HETATM   10  C   UNL     1     -22.234  -7.967  -0.870  1.00  0.00     0.015 C 
ENDBRANCH   1   2
BRANCH   1  11
HETATM   11  C   UNL     1     -21.000  -4.884  -5.819  1.00  0.00     0.296 C 
HETATM   12  O   UNL     1     -19.966  -4.455  -5.321  1.00  0.00    -0.259 OA
BRANCH  11  13
HETATM   13  C   UNL     1     -21.389  -4.612  -7.220  1.00  0.00     0.072 A 
HETATM   14  C   UNL     1     -20.361  -4.533  -8.173  1.00  0.00     0.020 A 
HETATM   15  C   UNL     1     -20.661  -4.272  -9.510  1.00  0.00     0.001 A 
HETATM   16  C   UNL     1     -21.986  -4.087  -9.903  1.00  0.00     0.003 A 
HETATM   17  C   UNL     1     -23.012  -4.150  -8.959  1.00  0.00     0.037 A 
HETATM   18  C   UNL     1     -22.714  -4.400  -7.619  1.00  0.00     0.082 A 
BRANCH  18  19
HETATM   19  O   UNL     1     -23.724  -4.395  -6.701  1.00  0.00    -0.360 OA
HETATM   20  H   UNL     1     -24.211  -3.560  -6.757  1.00  0.00     0.217 HD
ENDBRANCH  18  19
ENDBRANCH  11  13
ENDBRANCH   1  11
TORSDOF 4
BEGIN_RES ARG D 557
REMARK  4 active torsions:
REMARK  status: ('A' for Active; 'I' for Inactive)
REMARK    1  A    between atoms: CA   and  CB  
REMARK    2  A    between atoms: CB   and  CG  
REMARK    3  A    between atoms: CG   and  CD  
REMARK    4  A    between atoms: CD   and  NE  
REMARK       I    between atoms: NE   and  CZ  
REMARK       I    between atoms: CZ   and  NH1 
REMARK       I    between atoms: CZ   and  NH2 
ROOT
ATOM      1  CA  ARG D 557     -26.217   2.705 -17.014  1.00 35.49     0.159 C 
ENDROOT
BRANCH   1   2
ATOM      2  CB  ARG D 557     -26.789   1.319 -17.183  1.00 35.49     0.034 C 
BRANCH   2   3
ATOM      3  CG  ARG D 557     -28.231   1.226 -17.441  1.00 35.49     0.027 C 
BRANCH   3   4
ATOM      4  CD  ARG D 557     -28.914   0.306 -16.502  1.00 35.49     0.116 C 
BRANCH   4   5
ATOM      5  NE  ARG D 557     -29.291  -0.931 -17.134  1.00 35.49    -0.212 N 
ATOM      6  CZ  ARG D 557     -28.651  -2.073 -17.028  1.00 35.49     0.666 C 
ATOM      7  NH1 ARG D 557     -27.547  -2.204 -16.316  1.00 35.49    -0.235 N 
ATOM      8  NH2 ARG D 557     -29.148  -3.101 -17.653  1.00 35.49    -0.235 N 
ATOM      9  HH  ARG D 557     -27.203  -1.542 -15.894  1.00 35.49     0.174 HD
ATOM     10  HH  ARG D 557     -27.174  -2.975 -16.281  1.00 35.49     0.174 HD
ATOM     11  HH  ARG D 557     -29.866  -2.988 -18.099  1.00 35.49     0.174 HD
ATOM     12  HH  ARG D 557     -28.765  -3.856 -17.605  1.00 35.49     0.174 HD
ATOM     13  HE  ARG D 557     -29.951  -0.920 -17.671  1.00 35.49     0.178 HD
ENDBRANCH   4   5
ENDBRANCH   3   4
ENDBRANCH   2   3
ENDBRANCH   1   2
END_RES ARG D 557
BEGIN_RES GLU D 570
REMARK  3 active torsions:
REMARK  status: ('A' for Active; 'I' for Inactive)
REMARK    5  A    between atoms: CA   and  CB  
REMARK    6  A    between atoms: CB   and  CG  
REMARK    7  A    between atoms: CG   and  CD  
ROOT
ATOM     14  CA  GLU D 570     -18.033  -6.348 -13.375  1.00 32.92     0.160 C 
ENDROOT
BRANCH  14  15
ATOM     15  CB  GLU D 570     -19.500  -6.345 -13.794  1.00 32.92     0.043 C 
BRANCH  15  16
ATOM     16  CG  GLU D 570     -20.441  -5.528 -12.985  1.00 32.92     0.100 C 
BRANCH  16  17
ATOM     17  CD  GLU D 570     -21.748  -5.259 -13.695  1.00 32.92     0.185 C 
ATOM     18  OE1 GLU D 570     -22.209  -6.126 -14.462  1.00 32.92    -0.647 OA
ATOM     19  OE2 GLU D 570     -22.308  -4.164 -13.494  1.00 32.92    -0.647 OA
ENDBRANCH  16  17
ENDBRANCH  15  16
ENDBRANCH  14  15
END_RES GLU D 570
ENDMDL
MODEL 5
REMARK VINA RESULT:      -8.0      4.139      8.164
REMARK  4 active torsions:
REMARK  status: ('A' for Active; 'I' for Inactive)
REMARK    1  A    between atoms: C_4  and  O_10 
REMARK    2  A    between atoms: O_10  and  C_11 
REMARK    3  A    between atoms: C_11  and  C_13 
REMARK    4  A    between atoms: C_18  and  O_19 
ROOT
HETATM    1  O   UNL     1     -21.112  -7.153  -4.606  1.00  0.00    -0.312 OA
ENDROOT
BRANCH   1   2
HETATM    2  C   UNL     1     -21.505  -7.865  -3.420  1.00  0.00     0.133 C 
HETATM    3  C   UNL     1     -20.922  -7.154  -2.196  1.00  0.00     0.037 C 
HETATM    4  C   UNL     1     -21.159  -7.917  -0.891  1.00  0.00    -0.015 C 
HETATM    5  C   UNL     1     -22.595  -7.762  -0.391  1.00  0.00     0.010 C 
HETATM    6  C   UNL     1     -20.707  -9.380  -1.023  1.00  0.00     0.013 C 
HETATM    7  C   UNL     1     -21.224 -10.146  -2.265  1.00  0.00    -0.045 C 
HETATM    8  C   UNL     1     -20.965  -9.300  -3.532  1.00  0.00     0.041 C 
HETATM    9  C   UNL     1     -22.717 -10.508  -2.146  1.00  0.00     0.015 C 
HETATM   10  C   UNL     1     -20.449 -11.478  -2.360  1.00  0.00     0.015 C 
ENDBRANCH   1   2
BRANCH   1  11
HETATM   11  C   UNL     1     -22.054  -6.349  -5.154  1.00  0.00     0.296 C 
HETATM   12  O   UNL     1     -23.224  -6.256  -4.801  1.00  0.00    -0.259 OA
BRANCH  11  13
HETATM   13  C   UNL     1     -21.461  -5.493  -6.204  1.00  0.00     0.072 A 
HETATM   14  C   UNL     1     -20.067  -5.540  -6.367  1.00  0.00     0.020 A 
HETATM   15  C   UNL     1     -19.445  -4.751  -7.335  1.00  0.00     0.001 A 
HETATM   16  C   UNL     1     -20.210  -3.911  -8.145  1.00  0.00     0.003 A 
HETATM   17  C   UNL     1     -21.594  -3.849  -7.979  1.00  0.00     0.037 A 
HETATM   18  C   UNL     1     -22.218  -4.628  -7.004  1.00  0.00     0.082 A 
BRANCH  18  19
HETATM   19  O   UNL     1     -23.564  -4.506  -6.815  1.00  0.00    -0.360 OA
HETATM   20  H   UNL     1     -23.981  -5.379  -6.867  1.00  0.00     0.217 HD
ENDBRANCH  18  19
ENDBRANCH  11  13
ENDBRANCH   1  11
TORSDOF 4
BEGIN_RES ARG D 557
REMARK  4 active torsions:
REMARK  status: ('A' for Active; 'I' for Inactive)
REMARK    1  A    between atoms: CA   and  CB  
REMARK    2  A    between atoms: CB   and  CG  
REMARK    3  A    between atoms: CG   and  CD  
REMARK    4  A    between atoms: CD   and  NE  
REMARK       I    between atoms: NE   and  CZ  
REMARK       I    between atoms: CZ   and  NH1 
REMARK       I    between atoms: CZ   and  NH2 
ROOT
ATOM      1  CA  ARG D 557     -26.217   2.705 -17.014  1.00 35.49     0.159 C 
ENDROOT
BRANCH   1   2
ATOM      2  CB  ARG D 557     -26.789   1.319 -17.183  1.00 35.49     0.034 C 
BRANCH   2   3
ATOM      3  CG  ARG D 557     -25.863   0.195 -16.999  1.00 35.49     0.027 C 
BRANCH   3   4
ATOM      4  CD  ARG D 557     -26.267  -0.693 -15.886  1.00 35.49     0.116 C 
BRANCH   4   5
ATOM      5  NE  ARG D 557     -25.203  -0.890 -14.936  1.00 35.49    -0.212 N 
ATOM      6  CZ  ARG D 557     -24.891  -2.029 -14.358  1.00 35.49     0.666 C 
ATOM      7  NH1 ARG D 557     -25.555  -3.146 -14.588  1.00 35.49    -0.235 N 
ATOM      8  NH2 ARG D 557     -23.881  -2.028 -13.538  1.00 35.49    -0.235 N 
ATOM      9  HH  ARG D 557     -26.222  -3.170 -15.126  1.00 35.49     0.174 HD
ATOM     10  HH  ARG D 557     -25.304  -3.859 -14.184  1.00 35.49     0.174 HD
ATOM     11  HH  ARG D 557     -23.466  -1.293 -13.414  1.00 35.49     0.174 HD
ATOM     12  HH  ARG D 557     -23.647  -2.744 -13.149  1.00 35.49     0.174 HD
ATOM     13  HE  ARG D 557     -24.769  -0.207 -14.675  1.00 35.49     0.178 HD
ENDBRANCH   4   5
ENDBRANCH   3   4
ENDBRANCH   2   3
ENDBRANCH   1   2
END_RES ARG D 557
BEGIN_RES GLU D 570
REMARK  3 active torsions:
REMARK  status: ('A' for Active; 'I' for Inactive)
REMARK    5  A    between atoms: CA   and  CB  
REMARK    6  A    between atoms: CB   and  CG  
REMARK    7  A    between atoms: CG   and  CD  
ROOT
ATOM     14  CA  GLU D 570     -18.033  -6.348 -13.375  1.00 32.92     0.160 C 
ENDROOT
BRANCH  14  15
ATOM     15  CB  GLU D 570     -19.500  -6.345 -13.794  1.00 32.92     0.043 C 
BRANCH  15  16
ATOM     16  CG  GLU D 570     -20.449  -5.564 -12.959  1.00 32.92     0.100 C 
BRANCH  16  17
ATOM     17  CD  GLU D 570     -21.694  -5.153 -13.709  1.00 32.92     0.185 C 
ATOM     18  OE1 GLU D 570     -22.705  -4.815 -13.064  1.00 32.92    -0.647 OA
ATOM     19  OE2 GLU D 570     -21.664  -5.187 -14.955  1.00 32.92    -0.647 OA
ENDBRANCH  16  17
ENDBRANCH  15  16
ENDBRANCH  14  15
END_RES GLU D 570
ENDMDL
MODEL 6
REMARK VINA RESULT:      -7.8      1.399      5.256
REMARK  4 active torsions:
REMARK  status: ('A' for Active; 'I' for Inactive)
REMARK    1  A    between atoms: C_4  and  O_10 
REMARK    2  A    between atoms: O_10  and  C_11 
REMARK    3  A    between atoms: C_11  and  C_13 
REMARK    4  A    between atoms: C_18  and  O_19 
ROOT
HETATM    1  O   UNL     1     -21.774  -4.531 -11.044  1.00  0.00    -0.312 OA
ENDROOT
BRANCH   1   2
HETATM    2  C   UNL     1     -21.631  -4.732  -9.629  1.00  0.00     0.133 C 
HETATM    3  C   UNL     1     -22.494  -3.707  -8.890  1.00  0.00     0.037 C 
HETATM    4  C   UNL     1     -22.298  -3.739  -7.373  1.00  0.00    -0.015 C 
HETATM    5  C   UNL     1     -23.020  -4.923  -6.728  1.00  0.00     0.010 C 
HETATM    6  C   UNL     1     -20.806  -3.659  -7.012  1.00  0.00     0.013 C 
HETATM    7  C   UNL     1     -19.868  -4.639  -7.758  1.00  0.00    -0.045 C 
HETATM    8  C   UNL     1     -20.145  -4.558  -9.275  1.00  0.00     0.041 C 
HETATM    9  C   UNL     1     -20.019  -6.088  -7.252  1.00  0.00     0.015 C 
HETATM   10  C   UNL     1     -18.411  -4.218  -7.470  1.00  0.00     0.015 C 
ENDBRANCH   1   2
BRANCH   1  11
HETATM   11  C   UNL     1     -22.992  -4.815 -11.563  1.00  0.00     0.296 C 
HETATM   12  O   UNL     1     -23.771  -5.672 -11.161  1.00  0.00    -0.259 OA
BRANCH  11  13
HETATM   13  C   UNL     1     -23.329  -3.871 -12.651  1.00  0.00     0.072 A 
HETATM   14  C   UNL     1     -22.441  -3.793 -13.737  1.00  0.00     0.020 A 
HETATM   15  C   UNL     1     -22.697  -2.917 -14.792  1.00  0.00     0.001 A 
HETATM   16  C   UNL     1     -23.838  -2.116 -14.770  1.00  0.00     0.003 A 
HETATM   17  C   UNL     1     -24.717  -2.178 -13.688  1.00  0.00     0.037 A 
HETATM   18  C   UNL     1     -24.459  -3.045 -12.625  1.00  0.00     0.082 A 
BRANCH  18  19
HETATM   19  O   UNL     1     -25.296  -3.046 -11.549  1.00  0.00    -0.360 OA
HETATM   20  H   UNL     1     -25.020  -2.363 -10.920  1.00  0.00     0.217 HD
ENDBRANCH  18  19
ENDBRANCH  11  13
ENDBRANCH   1  11
TORSDOF 4
BEGIN_RES ARG D 557
REMARK  4 active torsions:
REMARK  status: ('A' for Active; 'I' for Inactive)
REMARK    1  A    between atoms: CA   and  CB  
REMARK    2  A    between atoms: CB   and  CG  
REMARK    3  A    between atoms: CG   and  CD  
REMARK    4  A    between atoms: CD   and  NE  
REMARK       I    between atoms: NE   and  CZ  
REMARK       I    between atoms: CZ   and  NH1 
REMARK       I    between atoms: CZ   and  NH2 
ROOT
ATOM      1  CA  ARG D 557     -26.217   2.705 -17.014  1.00 35.49     0.159 C 
ENDROOT
BRANCH   1   2
ATOM      2  CB  ARG D 557     -26.789   1.319 -17.183  1.00 35.49     0.034 C 
BRANCH   2   3
ATOM      3  CG  ARG D 557     -28.186   1.126 -16.774  1.00 35.49     0.027 C 
BRANCH   3   4
ATOM      4  CD  ARG D 557     -28.695  -0.219 -17.124  1.00 35.49     0.116 C 
BRANCH   4   5
ATOM      5  NE  ARG D 557     -27.924  -1.268 -16.510  1.00 35.49    -0.212 N 
ATOM      6  CZ  ARG D 557     -28.102  -2.558 -16.688  1.00 35.49     0.666 C 
ATOM      7  NH1 ARG D 557     -29.053  -3.041 -17.467  1.00 35.49    -0.235 N 
ATOM      8  NH2 ARG D 557     -27.294  -3.367 -16.067  1.00 35.49    -0.235 N 
ATOM      9  HH  ARG D 557     -29.594  -2.527 -17.886  1.00 35.49     0.174 HD
ATOM     10  HH  ARG D 557     -29.120  -3.892 -17.547  1.00 35.49     0.174 HD
ATOM     11  HH  ARG D 557     -26.685  -3.026 -15.577  1.00 35.49     0.174 HD
ATOM     12  HH  ARG D 557     -27.375  -4.206 -16.161  1.00 35.49     0.174 HD
ATOM     13  HE  ARG D 557     -27.336  -1.048 -15.936  1.00 35.49     0.178 HD
ENDBRANCH   4   5
ENDBRANCH   3   4
ENDBRANCH   2   3
ENDBRANCH   1   2
END_RES ARG D 557
BEGIN_RES GLU D 570
REMARK  3 active torsions:
REMARK  status: ('A' for Active; 'I' for Inactive)
REMARK    5  A    between atoms: CA   and  CB  
REMARK    6  A    between atoms: CB   and  CG  
REMARK    7  A    between atoms: CG   and  CD  
ROOT
ATOM     14  CA  GLU D 570     -18.033  -6.348 -13.375  1.00 32.92     0.160 C 
ENDROOT
BRANCH  14  15
ATOM     15  CB  GLU D 570     -19.500  -6.345 -13.794  1.00 32.92     0.043 C 
BRANCH  15  16
ATOM     16  CG  GLU D 570     -19.798  -6.452 -15.246  1.00 32.92     0.100 C 
BRANCH  16  17
ATOM     17  CD  GLU D 570     -20.959  -7.371 -15.543  1.00 32.92     0.185 C 
ATOM     18  OE1 GLU D 570     -20.729  -8.552 -15.868  1.00 32.92    -0.647 OA
ATOM     19  OE2 GLU D 570     -22.111  -6.901 -15.466  1.00 32.92    -0.647 OA
ENDBRANCH  16  17
ENDBRANCH  15  16
ENDBRANCH  14  15
END_RES GLU D 570
ENDMDL
MODEL 7
REMARK VINA RESULT:      -7.8      3.064      7.146
REMARK  4 active torsions:
REMARK  status: ('A' for Active; 'I' for Inactive)
REMARK    1  A    between atoms: C_4  and  O_10 
REMARK    2  A    between atoms: O_10  and  C_11 
REMARK    3  A    between atoms: C_11  and  C_13 
REMARK    4  A    between atoms: C_18  and  O_19 
ROOT
HETATM    1  O   UNL     1     -21.313  -5.555  -5.270  1.00  0.00    -0.312 OA
ENDROOT
BRANCH   1   2
HETATM    2  C   UNL     1     -21.437  -6.605  -4.297  1.00  0.00     0.133 C 
HETATM    3  C   UNL     1     -21.018  -6.068  -2.927  1.00  0.00     0.037 C 
HETATM    4  C   UNL     1     -20.972  -7.150  -1.846  1.00  0.00    -0.015 C 
HETATM    5  C   UNL     1     -22.370  -7.526  -1.354  1.00  0.00     0.010 C 
HETATM    6  C   UNL     1     -20.139  -8.354  -2.313  1.00  0.00     0.013 C 
HETATM    7  C   UNL     1     -20.481  -8.921  -3.713  1.00  0.00    -0.045 C 
HETATM    8  C   UNL     1     -20.527  -7.764  -4.735  1.00  0.00     0.041 C 
HETATM    9  C   UNL     1     -21.808  -9.705  -3.715  1.00  0.00     0.015 C 
HETATM   10  C   UNL     1     -19.373  -9.921  -4.106  1.00  0.00     0.015 C 
ENDBRANCH   1   2
BRANCH   1  11
HETATM   11  C   UNL     1     -22.360  -5.403  -6.115  1.00  0.00     0.296 C 
HETATM   12  O   UNL     1     -23.544  -5.557  -5.840  1.00  0.00    -0.259 OA
BRANCH  11  13
HETATM   13  C   UNL     1     -21.899  -4.917  -7.434  1.00  0.00     0.072 A 
HETATM   14  C   UNL     1     -20.549  -5.121  -7.762  1.00  0.00     0.020 A 
HETATM   15  C   UNL     1     -20.049  -4.680  -8.988  1.00  0.00     0.001 A 
HETATM   16  C   UNL     1     -20.893  -4.034  -9.892  1.00  0.00     0.003 A 
HETATM   17  C   UNL     1     -22.232  -3.816  -9.567  1.00  0.00     0.037 A 
HETATM   18  C   UNL     1     -22.733  -4.246  -8.336  1.00  0.00     0.082 A 
BRANCH  18  19
HETATM   19  O   UNL     1     -24.028  -3.968  -8.011  1.00  0.00    -0.360 OA
HETATM   20  H   UNL     1     -24.094  -3.058  -7.684  1.00  0.00     0.217 HD
ENDBRANCH  18  19
ENDBRANCH  11  13
ENDBRANCH   1  11
TORSDOF 4
BEGIN_RES ARG D 557
REMARK  4 active torsions:
REMARK  status: ('A' for Active; 'I' for Inactive)
REMARK    1  A    between atoms: CA   and  CB  
REMARK    2  A    between atoms: CB   and  CG  
REMARK    3  A    between atoms: CG   and  CD  
REMARK    4  A    between atoms: CD   and  NE  
REMARK       I    between atoms: NE   and  CZ  
REMARK       I    between atoms: CZ   and  NH1 
REMARK       I    between atoms: CZ   and  NH2 
ROOT
ATOM      1  CA  ARG D 557     -26.217   2.705 -17.014  1.00 35.49     0.159 C 
ENDROOT
BRANCH   1   2
ATOM      2  CB  ARG D 557     -26.789   1.319 -17.183  1.00 35.49     0.034 C 
BRANCH   2   3
ATOM      3  CG  ARG D 557     -28.218   1.153 -16.888  1.00 35.49     0.027 C 
BRANCH   3   4
ATOM      4  CD  ARG D 557     -28.595  -0.267 -16.705  1.00 35.49     0.116 C 
BRANCH   4   5
ATOM      5  NE  ARG D 557     -27.589  -1.007 -15.989  1.00 35.49    -0.212 N 
ATOM      6  CZ  ARG D 557     -27.387  -2.303 -16.070  1.00 35.49     0.666 C 
ATOM      7  NH1 ARG D 557     -28.122  -3.090 -16.835  1.00 35.49    -0.235 N 
ATOM      8  NH2 ARG D 557     -26.414  -2.804 -15.365  1.00 35.49    -0.235 N 
ATOM      9  HH  ARG D 557     -28.765  -2.781 -17.309  1.00 35.49     0.174 HD
ATOM     10  HH  ARG D 557     -27.941  -3.927 -16.850  1.00 35.49     0.174 HD
ATOM     11  HH  ARG D 557     -25.951  -2.271 -14.886  1.00 35.49     0.174 HD
ATOM     12  HH  ARG D 557     -26.250  -3.635 -15.394  1.00 35.49     0.174 HD
ATOM     13  HE  ARG D 557     -27.117  -0.590 -15.418  1.00 35.49     0.178 HD
ENDBRANCH   4   5
ENDBRANCH   3   4
ENDBRANCH   2   3
ENDBRANCH   1   2
END_RES ARG D 557
BEGIN_RES GLU D 570
REMARK  3 active torsions:
REMARK  status: ('A' for Active; 'I' for Inactive)
REMARK    5  A    between atoms: CA   and  CB  
REMARK    6  A    between atoms: CB   and  CG  
REMARK    7  A    between atoms: CG   and  CD  
ROOT
ATOM     14  CA  GLU D 570     -18.033  -6.348 -13.375  1.00 32.92     0.160 C 
ENDROOT
BRANCH  14  15
ATOM     15  CB  GLU D 570     -19.500  -6.345 -13.794  1.00 32.92     0.043 C 
BRANCH  15  16
ATOM     16  CG  GLU D 570     -20.444  -5.543 -12.974  1.00 32.92     0.100 C 
BRANCH  16  17
ATOM     17  CD  GLU D 570     -21.711  -5.184 -13.716  1.00 32.92     0.185 C 
ATOM     18  OE1 GLU D 570     -22.780  -5.097 -13.081  1.00 32.92    -0.647 OA
ATOM     19  OE2 GLU D 570     -21.636  -5.006 -14.948  1.00 32.92    -0.647 OA
ENDBRANCH  16  17
ENDBRANCH  15  16
ENDBRANCH  14  15
END_RES GLU D 570
ENDMDL
MODEL 8
REMARK VINA RESULT:      -7.8      2.791      4.388
REMARK  4 active torsions:
REMARK  status: ('A' for Active; 'I' for Inactive)
REMARK    1  A    between atoms: C_4  and  O_10 
REMARK    2  A    between atoms: O_10  and  C_11 
REMARK    3  A    between atoms: C_11  and  C_13 
REMARK    4  A    between atoms: C_18  and  O_19 
ROOT
HETATM    1  O   UNL     1     -21.426  -5.159  -6.800  1.00  0.00    -0.312 OA
ENDROOT
BRANCH   1   2
HETATM    2  C   UNL     1     -21.694  -4.955  -8.197  1.00  0.00     0.133 C 
HETATM    3  C   UNL     1     -20.663  -3.976  -8.764  1.00  0.00     0.037 C 
HETATM    4  C   UNL     1     -20.950  -3.575 -10.213  1.00  0.00    -0.015 C 
HETATM    5  C   UNL     1     -20.559  -4.676 -11.199  1.00  0.00     0.010 C 
HETATM    6  C   UNL     1     -22.402  -3.096 -10.370  1.00  0.00     0.013 C 
HETATM    7  C   UNL     1     -23.495  -4.018  -9.777  1.00  0.00    -0.045 C 
HETATM    8  C   UNL     1     -23.119  -4.390  -8.326  1.00  0.00     0.041 C 
HETATM    9  C   UNL     1     -23.711  -5.286 -10.627  1.00  0.00     0.015 C 
HETATM   10  C   UNL     1     -24.830  -3.243  -9.788  1.00  0.00     0.015 C 
ENDBRANCH   1   2
BRANCH   1  11
HETATM   11  C   UNL     1     -20.659  -6.233  -6.495  1.00  0.00     0.296 C 
HETATM   12  O   UNL     1     -19.753  -6.696  -7.178  1.00  0.00    -0.259 OA
BRANCH  11  13
HETATM   13  C   UNL     1     -20.990  -6.743  -5.147  1.00  0.00     0.072 A 
HETATM   14  C   UNL     1     -21.119  -5.801  -4.113  1.00  0.00     0.020 A 
HETATM   15  C   UNL     1     -21.422  -6.218  -2.816  1.00  0.00     0.001 A 
HETATM   16  C   UNL     1     -21.598  -7.574  -2.544  1.00  0.00     0.003 A 
HETATM   17  C   UNL     1     -21.458  -8.517  -3.563  1.00  0.00     0.037 A 
HETATM   18  C   UNL     1     -21.143  -8.105  -4.860  1.00  0.00     0.082 A 
BRANCH  18  19
HETATM   19  O   UNL     1     -20.948  -9.045  -5.828  1.00  0.00    -0.360 OA
HETATM   20  H   UNL     1     -21.628  -9.732  -5.757  1.00  0.00     0.217 HD
ENDBRANCH  18  19
ENDBRANCH  11  13
ENDBRANCH   1  11
TORSDOF 4
BEGIN_RES ARG D 557
REMARK  4 active torsions:
REMARK  status: ('A' for Active; 'I' for Inactive)
REMARK    1  A    between atoms: CA   and  CB  
REMARK    2  A    between atoms: CB   and  CG  
REMARK    3  A    between atoms: CG   and  CD  
REMARK    4  A    between atoms: CD   and  NE  
REMARK       I    between atoms: NE   and  CZ  
REMARK       I    between atoms: CZ   and  NH1 
REMARK       I    between atoms: CZ   and  NH2 
ROOT
ATOM      1  CA  ARG D 557     -26.217   2.705 -17.014  1.00 35.49     0.159 C 
ENDROOT
BRANCH   1   2
ATOM      2  CB  ARG D 557     -26.789   1.319 -17.183  1.00 35.49     0.034 C 
BRANCH   2   3
ATOM      3  CG  ARG D 557     -25.866   0.195 -16.986  1.00 35.49     0.027 C 
BRANCH   3   4
ATOM      4  CD  ARG D 557     -26.332  -0.741 -15.938  1.00 35.49     0.116 C 
BRANCH   4   5
ATOM      5  NE  ARG D 557     -25.330  -0.970 -14.930  1.00 35.49    -0.212 N 
ATOM      6  CZ  ARG D 557     -25.091  -2.114 -14.330  1.00 35.49     0.666 C 
ATOM      7  NH1 ARG D 557     -25.781  -3.209 -14.590  1.00 35.49    -0.235 N 
ATOM      8  NH2 ARG D 557     -24.128  -2.143 -13.455  1.00 35.49    -0.235 N 
ATOM      9  HH  ARG D 557     -26.418  -3.213 -15.164  1.00 35.49     0.174 HD
ATOM     10  HH  ARG D 557     -25.579  -3.927 -14.169  1.00 35.49     0.174 HD
ATOM     11  HH  ARG D 557     -23.694  -1.423 -13.313  1.00 35.49     0.174 HD
ATOM     12  HH  ARG D 557     -23.942  -2.865 -13.050  1.00 35.49     0.174 HD
ATOM     13  HE  ARG D 557     -24.887  -0.300 -14.649  1.00 35.49     0.178 HD
ENDBRANCH   4   5
ENDBRANCH   3   4
ENDBRANCH   2   3
ENDBRANCH   1   2
END_RES ARG D 557
BEGIN_RES GLU D 570
REMARK  3 active torsions:
REMARK  status: ('A' for Active; 'I' for Inactive)
REMARK    5  A    between atoms: CA   and  CB  
REMARK    6  A    between atoms: CB   and  CG  
REMARK    7  A    between atoms: CG   and  CD  
ROOT
ATOM     14  CA  GLU D 570     -18.033  -6.348 -13.375  1.00 32.92     0.160 C 
ENDROOT
BRANCH  14  15
ATOM     15  CB  GLU D 570     -19.500  -6.345 -13.794  1.00 32.92     0.043 C 
BRANCH  15  16
ATOM     16  CG  GLU D 570     -20.128  -7.657 -14.097  1.00 32.92     0.100 C 
BRANCH  16  17
ATOM     17  CD  GLU D 570     -20.808  -7.688 -15.446  1.00 32.92     0.185 C 
ATOM     18  OE1 GLU D 570     -20.644  -8.678 -16.184  1.00 32.92    -0.647 OA
ATOM     19  OE2 GLU D 570     -21.497  -6.703 -15.776  1.00 32.92    -0.647 OA
ENDBRANCH  16  17
ENDBRANCH  15  16
ENDBRANCH  14  15
END_RES GLU D 570
ENDMDL
MODEL 9
REMARK VINA RESULT:      -7.3      5.474      9.144
REMARK  4 active torsions:
REMARK  status: ('A' for Active; 'I' for Inactive)
REMARK    1  A    between atoms: C_4  and  O_10 
REMARK    2  A    between atoms: O_10  and  C_11 
REMARK    3  A    between atoms: C_11  and  C_13 
REMARK    4  A    between atoms: C_18  and  O_19 
ROOT
HETATM    1  O   UNL     1     -20.147  -9.799  -4.170  1.00  0.00    -0.312 OA
ENDROOT
BRANCH   1   2
HETATM    2  C   UNL     1     -18.712  -9.845  -4.238  1.00  0.00     0.133 C 
HETATM    3  C   UNL     1     -18.297 -10.746  -5.403  1.00  0.00     0.037 C 
HETATM    4  C   UNL     1     -16.787 -10.981  -5.471  1.00  0.00    -0.015 C 
HETATM    5  C   UNL     1     -16.045  -9.773  -6.043  1.00  0.00     0.010 C 
HETATM    6  C   UNL     1     -16.244 -11.448  -4.111  1.00  0.00     0.013 C 
HETATM    7  C   UNL     1     -16.664 -10.606  -2.881  1.00  0.00    -0.045 C 
HETATM    8  C   UNL     1     -18.194 -10.400  -2.901  1.00  0.00     0.041 C 
HETATM    9  C   UNL     1     -15.931  -9.251  -2.826  1.00  0.00     0.015 C 
HETATM   10  C   UNL     1     -16.258 -11.383  -1.610  1.00  0.00     0.015 C 
ENDBRANCH   1   2
BRANCH   1  11
HETATM   11  C   UNL     1     -20.717  -8.608  -4.470  1.00  0.00     0.296 C 
HETATM   12  O   UNL     1     -20.844  -8.125  -5.589  1.00  0.00    -0.259 OA
BRANCH  11  13
HETATM   13  C   UNL     1     -21.278  -7.978  -3.255  1.00  0.00     0.072 A 
HETATM   14  C   UNL     1     -21.472  -8.798  -2.132  1.00  0.00     0.020 A 
HETATM   15  C   UNL     1     -22.005  -8.267  -0.957  1.00  0.00     0.001 A 
HETATM   16  C   UNL     1     -22.345  -6.916  -0.896  1.00  0.00     0.003 A 
HETATM   17  C   UNL     1     -22.167  -6.098  -2.012  1.00  0.00     0.037 A 
HETATM   18  C   UNL     1     -21.646  -6.628  -3.193  1.00  0.00     0.082 A 
BRANCH  18  19
HETATM   19  O   UNL     1     -21.538  -5.828  -4.292  1.00  0.00    -0.360 OA
HETATM   20  H   UNL     1     -21.016  -6.277  -4.974  1.00  0.00     0.217 HD
ENDBRANCH  18  19
ENDBRANCH  11  13
ENDBRANCH   1  11
TORSDOF 4
BEGIN_RES ARG D 557
REMARK  4 active torsions:
REMARK  status: ('A' for Active; 'I' for Inactive)
REMARK    1  A    between atoms: CA   and  CB  
REMARK    2  A    between atoms: CB   and  CG  
REMARK    3  A    between atoms: CG   and  CD  
REMARK    4  A    between atoms: CD   and  NE  
REMARK       I    between atoms: NE   and  CZ  
REMARK       I    between atoms: CZ   and  NH1 
REMARK       I    between atoms: CZ   and  NH2 
ROOT
ATOM      1  CA  ARG D 557     -26.217   2.705 -17.014  1.00 35.49     0.159 C 
ENDROOT
BRANCH   1   2
ATOM      2  CB  ARG D 557     -26.789   1.319 -17.183  1.00 35.49     0.034 C 
BRANCH   2   3
ATOM      3  CG  ARG D 557     -25.835   0.203 -17.159  1.00 35.49     0.027 C 
BRANCH   3   4
ATOM      4  CD  ARG D 557     -24.753   0.407 -16.170  1.00 35.49     0.116 C 
BRANCH   4   5
ATOM      5  NE  ARG D 557     -24.907  -0.437 -15.015  1.00 35.49    -0.212 N 
ATOM      6  CZ  ARG D 557     -24.100  -1.413 -14.663  1.00 35.49     0.666 C 
ATOM      7  NH1 ARG D 557     -23.033  -1.739 -15.369  1.00 35.49    -0.235 N 
ATOM      8  NH2 ARG D 557     -24.383  -2.063 -13.572  1.00 35.49    -0.235 N 
ATOM      9  HH  ARG D 557     -22.826  -1.324 -16.089  1.00 35.49     0.174 HD
ATOM     10  HH  ARG D 557     -22.541  -2.383 -15.089  1.00 35.49     0.174 HD
ATOM     11  HH  ARG D 557     -25.074  -1.825 -13.132  1.00 35.49     0.174 HD
ATOM     12  HH  ARG D 557     -23.883  -2.696 -13.311  1.00 35.49     0.174 HD
ATOM     13  HE  ARG D 557     -25.609  -0.345 -14.543  1.00 35.49     0.178 HD
ENDBRANCH   4   5
ENDBRANCH   3   4
ENDBRANCH   2   3
ENDBRANCH   1   2
END_RES ARG D 557
BEGIN_RES GLU D 570
REMARK  3 active torsions:
REMARK  status: ('A' for Active; 'I' for Inactive)
REMARK    5  A    between atoms: CA   and  CB  
REMARK    6  A    between atoms: CB   and  CG  
REMARK    7  A    between atoms: CG   and  CD  
ROOT
ATOM     14  CA  GLU D 570     -18.033  -6.348 -13.375  1.00 32.92     0.160 C 
ENDROOT
BRANCH  14  15
ATOM     15  CB  GLU D 570     -19.500  -6.345 -13.794  1.00 32.92     0.043 C 
BRANCH  15  16
ATOM     16  CG  GLU D 570     -20.440  -5.522 -12.990  1.00 32.92     0.100 C 
BRANCH  16  17
ATOM     17  CD  GLU D 570     -21.745  -5.252 -13.702  1.00 32.92     0.185 C 
ATOM     18  OE1 GLU D 570     -22.343  -4.181 -13.485  1.00 32.92    -0.647 OA
ATOM     19  OE2 GLU D 570     -22.182  -6.128 -14.474  1.00 32.92    -0.647 OA
ENDBRANCH  16  17
ENDBRANCH  15  16
ENDBRANCH  14  15
END_RES GLU D 570
ENDMDL
