MODEL 1
REMARK VINA RESULT:      -7.4      0.000      0.000
REMARK  16 active torsions:
REMARK  status: ('A' for Active; 'I' for Inactive)
REMARK    1  A    between atoms: C_3  and  O_43 
REMARK    2  A    between atoms: C_4  and  O_42 
REMARK    3  A    between atoms: C_5  and  O_41 
REMARK    4  A    between atoms: C_6  and  O_8 
REMARK    5  A    between atoms: O_8  and  C_9 
REMARK    6  A    between atoms: C_9  and  C_10 
REMARK    7  A    between atoms: C_11  and  O_40 
REMARK    8  A    between atoms: C_12  and  O_39 
REMARK    9  A    between atoms: C_13  and  O_38 
REMARK   10  A    between atoms: C_14  and  O_16 
REMARK   11  A    between atoms: O_16  and  C_17 
REMARK   12  A    between atoms: C_18  and  C_30 
REMARK   13  A    between atoms: C_22  and  O_29 
REMARK   14  A    between atoms: C_24  and  O_28 
REMARK   15  A    between atoms: C_32  and  O_37 
REMARK   16  A    between atoms: C_33  and  O_36 
ROOT
HETATM    1  C   UNL     1     -20.452 -12.116  -6.810  1.00  0.00     0.180 C 
HETATM    2  C   UNL     1     -19.091 -12.539  -7.367  1.00  0.00     0.180 C 
HETATM    3  C   UNL     1     -17.969 -12.299  -6.353  1.00  0.00     0.183 C 
HETATM    4  C   UNL     1     -17.944 -10.841  -5.881  1.00  0.00     0.205 C 
HETATM    5  C   UNL     1     -19.348 -10.421  -5.381  1.00  0.00     0.298 C 
HETATM    6  O   UNL     1     -20.453 -10.854  -6.142  1.00  0.00    -0.348 OA
ENDROOT
BRANCH   5   7
HETATM    7  O   UNL     1     -19.431  -9.000  -5.131  1.00  0.00    -0.311 OA
BRANCH   7   8
HETATM    8  C   UNL     1     -20.055  -8.536  -3.972  1.00  0.00     0.157 C 
HETATM    9  C   UNL     1     -20.865  -7.456  -4.024  1.00  0.00     0.124 C 
HETATM   10  O   UNL     1     -21.538  -6.915  -2.937  1.00  0.00    -0.306 OA
HETATM   11  C   UNL     1     -21.599  -7.622  -1.773  1.00  0.00     0.096 A 
HETATM   12  C   UNL     1     -22.488  -7.177  -0.798  1.00  0.00     0.075 A 
HETATM   13  C   UNL     1     -20.836  -8.752  -1.550  1.00  0.00     0.084 A 
HETATM   14  C   UNL     1     -22.597  -7.880   0.395  1.00  0.00     0.071 A 
HETATM   15  C   UNL     1     -21.847  -9.026   0.628  1.00  0.00     0.074 A 
HETATM   16  C   UNL     1     -20.973  -9.471  -0.351  1.00  0.00     0.085 A 
HETATM   17  C   UNL     1     -19.940  -9.190  -2.619  1.00  0.00     0.223 C 
HETATM   18  O   UNL     1     -19.210 -10.134  -2.365  1.00  0.00    -0.284 OA
BRANCH   9  19
HETATM   19  C   UNL     1     -21.171  -6.666  -5.224  1.00  0.00     0.004 A 
HETATM   20  C   UNL     1     -20.116  -6.053  -5.915  1.00  0.00     0.053 A 
HETATM   21  C   UNL     1     -20.394  -5.002  -6.780  1.00  0.00     0.099 A 
HETATM   22  C   UNL     1     -21.710  -4.590  -6.996  1.00  0.00     0.098 A 
HETATM   23  C   UNL     1     -22.770  -5.244  -6.385  1.00  0.00     0.040 A 
HETATM   24  C   UNL     1     -22.499  -6.279  -5.487  1.00  0.00     0.017 A 
BRANCH  21  25
HETATM   25  O   UNL     1     -19.396  -4.287  -7.383  1.00  0.00    -0.358 OA
HETATM   26  H   UNL     1     -18.632  -4.266  -6.780  1.00  0.00     0.217 HD
ENDBRANCH  21  25
BRANCH  22  27
HETATM   27  O   UNL     1     -21.957  -3.498  -7.778  1.00  0.00    -0.358 OA
HETATM   28  H   UNL     1     -21.090  -3.277  -8.170  1.00  0.00     0.217 HD
ENDBRANCH  22  27
ENDBRANCH   9  19
BRANCH  14  29
HETATM   29  O   UNL     1     -23.448  -7.488   1.378  1.00  0.00    -0.361 OA
HETATM   30  H   UNL     1     -23.767  -8.269   1.857  1.00  0.00     0.217 HD
ENDBRANCH  14  29
BRANCH  16  31
HETATM   31  O   UNL     1     -20.290 -10.636  -0.137  1.00  0.00    -0.360 OA
HETATM   32  H   UNL     1     -19.416 -10.455   0.239  1.00  0.00     0.217 HD
ENDBRANCH  16  31
ENDBRANCH   7   8
ENDBRANCH   5   7
BRANCH   4  33
HETATM   33  O   UNL     1     -17.432 -10.005  -6.938  1.00  0.00    -0.388 OA
HETATM   34  H   UNL     1     -16.850 -10.571  -7.479  1.00  0.00     0.210 HD
ENDBRANCH   4  33
BRANCH   3  35
HETATM   35  O   UNL     1     -16.710 -12.633  -6.951  1.00  0.00    -0.390 OA
HETATM   36  H   UNL     1     -16.125 -11.863  -6.733  1.00  0.00     0.210 HD
ENDBRANCH   3  35
BRANCH   1  37
HETATM   37  C   UNL     1     -21.126 -13.119  -5.888  1.00  0.00     0.205 C 
BRANCH  37  38
HETATM   38  O   UNL     1     -21.958 -12.333  -5.027  1.00  0.00    -0.356 OA
BRANCH  38  39
HETATM   39  C   UNL     1     -22.576 -13.080  -4.001  1.00  0.00     0.291 C 
HETATM   40  C   UNL     1     -22.182 -12.420  -2.669  1.00  0.00     0.204 C 
HETATM   41  C   UNL     1     -22.881 -13.183  -1.547  1.00  0.00     0.183 C 
HETATM   42  C   UNL     1     -22.500 -14.676  -1.590  1.00  0.00     0.178 C 
HETATM   43  C   UNL     1     -22.655 -15.268  -3.007  1.00  0.00     0.152 C 
HETATM   44  C   UNL     1     -24.092 -15.609  -3.381  1.00  0.00     0.042 C 
HETATM   45  O   UNL     1     -22.089 -14.421  -4.019  1.00  0.00    -0.351 OA
BRANCH  40  46
HETATM   46  O   UNL     1     -20.746 -12.507  -2.483  1.00  0.00    -0.388 OA
HETATM   47  H   UNL     1     -20.381 -12.611  -3.390  1.00  0.00     0.210 HD
ENDBRANCH  40  46
BRANCH  41  48
HETATM   48  O   UNL     1     -22.540 -12.610  -0.281  1.00  0.00    -0.390 OA
HETATM   49  H   UNL     1     -22.212 -11.711  -0.489  1.00  0.00     0.210 HD
ENDBRANCH  41  48
BRANCH  42  50
HETATM   50  O   UNL     1     -21.131 -14.840  -1.175  1.00  0.00    -0.390 OA
HETATM   51  H   UNL     1     -20.679 -15.339  -1.888  1.00  0.00     0.210 HD
ENDBRANCH  42  50
ENDBRANCH  38  39
ENDBRANCH  37  38
ENDBRANCH   1  37
BRANCH   2  52
HETATM   52  O   UNL     1     -18.777 -11.792  -8.565  1.00  0.00    -0.390 OA
HETATM   53  H   UNL     1     -17.946 -12.153  -8.951  1.00  0.00     0.210 HD
ENDBRANCH   2  52
TORSDOF 16
BEGIN_RES ARG D 557
REMARK  4 active torsions:
REMARK  status: ('A' for Active; 'I' for Inactive)
REMARK    1  A    between atoms: CA   and  CB  
REMARK    2  A    between atoms: CB   and  CG  
REMARK    3  A    between atoms: CG   and  CD  
REMARK    4  A    between atoms: CD   and  NE  
REMARK       I    between atoms: NE   and  CZ  
REMARK       I    between atoms: CZ   and  NH1 
REMARK       I    between atoms: CZ   and  NH2 
ROOT
ATOM      1  CA  ARG D 557     -26.217   2.705 -17.014  1.00 35.49     0.159 C 
ENDROOT
BRANCH   1   2
ATOM      2  CB  ARG D 557     -26.789   1.319 -17.183  1.00 35.49     0.034 C 
BRANCH   2   3
ATOM      3  CG  ARG D 557     -25.838   0.202 -17.137  1.00 35.49     0.027 C 
BRANCH   3   4
ATOM      4  CD  ARG D 557     -24.757   0.421 -16.149  1.00 35.49     0.116 C 
BRANCH   4   5
ATOM      5  NE  ARG D 557     -24.892  -0.433 -14.998  1.00 35.49    -0.212 N 
ATOM      6  CZ  ARG D 557     -24.076  -1.408 -14.665  1.00 35.49     0.666 C 
ATOM      7  NH1 ARG D 557     -23.017  -1.724 -15.387  1.00 35.49    -0.235 N 
ATOM      8  NH2 ARG D 557     -24.341  -2.066 -13.574  1.00 35.49    -0.235 N 
ATOM      9  HH  ARG D 557     -22.822  -1.302 -16.107  1.00 35.49     0.174 HD
ATOM     10  HH  ARG D 557     -22.519  -2.367 -15.119  1.00 35.49     0.174 HD
ATOM     11  HH  ARG D 557     -25.028  -1.835 -13.124  1.00 35.49     0.174 HD
ATOM     12  HH  ARG D 557     -23.835  -2.699 -13.325  1.00 35.49     0.174 HD
ATOM     13  HE  ARG D 557     -25.587  -0.347 -14.516  1.00 35.49     0.178 HD
ENDBRANCH   4   5
ENDBRANCH   3   4
ENDBRANCH   2   3
ENDBRANCH   1   2
END_RES ARG D 557
BEGIN_RES GLU D 570
REMARK  3 active torsions:
REMARK  status: ('A' for Active; 'I' for Inactive)
REMARK    5  A    between atoms: CA   and  CB  
REMARK    6  A    between atoms: CB   and  CG  
REMARK    7  A    between atoms: CG   and  CD  
ROOT
ATOM     14  CA  GLU D 570     -18.033  -6.348 -13.375  1.00 32.92     0.160 C 
ENDROOT
BRANCH  14  15
ATOM     15  CB  GLU D 570     -19.500  -6.345 -13.794  1.00 32.92     0.043 C 
BRANCH  15  16
ATOM     16  CG  GLU D 570     -20.444  -5.542 -12.975  1.00 32.92     0.100 C 
BRANCH  16  17
ATOM     17  CD  GLU D 570     -21.741  -5.245 -13.691  1.00 32.92     0.185 C 
ATOM     18  OE1 GLU D 570     -22.229  -6.111 -14.443  1.00 32.92    -0.647 OA
ATOM     19  OE2 GLU D 570     -22.266  -4.129 -13.512  1.00 32.92    -0.647 OA
ENDBRANCH  16  17
ENDBRANCH  15  16
ENDBRANCH  14  15
END_RES GLU D 570
ENDMDL
MODEL 2
REMARK VINA RESULT:      -7.2      1.389      1.651
REMARK  16 active torsions:
REMARK  status: ('A' for Active; 'I' for Inactive)
REMARK    1  A    between atoms: C_3  and  O_43 
REMARK    2  A    between atoms: C_4  and  O_42 
REMARK    3  A    between atoms: C_5  and  O_41 
REMARK    4  A    between atoms: C_6  and  O_8 
REMARK    5  A    between atoms: O_8  and  C_9 
REMARK    6  A    between atoms: C_9  and  C_10 
REMARK    7  A    between atoms: C_11  and  O_40 
REMARK    8  A    between atoms: C_12  and  O_39 
REMARK    9  A    between atoms: C_13  and  O_38 
REMARK   10  A    between atoms: C_14  and  O_16 
REMARK   11  A    between atoms: O_16  and  C_17 
REMARK   12  A    between atoms: C_18  and  C_30 
REMARK   13  A    between atoms: C_22  and  O_29 
REMARK   14  A    between atoms: C_24  and  O_28 
REMARK   15  A    between atoms: C_32  and  O_37 
REMARK   16  A    between atoms: C_33  and  O_36 
ROOT
HETATM    1  C   UNL     1     -20.448 -12.123  -6.812  1.00  0.00     0.180 C 
HETATM    2  C   UNL     1     -19.087 -12.545  -7.370  1.00  0.00     0.180 C 
HETATM    3  C   UNL     1     -17.964 -12.304  -6.357  1.00  0.00     0.183 C 
HETATM    4  C   UNL     1     -17.940 -10.846  -5.885  1.00  0.00     0.205 C 
HETATM    5  C   UNL     1     -19.345 -10.427  -5.384  1.00  0.00     0.298 C 
HETATM    6  O   UNL     1     -20.450 -10.861  -6.145  1.00  0.00    -0.348 OA
ENDROOT
BRANCH   5   7
HETATM    7  O   UNL     1     -19.429  -9.006  -5.135  1.00  0.00    -0.311 OA
BRANCH   7   8
HETATM    8  C   UNL     1     -20.053  -8.543  -3.975  1.00  0.00     0.157 C 
HETATM    9  C   UNL     1     -20.861  -7.461  -4.027  1.00  0.00     0.124 C 
HETATM   10  O   UNL     1     -21.535  -6.920  -2.941  1.00  0.00    -0.306 OA
HETATM   11  C   UNL     1     -21.599  -7.628  -1.778  1.00  0.00     0.096 A 
HETATM   12  C   UNL     1     -22.488  -7.183  -0.803  1.00  0.00     0.075 A 
HETATM   13  C   UNL     1     -20.839  -8.761  -1.555  1.00  0.00     0.084 A 
HETATM   14  C   UNL     1     -22.600  -7.887   0.388  1.00  0.00     0.071 A 
HETATM   15  C   UNL     1     -21.853  -9.035   0.621  1.00  0.00     0.074 A 
HETATM   16  C   UNL     1     -20.978  -9.481  -0.357  1.00  0.00     0.085 A 
HETATM   17  C   UNL     1     -19.942  -9.199  -2.623  1.00  0.00     0.223 C 
HETATM   18  O   UNL     1     -19.214 -10.145  -2.369  1.00  0.00    -0.284 OA
BRANCH   9  19
HETATM   19  C   UNL     1     -21.164  -6.669  -5.227  1.00  0.00     0.004 A 
HETATM   20  C   UNL     1     -20.107  -6.055  -5.915  1.00  0.00     0.053 A 
HETATM   21  C   UNL     1     -20.383  -5.002  -6.779  1.00  0.00     0.099 A 
HETATM   22  C   UNL     1     -21.698  -4.589  -6.997  1.00  0.00     0.098 A 
HETATM   23  C   UNL     1     -22.760  -5.243  -6.389  1.00  0.00     0.040 A 
HETATM   24  C   UNL     1     -22.492  -6.280  -5.492  1.00  0.00     0.017 A 
BRANCH  21  25
HETATM   25  O   UNL     1     -19.383  -4.287  -7.379  1.00  0.00    -0.358 OA
HETATM   26  H   UNL     1     -19.164  -4.723  -8.221  1.00  0.00     0.217 HD
ENDBRANCH  21  25
BRANCH  22  27
HETATM   27  O   UNL     1     -21.942  -3.496  -7.777  1.00  0.00    -0.358 OA
HETATM   28  H   UNL     1     -21.674  -3.772  -8.676  1.00  0.00     0.217 HD
ENDBRANCH  22  27
ENDBRANCH   9  19
BRANCH  14  29
HETATM   29  O   UNL     1     -23.452  -7.495   1.371  1.00  0.00    -0.361 OA
HETATM   30  H   UNL     1     -22.960  -7.396   2.202  1.00  0.00     0.217 HD
ENDBRANCH  14  29
BRANCH  16  31
HETATM   31  O   UNL     1     -20.298 -10.647  -0.144  1.00  0.00    -0.360 OA
HETATM   32  H   UNL     1     -20.316 -10.885   0.796  1.00  0.00     0.217 HD
ENDBRANCH  16  31
ENDBRANCH   7   8
ENDBRANCH   5   7
BRANCH   4  33
HETATM   33  O   UNL     1     -17.430 -10.010  -6.943  1.00  0.00    -0.388 OA
HETATM   34  H   UNL     1     -18.022 -10.141  -7.706  1.00  0.00     0.210 HD
ENDBRANCH   4  33
BRANCH   3  35
HETATM   35  O   UNL     1     -16.706 -12.637  -6.956  1.00  0.00    -0.390 OA
HETATM   36  H   UNL     1     -16.353 -13.371  -6.390  1.00  0.00     0.210 HD
ENDBRANCH   3  35
BRANCH   1  37
HETATM   37  C   UNL     1     -21.121 -13.128  -5.889  1.00  0.00     0.205 C 
BRANCH  37  38
HETATM   38  O   UNL     1     -21.968 -12.343  -5.042  1.00  0.00    -0.356 OA
BRANCH  38  39
HETATM   39  C   UNL     1     -22.592 -13.091  -4.019  1.00  0.00     0.291 C 
HETATM   40  C   UNL     1     -22.213 -12.424  -2.686  1.00  0.00     0.204 C 
HETATM   41  C   UNL     1     -22.918 -13.188  -1.567  1.00  0.00     0.183 C 
HETATM   42  C   UNL     1     -22.528 -14.679  -1.602  1.00  0.00     0.178 C 
HETATM   43  C   UNL     1     -22.668 -15.276  -3.018  1.00  0.00     0.152 C 
HETATM   44  C   UNL     1     -24.099 -15.626  -3.404  1.00  0.00     0.042 C 
HETATM   45  O   UNL     1     -22.097 -14.429  -4.028  1.00  0.00    -0.351 OA
BRANCH  40  46
HETATM   46  O   UNL     1     -20.778 -12.503  -2.487  1.00  0.00    -0.388 OA
HETATM   47  H   UNL     1     -20.418 -12.769  -3.362  1.00  0.00     0.210 HD
ENDBRANCH  40  46
BRANCH  41  48
HETATM   48  O   UNL     1     -22.591 -12.609  -0.301  1.00  0.00    -0.390 OA
HETATM   49  H   UNL     1     -22.039 -13.279   0.151  1.00  0.00     0.210 HD
ENDBRANCH  41  48
BRANCH  42  50
HETATM   50  O   UNL     1     -21.162 -14.834  -1.174  1.00  0.00    -0.390 OA
HETATM   51  H   UNL     1     -21.169 -15.493  -0.447  1.00  0.00     0.210 HD
ENDBRANCH  42  50
ENDBRANCH  38  39
ENDBRANCH  37  38
ENDBRANCH   1  37
BRANCH   2  52
HETATM   52  O   UNL     1     -18.775 -11.798  -8.569  1.00  0.00    -0.390 OA
HETATM   53  H   UNL     1     -19.409 -12.061  -9.275  1.00  0.00     0.210 HD
ENDBRANCH   2  52
TORSDOF 16
BEGIN_RES ARG D 557
REMARK  4 active torsions:
REMARK  status: ('A' for Active; 'I' for Inactive)
REMARK    1  A    between atoms: CA   and  CB  
REMARK    2  A    between atoms: CB   and  CG  
REMARK    3  A    between atoms: CG   and  CD  
REMARK    4  A    between atoms: CD   and  NE  
REMARK       I    between atoms: NE   and  CZ  
REMARK       I    between atoms: CZ   and  NH1 
REMARK       I    between atoms: CZ   and  NH2 
ROOT
ATOM      1  CA  ARG D 557     -26.217   2.705 -17.014  1.00 35.49     0.159 C 
ENDROOT
BRANCH   1   2
ATOM      2  CB  ARG D 557     -26.789   1.319 -17.183  1.00 35.49     0.034 C 
BRANCH   2   3
ATOM      3  CG  ARG D 557     -28.234   1.225 -17.422  1.00 35.49     0.027 C 
BRANCH   3   4
ATOM      4  CD  ARG D 557     -28.902   0.292 -16.487  1.00 35.49     0.116 C 
BRANCH   4   5
ATOM      5  NE  ARG D 557     -29.291  -0.935 -17.131  1.00 35.49    -0.212 N 
ATOM      6  CZ  ARG D 557     -28.662  -2.086 -17.035  1.00 35.49     0.666 C 
ATOM      7  NH1 ARG D 557     -27.561  -2.235 -16.322  1.00 35.49    -0.235 N 
ATOM      8  NH2 ARG D 557     -29.170  -3.102 -17.671  1.00 35.49    -0.235 N 
ATOM      9  HH  ARG D 557     -27.211  -1.581 -15.894  1.00 35.49     0.174 HD
ATOM     10  HH  ARG D 557     -27.196  -3.010 -16.294  1.00 35.49     0.174 HD
ATOM     11  HH  ARG D 557     -29.886  -2.978 -18.117  1.00 35.49     0.174 HD
ATOM     12  HH  ARG D 557     -28.795  -3.861 -17.629  1.00 35.49     0.174 HD
ATOM     13  HE  ARG D 557     -29.949  -0.913 -17.668  1.00 35.49     0.178 HD
ENDBRANCH   4   5
ENDBRANCH   3   4
ENDBRANCH   2   3
ENDBRANCH   1   2
END_RES ARG D 557
BEGIN_RES GLU D 570
REMARK  3 active torsions:
REMARK  status: ('A' for Active; 'I' for Inactive)
REMARK    5  A    between atoms: CA   and  CB  
REMARK    6  A    between atoms: CB   and  CG  
REMARK    7  A    between atoms: CG   and  CD  
ROOT
ATOM     14  CA  GLU D 570     -18.033  -6.348 -13.375  1.00 32.92     0.160 C 
ENDROOT
BRANCH  14  15
ATOM     15  CB  GLU D 570     -19.500  -6.345 -13.794  1.00 32.92     0.043 C 
BRANCH  15  16
ATOM     16  CG  GLU D 570     -20.437  -5.511 -12.999  1.00 32.92     0.100 C 
BRANCH  16  17
ATOM     17  CD  GLU D 570     -21.711  -5.183 -13.742  1.00 32.92     0.185 C 
ATOM     18  OE1 GLU D 570     -22.791  -5.180 -13.121  1.00 32.92    -0.647 OA
ATOM     19  OE2 GLU D 570     -21.631  -4.945 -14.963  1.00 32.92    -0.647 OA
ENDBRANCH  16  17
ENDBRANCH  15  16
ENDBRANCH  14  15
END_RES GLU D 570
ENDMDL
MODEL 3
REMARK VINA RESULT:      -7.1      2.733      5.261
REMARK  16 active torsions:
REMARK  status: ('A' for Active; 'I' for Inactive)
REMARK    1  A    between atoms: C_3  and  O_43 
REMARK    2  A    between atoms: C_4  and  O_42 
REMARK    3  A    between atoms: C_5  and  O_41 
REMARK    4  A    between atoms: C_6  and  O_8 
REMARK    5  A    between atoms: O_8  and  C_9 
REMARK    6  A    between atoms: C_9  and  C_10 
REMARK    7  A    between atoms: C_11  and  O_40 
REMARK    8  A    between atoms: C_12  and  O_39 
REMARK    9  A    between atoms: C_13  and  O_38 
REMARK   10  A    between atoms: C_14  and  O_16 
REMARK   11  A    between atoms: O_16  and  C_17 
REMARK   12  A    between atoms: C_18  and  C_30 
REMARK   13  A    between atoms: C_22  and  O_29 
REMARK   14  A    between atoms: C_24  and  O_28 
REMARK   15  A    between atoms: C_32  and  O_37 
REMARK   16  A    between atoms: C_33  and  O_36 
ROOT
HETATM    1  C   UNL     1     -17.788 -15.080   0.219  1.00  0.00     0.180 C 
HETATM    2  C   UNL     1     -16.587 -14.523   0.985  1.00  0.00     0.180 C 
HETATM    3  C   UNL     1     -16.813 -13.068   1.407  1.00  0.00     0.183 C 
HETATM    4  C   UNL     1     -17.161 -12.184   0.204  1.00  0.00     0.205 C 
HETATM    5  C   UNL     1     -18.338 -12.804  -0.587  1.00  0.00     0.298 C 
HETATM    6  O   UNL     1     -18.318 -14.201  -0.774  1.00  0.00    -0.348 OA
ENDROOT
BRANCH   5   7
HETATM    7  O   UNL     1     -18.560 -12.128  -1.846  1.00  0.00    -0.311 OA
BRANCH   7   8
HETATM    8  C   UNL     1     -19.103 -10.843  -1.855  1.00  0.00     0.157 C 
HETATM    9  C   UNL     1     -18.753  -9.966  -2.822  1.00  0.00     0.124 C 
HETATM   10  O   UNL     1     -19.235  -8.669  -2.930  1.00  0.00    -0.306 OA
HETATM   11  C   UNL     1     -20.304  -8.291  -2.173  1.00  0.00     0.096 A 
HETATM   12  C   UNL     1     -20.918  -7.081  -2.488  1.00  0.00     0.075 A 
HETATM   13  C   UNL     1     -20.794  -9.067  -1.140  1.00  0.00     0.084 A 
HETATM   14  C   UNL     1     -22.023  -6.669  -1.755  1.00  0.00     0.071 A 
HETATM   15  C   UNL     1     -22.535  -7.445  -0.723  1.00  0.00     0.074 A 
HETATM   16  C   UNL     1     -21.928  -8.653  -0.421  1.00  0.00     0.085 A 
HETATM   17  C   UNL     1     -20.127 -10.340  -0.870  1.00  0.00     0.223 C 
HETATM   18  O   UNL     1     -20.518 -10.964   0.103  1.00  0.00    -0.284 OA
BRANCH   9  19
HETATM   19  C   UNL     1     -17.806 -10.223  -3.916  1.00  0.00     0.004 A 
HETATM   20  C   UNL     1     -18.283 -10.813  -5.095  1.00  0.00     0.053 A 
HETATM   21  C   UNL     1     -17.382 -11.424  -5.958  1.00  0.00     0.099 A 
HETATM   22  C   UNL     1     -16.014 -11.412  -5.680  1.00  0.00     0.098 A 
HETATM   23  C   UNL     1     -15.521 -10.757  -4.561  1.00  0.00     0.040 A 
HETATM   24  C   UNL     1     -16.421 -10.170  -3.669  1.00  0.00     0.017 A 
BRANCH  21  25
HETATM   25  O   UNL     1     -17.802 -12.122  -7.057  1.00  0.00    -0.358 OA
HETATM   26  H   UNL     1     -18.491 -11.598  -7.502  1.00  0.00     0.217 HD
ENDBRANCH  21  25
BRANCH  22  27
HETATM   27  O   UNL     1     -15.154 -12.095  -6.491  1.00  0.00    -0.358 OA
HETATM   28  H   UNL     1     -15.724 -12.480  -7.185  1.00  0.00     0.217 HD
ENDBRANCH  22  27
ENDBRANCH   9  19
BRANCH  14  29
HETATM   29  O   UNL     1     -22.658  -5.497  -2.021  1.00  0.00    -0.361 OA
HETATM   30  H   UNL     1     -23.118  -5.569  -2.873  1.00  0.00     0.217 HD
ENDBRANCH  14  29
BRANCH  16  31
HETATM   31  O   UNL     1     -22.481  -9.438   0.551  1.00  0.00    -0.360 OA
HETATM   32  H   UNL     1     -23.303  -9.843   0.236  1.00  0.00     0.217 HD
ENDBRANCH  16  31
ENDBRANCH   7   8
ENDBRANCH   5   7
BRANCH   4  33
HETATM   33  O   UNL     1     -15.976 -11.973  -0.591  1.00  0.00    -0.388 OA
HETATM   34  H   UNL     1     -16.233 -12.141  -1.516  1.00  0.00     0.210 HD
ENDBRANCH   4  33
BRANCH   3  35
HETATM   35  O   UNL     1     -15.631 -12.570   2.045  1.00  0.00    -0.390 OA
HETATM   36  H   UNL     1     -15.962 -12.153   2.881  1.00  0.00     0.210 HD
ENDBRANCH   3  35
BRANCH   1  37
HETATM   37  C   UNL     1     -18.953 -15.553   1.076  1.00  0.00     0.205 C 
BRANCH  37  38
HETATM   38  O   UNL     1     -20.010 -15.823   0.149  1.00  0.00    -0.356 OA
BRANCH  38  39
HETATM   39  C   UNL     1     -21.283 -15.425   0.613  1.00  0.00     0.291 C 
HETATM   40  C   UNL     1     -22.049 -14.875  -0.602  1.00  0.00     0.204 C 
HETATM   41  C   UNL     1     -23.449 -14.484  -0.133  1.00  0.00     0.183 C 
HETATM   42  C   UNL     1     -23.367 -13.458   1.014  1.00  0.00     0.178 C 
HETATM   43  C   UNL     1     -22.385 -13.907   2.118  1.00  0.00     0.152 C 
HETATM   44  C   UNL     1     -22.960 -14.948   3.071  1.00  0.00     0.042 C 
HETATM   45  O   UNL     1     -21.142 -14.388   1.583  1.00  0.00    -0.351 OA
BRANCH  40  46
HETATM   46  O   UNL     1     -21.374 -13.700  -1.119  1.00  0.00    -0.388 OA
HETATM   47  H   UNL     1     -21.201 -13.905  -2.064  1.00  0.00     0.210 HD
ENDBRANCH  40  46
BRANCH  41  48
HETATM   48  O   UNL     1     -24.202 -13.959  -1.229  1.00  0.00    -0.390 OA
HETATM   49  H   UNL     1     -23.719 -14.245  -2.031  1.00  0.00     0.210 HD
ENDBRANCH  41  48
BRANCH  42  50
HETATM   50  O   UNL     1     -22.924 -12.189   0.500  1.00  0.00    -0.390 OA
HETATM   51  H   UNL     1     -23.571 -11.924  -0.188  1.00  0.00     0.210 HD
ENDBRANCH  42  50
ENDBRANCH  38  39
ENDBRANCH  37  38
ENDBRANCH   1  37
BRANCH   2  52
HETATM   52  O   UNL     1     -15.395 -14.570   0.165  1.00  0.00    -0.390 OA
HETATM   53  H   UNL     1     -15.468 -13.878  -0.532  1.00  0.00     0.210 HD
ENDBRANCH   2  52
TORSDOF 16
BEGIN_RES ARG D 557
REMARK  4 active torsions:
REMARK  status: ('A' for Active; 'I' for Inactive)
REMARK    1  A    between atoms: CA   and  CB  
REMARK    2  A    between atoms: CB   and  CG  
REMARK    3  A    between atoms: CG   and  CD  
REMARK    4  A    between atoms: CD   and  NE  
REMARK       I    between atoms: NE   and  CZ  
REMARK       I    between atoms: CZ   and  NH1 
REMARK       I    between atoms: CZ   and  NH2 
ROOT
ATOM      1  CA  ARG D 557     -26.217   2.705 -17.014  1.00 35.49     0.159 C 
ENDROOT
BRANCH   1   2
ATOM      2  CB  ARG D 557     -26.789   1.319 -17.183  1.00 35.49     0.034 C 
BRANCH   2   3
ATOM      3  CG  ARG D 557     -25.866   0.195 -16.987  1.00 35.49     0.027 C 
BRANCH   3   4
ATOM      4  CD  ARG D 557     -26.280  -0.688 -15.873  1.00 35.49     0.116 C 
BRANCH   4   5
ATOM      5  NE  ARG D 557     -25.213  -0.914 -14.934  1.00 35.49    -0.212 N 
ATOM      6  CZ  ARG D 557     -24.918  -2.063 -14.367  1.00 35.49     0.666 C 
ATOM      7  NH1 ARG D 557     -25.607  -3.165 -14.599  1.00 35.49    -0.235 N 
ATOM      8  NH2 ARG D 557     -23.901  -2.088 -13.556  1.00 35.49    -0.235 N 
ATOM      9  HH  ARG D 557     -26.278  -3.171 -15.132  1.00 35.49     0.174 HD
ATOM     10  HH  ARG D 557     -25.367  -3.886 -14.203  1.00 35.49     0.174 HD
ATOM     11  HH  ARG D 557     -23.471  -1.363 -13.431  1.00 35.49     0.174 HD
ATOM     12  HH  ARG D 557     -23.679  -2.812 -13.174  1.00 35.49     0.174 HD
ATOM     13  HE  ARG D 557     -24.763  -0.242 -14.672  1.00 35.49     0.178 HD
ENDBRANCH   4   5
ENDBRANCH   3   4
ENDBRANCH   2   3
ENDBRANCH   1   2
END_RES ARG D 557
BEGIN_RES GLU D 570
REMARK  3 active torsions:
REMARK  status: ('A' for Active; 'I' for Inactive)
REMARK    5  A    between atoms: CA   and  CB  
REMARK    6  A    between atoms: CB   and  CG  
REMARK    7  A    between atoms: CG   and  CD  
ROOT
ATOM     14  CA  GLU D 570     -18.033  -6.348 -13.375  1.00 32.92     0.160 C 
ENDROOT
BRANCH  14  15
ATOM     15  CB  GLU D 570     -19.500  -6.345 -13.794  1.00 32.92     0.043 C 
BRANCH  15  16
ATOM     16  CG  GLU D 570     -20.440  -5.525 -12.988  1.00 32.92     0.100 C 
BRANCH  16  17
ATOM     17  CD  GLU D 570     -21.687  -5.138 -13.749  1.00 32.92     0.185 C 
ATOM     18  OE1 GLU D 570     -22.756  -4.990 -13.126  1.00 32.92    -0.647 OA
ATOM     19  OE2 GLU D 570     -21.597  -4.998 -14.985  1.00 32.92    -0.647 OA
ENDBRANCH  16  17
ENDBRANCH  15  16
ENDBRANCH  14  15
END_RES GLU D 570
ENDMDL
MODEL 4
REMARK VINA RESULT:      -7.0      2.101      6.222
REMARK  16 active torsions:
REMARK  status: ('A' for Active; 'I' for Inactive)
REMARK    1  A    between atoms: C_3  and  O_43 
REMARK    2  A    between atoms: C_4  and  O_42 
REMARK    3  A    between atoms: C_5  and  O_41 
REMARK    4  A    between atoms: C_6  and  O_8 
REMARK    5  A    between atoms: O_8  and  C_9 
REMARK    6  A    between atoms: C_9  and  C_10 
REMARK    7  A    between atoms: C_11  and  O_40 
REMARK    8  A    between atoms: C_12  and  O_39 
REMARK    9  A    between atoms: C_13  and  O_38 
REMARK   10  A    between atoms: C_14  and  O_16 
REMARK   11  A    between atoms: O_16  and  C_17 
REMARK   12  A    between atoms: C_18  and  C_30 
REMARK   13  A    between atoms: C_22  and  O_29 
REMARK   14  A    between atoms: C_24  and  O_28 
REMARK   15  A    between atoms: C_32  and  O_37 
REMARK   16  A    between atoms: C_33  and  O_36 
ROOT
HETATM    1  C   UNL     1     -19.328 -11.383  -0.663  1.00  0.00     0.180 C 
HETATM    2  C   UNL     1     -20.339 -11.554   0.473  1.00  0.00     0.180 C 
HETATM    3  C   UNL     1     -21.430 -12.565   0.108  1.00  0.00     0.183 C 
HETATM    4  C   UNL     1     -22.129 -12.186  -1.202  1.00  0.00     0.205 C 
HETATM    5  C   UNL     1     -21.079 -11.957  -2.318  1.00  0.00     0.298 C 
HETATM    6  O   UNL     1     -19.910 -11.254  -1.960  1.00  0.00    -0.348 OA
ENDROOT
BRANCH   5   7
HETATM    7  O   UNL     1     -21.668 -11.387  -3.508  1.00  0.00    -0.311 OA
BRANCH   7   8
HETATM    8  C   UNL     1     -21.142 -10.211  -4.045  1.00  0.00     0.157 C 
HETATM    9  C   UNL     1     -20.409 -10.253  -5.180  1.00  0.00     0.124 C 
HETATM   10  O   UNL     1     -19.845  -9.149  -5.802  1.00  0.00    -0.306 OA
HETATM   11  C   UNL     1     -20.221  -7.898  -5.409  1.00  0.00     0.096 A 
HETATM   12  C   UNL     1     -19.838  -6.829  -6.215  1.00  0.00     0.075 A 
HETATM   13  C   UNL     1     -20.972  -7.673  -4.270  1.00  0.00     0.084 A 
HETATM   14  C   UNL     1     -20.219  -5.542  -5.862  1.00  0.00     0.071 A 
HETATM   15  C   UNL     1     -20.985  -5.301  -4.728  1.00  0.00     0.074 A 
HETATM   16  C   UNL     1     -21.373  -6.369  -3.936  1.00  0.00     0.085 A 
HETATM   17  C   UNL     1     -21.369  -8.834  -3.476  1.00  0.00     0.223 C 
HETATM   18  O   UNL     1     -21.950  -8.604  -2.428  1.00  0.00    -0.284 OA
BRANCH   9  19
HETATM   19  C   UNL     1     -20.077 -11.462  -5.947  1.00  0.00     0.004 A 
HETATM   20  C   UNL     1     -18.727 -11.776  -6.159  1.00  0.00     0.053 A 
HETATM   21  C   UNL     1     -18.389 -12.648  -7.187  1.00  0.00     0.099 A 
HETATM   22  C   UNL     1     -19.381 -13.241  -7.969  1.00  0.00     0.098 A 
HETATM   23  C   UNL     1     -20.725 -13.006  -7.714  1.00  0.00     0.040 A 
HETATM   24  C   UNL     1     -21.074 -12.104  -6.706  1.00  0.00     0.017 A 
BRANCH  21  25
HETATM   25  O   UNL     1     -17.085 -12.893  -7.519  1.00  0.00    -0.358 OA
HETATM   26  H   UNL     1     -16.530 -12.230  -7.071  1.00  0.00     0.217 HD
ENDBRANCH  21  25
BRANCH  22  27
HETATM   27  O   UNL     1     -19.028 -14.023  -9.031  1.00  0.00    -0.358 OA
HETATM   28  H   UNL     1     -18.167 -14.408  -8.775  1.00  0.00     0.217 HD
ENDBRANCH  22  27
ENDBRANCH   9  19
BRANCH  14  29
HETATM   29  O   UNL     1     -19.871  -4.464  -6.614  1.00  0.00    -0.361 OA
HETATM   30  H   UNL     1     -20.543  -3.771  -6.510  1.00  0.00     0.217 HD
ENDBRANCH  14  29
BRANCH  16  31
HETATM   31  O   UNL     1     -22.182  -6.126  -2.861  1.00  0.00    -0.360 OA
HETATM   32  H   UNL     1     -21.797  -5.442  -2.292  1.00  0.00     0.217 HD
ENDBRANCH  16  31
ENDBRANCH   7   8
ENDBRANCH   5   7
BRANCH   4  33
HETATM   33  O   UNL     1     -22.987 -11.049  -0.974  1.00  0.00    -0.388 OA
HETATM   34  H   UNL     1     -23.172 -11.033  -0.017  1.00  0.00     0.210 HD
ENDBRANCH   4  33
BRANCH   3  35
HETATM   35  O   UNL     1     -22.393 -12.627   1.167  1.00  0.00    -0.390 OA
HETATM   36  H   UNL     1     -22.700 -13.570   1.163  1.00  0.00     0.210 HD
ENDBRANCH   3  35
BRANCH   1  37
HETATM   37  C   UNL     1     -18.250 -12.452  -0.751  1.00  0.00     0.205 C 
BRANCH  37  38
HETATM   38  O   UNL     1     -17.036 -11.736  -1.002  1.00  0.00    -0.356 OA
BRANCH  38  39
HETATM   39  C   UNL     1     -16.665 -11.714  -2.364  1.00  0.00     0.291 C 
HETATM   40  C   UNL     1     -16.212 -13.139  -2.726  1.00  0.00     0.204 C 
HETATM   41  C   UNL     1     -15.853 -13.151  -4.210  1.00  0.00     0.183 C 
HETATM   42  C   UNL     1     -14.764 -12.102  -4.511  1.00  0.00     0.178 C 
HETATM   43  C   UNL     1     -15.114 -10.723  -3.912  1.00  0.00     0.152 C 
HETATM   44  C   UNL     1     -16.123  -9.930  -4.732  1.00  0.00     0.042 C 
HETATM   45  O   UNL     1     -15.572 -10.816  -2.554  1.00  0.00    -0.351 OA
BRANCH  40  46
HETATM   46  O   UNL     1     -15.041 -13.495  -1.949  1.00  0.00    -0.388 OA
HETATM   47  H   UNL     1     -14.465 -12.699  -1.984  1.00  0.00     0.210 HD
ENDBRANCH  40  46
BRANCH  41  48
HETATM   48  O   UNL     1     -15.418 -14.457  -4.596  1.00  0.00    -0.390 OA
HETATM   49  H   UNL     1     -14.882 -14.780  -3.844  1.00  0.00     0.210 HD
ENDBRANCH  41  48
BRANCH  42  50
HETATM   50  O   UNL     1     -13.508 -12.535  -3.957  1.00  0.00    -0.390 OA
HETATM   51  H   UNL     1     -13.618 -12.541  -2.982  1.00  0.00     0.210 HD
ENDBRANCH  42  50
ENDBRANCH  38  39
ENDBRANCH  37  38
ENDBRANCH   1  37
BRANCH   2  52
HETATM   52  O   UNL     1     -20.982 -10.294   0.776  1.00  0.00    -0.390 OA
HETATM   53  H   UNL     1     -21.449  -9.979  -0.032  1.00  0.00     0.210 HD
ENDBRANCH   2  52
TORSDOF 16
BEGIN_RES ARG D 557
REMARK  4 active torsions:
REMARK  status: ('A' for Active; 'I' for Inactive)
REMARK    1  A    between atoms: CA   and  CB  
REMARK    2  A    between atoms: CB   and  CG  
REMARK    3  A    between atoms: CG   and  CD  
REMARK    4  A    between atoms: CD   and  NE  
REMARK       I    between atoms: NE   and  CZ  
REMARK       I    between atoms: CZ   and  NH1 
REMARK       I    between atoms: CZ   and  NH2 
ROOT
ATOM      1  CA  ARG D 557     -26.217   2.705 -17.014  1.00 35.49     0.159 C 
ENDROOT
BRANCH   1   2
ATOM      2  CB  ARG D 557     -26.789   1.319 -17.183  1.00 35.49     0.034 C 
BRANCH   2   3
ATOM      3  CG  ARG D 557     -25.838   0.202 -17.138  1.00 35.49     0.027 C 
BRANCH   3   4
ATOM      4  CD  ARG D 557     -24.754   0.422 -16.154  1.00 35.49     0.116 C 
BRANCH   4   5
ATOM      5  NE  ARG D 557     -24.885  -0.432 -15.003  1.00 35.49    -0.212 N 
ATOM      6  CZ  ARG D 557     -24.061  -1.399 -14.666  1.00 35.49     0.666 C 
ATOM      7  NH1 ARG D 557     -22.997  -1.706 -15.385  1.00 35.49    -0.235 N 
ATOM      8  NH2 ARG D 557     -24.324  -2.059 -13.576  1.00 35.49    -0.235 N 
ATOM      9  HH  ARG D 557     -22.804  -1.283 -16.105  1.00 35.49     0.174 HD
ATOM     10  HH  ARG D 557     -22.494  -2.345 -15.114  1.00 35.49     0.174 HD
ATOM     11  HH  ARG D 557     -25.014  -1.834 -13.128  1.00 35.49     0.174 HD
ATOM     12  HH  ARG D 557     -23.813  -2.687 -13.324  1.00 35.49     0.174 HD
ATOM     13  HE  ARG D 557     -25.583  -0.351 -14.523  1.00 35.49     0.178 HD
ENDBRANCH   4   5
ENDBRANCH   3   4
ENDBRANCH   2   3
ENDBRANCH   1   2
END_RES ARG D 557
BEGIN_RES GLU D 570
REMARK  3 active torsions:
REMARK  status: ('A' for Active; 'I' for Inactive)
REMARK    5  A    between atoms: CA   and  CB  
REMARK    6  A    between atoms: CB   and  CG  
REMARK    7  A    between atoms: CG   and  CD  
ROOT
ATOM     14  CA  GLU D 570     -18.033  -6.348 -13.375  1.00 32.92     0.160 C 
ENDROOT
BRANCH  14  15
ATOM     15  CB  GLU D 570     -19.500  -6.345 -13.794  1.00 32.92     0.043 C 
BRANCH  15  16
ATOM     16  CG  GLU D 570     -20.445  -5.545 -12.973  1.00 32.92     0.100 C 
BRANCH  16  17
ATOM     17  CD  GLU D 570     -21.731  -5.225 -13.698  1.00 32.92     0.185 C 
ATOM     18  OE1 GLU D 570     -22.279  -4.123 -13.502  1.00 32.92    -0.647 OA
ATOM     19  OE2 GLU D 570     -22.206  -6.094 -14.457  1.00 32.92    -0.647 OA
ENDBRANCH  16  17
ENDBRANCH  15  16
ENDBRANCH  14  15
END_RES GLU D 570
ENDMDL
MODEL 5
REMARK VINA RESULT:      -6.8      2.363      3.448
REMARK  16 active torsions:
REMARK  status: ('A' for Active; 'I' for Inactive)
REMARK    1  A    between atoms: C_3  and  O_43 
REMARK    2  A    between atoms: C_4  and  O_42 
REMARK    3  A    between atoms: C_5  and  O_41 
REMARK    4  A    between atoms: C_6  and  O_8 
REMARK    5  A    between atoms: O_8  and  C_9 
REMARK    6  A    between atoms: C_9  and  C_10 
REMARK    7  A    between atoms: C_11  and  O_40 
REMARK    8  A    between atoms: C_12  and  O_39 
REMARK    9  A    between atoms: C_13  and  O_38 
REMARK   10  A    between atoms: C_14  and  O_16 
REMARK   11  A    between atoms: O_16  and  C_17 
REMARK   12  A    between atoms: C_18  and  C_30 
REMARK   13  A    between atoms: C_22  and  O_29 
REMARK   14  A    between atoms: C_24  and  O_28 
REMARK   15  A    between atoms: C_32  and  O_37 
REMARK   16  A    between atoms: C_33  and  O_36 
ROOT
HETATM    1  C   UNL     1     -18.638 -12.098  -4.758  1.00  0.00     0.180 C 
HETATM    2  C   UNL     1     -19.259 -13.352  -5.376  1.00  0.00     0.180 C 
HETATM    3  C   UNL     1     -19.850 -13.066  -6.759  1.00  0.00     0.183 C 
HETATM    4  C   UNL     1     -20.863 -11.916  -6.707  1.00  0.00     0.205 C 
HETATM    5  C   UNL     1     -20.228 -10.680  -6.022  1.00  0.00     0.298 C 
HETATM    6  O   UNL     1     -19.435 -10.919  -4.881  1.00  0.00    -0.348 OA
ENDROOT
BRANCH   5   7
HETATM    7  O   UNL     1     -21.205  -9.649  -5.753  1.00  0.00    -0.311 OA
BRANCH   7   8
HETATM    8  C   UNL     1     -21.396  -9.203  -4.444  1.00  0.00     0.157 C 
HETATM    9  C   UNL     1     -21.315  -7.884  -4.160  1.00  0.00     0.124 C 
HETATM   10  O   UNL     1     -21.493  -7.332  -2.899  1.00  0.00    -0.306 OA
HETATM   11  C   UNL     1     -22.012  -8.102  -1.901  1.00  0.00     0.096 A 
HETATM   12  C   UNL     1     -22.414  -7.457  -0.735  1.00  0.00     0.075 A 
HETATM   13  C   UNL     1     -22.164  -9.471  -2.023  1.00  0.00     0.084 A 
HETATM   14  C   UNL     1     -22.968  -8.202   0.298  1.00  0.00     0.071 A 
HETATM   15  C   UNL     1     -23.140  -9.576   0.185  1.00  0.00     0.074 A 
HETATM   16  C   UNL     1     -22.748 -10.212  -0.983  1.00  0.00     0.085 A 
HETATM   17  C   UNL     1     -21.749 -10.092  -3.280  1.00  0.00     0.223 C 
HETATM   18  O   UNL     1     -21.806 -11.310  -3.330  1.00  0.00    -0.284 OA
BRANCH   9  19
HETATM   19  C   UNL     1     -21.022  -6.812  -5.121  1.00  0.00     0.004 A 
HETATM   20  C   UNL     1     -22.047  -5.921  -5.470  1.00  0.00     0.053 A 
HETATM   21  C   UNL     1     -21.928  -5.177  -6.637  1.00  0.00     0.099 A 
HETATM   22  C   UNL     1     -20.785  -5.280  -7.430  1.00  0.00     0.098 A 
HETATM   23  C   UNL     1     -19.726  -6.093  -7.052  1.00  0.00     0.040 A 
HETATM   24  C   UNL     1     -19.849  -6.871  -5.898  1.00  0.00     0.017 A 
BRANCH  21  25
HETATM   25  O   UNL     1     -22.949  -4.388  -7.091  1.00  0.00    -0.358 OA
HETATM   26  H   UNL     1     -22.962  -4.439  -8.063  1.00  0.00     0.217 HD
ENDBRANCH  21  25
BRANCH  22  27
HETATM   27  O   UNL     1     -20.725  -4.612  -8.620  1.00  0.00    -0.358 OA
HETATM   28  H   UNL     1     -19.777  -4.400  -8.734  1.00  0.00     0.217 HD
ENDBRANCH  22  27
ENDBRANCH   9  19
BRANCH  14  29
HETATM   29  O   UNL     1     -23.376  -7.622   1.456  1.00  0.00    -0.361 OA
HETATM   30  H   UNL     1     -23.514  -6.672   1.308  1.00  0.00     0.217 HD
ENDBRANCH  14  29
BRANCH  16  31
HETATM   31  O   UNL     1     -22.983 -11.552  -1.108  1.00  0.00    -0.360 OA
HETATM   32  H   UNL     1     -23.634 -11.847  -0.453  1.00  0.00     0.217 HD
ENDBRANCH  16  31
ENDBRANCH   7   8
ENDBRANCH   5   7
BRANCH   4  33
HETATM   33  O   UNL     1     -22.072 -12.373  -6.069  1.00  0.00    -0.388 OA
HETATM   34  H   UNL     1     -21.909 -13.296  -5.801  1.00  0.00     0.210 HD
ENDBRANCH   4  33
BRANCH   3  35
HETATM   35  O   UNL     1     -20.490 -14.248  -7.255  1.00  0.00    -0.390 OA
HETATM   36  H   UNL     1     -20.419 -14.168  -8.241  1.00  0.00     0.210 HD
ENDBRANCH   3  35
BRANCH   1  37
HETATM   37  C   UNL     1     -17.237 -11.751  -5.241  1.00  0.00     0.205 C 
BRANCH  37  38
HETATM   38  O   UNL     1     -16.491 -11.476  -4.050  1.00  0.00    -0.356 OA
BRANCH  38  39
HETATM   39  C   UNL     1     -16.754 -12.381  -2.998  1.00  0.00     0.291 C 
HETATM   40  C   UNL     1     -16.840 -11.549  -1.706  1.00  0.00     0.204 C 
HETATM   41  C   UNL     1     -17.174 -12.502  -0.561  1.00  0.00     0.183 C 
HETATM   42  C   UNL     1     -16.117 -13.620  -0.462  1.00  0.00     0.178 C 
HETATM   43  C   UNL     1     -15.849 -14.279  -1.832  1.00  0.00     0.152 C 
HETATM   44  C   UNL     1     -16.905 -15.295  -2.247  1.00  0.00     0.042 C 
HETATM   45  O   UNL     1     -15.680 -13.313  -2.882  1.00  0.00    -0.351 OA
BRANCH  40  46
HETATM   46  O   UNL     1     -15.562 -10.916  -1.443  1.00  0.00    -0.388 OA
HETATM   47  H   UNL     1     -15.462 -10.949  -0.466  1.00  0.00     0.210 HD
ENDBRANCH  40  46
BRANCH  41  48
HETATM   48  O   UNL     1     -17.259 -11.776   0.668  1.00  0.00    -0.390 OA
HETATM   49  H   UNL     1     -18.215 -11.624   0.809  1.00  0.00     0.210 HD
ENDBRANCH  41  48
BRANCH  42  50
HETATM   50  O   UNL     1     -14.879 -13.075   0.032  1.00  0.00    -0.390 OA
HETATM   51  H   UNL     1     -14.158 -13.558  -0.425  1.00  0.00     0.210 HD
ENDBRANCH  42  50
ENDBRANCH  38  39
ENDBRANCH  37  38
ENDBRANCH   1  37
BRANCH   2  52
HETATM   52  O   UNL     1     -20.319 -13.862  -4.533  1.00  0.00    -0.390 OA
HETATM   53  H   UNL     1     -20.795 -14.570  -5.024  1.00  0.00     0.210 HD
ENDBRANCH   2  52
TORSDOF 16
BEGIN_RES ARG D 557
REMARK  4 active torsions:
REMARK  status: ('A' for Active; 'I' for Inactive)
REMARK    1  A    between atoms: CA   and  CB  
REMARK    2  A    between atoms: CB   and  CG  
REMARK    3  A    between atoms: CG   and  CD  
REMARK    4  A    between atoms: CD   and  NE  
REMARK       I    between atoms: NE   and  CZ  
REMARK       I    between atoms: CZ   and  NH1 
REMARK       I    between atoms: CZ   and  NH2 
ROOT
ATOM      1  CA  ARG D 557     -26.217   2.705 -17.014  1.00 35.49     0.159 C 
ENDROOT
BRANCH   1   2
ATOM      2  CB  ARG D 557     -26.789   1.319 -17.183  1.00 35.49     0.034 C 
BRANCH   2   3
ATOM      3  CG  ARG D 557     -25.837   0.202 -17.141  1.00 35.49     0.027 C 
BRANCH   3   4
ATOM      4  CD  ARG D 557     -24.754   0.420 -16.155  1.00 35.49     0.116 C 
BRANCH   4   5
ATOM      5  NE  ARG D 557     -24.890  -0.433 -15.004  1.00 35.49    -0.212 N 
ATOM      6  CZ  ARG D 557     -24.070  -1.404 -14.666  1.00 35.49     0.666 C 
ATOM      7  NH1 ARG D 557     -23.007  -1.716 -15.384  1.00 35.49    -0.235 N 
ATOM      8  NH2 ARG D 557     -24.336  -2.062 -13.576  1.00 35.49    -0.235 N 
ATOM      9  HH  ARG D 557     -22.812  -1.295 -16.105  1.00 35.49     0.174 HD
ATOM     10  HH  ARG D 557     -22.508  -2.357 -15.114  1.00 35.49     0.174 HD
ATOM     11  HH  ARG D 557     -25.025  -1.833 -13.128  1.00 35.49     0.174 HD
ATOM     12  HH  ARG D 557     -23.829  -2.693 -13.324  1.00 35.49     0.174 HD
ATOM     13  HE  ARG D 557     -25.587  -0.349 -14.524  1.00 35.49     0.178 HD
ENDBRANCH   4   5
ENDBRANCH   3   4
ENDBRANCH   2   3
ENDBRANCH   1   2
END_RES ARG D 557
BEGIN_RES GLU D 570
REMARK  3 active torsions:
REMARK  status: ('A' for Active; 'I' for Inactive)
REMARK    5  A    between atoms: CA   and  CB  
REMARK    6  A    between atoms: CB   and  CG  
REMARK    7  A    between atoms: CG   and  CD  
ROOT
ATOM     14  CA  GLU D 570     -18.033  -6.348 -13.375  1.00 32.92     0.160 C 
ENDROOT
BRANCH  14  15
ATOM     15  CB  GLU D 570     -19.500  -6.345 -13.794  1.00 32.92     0.043 C 
BRANCH  15  16
ATOM     16  CG  GLU D 570     -20.446  -5.551 -12.968  1.00 32.92     0.100 C 
BRANCH  16  17
ATOM     17  CD  GLU D 570     -21.719  -5.201 -13.703  1.00 32.92     0.185 C 
ATOM     18  OE1 GLU D 570     -22.287  -4.121 -13.450  1.00 32.92    -0.647 OA
ATOM     19  OE2 GLU D 570     -22.163  -6.024 -14.528  1.00 32.92    -0.647 OA
ENDBRANCH  16  17
ENDBRANCH  15  16
ENDBRANCH  14  15
END_RES GLU D 570
ENDMDL
MODEL 6
REMARK VINA RESULT:      -6.7      1.907      5.863
REMARK  16 active torsions:
REMARK  status: ('A' for Active; 'I' for Inactive)
REMARK    1  A    between atoms: C_3  and  O_43 
REMARK    2  A    between atoms: C_4  and  O_42 
REMARK    3  A    between atoms: C_5  and  O_41 
REMARK    4  A    between atoms: C_6  and  O_8 
REMARK    5  A    between atoms: O_8  and  C_9 
REMARK    6  A    between atoms: C_9  and  C_10 
REMARK    7  A    between atoms: C_11  and  O_40 
REMARK    8  A    between atoms: C_12  and  O_39 
REMARK    9  A    between atoms: C_13  and  O_38 
REMARK   10  A    between atoms: C_14  and  O_16 
REMARK   11  A    between atoms: O_16  and  C_17 
REMARK   12  A    between atoms: C_18  and  C_30 
REMARK   13  A    between atoms: C_22  and  O_29 
REMARK   14  A    between atoms: C_24  and  O_28 
REMARK   15  A    between atoms: C_32  and  O_37 
REMARK   16  A    between atoms: C_33  and  O_36 
ROOT
HETATM    1  C   UNL     1     -21.676 -12.220  -3.983  1.00  0.00     0.180 C 
HETATM    2  C   UNL     1     -22.469 -12.537  -2.713  1.00  0.00     0.180 C 
HETATM    3  C   UNL     1     -23.441 -11.408  -2.360  1.00  0.00     0.183 C 
HETATM    4  C   UNL     1     -22.716 -10.063  -2.238  1.00  0.00     0.205 C 
HETATM    5  C   UNL     1     -21.872  -9.797  -3.509  1.00  0.00     0.298 C 
HETATM    6  O   UNL     1     -21.159 -10.890  -4.043  1.00  0.00    -0.348 OA
ENDROOT
BRANCH   5   7
HETATM    7  O   UNL     1     -21.002  -8.654  -3.352  1.00  0.00    -0.311 OA
BRANCH   7   8
HETATM    8  C   UNL     1     -20.813  -7.777  -4.421  1.00  0.00     0.157 C 
HETATM    9  C   UNL     1     -19.725  -7.900  -5.214  1.00  0.00     0.124 C 
HETATM   10  O   UNL     1     -19.442  -7.090  -6.304  1.00  0.00    -0.306 OA
HETATM   11  C   UNL     1     -20.407  -6.253  -6.781  1.00  0.00     0.096 A 
HETATM   12  C   UNL     1     -20.182  -5.650  -8.016  1.00  0.00     0.075 A 
HETATM   13  C   UNL     1     -21.582  -6.009  -6.096  1.00  0.00     0.084 A 
HETATM   14  C   UNL     1     -21.149  -4.808  -8.547  1.00  0.00     0.071 A 
HETATM   15  C   UNL     1     -22.341  -4.564  -7.878  1.00  0.00     0.074 A 
HETATM   16  C   UNL     1     -22.565  -5.175  -6.654  1.00  0.00     0.085 A 
HETATM   17  C   UNL     1     -21.778  -6.689  -4.817  1.00  0.00     0.223 C 
HETATM   18  O   UNL     1     -22.779  -6.388  -4.188  1.00  0.00    -0.284 OA
BRANCH   9  19
HETATM   19  C   UNL     1     -18.658  -8.900  -5.064  1.00  0.00     0.004 A 
HETATM   20  C   UNL     1     -18.222  -9.231  -3.773  1.00  0.00     0.053 A 
HETATM   21  C   UNL     1     -16.983  -9.840  -3.614  1.00  0.00     0.099 A 
HETATM   22  C   UNL     1     -16.203 -10.162  -4.725  1.00  0.00     0.098 A 
HETATM   23  C   UNL     1     -16.660  -9.918  -6.012  1.00  0.00     0.040 A 
HETATM   24  C   UNL     1     -17.889  -9.274  -6.182  1.00  0.00     0.017 A 
BRANCH  21  25
HETATM   25  O   UNL     1     -16.453 -10.072  -2.374  1.00  0.00    -0.358 OA
HETATM   26  H   UNL     1     -16.633 -10.999  -2.138  1.00  0.00     0.217 HD
ENDBRANCH  21  25
BRANCH  22  27
HETATM   27  O   UNL     1     -14.951 -10.676  -4.545  1.00  0.00    -0.358 OA
HETATM   28  H   UNL     1     -14.544 -10.100  -3.869  1.00  0.00     0.217 HD
ENDBRANCH  22  27
ENDBRANCH   9  19
BRANCH  14  29
HETATM   29  O   UNL     1     -20.978  -4.195  -9.749  1.00  0.00    -0.361 OA
HETATM   30  H   UNL     1     -21.836  -4.126 -10.197  1.00  0.00     0.217 HD
ENDBRANCH  14  29
BRANCH  16  31
HETATM   31  O   UNL     1     -23.769  -4.981  -6.037  1.00  0.00    -0.360 OA
HETATM   32  H   UNL     1     -24.446  -5.559  -6.420  1.00  0.00     0.217 HD
ENDBRANCH  16  31
ENDBRANCH   7   8
ENDBRANCH   5   7
BRANCH   4  33
HETATM   33  O   UNL     1     -21.946 -10.045  -1.018  1.00  0.00    -0.388 OA
HETATM   34  H   UNL     1     -22.591 -10.031  -0.287  1.00  0.00     0.210 HD
ENDBRANCH   4  33
BRANCH   3  35
HETATM   35  O   UNL     1     -24.096 -11.716  -1.124  1.00  0.00    -0.390 OA
HETATM   36  H   UNL     1     -24.644 -12.516  -1.331  1.00  0.00     0.210 HD
ENDBRANCH   3  35
BRANCH   1  37
HETATM   37  C   UNL     1     -22.398 -12.487  -5.294  1.00  0.00     0.205 C 
BRANCH  37  38
HETATM   38  O   UNL     1     -21.407 -12.298  -6.310  1.00  0.00    -0.356 OA
BRANCH  38  39
HETATM   39  C   UNL     1     -20.443 -13.329  -6.357  1.00  0.00     0.291 C 
HETATM   40  C   UNL     1     -19.097 -12.665  -6.695  1.00  0.00     0.204 C 
HETATM   41  C   UNL     1     -18.029 -13.757  -6.702  1.00  0.00     0.183 C 
HETATM   42  C   UNL     1     -18.397 -14.867  -7.706  1.00  0.00     0.178 C 
HETATM   43  C   UNL     1     -19.852 -15.348  -7.522  1.00  0.00     0.152 C 
HETATM   44  C   UNL     1     -20.042 -16.315  -6.361  1.00  0.00     0.042 C 
HETATM   45  O   UNL     1     -20.777 -14.257  -7.388  1.00  0.00    -0.351 OA
BRANCH  40  46
HETATM   46  O   UNL     1     -19.165 -12.056  -8.010  1.00  0.00    -0.388 OA
HETATM   47  H   UNL     1     -18.462 -12.504  -8.530  1.00  0.00     0.210 HD
ENDBRANCH  40  46
BRANCH  41  48
HETATM   48  O   UNL     1     -16.755 -13.190  -7.018  1.00  0.00    -0.390 OA
HETATM   49  H   UNL     1     -16.349 -13.814  -7.654  1.00  0.00     0.210 HD
ENDBRANCH  41  48
BRANCH  42  50
HETATM   50  O   UNL     1     -18.245 -14.375  -9.050  1.00  0.00    -0.390 OA
HETATM   51  H   UNL     1     -19.019 -13.799  -9.228  1.00  0.00     0.210 HD
ENDBRANCH  42  50
ENDBRANCH  38  39
ENDBRANCH  37  38
ENDBRANCH   1  37
BRANCH   2  52
HETATM   52  O   UNL     1     -21.577 -12.726  -1.590  1.00  0.00    -0.390 OA
HETATM   53  H   UNL     1     -20.896 -12.015  -1.608  1.00  0.00     0.210 HD
ENDBRANCH   2  52
TORSDOF 16
BEGIN_RES ARG D 557
REMARK  4 active torsions:
REMARK  status: ('A' for Active; 'I' for Inactive)
REMARK    1  A    between atoms: CA   and  CB  
REMARK    2  A    between atoms: CB   and  CG  
REMARK    3  A    between atoms: CG   and  CD  
REMARK    4  A    between atoms: CD   and  NE  
REMARK       I    between atoms: NE   and  CZ  
REMARK       I    between atoms: CZ   and  NH1 
REMARK       I    between atoms: CZ   and  NH2 
ROOT
ATOM      1  CA  ARG D 557     -26.217   2.705 -17.014  1.00 35.49     0.159 C 
ENDROOT
BRANCH   1   2
ATOM      2  CB  ARG D 557     -26.789   1.319 -17.183  1.00 35.49     0.034 C 
BRANCH   2   3
ATOM      3  CG  ARG D 557     -25.872   0.194 -16.963  1.00 35.49     0.027 C 
BRANCH   3   4
ATOM      4  CD  ARG D 557     -26.314  -0.686 -15.858  1.00 35.49     0.116 C 
BRANCH   4   5
ATOM      5  NE  ARG D 557     -25.261  -0.936 -14.909  1.00 35.49    -0.212 N 
ATOM      6  CZ  ARG D 557     -24.973  -2.100 -14.370  1.00 35.49     0.666 C 
ATOM      7  NH1 ARG D 557     -25.655  -3.196 -14.643  1.00 35.49    -0.235 N 
ATOM      8  NH2 ARG D 557     -23.968  -2.146 -13.543  1.00 35.49    -0.235 N 
ATOM      9  HH  ARG D 557     -26.318  -3.189 -15.186  1.00 35.49     0.174 HD
ATOM     10  HH  ARG D 557     -25.420  -3.927 -14.263  1.00 35.49     0.174 HD
ATOM     11  HH  ARG D 557     -23.541  -1.424 -13.391  1.00 35.49     0.174 HD
ATOM     12  HH  ARG D 557     -23.750  -2.880 -13.179  1.00 35.49     0.174 HD
ATOM     13  HE  ARG D 557     -24.816  -0.271 -14.621  1.00 35.49     0.178 HD
ENDBRANCH   4   5
ENDBRANCH   3   4
ENDBRANCH   2   3
ENDBRANCH   1   2
END_RES ARG D 557
BEGIN_RES GLU D 570
REMARK  3 active torsions:
REMARK  status: ('A' for Active; 'I' for Inactive)
REMARK    5  A    between atoms: CA   and  CB  
REMARK    6  A    between atoms: CB   and  CG  
REMARK    7  A    between atoms: CG   and  CD  
ROOT
ATOM     14  CA  GLU D 570     -18.033  -6.348 -13.375  1.00 32.92     0.160 C 
ENDROOT
BRANCH  14  15
ATOM     15  CB  GLU D 570     -19.500  -6.345 -13.794  1.00 32.92     0.043 C 
BRANCH  15  16
ATOM     16  CG  GLU D 570     -20.448  -5.560 -12.962  1.00 32.92     0.100 C 
BRANCH  16  17
ATOM     17  CD  GLU D 570     -21.702  -5.169 -13.708  1.00 32.92     0.185 C 
ATOM     18  OE1 GLU D 570     -22.726  -4.877 -13.060  1.00 32.92    -0.647 OA
ATOM     19  OE2 GLU D 570     -21.666  -5.170 -14.954  1.00 32.92    -0.647 OA
ENDBRANCH  16  17
ENDBRANCH  15  16
ENDBRANCH  14  15
END_RES GLU D 570
ENDMDL
MODEL 7
REMARK VINA RESULT:      -6.5      3.025      6.253
REMARK  16 active torsions:
REMARK  status: ('A' for Active; 'I' for Inactive)
REMARK    1  A    between atoms: C_3  and  O_43 
REMARK    2  A    between atoms: C_4  and  O_42 
REMARK    3  A    between atoms: C_5  and  O_41 
REMARK    4  A    between atoms: C_6  and  O_8 
REMARK    5  A    between atoms: O_8  and  C_9 
REMARK    6  A    between atoms: C_9  and  C_10 
REMARK    7  A    between atoms: C_11  and  O_40 
REMARK    8  A    between atoms: C_12  and  O_39 
REMARK    9  A    between atoms: C_13  and  O_38 
REMARK   10  A    between atoms: C_14  and  O_16 
REMARK   11  A    between atoms: O_16  and  C_17 
REMARK   12  A    between atoms: C_18  and  C_30 
REMARK   13  A    between atoms: C_22  and  O_29 
REMARK   14  A    between atoms: C_24  and  O_28 
REMARK   15  A    between atoms: C_32  and  O_37 
REMARK   16  A    between atoms: C_33  and  O_36 
ROOT
HETATM    1  C   UNL     1     -20.438 -12.347  -0.302  1.00  0.00     0.180 C 
HETATM    2  C   UNL     1     -21.698 -11.824   0.391  1.00  0.00     0.180 C 
HETATM    3  C   UNL     1     -22.954 -12.098  -0.442  1.00  0.00     0.183 C 
HETATM    4  C   UNL     1     -22.822 -11.526  -1.858  1.00  0.00     0.205 C 
HETATM    5  C   UNL     1     -21.508 -12.022  -2.511  1.00  0.00     0.298 C 
HETATM    6  O   UNL     1     -20.359 -12.047  -1.695  1.00  0.00    -0.348 OA
ENDROOT
BRANCH   5   7
HETATM    7  O   UNL     1     -21.231 -11.340  -3.755  1.00  0.00    -0.311 OA
BRANCH   7   8
HETATM    8  C   UNL     1     -19.917 -11.250  -4.217  1.00  0.00     0.157 C 
HETATM    9  C   UNL     1     -19.258 -10.072  -4.157  1.00  0.00     0.124 C 
HETATM   10  O   UNL     1     -17.951  -9.871  -4.581  1.00  0.00    -0.306 OA
HETATM   11  C   UNL     1     -17.170 -10.952  -4.867  1.00  0.00     0.096 A 
HETATM   12  C   UNL     1     -15.806 -10.731  -5.037  1.00  0.00     0.075 A 
HETATM   13  C   UNL     1     -17.682 -12.231  -4.968  1.00  0.00     0.084 A 
HETATM   14  C   UNL     1     -14.972 -11.807  -5.308  1.00  0.00     0.071 A 
HETATM   15  C   UNL     1     -15.470 -13.101  -5.399  1.00  0.00     0.074 A 
HETATM   16  C   UNL     1     -16.826 -13.317  -5.217  1.00  0.00     0.085 A 
HETATM   17  C   UNL     1     -19.117 -12.409  -4.753  1.00  0.00     0.223 C 
HETATM   18  O   UNL     1     -19.561 -13.530  -4.938  1.00  0.00    -0.284 OA
BRANCH   9  19
HETATM   19  C   UNL     1     -19.799  -8.806  -3.644  1.00  0.00     0.004 A 
HETATM   20  C   UNL     1     -20.045  -8.686  -2.269  1.00  0.00     0.053 A 
HETATM   21  C   UNL     1     -20.907  -7.693  -1.820  1.00  0.00     0.099 A 
HETATM   22  C   UNL     1     -21.486  -6.796  -2.719  1.00  0.00     0.098 A 
HETATM   23  C   UNL     1     -21.184  -6.850  -4.072  1.00  0.00     0.040 A 
HETATM   24  C   UNL     1     -20.346  -7.866  -4.538  1.00  0.00     0.017 A 
BRANCH  21  25
HETATM   25  O   UNL     1     -21.280  -7.608  -0.506  1.00  0.00    -0.358 OA
HETATM   26  H   UNL     1     -22.252  -7.628  -0.467  1.00  0.00     0.217 HD
ENDBRANCH  21  25
BRANCH  22  27
HETATM   27  O   UNL     1     -22.400  -5.886  -2.272  1.00  0.00    -0.358 OA
HETATM   28  H   UNL     1     -22.989  -6.399  -1.684  1.00  0.00     0.217 HD
ENDBRANCH  22  27
ENDBRANCH   9  19
BRANCH  14  29
HETATM   29  O   UNL     1     -13.634 -11.646  -5.483  1.00  0.00    -0.361 OA
HETATM   30  H   UNL     1     -13.426 -10.698  -5.507  1.00  0.00     0.217 HD
ENDBRANCH  14  29
BRANCH  16  31
HETATM   31  O   UNL     1     -17.293 -14.601  -5.243  1.00  0.00    -0.360 OA
HETATM   32  H   UNL     1     -17.726 -14.790  -6.090  1.00  0.00     0.217 HD
ENDBRANCH  16  31
ENDBRANCH   7   8
ENDBRANCH   5   7
BRANCH   4  33
HETATM   33  O   UNL     1     -22.935 -10.089  -1.804  1.00  0.00    -0.388 OA
HETATM   34  H   UNL     1     -23.273  -9.807  -2.674  1.00  0.00     0.210 HD
ENDBRANCH   4  33
BRANCH   3  35
HETATM   35  O   UNL     1     -24.090 -11.517   0.208  1.00  0.00    -0.390 OA
HETATM   36  H   UNL     1     -24.748 -11.386  -0.522  1.00  0.00     0.210 HD
ENDBRANCH   3  35
BRANCH   1  37
HETATM   37  C   UNL     1     -20.169 -13.836  -0.141  1.00  0.00     0.205 C 
BRANCH  37  38
HETATM   38  O   UNL     1     -19.033 -13.917   0.726  1.00  0.00    -0.356 OA
BRANCH  38  39
HETATM   39  C   UNL     1     -17.812 -13.610   0.087  1.00  0.00     0.291 C 
HETATM   40  C   UNL     1     -16.860 -14.789   0.354  1.00  0.00     0.204 C 
HETATM   41  C   UNL     1     -15.548 -14.501  -0.371  1.00  0.00     0.183 C 
HETATM   42  C   UNL     1     -14.954 -13.158   0.099  1.00  0.00     0.178 C 
HETATM   43  C   UNL     1     -16.003 -12.026   0.072  1.00  0.00     0.152 C 
HETATM   44  C   UNL     1     -16.252 -11.447  -1.314  1.00  0.00     0.042 C 
HETATM   45  O   UNL     1     -17.255 -12.424   0.653  1.00  0.00    -0.351 OA
BRANCH  40  46
HETATM   46  O   UNL     1     -16.605 -14.902   1.778  1.00  0.00    -0.388 OA
HETATM   47  H   UNL     1     -15.834 -15.507   1.846  1.00  0.00     0.210 HD
ENDBRANCH  40  46
BRANCH  41  48
HETATM   48  O   UNL     1     -14.623 -15.569  -0.148  1.00  0.00    -0.390 OA
HETATM   49  H   UNL     1     -15.159 -16.386  -0.202  1.00  0.00     0.210 HD
ENDBRANCH  41  48
BRANCH  42  50
HETATM   50  O   UNL     1     -14.461 -13.290   1.445  1.00  0.00    -0.390 OA
HETATM   51  H   UNL     1     -14.850 -14.114   1.808  1.00  0.00     0.210 HD
ENDBRANCH  42  50
ENDBRANCH  38  39
ENDBRANCH  37  38
ENDBRANCH   1  37
BRANCH   2  52
HETATM   52  O   UNL     1     -21.606 -10.395   0.602  1.00  0.00    -0.390 OA
HETATM   53  H   UNL     1     -20.666 -10.167   0.788  1.00  0.00     0.210 HD
ENDBRANCH   2  52
TORSDOF 16
BEGIN_RES ARG D 557
REMARK  4 active torsions:
REMARK  status: ('A' for Active; 'I' for Inactive)
REMARK    1  A    between atoms: CA   and  CB  
REMARK    2  A    between atoms: CB   and  CG  
REMARK    3  A    between atoms: CG   and  CD  
REMARK    4  A    between atoms: CD   and  NE  
REMARK       I    between atoms: NE   and  CZ  
REMARK       I    between atoms: CZ   and  NH1 
REMARK       I    between atoms: CZ   and  NH2 
ROOT
ATOM      1  CA  ARG D 557     -26.217   2.705 -17.014  1.00 35.49     0.159 C 
ENDROOT
BRANCH   1   2
ATOM      2  CB  ARG D 557     -26.789   1.319 -17.183  1.00 35.49     0.034 C 
BRANCH   2   3
ATOM      3  CG  ARG D 557     -25.866   0.195 -16.987  1.00 35.49     0.027 C 
BRANCH   3   4
ATOM      4  CD  ARG D 557     -26.293  -0.702 -15.889  1.00 35.49     0.116 C 
BRANCH   4   5
ATOM      5  NE  ARG D 557     -25.244  -0.921 -14.929  1.00 35.49    -0.212 N 
ATOM      6  CZ  ARG D 557     -24.953  -2.068 -14.357  1.00 35.49     0.666 C 
ATOM      7  NH1 ARG D 557     -25.628  -3.175 -14.605  1.00 35.49    -0.235 N 
ATOM      8  NH2 ARG D 557     -23.953  -2.088 -13.525  1.00 35.49    -0.235 N 
ATOM      9  HH  ARG D 557     -26.289  -3.186 -15.151  1.00 35.49     0.174 HD
ATOM     10  HH  ARG D 557     -25.391  -3.895 -14.205  1.00 35.49     0.174 HD
ATOM     11  HH  ARG D 557     -23.530  -1.360 -13.390  1.00 35.49     0.174 HD
ATOM     12  HH  ARG D 557     -23.733  -2.811 -13.140  1.00 35.49     0.174 HD
ATOM     13  HE  ARG D 557     -24.804  -0.246 -14.656  1.00 35.49     0.178 HD
ENDBRANCH   4   5
ENDBRANCH   3   4
ENDBRANCH   2   3
ENDBRANCH   1   2
END_RES ARG D 557
BEGIN_RES GLU D 570
REMARK  3 active torsions:
REMARK  status: ('A' for Active; 'I' for Inactive)
REMARK    5  A    between atoms: CA   and  CB  
REMARK    6  A    between atoms: CB   and  CG  
REMARK    7  A    between atoms: CG   and  CD  
ROOT
ATOM     14  CA  GLU D 570     -18.033  -6.348 -13.375  1.00 32.92     0.160 C 
ENDROOT
BRANCH  14  15
ATOM     15  CB  GLU D 570     -19.500  -6.345 -13.794  1.00 32.92     0.043 C 
BRANCH  15  16
ATOM     16  CG  GLU D 570     -20.448  -5.560 -12.962  1.00 32.92     0.100 C 
BRANCH  16  17
ATOM     17  CD  GLU D 570     -21.681  -5.129 -13.721  1.00 32.92     0.185 C 
ATOM     18  OE1 GLU D 570     -22.715  -4.846 -13.085  1.00 32.92    -0.647 OA
ATOM     19  OE2 GLU D 570     -21.618  -5.091 -14.965  1.00 32.92    -0.647 OA
ENDBRANCH  16  17
ENDBRANCH  15  16
ENDBRANCH  14  15
END_RES GLU D 570
ENDMDL
MODEL 8
REMARK VINA RESULT:      -6.4      2.781      4.375
REMARK  16 active torsions:
REMARK  status: ('A' for Active; 'I' for Inactive)
REMARK    1  A    between atoms: C_3  and  O_43 
REMARK    2  A    between atoms: C_4  and  O_42 
REMARK    3  A    between atoms: C_5  and  O_41 
REMARK    4  A    between atoms: C_6  and  O_8 
REMARK    5  A    between atoms: O_8  and  C_9 
REMARK    6  A    between atoms: C_9  and  C_10 
REMARK    7  A    between atoms: C_11  and  O_40 
REMARK    8  A    between atoms: C_12  and  O_39 
REMARK    9  A    between atoms: C_13  and  O_38 
REMARK   10  A    between atoms: C_14  and  O_16 
REMARK   11  A    between atoms: O_16  and  C_17 
REMARK   12  A    between atoms: C_18  and  C_30 
REMARK   13  A    between atoms: C_22  and  O_29 
REMARK   14  A    between atoms: C_24  and  O_28 
REMARK   15  A    between atoms: C_32  and  O_37 
REMARK   16  A    between atoms: C_33  and  O_36 
ROOT
HETATM    1  C   UNL     1     -18.713 -11.996  -5.119  1.00  0.00     0.180 C 
HETATM    2  C   UNL     1     -19.411 -13.272  -5.593  1.00  0.00     0.180 C 
HETATM    3  C   UNL     1     -20.186 -13.041  -6.894  1.00  0.00     0.183 C 
HETATM    4  C   UNL     1     -21.183 -11.885  -6.753  1.00  0.00     0.205 C 
HETATM    5  C   UNL     1     -20.462 -10.625  -6.213  1.00  0.00     0.298 C 
HETATM    6  O   UNL     1     -19.521 -10.820  -5.181  1.00  0.00    -0.348 OA
ENDROOT
BRANCH   5   7
HETATM    7  O   UNL     1     -21.394  -9.579  -5.856  1.00  0.00    -0.311 OA
BRANCH   7   8
HETATM    8  C   UNL     1     -21.487  -9.159  -4.528  1.00  0.00     0.157 C 
HETATM    9  C   UNL     1     -21.334  -7.853  -4.219  1.00  0.00     0.124 C 
HETATM   10  O   UNL     1     -21.412  -7.326  -2.938  1.00  0.00    -0.306 OA
HETATM   11  C   UNL     1     -21.901  -8.100  -1.928  1.00  0.00     0.096 A 
HETATM   12  C   UNL     1     -22.206  -7.469  -0.724  1.00  0.00     0.075 A 
HETATM   13  C   UNL     1     -22.117  -9.457  -2.071  1.00  0.00     0.084 A 
HETATM   14  C   UNL     1     -22.726  -8.218   0.323  1.00  0.00     0.071 A 
HETATM   15  C   UNL     1     -22.962  -9.580   0.189  1.00  0.00     0.074 A 
HETATM   16  C   UNL     1     -22.668 -10.201  -1.014  1.00  0.00     0.085 A 
HETATM   17  C   UNL     1     -21.806 -10.063  -3.365  1.00  0.00     0.223 C 
HETATM   18  O   UNL     1     -21.917 -11.276  -3.440  1.00  0.00    -0.284 OA
BRANCH   9  19
HETATM   19  C   UNL     1     -21.055  -6.769  -5.171  1.00  0.00     0.004 A 
HETATM   20  C   UNL     1     -22.098  -5.904  -5.533  1.00  0.00     0.053 A 
HETATM   21  C   UNL     1     -21.982  -5.152  -6.695  1.00  0.00     0.099 A 
HETATM   22  C   UNL     1     -20.824  -5.221  -7.471  1.00  0.00     0.098 A 
HETATM   23  C   UNL     1     -19.749  -6.007  -7.080  1.00  0.00     0.040 A 
HETATM   24  C   UNL     1     -19.870  -6.793  -5.931  1.00  0.00     0.017 A 
BRANCH  21  25
HETATM   25  O   UNL     1     -23.016  -4.388  -7.161  1.00  0.00    -0.358 OA
HETATM   26  H   UNL     1     -22.766  -3.452  -7.068  1.00  0.00     0.217 HD
ENDBRANCH  21  25
BRANCH  22  27
HETATM   27  O   UNL     1     -20.763  -4.546  -8.657  1.00  0.00    -0.358 OA
HETATM   28  H   UNL     1     -19.817  -4.566  -8.902  1.00  0.00     0.217 HD
ENDBRANCH  22  27
ENDBRANCH   9  19
BRANCH  14  29
HETATM   29  O   UNL     1     -23.039  -7.651   1.518  1.00  0.00    -0.361 OA
HETATM   30  H   UNL     1     -23.442  -6.781   1.364  1.00  0.00     0.217 HD
ENDBRANCH  14  29
BRANCH  16  31
HETATM   31  O   UNL     1     -22.966 -11.527  -1.156  1.00  0.00    -0.360 OA
HETATM   32  H   UNL     1     -23.860 -11.713  -0.830  1.00  0.00     0.217 HD
ENDBRANCH  16  31
ENDBRANCH   7   8
ENDBRANCH   5   7
BRANCH   4  33
HETATM   33  O   UNL     1     -22.294 -12.310  -5.938  1.00  0.00    -0.388 OA
HETATM   34  H   UNL     1     -22.916 -11.560  -5.909  1.00  0.00     0.210 HD
ENDBRANCH   4  33
BRANCH   3  35
HETATM   35  O   UNL     1     -20.886 -14.240  -7.248  1.00  0.00    -0.390 OA
HETATM   36  H   UNL     1     -21.211 -14.597  -6.382  1.00  0.00     0.210 HD
ENDBRANCH   3  35
BRANCH   1  37
HETATM   37  C   UNL     1     -17.392 -11.676  -5.802  1.00  0.00     0.205 C 
BRANCH  37  38
HETATM   38  O   UNL     1     -16.531 -12.774  -5.479  1.00  0.00    -0.356 OA
BRANCH  38  39
HETATM   39  C   UNL     1     -15.803 -12.589  -4.283  1.00  0.00     0.291 C 
HETATM   40  C   UNL     1     -14.550 -13.474  -4.383  1.00  0.00     0.204 C 
HETATM   41  C   UNL     1     -13.721 -13.251  -3.120  1.00  0.00     0.183 C 
HETATM   42  C   UNL     1     -14.556 -13.566  -1.863  1.00  0.00     0.178 C 
HETATM   43  C   UNL     1     -15.933 -12.869  -1.899  1.00  0.00     0.152 C 
HETATM   44  C   UNL     1     -15.890 -11.395  -1.518  1.00  0.00     0.042 C 
HETATM   45  O   UNL     1     -16.587 -13.014  -3.169  1.00  0.00    -0.351 OA
BRANCH  40  46
HETATM   46  O   UNL     1     -14.938 -14.870  -4.458  1.00  0.00    -0.388 OA
HETATM   47  H   UNL     1     -15.875 -14.886  -4.161  1.00  0.00     0.210 HD
ENDBRANCH  40  46
BRANCH  41  48
HETATM   48  O   UNL     1     -12.542 -14.060  -3.160  1.00  0.00    -0.390 OA
HETATM   49  H   UNL     1     -12.863 -14.970  -3.328  1.00  0.00     0.210 HD
ENDBRANCH  41  48
BRANCH  42  50
HETATM   50  O   UNL     1     -14.766 -14.987  -1.763  1.00  0.00    -0.390 OA
HETATM   51  H   UNL     1     -15.605 -15.180  -2.233  1.00  0.00     0.210 HD
ENDBRANCH  42  50
ENDBRANCH  38  39
ENDBRANCH  37  38
ENDBRANCH   1  37
BRANCH   2  52
HETATM   52  O   UNL     1     -20.346 -13.742  -4.594  1.00  0.00    -0.390 OA
HETATM   53  H   UNL     1     -20.752 -14.580  -4.915  1.00  0.00     0.210 HD
ENDBRANCH   2  52
TORSDOF 16
BEGIN_RES ARG D 557
REMARK  4 active torsions:
REMARK  status: ('A' for Active; 'I' for Inactive)
REMARK    1  A    between atoms: CA   and  CB  
REMARK    2  A    between atoms: CB   and  CG  
REMARK    3  A    between atoms: CG   and  CD  
REMARK    4  A    between atoms: CD   and  NE  
REMARK       I    between atoms: NE   and  CZ  
REMARK       I    between atoms: CZ   and  NH1 
REMARK       I    between atoms: CZ   and  NH2 
ROOT
ATOM      1  CA  ARG D 557     -26.217   2.705 -17.014  1.00 35.49     0.159 C 
ENDROOT
BRANCH   1   2
ATOM      2  CB  ARG D 557     -26.789   1.319 -17.183  1.00 35.49     0.034 C 
BRANCH   2   3
ATOM      3  CG  ARG D 557     -28.237   1.224 -17.405  1.00 35.49     0.027 C 
BRANCH   3   4
ATOM      4  CD  ARG D 557     -28.890   0.279 -16.471  1.00 35.49     0.116 C 
BRANCH   4   5
ATOM      5  NE  ARG D 557     -29.270  -0.949 -17.120  1.00 35.49    -0.212 N 
ATOM      6  CZ  ARG D 557     -28.637  -2.096 -17.023  1.00 35.49     0.666 C 
ATOM      7  NH1 ARG D 557     -27.539  -2.242 -16.306  1.00 35.49    -0.235 N 
ATOM      8  NH2 ARG D 557     -29.137  -3.113 -17.664  1.00 35.49    -0.235 N 
ATOM      9  HH  ARG D 557     -27.194  -1.587 -15.874  1.00 35.49     0.174 HD
ATOM     10  HH  ARG D 557     -27.171  -3.015 -16.278  1.00 35.49     0.174 HD
ATOM     11  HH  ARG D 557     -29.851  -2.991 -18.114  1.00 35.49     0.174 HD
ATOM     12  HH  ARG D 557     -28.758  -3.871 -17.623  1.00 35.49     0.174 HD
ATOM     13  HE  ARG D 557     -29.926  -0.928 -17.661  1.00 35.49     0.178 HD
ENDBRANCH   4   5
ENDBRANCH   3   4
ENDBRANCH   2   3
ENDBRANCH   1   2
END_RES ARG D 557
BEGIN_RES GLU D 570
REMARK  3 active torsions:
REMARK  status: ('A' for Active; 'I' for Inactive)
REMARK    5  A    between atoms: CA   and  CB  
REMARK    6  A    between atoms: CB   and  CG  
REMARK    7  A    between atoms: CG   and  CD  
ROOT
ATOM     14  CA  GLU D 570     -18.033  -6.348 -13.375  1.00 32.92     0.160 C 
ENDROOT
BRANCH  14  15
ATOM     15  CB  GLU D 570     -19.500  -6.345 -13.794  1.00 32.92     0.043 C 
BRANCH  15  16
ATOM     16  CG  GLU D 570     -19.803  -6.071 -15.222  1.00 32.92     0.100 C 
BRANCH  16  17
ATOM     17  CD  GLU D 570     -21.270  -5.807 -15.473  1.00 32.92     0.185 C 
ATOM     18  OE1 GLU D 570     -22.114  -6.603 -15.019  1.00 32.92    -0.647 OA
ATOM     19  OE2 GLU D 570     -21.576  -4.803 -16.146  1.00 32.92    -0.647 OA
ENDBRANCH  16  17
ENDBRANCH  15  16
ENDBRANCH  14  15
END_RES GLU D 570
ENDMDL
MODEL 9
REMARK VINA RESULT:      -6.4      2.784      6.214
REMARK  16 active torsions:
REMARK  status: ('A' for Active; 'I' for Inactive)
REMARK    1  A    between atoms: C_3  and  O_43 
REMARK    2  A    between atoms: C_4  and  O_42 
REMARK    3  A    between atoms: C_5  and  O_41 
REMARK    4  A    between atoms: C_6  and  O_8 
REMARK    5  A    between atoms: O_8  and  C_9 
REMARK    6  A    between atoms: C_9  and  C_10 
REMARK    7  A    between atoms: C_11  and  O_40 
REMARK    8  A    between atoms: C_12  and  O_39 
REMARK    9  A    between atoms: C_13  and  O_38 
REMARK   10  A    between atoms: C_14  and  O_16 
REMARK   11  A    between atoms: O_16  and  C_17 
REMARK   12  A    between atoms: C_18  and  C_30 
REMARK   13  A    between atoms: C_22  and  O_29 
REMARK   14  A    between atoms: C_24  and  O_28 
REMARK   15  A    between atoms: C_32  and  O_37 
REMARK   16  A    between atoms: C_33  and  O_36 
ROOT
HETATM    1  C   UNL     1     -20.204 -12.219  -0.366  1.00  0.00     0.180 C 
HETATM    2  C   UNL     1     -21.426 -11.848   0.477  1.00  0.00     0.180 C 
HETATM    3  C   UNL     1     -22.728 -12.307  -0.186  1.00  0.00     0.183 C 
HETATM    4  C   UNL     1     -22.852 -11.761  -1.612  1.00  0.00     0.205 C 
HETATM    5  C   UNL     1     -21.577 -12.097  -2.423  1.00  0.00     0.298 C 
HETATM    6  O   UNL     1     -20.341 -11.949  -1.761  1.00  0.00    -0.348 OA
ENDROOT
BRANCH   5   7
HETATM    7  O   UNL     1     -21.552 -11.418  -3.700  1.00  0.00    -0.311 OA
BRANCH   7   8
HETATM    8  C   UNL     1     -20.358 -11.341  -4.418  1.00  0.00     0.157 C 
HETATM    9  C   UNL     1     -19.709 -10.161  -4.530  1.00  0.00     0.124 C 
HETATM   10  O   UNL     1     -18.517  -9.971  -5.214  1.00  0.00    -0.306 OA
HETATM   11  C   UNL     1     -17.800 -11.059  -5.616  1.00  0.00     0.096 A 
HETATM   12  C   UNL     1     -16.499 -10.841  -6.064  1.00  0.00     0.075 A 
HETATM   13  C   UNL     1     -18.311 -12.342  -5.572  1.00  0.00     0.084 A 
HETATM   14  C   UNL     1     -15.728 -11.925  -6.463  1.00  0.00     0.071 A 
HETATM   15  C   UNL     1     -16.223 -13.222  -6.411  1.00  0.00     0.074 A 
HETATM   16  C   UNL     1     -17.513 -13.434  -5.953  1.00  0.00     0.085 A 
HETATM   17  C   UNL     1     -19.672 -12.516  -5.067  1.00  0.00     0.223 C 
HETATM   18  O   UNL     1     -20.134 -13.644  -5.124  1.00  0.00    -0.284 OA
BRANCH   9  19
HETATM   19  C   UNL     1     -20.148  -8.879  -3.959  1.00  0.00     0.004 A 
HETATM   20  C   UNL     1     -20.185  -8.740  -2.564  1.00  0.00     0.053 A 
HETATM   21  C   UNL     1     -20.954  -7.727  -2.005  1.00  0.00     0.099 A 
HETATM   22  C   UNL     1     -21.645  -6.830  -2.820  1.00  0.00     0.098 A 
HETATM   23  C   UNL     1     -21.548  -6.903  -4.202  1.00  0.00     0.040 A 
HETATM   24  C   UNL     1     -20.806  -7.939  -4.775  1.00  0.00     0.017 A 
BRANCH  21  25
HETATM   25  O   UNL     1     -21.126  -7.622  -0.652  1.00  0.00    -0.358 OA
HETATM   26  H   UNL     1     -21.885  -8.177  -0.400  1.00  0.00     0.217 HD
ENDBRANCH  21  25
BRANCH  22  27
HETATM   27  O   UNL     1     -22.467  -5.898  -2.254  1.00  0.00    -0.358 OA
HETATM   28  H   UNL     1     -21.965  -5.062  -2.310  1.00  0.00     0.217 HD
ENDBRANCH  22  27
ENDBRANCH   9  19
BRANCH  14  29
HETATM   29  O   UNL     1     -14.454 -11.766  -6.908  1.00  0.00    -0.361 OA
HETATM   30  H   UNL     1     -14.164 -12.582  -7.348  1.00  0.00     0.217 HD
ENDBRANCH  14  29
BRANCH  16  31
HETATM   31  O   UNL     1     -17.965 -14.719  -5.844  1.00  0.00    -0.360 OA
HETATM   32  H   UNL     1     -17.592 -15.273  -6.547  1.00  0.00     0.217 HD
ENDBRANCH  16  31
ENDBRANCH   7   8
ENDBRANCH   5   7
BRANCH   4  33
HETATM   33  O   UNL     1     -23.149 -10.351  -1.559  1.00  0.00    -0.388 OA
HETATM   34  H   UNL     1     -23.876 -10.199  -2.191  1.00  0.00     0.210 HD
ENDBRANCH   4  33
BRANCH   3  35
HETATM   35  O   UNL     1     -23.841 -11.863   0.599  1.00  0.00    -0.390 OA
HETATM   36  H   UNL     1     -23.580 -10.956   0.901  1.00  0.00     0.210 HD
ENDBRANCH   3  35
BRANCH   1  37
HETATM   37  C   UNL     1     -19.720 -13.655  -0.226  1.00  0.00     0.205 C 
BRANCH  37  38
HETATM   38  O   UNL     1     -18.785 -13.837  -1.295  1.00  0.00    -0.356 OA
BRANCH  38  39
HETATM   39  C   UNL     1     -17.486 -13.376  -0.993  1.00  0.00     0.291 C 
HETATM   40  C   UNL     1     -16.719 -13.300  -2.324  1.00  0.00     0.204 C 
HETATM   41  C   UNL     1     -15.323 -12.755  -2.027  1.00  0.00     0.183 C 
HETATM   42  C   UNL     1     -14.605 -13.644  -0.994  1.00  0.00     0.178 C 
HETATM   43  C   UNL     1     -15.494 -13.930   0.235  1.00  0.00     0.152 C 
HETATM   44  C   UNL     1     -15.549 -12.785   1.238  1.00  0.00     0.042 C 
HETATM   45  O   UNL     1     -16.831 -14.306  -0.131  1.00  0.00    -0.351 OA
BRANCH  40  46
HETATM   46  O   UNL     1     -16.600 -14.626  -2.900  1.00  0.00    -0.388 OA
HETATM   47  H   UNL     1     -16.501 -15.227  -2.129  1.00  0.00     0.210 HD
ENDBRANCH  40  46
BRANCH  41  48
HETATM   48  O   UNL     1     -14.565 -12.671  -3.237  1.00  0.00    -0.390 OA
HETATM   49  H   UNL     1     -15.104 -12.117  -3.838  1.00  0.00     0.210 HD
ENDBRANCH  41  48
BRANCH  42  50
HETATM   50  O   UNL     1     -14.247 -14.901  -1.600  1.00  0.00    -0.390 OA
HETATM   51  H   UNL     1     -13.593 -15.324  -1.004  1.00  0.00     0.210 HD
ENDBRANCH  42  50
ENDBRANCH  38  39
ENDBRANCH  37  38
ENDBRANCH   1  37
BRANCH   2  52
HETATM   52  O   UNL     1     -21.500 -10.415   0.660  1.00  0.00    -0.390 OA
HETATM   53  H   UNL     1     -22.104 -10.043  -0.022  1.00  0.00     0.210 HD
ENDBRANCH   2  52
TORSDOF 16
BEGIN_RES ARG D 557
REMARK  4 active torsions:
REMARK  status: ('A' for Active; 'I' for Inactive)
REMARK    1  A    between atoms: CA   and  CB  
REMARK    2  A    between atoms: CB   and  CG  
REMARK    3  A    between atoms: CG   and  CD  
REMARK    4  A    between atoms: CD   and  NE  
REMARK       I    between atoms: NE   and  CZ  
REMARK       I    between atoms: CZ   and  NH1 
REMARK       I    between atoms: CZ   and  NH2 
ROOT
ATOM      1  CA  ARG D 557     -26.217   2.705 -17.014  1.00 35.49     0.159 C 
ENDROOT
BRANCH   1   2
ATOM      2  CB  ARG D 557     -26.789   1.319 -17.183  1.00 35.49     0.034 C 
BRANCH   2   3
ATOM      3  CG  ARG D 557     -25.837   0.202 -17.144  1.00 35.49     0.027 C 
BRANCH   3   4
ATOM      4  CD  ARG D 557     -24.756   0.416 -16.154  1.00 35.49     0.116 C 
BRANCH   4   5
ATOM      5  NE  ARG D 557     -24.888  -0.449 -15.012  1.00 35.49    -0.212 N 
ATOM      6  CZ  ARG D 557     -24.059  -1.414 -14.680  1.00 35.49     0.666 C 
ATOM      7  NH1 ARG D 557     -22.990  -1.708 -15.396  1.00 35.49    -0.235 N 
ATOM      8  NH2 ARG D 557     -24.323  -2.086 -13.597  1.00 35.49    -0.235 N 
ATOM      9  HH  ARG D 557     -22.796  -1.278 -16.111  1.00 35.49     0.174 HD
ATOM     10  HH  ARG D 557     -22.484  -2.346 -15.129  1.00 35.49     0.174 HD
ATOM     11  HH  ARG D 557     -25.017  -1.869 -13.151  1.00 35.49     0.174 HD
ATOM     12  HH  ARG D 557     -23.810  -2.713 -13.349  1.00 35.49     0.174 HD
ATOM     13  HE  ARG D 557     -25.588  -0.378 -14.535  1.00 35.49     0.178 HD
ENDBRANCH   4   5
ENDBRANCH   3   4
ENDBRANCH   2   3
ENDBRANCH   1   2
END_RES ARG D 557
BEGIN_RES GLU D 570
REMARK  3 active torsions:
REMARK  status: ('A' for Active; 'I' for Inactive)
REMARK    5  A    between atoms: CA   and  CB  
REMARK    6  A    between atoms: CB   and  CG  
REMARK    7  A    between atoms: CG   and  CD  
ROOT
ATOM     14  CA  GLU D 570     -18.033  -6.348 -13.375  1.00 32.92     0.160 C 
ENDROOT
BRANCH  14  15
ATOM     15  CB  GLU D 570     -19.500  -6.345 -13.794  1.00 32.92     0.043 C 
BRANCH  15  16
ATOM     16  CG  GLU D 570     -20.452  -5.581 -12.947  1.00 32.92     0.100 C 
BRANCH  16  17
ATOM     17  CD  GLU D 570     -21.663  -5.098 -13.711  1.00 32.92     0.185 C 
ATOM     18  OE1 GLU D 570     -22.564  -4.493 -13.097  1.00 32.92    -0.647 OA
ATOM     19  OE2 GLU D 570     -21.719  -5.341 -14.932  1.00 32.92    -0.647 OA
ENDBRANCH  16  17
ENDBRANCH  15  16
ENDBRANCH  14  15
END_RES GLU D 570
ENDMDL
