MODEL 1
REMARK VINA RESULT:      -1.3      0.000      0.000
REMARK  11 active torsions:
REMARK  status: ('A' for Active; 'I' for Inactive)
REMARK    1  A    between atoms: C_2  and  C_3 
REMARK    2  A    between atoms: C_3  and  C_4 
REMARK    3  A    between atoms: C_4  and  C_5 
REMARK    4  A    between atoms: C_5  and  C_6 
REMARK    5  A    between atoms: C_6  and  C_7 
REMARK    6  A    between atoms: C_7  and  C_8 
REMARK    7  A    between atoms: C_8  and  C_9 
REMARK    8  A    between atoms: C_9  and  C_10 
REMARK    9  A    between atoms: C_10  and  C_11 
REMARK   10  A    between atoms: C_11  and  C_12 
REMARK   11  A    between atoms: C_11  and  S_15 
ROOT
HETATM    1 NA   UNL     2     -11.258   1.530   2.438  1.00  0.00     0.000 Na
ENDROOT
TORSDOF 11
BEGIN_RES ARG D 557
REMARK  4 active torsions:
REMARK  status: ('A' for Active; 'I' for Inactive)
REMARK    1  A    between atoms: CA   and  CB  
REMARK    2  A    between atoms: CB   and  CG  
REMARK    3  A    between atoms: CG   and  CD  
REMARK    4  A    between atoms: CD   and  NE  
REMARK       I    between atoms: NE   and  CZ  
REMARK       I    between atoms: CZ   and  NH1 
REMARK       I    between atoms: CZ   and  NH2 
ROOT
ATOM      1  CA  ARG D 557     -26.217   2.705 -17.014  1.00 35.49     0.159 C 
ENDROOT
BRANCH   1   2
ATOM      2  CB  ARG D 557     -26.789   1.319 -17.183  1.00 35.49     0.034 C 
BRANCH   2   3
ATOM      3  CG  ARG D 557     -25.836   0.203 -17.155  1.00 35.49     0.027 C 
BRANCH   3   4
ATOM      4  CD  ARG D 557     -24.757   0.407 -16.162  1.00 35.49     0.116 C 
BRANCH   4   5
ATOM      5  NE  ARG D 557     -24.908  -0.447 -15.013  1.00 35.49    -0.212 N 
ATOM      6  CZ  ARG D 557     -24.096  -1.419 -14.667  1.00 35.49     0.666 C 
ATOM      7  NH1 ARG D 557     -23.024  -1.734 -15.371  1.00 35.49    -0.235 N 
ATOM      8  NH2 ARG D 557     -24.377  -2.078 -13.580  1.00 35.49    -0.235 N 
ATOM      9  HH  ARG D 557     -22.819  -1.312 -16.088  1.00 35.49     0.174 HD
ATOM     10  HH  ARG D 557     -22.529  -2.376 -15.095  1.00 35.49     0.174 HD
ATOM     11  HH  ARG D 557     -25.071  -1.848 -13.141  1.00 35.49     0.174 HD
ATOM     12  HH  ARG D 557     -23.874  -2.710 -13.322  1.00 35.49     0.174 HD
ATOM     13  HE  ARG D 557     -25.612  -0.362 -14.543  1.00 35.49     0.178 HD
ENDBRANCH   4   5
ENDBRANCH   3   4
ENDBRANCH   2   3
ENDBRANCH   1   2
END_RES ARG D 557
BEGIN_RES GLU D 570
REMARK  3 active torsions:
REMARK  status: ('A' for Active; 'I' for Inactive)
REMARK    5  A    between atoms: CA   and  CB  
REMARK    6  A    between atoms: CB   and  CG  
REMARK    7  A    between atoms: CG   and  CD  
ROOT
ATOM     14  CA  GLU D 570     -18.033  -6.348 -13.375  1.00 32.92     0.160 C 
ENDROOT
BRANCH  14  15
ATOM     15  CB  GLU D 570     -19.500  -6.345 -13.794  1.00 32.92     0.043 C 
BRANCH  15  16
ATOM     16  CG  GLU D 570     -20.442  -5.534 -12.981  1.00 32.92     0.100 C 
BRANCH  16  17
ATOM     17  CD  GLU D 570     -21.745  -5.253 -13.694  1.00 32.92     0.185 C 
ATOM     18  OE1 GLU D 570     -22.210  -6.113 -14.466  1.00 32.92    -0.647 OA
ATOM     19  OE2 GLU D 570     -22.298  -4.154 -13.490  1.00 32.92    -0.647 OA
ENDBRANCH  16  17
ENDBRANCH  15  16
ENDBRANCH  14  15
END_RES GLU D 570
ENDMDL
MODEL 2
REMARK VINA RESULT:      -1.1      5.192      5.275
REMARK  11 active torsions:
REMARK  status: ('A' for Active; 'I' for Inactive)
REMARK    1  A    between atoms: C_2  and  C_3 
REMARK    2  A    between atoms: C_3  and  C_4 
REMARK    3  A    between atoms: C_4  and  C_5 
REMARK    4  A    between atoms: C_5  and  C_6 
REMARK    5  A    between atoms: C_6  and  C_7 
REMARK    6  A    between atoms: C_7  and  C_8 
REMARK    7  A    between atoms: C_8  and  C_9 
REMARK    8  A    between atoms: C_9  and  C_10 
REMARK    9  A    between atoms: C_10  and  C_11 
REMARK   10  A    between atoms: C_11  and  C_12 
REMARK   11  A    between atoms: C_11  and  S_15 
ROOT
HETATM    1 NA   UNL     2     -25.249  -5.277  -4.942  1.00  0.00     0.000 Na
ENDROOT
TORSDOF 11
BEGIN_RES ARG D 557
REMARK  4 active torsions:
REMARK  status: ('A' for Active; 'I' for Inactive)
REMARK    1  A    between atoms: CA   and  CB  
REMARK    2  A    between atoms: CB   and  CG  
REMARK    3  A    between atoms: CG   and  CD  
REMARK    4  A    between atoms: CD   and  NE  
REMARK       I    between atoms: NE   and  CZ  
REMARK       I    between atoms: CZ   and  NH1 
REMARK       I    between atoms: CZ   and  NH2 
ROOT
ATOM      1  CA  ARG D 557     -26.217   2.705 -17.014  1.00 35.49     0.159 C 
ENDROOT
BRANCH   1   2
ATOM      2  CB  ARG D 557     -26.789   1.319 -17.183  1.00 35.49     0.034 C 
BRANCH   2   3
ATOM      3  CG  ARG D 557     -25.835   0.204 -17.164  1.00 35.49     0.027 C 
BRANCH   3   4
ATOM      4  CD  ARG D 557     -24.750   0.406 -16.177  1.00 35.49     0.116 C 
BRANCH   4   5
ATOM      5  NE  ARG D 557     -24.902  -0.441 -15.023  1.00 35.49    -0.212 N 
ATOM      6  CZ  ARG D 557     -24.090  -1.413 -14.671  1.00 35.49     0.666 C 
ATOM      7  NH1 ARG D 557     -23.020  -1.732 -15.374  1.00 35.49    -0.235 N 
ATOM      8  NH2 ARG D 557     -24.372  -2.065 -13.580  1.00 35.49    -0.235 N 
ATOM      9  HH  ARG D 557     -22.814  -1.315 -16.094  1.00 35.49     0.174 HD
ATOM     10  HH  ARG D 557     -22.525  -2.373 -15.094  1.00 35.49     0.174 HD
ATOM     11  HH  ARG D 557     -25.066  -1.832 -13.142  1.00 35.49     0.174 HD
ATOM     12  HH  ARG D 557     -23.869  -2.696 -13.319  1.00 35.49     0.174 HD
ATOM     13  HE  ARG D 557     -25.605  -0.353 -14.553  1.00 35.49     0.178 HD
ENDBRANCH   4   5
ENDBRANCH   3   4
ENDBRANCH   2   3
ENDBRANCH   1   2
END_RES ARG D 557
BEGIN_RES GLU D 570
REMARK  3 active torsions:
REMARK  status: ('A' for Active; 'I' for Inactive)
REMARK    5  A    between atoms: CA   and  CB  
REMARK    6  A    between atoms: CB   and  CG  
REMARK    7  A    between atoms: CG   and  CD  
ROOT
ATOM     14  CA  GLU D 570     -18.033  -6.348 -13.375  1.00 32.92     0.160 C 
ENDROOT
BRANCH  14  15
ATOM     15  CB  GLU D 570     -19.500  -6.345 -13.794  1.00 32.92     0.043 C 
BRANCH  15  16
ATOM     16  CG  GLU D 570     -20.440  -5.524 -12.988  1.00 32.92     0.100 C 
BRANCH  16  17
ATOM     17  CD  GLU D 570     -21.741  -5.245 -13.704  1.00 32.92     0.185 C 
ATOM     18  OE1 GLU D 570     -22.316  -4.156 -13.514  1.00 32.92    -0.647 OA
ATOM     19  OE2 GLU D 570     -22.200  -6.133 -14.450  1.00 32.92    -0.647 OA
ENDBRANCH  16  17
ENDBRANCH  15  16
ENDBRANCH  14  15
END_RES GLU D 570
ENDMDL
MODEL 3
REMARK VINA RESULT:      -1.1      5.938      6.011
REMARK  11 active torsions:
REMARK  status: ('A' for Active; 'I' for Inactive)
REMARK    1  A    between atoms: C_2  and  C_3 
REMARK    2  A    between atoms: C_3  and  C_4 
REMARK    3  A    between atoms: C_4  and  C_5 
REMARK    4  A    between atoms: C_5  and  C_6 
REMARK    5  A    between atoms: C_6  and  C_7 
REMARK    6  A    between atoms: C_7  and  C_8 
REMARK    7  A    between atoms: C_8  and  C_9 
REMARK    8  A    between atoms: C_9  and  C_10 
REMARK    9  A    between atoms: C_10  and  C_11 
REMARK   10  A    between atoms: C_11  and  C_12 
REMARK   11  A    between atoms: C_11  and  S_15 
ROOT
HETATM    1 NA   UNL     2     -30.932   0.743   2.858  1.00  0.00     0.000 Na
ENDROOT
TORSDOF 11
BEGIN_RES ARG D 557
REMARK  4 active torsions:
REMARK  status: ('A' for Active; 'I' for Inactive)
REMARK    1  A    between atoms: CA   and  CB  
REMARK    2  A    between atoms: CB   and  CG  
REMARK    3  A    between atoms: CG   and  CD  
REMARK    4  A    between atoms: CD   and  NE  
REMARK       I    between atoms: NE   and  CZ  
REMARK       I    between atoms: CZ   and  NH1 
REMARK       I    between atoms: CZ   and  NH2 
ROOT
ATOM      1  CA  ARG D 557     -26.217   2.705 -17.014  1.00 35.49     0.159 C 
ENDROOT
BRANCH   1   2
ATOM      2  CB  ARG D 557     -26.789   1.319 -17.183  1.00 35.49     0.034 C 
BRANCH   2   3
ATOM      3  CG  ARG D 557     -25.835   0.203 -17.158  1.00 35.49     0.027 C 
BRANCH   3   4
ATOM      4  CD  ARG D 557     -24.749   0.412 -16.174  1.00 35.49     0.116 C 
BRANCH   4   5
ATOM      5  NE  ARG D 557     -24.893  -0.435 -15.019  1.00 35.49    -0.212 N 
ATOM      6  CZ  ARG D 557     -24.080  -1.408 -14.673  1.00 35.49     0.666 C 
ATOM      7  NH1 ARG D 557     -23.015  -1.729 -15.385  1.00 35.49    -0.235 N 
ATOM      8  NH2 ARG D 557     -24.354  -2.060 -13.580  1.00 35.49    -0.235 N 
ATOM      9  HH  ARG D 557     -22.815  -1.312 -16.106  1.00 35.49     0.174 HD
ATOM     10  HH  ARG D 557     -22.520  -2.371 -15.109  1.00 35.49     0.174 HD
ATOM     11  HH  ARG D 557     -25.044  -1.826 -13.137  1.00 35.49     0.174 HD
ATOM     12  HH  ARG D 557     -23.850  -2.691 -13.323  1.00 35.49     0.174 HD
ATOM     13  HE  ARG D 557     -25.592  -0.346 -14.543  1.00 35.49     0.178 HD
ENDBRANCH   4   5
ENDBRANCH   3   4
ENDBRANCH   2   3
ENDBRANCH   1   2
END_RES ARG D 557
BEGIN_RES GLU D 570
REMARK  3 active torsions:
REMARK  status: ('A' for Active; 'I' for Inactive)
REMARK    5  A    between atoms: CA   and  CB  
REMARK    6  A    between atoms: CB   and  CG  
REMARK    7  A    between atoms: CG   and  CD  
ROOT
ATOM     14  CA  GLU D 570     -18.033  -6.348 -13.375  1.00 32.92     0.160 C 
ENDROOT
BRANCH  14  15
ATOM     15  CB  GLU D 570     -19.500  -6.345 -13.794  1.00 32.92     0.043 C 
BRANCH  15  16
ATOM     16  CG  GLU D 570     -20.446  -5.549 -12.970  1.00 32.92     0.100 C 
BRANCH  16  17
ATOM     17  CD  GLU D 570     -21.739  -5.241 -13.688  1.00 32.92     0.185 C 
ATOM     18  OE1 GLU D 570     -22.258  -4.118 -13.546  1.00 32.92    -0.647 OA
ATOM     19  OE2 GLU D 570     -22.247  -6.140 -14.388  1.00 32.92    -0.647 OA
ENDBRANCH  16  17
ENDBRANCH  15  16
ENDBRANCH  14  15
END_RES GLU D 570
ENDMDL
MODEL 4
REMARK VINA RESULT:      -1.0      8.148      8.186
REMARK  11 active torsions:
REMARK  status: ('A' for Active; 'I' for Inactive)
REMARK    1  A    between atoms: C_2  and  C_3 
REMARK    2  A    between atoms: C_3  and  C_4 
REMARK    3  A    between atoms: C_4  and  C_5 
REMARK    4  A    between atoms: C_5  and  C_6 
REMARK    5  A    between atoms: C_6  and  C_7 
REMARK    6  A    between atoms: C_7  and  C_8 
REMARK    7  A    between atoms: C_8  and  C_9 
REMARK    8  A    between atoms: C_9  and  C_10 
REMARK    9  A    between atoms: C_10  and  C_11 
REMARK   10  A    between atoms: C_11  and  C_12 
REMARK   11  A    between atoms: C_11  and  S_15 
ROOT
HETATM    1 NA   UNL     2     -27.045 -13.653 -13.042  1.00  0.00     0.000 Na
ENDROOT
TORSDOF 11
BEGIN_RES ARG D 557
REMARK  4 active torsions:
REMARK  status: ('A' for Active; 'I' for Inactive)
REMARK    1  A    between atoms: CA   and  CB  
REMARK    2  A    between atoms: CB   and  CG  
REMARK    3  A    between atoms: CG   and  CD  
REMARK    4  A    between atoms: CD   and  NE  
REMARK       I    between atoms: NE   and  CZ  
REMARK       I    between atoms: CZ   and  NH1 
REMARK       I    between atoms: CZ   and  NH2 
ROOT
ATOM      1  CA  ARG D 557     -26.217   2.705 -17.014  1.00 35.49     0.159 C 
ENDROOT
BRANCH   1   2
ATOM      2  CB  ARG D 557     -26.789   1.319 -17.183  1.00 35.49     0.034 C 
BRANCH   2   3
ATOM      3  CG  ARG D 557     -25.864   0.195 -16.993  1.00 35.49     0.027 C 
BRANCH   3   4
ATOM      4  CD  ARG D 557     -26.286  -0.704 -15.895  1.00 35.49     0.116 C 
BRANCH   4   5
ATOM      5  NE  ARG D 557     -25.232  -0.929 -14.942  1.00 35.49    -0.212 N 
ATOM      6  CZ  ARG D 557     -24.956  -2.073 -14.357  1.00 35.49     0.666 C 
ATOM      7  NH1 ARG D 557     -25.653  -3.171 -14.582  1.00 35.49    -0.235 N 
ATOM      8  NH2 ARG D 557     -23.948  -2.098 -13.534  1.00 35.49    -0.235 N 
ATOM      9  HH  ARG D 557     -26.319  -3.177 -15.121  1.00 35.49     0.174 HD
ATOM     10  HH  ARG D 557     -25.425  -3.889 -14.174  1.00 35.49     0.174 HD
ATOM     11  HH  ARG D 557     -23.511  -1.376 -13.414  1.00 35.49     0.174 HD
ATOM     12  HH  ARG D 557     -23.737  -2.819 -13.141  1.00 35.49     0.174 HD
ATOM     13  HE  ARG D 557     -24.777  -0.258 -14.684  1.00 35.49     0.178 HD
ENDBRANCH   4   5
ENDBRANCH   3   4
ENDBRANCH   2   3
ENDBRANCH   1   2
END_RES ARG D 557
BEGIN_RES GLU D 570
REMARK  3 active torsions:
REMARK  status: ('A' for Active; 'I' for Inactive)
REMARK    5  A    between atoms: CA   and  CB  
REMARK    6  A    between atoms: CB   and  CG  
REMARK    7  A    between atoms: CG   and  CD  
ROOT
ATOM     14  CA  GLU D 570     -18.033  -6.348 -13.375  1.00 32.92     0.160 C 
ENDROOT
BRANCH  14  15
ATOM     15  CB  GLU D 570     -19.500  -6.345 -13.794  1.00 32.92     0.043 C 
BRANCH  15  16
ATOM     16  CG  GLU D 570     -20.450  -5.568 -12.956  1.00 32.92     0.100 C 
BRANCH  16  17
ATOM     17  CD  GLU D 570     -21.681  -5.130 -13.714  1.00 32.92     0.185 C 
ATOM     18  OE1 GLU D 570     -21.624  -5.026 -14.954  1.00 32.92    -0.647 OA
ATOM     19  OE2 GLU D 570     -22.710  -4.872 -13.058  1.00 32.92    -0.647 OA
ENDBRANCH  16  17
ENDBRANCH  15  16
ENDBRANCH  14  15
END_RES GLU D 570
ENDMDL
MODEL 5
REMARK VINA RESULT:      -1.0      6.178      6.228
REMARK  11 active torsions:
REMARK  status: ('A' for Active; 'I' for Inactive)
REMARK    1  A    between atoms: C_2  and  C_3 
REMARK    2  A    between atoms: C_3  and  C_4 
REMARK    3  A    between atoms: C_4  and  C_5 
REMARK    4  A    between atoms: C_5  and  C_6 
REMARK    5  A    between atoms: C_6  and  C_7 
REMARK    6  A    between atoms: C_7  and  C_8 
REMARK    7  A    between atoms: C_8  and  C_9 
REMARK    8  A    between atoms: C_9  and  C_10 
REMARK    9  A    between atoms: C_10  and  C_11 
REMARK   10  A    between atoms: C_11  and  C_12 
REMARK   11  A    between atoms: C_11  and  S_15 
ROOT
HETATM    1 NA   UNL     2      -9.132   5.863 -17.196  1.00  0.00     0.000 Na
ENDROOT
TORSDOF 11
BEGIN_RES ARG D 557
REMARK  4 active torsions:
REMARK  status: ('A' for Active; 'I' for Inactive)
REMARK    1  A    between atoms: CA   and  CB  
REMARK    2  A    between atoms: CB   and  CG  
REMARK    3  A    between atoms: CG   and  CD  
REMARK    4  A    between atoms: CD   and  NE  
REMARK       I    between atoms: NE   and  CZ  
REMARK       I    between atoms: CZ   and  NH1 
REMARK       I    between atoms: CZ   and  NH2 
ROOT
ATOM      1  CA  ARG D 557     -26.217   2.705 -17.014  1.00 35.49     0.159 C 
ENDROOT
BRANCH   1   2
ATOM      2  CB  ARG D 557     -26.789   1.319 -17.183  1.00 35.49     0.034 C 
BRANCH   2   3
ATOM      3  CG  ARG D 557     -25.863   0.195 -16.998  1.00 35.49     0.027 C 
BRANCH   3   4
ATOM      4  CD  ARG D 557     -26.290  -0.715 -15.910  1.00 35.49     0.116 C 
BRANCH   4   5
ATOM      5  NE  ARG D 557     -25.246  -0.933 -14.944  1.00 35.49    -0.212 N 
ATOM      6  CZ  ARG D 557     -24.971  -2.075 -14.355  1.00 35.49     0.666 C 
ATOM      7  NH1 ARG D 557     -25.660  -3.177 -14.587  1.00 35.49    -0.235 N 
ATOM      8  NH2 ARG D 557     -23.973  -2.095 -13.520  1.00 35.49    -0.235 N 
ATOM      9  HH  ARG D 557     -26.320  -3.187 -15.135  1.00 35.49     0.174 HD
ATOM     10  HH  ARG D 557     -25.434  -3.893 -14.176  1.00 35.49     0.174 HD
ATOM     11  HH  ARG D 557     -23.542  -1.370 -13.395  1.00 35.49     0.174 HD
ATOM     12  HH  ARG D 557     -23.764  -2.814 -13.123  1.00 35.49     0.174 HD
ATOM     13  HE  ARG D 557     -24.799  -0.259 -14.681  1.00 35.49     0.178 HD
ENDBRANCH   4   5
ENDBRANCH   3   4
ENDBRANCH   2   3
ENDBRANCH   1   2
END_RES ARG D 557
BEGIN_RES GLU D 570
REMARK  3 active torsions:
REMARK  status: ('A' for Active; 'I' for Inactive)
REMARK    5  A    between atoms: CA   and  CB  
REMARK    6  A    between atoms: CB   and  CG  
REMARK    7  A    between atoms: CG   and  CD  
ROOT
ATOM     14  CA  GLU D 570     -18.033  -6.348 -13.375  1.00 32.92     0.160 C 
ENDROOT
BRANCH  14  15
ATOM     15  CB  GLU D 570     -19.500  -6.345 -13.794  1.00 32.92     0.043 C 
BRANCH  15  16
ATOM     16  CG  GLU D 570     -20.445  -5.547 -12.971  1.00 32.92     0.100 C 
BRANCH  16  17
ATOM     17  CD  GLU D 570     -21.682  -5.130 -13.733  1.00 32.92     0.185 C 
ATOM     18  OE1 GLU D 570     -21.618  -5.007 -14.971  1.00 32.92    -0.647 OA
ATOM     19  OE2 GLU D 570     -22.722  -4.907 -13.082  1.00 32.92    -0.647 OA
ENDBRANCH  16  17
ENDBRANCH  15  16
ENDBRANCH  14  15
END_RES GLU D 570
ENDMDL
MODEL 6
REMARK VINA RESULT:      -1.0      6.378      6.463
REMARK  11 active torsions:
REMARK  status: ('A' for Active; 'I' for Inactive)
REMARK    1  A    between atoms: C_2  and  C_3 
REMARK    2  A    between atoms: C_3  and  C_4 
REMARK    3  A    between atoms: C_4  and  C_5 
REMARK    4  A    between atoms: C_5  and  C_6 
REMARK    5  A    between atoms: C_6  and  C_7 
REMARK    6  A    between atoms: C_7  and  C_8 
REMARK    7  A    between atoms: C_8  and  C_9 
REMARK    8  A    between atoms: C_9  and  C_10 
REMARK    9  A    between atoms: C_10  and  C_11 
REMARK   10  A    between atoms: C_11  and  C_12 
REMARK   11  A    between atoms: C_11  and  S_15 
ROOT
HETATM    1 NA   UNL     2     -27.055  -5.659  -9.168  1.00  0.00     0.000 Na
ENDROOT
TORSDOF 11
BEGIN_RES ARG D 557
REMARK  4 active torsions:
REMARK  status: ('A' for Active; 'I' for Inactive)
REMARK    1  A    between atoms: CA   and  CB  
REMARK    2  A    between atoms: CB   and  CG  
REMARK    3  A    between atoms: CG   and  CD  
REMARK    4  A    between atoms: CD   and  NE  
REMARK       I    between atoms: NE   and  CZ  
REMARK       I    between atoms: CZ   and  NH1 
REMARK       I    between atoms: CZ   and  NH2 
ROOT
ATOM      1  CA  ARG D 557     -26.217   2.705 -17.014  1.00 35.49     0.159 C 
ENDROOT
BRANCH   1   2
ATOM      2  CB  ARG D 557     -26.789   1.319 -17.183  1.00 35.49     0.034 C 
BRANCH   2   3
ATOM      3  CG  ARG D 557     -25.869   0.194 -16.974  1.00 35.49     0.027 C 
BRANCH   3   4
ATOM      4  CD  ARG D 557     -26.336  -0.727 -15.914  1.00 35.49     0.116 C 
BRANCH   4   5
ATOM      5  NE  ARG D 557     -25.327  -0.959 -14.914  1.00 35.49    -0.212 N 
ATOM      6  CZ  ARG D 557     -25.078  -2.107 -14.326  1.00 35.49     0.666 C 
ATOM      7  NH1 ARG D 557     -25.763  -3.204 -14.592  1.00 35.49    -0.235 N 
ATOM      8  NH2 ARG D 557     -24.110  -2.139 -13.456  1.00 35.49    -0.235 N 
ATOM      9  HH  ARG D 557     -26.402  -3.207 -15.162  1.00 35.49     0.174 HD
ATOM     10  HH  ARG D 557     -25.553  -3.925 -14.179  1.00 35.49     0.174 HD
ATOM     11  HH  ARG D 557     -23.680  -1.417 -13.309  1.00 35.49     0.174 HD
ATOM     12  HH  ARG D 557     -23.917  -2.863 -13.059  1.00 35.49     0.174 HD
ATOM     13  HE  ARG D 557     -24.886  -0.290 -14.628  1.00 35.49     0.178 HD
ENDBRANCH   4   5
ENDBRANCH   3   4
ENDBRANCH   2   3
ENDBRANCH   1   2
END_RES ARG D 557
BEGIN_RES GLU D 570
REMARK  3 active torsions:
REMARK  status: ('A' for Active; 'I' for Inactive)
REMARK    5  A    between atoms: CA   and  CB  
REMARK    6  A    between atoms: CB   and  CG  
REMARK    7  A    between atoms: CG   and  CD  
ROOT
ATOM     14  CA  GLU D 570     -18.033  -6.348 -13.375  1.00 32.92     0.160 C 
ENDROOT
BRANCH  14  15
ATOM     15  CB  GLU D 570     -19.500  -6.345 -13.794  1.00 32.92     0.043 C 
BRANCH  15  16
ATOM     16  CG  GLU D 570     -20.450  -5.570 -12.955  1.00 32.92     0.100 C 
BRANCH  16  17
ATOM     17  CD  GLU D 570     -21.668  -5.106 -13.719  1.00 32.92     0.185 C 
ATOM     18  OE1 GLU D 570     -22.702  -4.812 -13.088  1.00 32.92    -0.647 OA
ATOM     19  OE2 GLU D 570     -21.593  -5.052 -14.962  1.00 32.92    -0.647 OA
ENDBRANCH  16  17
ENDBRANCH  15  16
ENDBRANCH  14  15
END_RES GLU D 570
ENDMDL
MODEL 7
REMARK VINA RESULT:      -0.9     10.068     10.068
REMARK  11 active torsions:
REMARK  status: ('A' for Active; 'I' for Inactive)
REMARK    1  A    between atoms: C_2  and  C_3 
REMARK    2  A    between atoms: C_3  and  C_4 
REMARK    3  A    between atoms: C_4  and  C_5 
REMARK    4  A    between atoms: C_5  and  C_6 
REMARK    5  A    between atoms: C_6  and  C_7 
REMARK    6  A    between atoms: C_7  and  C_8 
REMARK    7  A    between atoms: C_8  and  C_9 
REMARK    8  A    between atoms: C_9  and  C_10 
REMARK    9  A    between atoms: C_10  and  C_11 
REMARK   10  A    between atoms: C_11  and  C_12 
REMARK   11  A    between atoms: C_11  and  S_15 
ROOT
HETATM    1 NA   UNL     2     -27.980 -12.385 -22.894  1.00  0.00     0.000 Na
ENDROOT
TORSDOF 11
BEGIN_RES ARG D 557
REMARK  4 active torsions:
REMARK  status: ('A' for Active; 'I' for Inactive)
REMARK    1  A    between atoms: CA   and  CB  
REMARK    2  A    between atoms: CB   and  CG  
REMARK    3  A    between atoms: CG   and  CD  
REMARK    4  A    between atoms: CD   and  NE  
REMARK       I    between atoms: NE   and  CZ  
REMARK       I    between atoms: CZ   and  NH1 
REMARK       I    between atoms: CZ   and  NH2 
ROOT
ATOM      1  CA  ARG D 557     -26.217   2.705 -17.014  1.00 35.49     0.159 C 
ENDROOT
BRANCH   1   2
ATOM      2  CB  ARG D 557     -26.789   1.319 -17.183  1.00 35.49     0.034 C 
BRANCH   2   3
ATOM      3  CG  ARG D 557     -25.836   0.203 -17.151  1.00 35.49     0.027 C 
BRANCH   3   4
ATOM      4  CD  ARG D 557     -24.755   0.412 -16.161  1.00 35.49     0.116 C 
BRANCH   4   5
ATOM      5  NE  ARG D 557     -24.901  -0.441 -15.011  1.00 35.49    -0.212 N 
ATOM      6  CZ  ARG D 557     -24.081  -1.408 -14.663  1.00 35.49     0.666 C 
ATOM      7  NH1 ARG D 557     -23.008  -1.716 -15.368  1.00 35.49    -0.235 N 
ATOM      8  NH2 ARG D 557     -24.358  -2.067 -13.576  1.00 35.49    -0.235 N 
ATOM      9  HH  ARG D 557     -22.806  -1.295 -16.086  1.00 35.49     0.174 HD
ATOM     10  HH  ARG D 557     -22.509  -2.355 -15.091  1.00 35.49     0.174 HD
ATOM     11  HH  ARG D 557     -25.053  -1.841 -13.137  1.00 35.49     0.174 HD
ATOM     12  HH  ARG D 557     -23.850  -2.695 -13.317  1.00 35.49     0.174 HD
ATOM     13  HE  ARG D 557     -25.604  -0.360 -14.540  1.00 35.49     0.178 HD
ENDBRANCH   4   5
ENDBRANCH   3   4
ENDBRANCH   2   3
ENDBRANCH   1   2
END_RES ARG D 557
BEGIN_RES GLU D 570
REMARK  3 active torsions:
REMARK  status: ('A' for Active; 'I' for Inactive)
REMARK    5  A    between atoms: CA   and  CB  
REMARK    6  A    between atoms: CB   and  CG  
REMARK    7  A    between atoms: CG   and  CD  
ROOT
ATOM     14  CA  GLU D 570     -18.033  -6.348 -13.375  1.00 32.92     0.160 C 
ENDROOT
BRANCH  14  15
ATOM     15  CB  GLU D 570     -19.500  -6.345 -13.794  1.00 32.92     0.043 C 
BRANCH  15  16
ATOM     16  CG  GLU D 570     -20.442  -5.533 -12.982  1.00 32.92     0.100 C 
BRANCH  16  17
ATOM     17  CD  GLU D 570     -21.742  -5.247 -13.697  1.00 32.92     0.185 C 
ATOM     18  OE1 GLU D 570     -22.224  -6.118 -14.448  1.00 32.92    -0.647 OA
ATOM     19  OE2 GLU D 570     -22.276  -4.135 -13.518  1.00 32.92    -0.647 OA
ENDBRANCH  16  17
ENDBRANCH  15  16
ENDBRANCH  14  15
END_RES GLU D 570
ENDMDL
MODEL 8
REMARK VINA RESULT:      -0.9      7.216      7.269
REMARK  11 active torsions:
REMARK  status: ('A' for Active; 'I' for Inactive)
REMARK    1  A    between atoms: C_2  and  C_3 
REMARK    2  A    between atoms: C_3  and  C_4 
REMARK    3  A    between atoms: C_4  and  C_5 
REMARK    4  A    between atoms: C_5  and  C_6 
REMARK    5  A    between atoms: C_6  and  C_7 
REMARK    6  A    between atoms: C_7  and  C_8 
REMARK    7  A    between atoms: C_8  and  C_9 
REMARK    8  A    between atoms: C_9  and  C_10 
REMARK    9  A    between atoms: C_10  and  C_11 
REMARK   10  A    between atoms: C_11  and  C_12 
REMARK   11  A    between atoms: C_11  and  S_15 
ROOT
HETATM    1 NA   UNL     2     -32.308  -8.590   4.535  1.00  0.00     0.000 Na
ENDROOT
TORSDOF 11
BEGIN_RES ARG D 557
REMARK  4 active torsions:
REMARK  status: ('A' for Active; 'I' for Inactive)
REMARK    1  A    between atoms: CA   and  CB  
REMARK    2  A    between atoms: CB   and  CG  
REMARK    3  A    between atoms: CG   and  CD  
REMARK    4  A    between atoms: CD   and  NE  
REMARK       I    between atoms: NE   and  CZ  
REMARK       I    between atoms: CZ   and  NH1 
REMARK       I    between atoms: CZ   and  NH2 
ROOT
ATOM      1  CA  ARG D 557     -26.217   2.705 -17.014  1.00 35.49     0.159 C 
ENDROOT
BRANCH   1   2
ATOM      2  CB  ARG D 557     -26.789   1.319 -17.183  1.00 35.49     0.034 C 
BRANCH   2   3
ATOM      3  CG  ARG D 557     -25.933   0.197 -16.778  1.00 35.49     0.027 C 
BRANCH   3   4
ATOM      4  CD  ARG D 557     -26.691  -0.868 -16.083  1.00 35.49     0.116 C 
BRANCH   4   5
ATOM      5  NE  ARG D 557     -25.954  -1.426 -14.980  1.00 35.49    -0.212 N 
ATOM      6  CZ  ARG D 557     -25.925  -2.695 -14.639  1.00 35.49     0.666 C 
ATOM      7  NH1 ARG D 557     -26.606  -3.620 -15.290  1.00 35.49    -0.235 N 
ATOM      8  NH2 ARG D 557     -25.184  -3.027 -13.622  1.00 35.49    -0.235 N 
ATOM      9  HH  ARG D 557     -27.098  -3.425 -15.963  1.00 35.49     0.174 HD
ATOM     10  HH  ARG D 557     -26.546  -4.432 -15.024  1.00 35.49     0.174 HD
ATOM     11  HH  ARG D 557     -24.749  -2.410 -13.225  1.00 35.49     0.174 HD
ATOM     12  HH  ARG D 557     -25.137  -3.837 -13.375  1.00 35.49     0.174 HD
ATOM     13  HE  ARG D 557     -25.544  -0.891 -14.462  1.00 35.49     0.178 HD
ENDBRANCH   4   5
ENDBRANCH   3   4
ENDBRANCH   2   3
ENDBRANCH   1   2
END_RES ARG D 557
BEGIN_RES GLU D 570
REMARK  3 active torsions:
REMARK  status: ('A' for Active; 'I' for Inactive)
REMARK    5  A    between atoms: CA   and  CB  
REMARK    6  A    between atoms: CB   and  CG  
REMARK    7  A    between atoms: CG   and  CD  
ROOT
ATOM     14  CA  GLU D 570     -18.033  -6.348 -13.375  1.00 32.92     0.160 C 
ENDROOT
BRANCH  14  15
ATOM     15  CB  GLU D 570     -19.500  -6.345 -13.794  1.00 32.92     0.043 C 
BRANCH  15  16
ATOM     16  CG  GLU D 570     -20.446  -5.550 -12.969  1.00 32.92     0.100 C 
BRANCH  16  17
ATOM     17  CD  GLU D 570     -21.704  -5.172 -13.715  1.00 32.92     0.185 C 
ATOM     18  OE1 GLU D 570     -21.861  -5.578 -14.882  1.00 32.92    -0.647 OA
ATOM     19  OE2 GLU D 570     -22.534  -4.447 -13.131  1.00 32.92    -0.647 OA
ENDBRANCH  16  17
ENDBRANCH  15  16
ENDBRANCH  14  15
END_RES GLU D 570
ENDMDL
MODEL 9
REMARK VINA RESULT:      -0.9      7.278      7.278
REMARK  11 active torsions:
REMARK  status: ('A' for Active; 'I' for Inactive)
REMARK    1  A    between atoms: C_2  and  C_3 
REMARK    2  A    between atoms: C_3  and  C_4 
REMARK    3  A    between atoms: C_4  and  C_5 
REMARK    4  A    between atoms: C_5  and  C_6 
REMARK    5  A    between atoms: C_6  and  C_7 
REMARK    6  A    between atoms: C_7  and  C_8 
REMARK    7  A    between atoms: C_8  and  C_9 
REMARK    8  A    between atoms: C_9  and  C_10 
REMARK    9  A    between atoms: C_10  and  C_11 
REMARK   10  A    between atoms: C_11  and  C_12 
REMARK   11  A    between atoms: C_11  and  S_15 
ROOT
HETATM    1 NA   UNL     2     -20.979  -9.752 -16.558  1.00  0.00     0.000 Na
ENDROOT
TORSDOF 11
BEGIN_RES ARG D 557
REMARK  4 active torsions:
REMARK  status: ('A' for Active; 'I' for Inactive)
REMARK    1  A    between atoms: CA   and  CB  
REMARK    2  A    between atoms: CB   and  CG  
REMARK    3  A    between atoms: CG   and  CD  
REMARK    4  A    between atoms: CD   and  NE  
REMARK       I    between atoms: NE   and  CZ  
REMARK       I    between atoms: CZ   and  NH1 
REMARK       I    between atoms: CZ   and  NH2 
ROOT
ATOM      1  CA  ARG D 557     -26.217   2.705 -17.014  1.00 35.49     0.159 C 
ENDROOT
BRANCH   1   2
ATOM      2  CB  ARG D 557     -26.789   1.319 -17.183  1.00 35.49     0.034 C 
BRANCH   2   3
ATOM      3  CG  ARG D 557     -25.836   0.203 -17.151  1.00 35.49     0.027 C 
BRANCH   3   4
ATOM      4  CD  ARG D 557     -24.763   0.405 -16.151  1.00 35.49     0.116 C 
BRANCH   4   5
ATOM      5  NE  ARG D 557     -24.918  -0.457 -15.009  1.00 35.49    -0.212 N 
ATOM      6  CZ  ARG D 557     -24.101  -1.426 -14.661  1.00 35.49     0.666 C 
ATOM      7  NH1 ARG D 557     -23.022  -1.729 -15.360  1.00 35.49    -0.235 N 
ATOM      8  NH2 ARG D 557     -24.386  -2.093 -13.581  1.00 35.49    -0.235 N 
ATOM      9  HH  ARG D 557     -22.814  -1.302 -16.073  1.00 35.49     0.174 HD
ATOM     10  HH  ARG D 557     -22.525  -2.370 -15.084  1.00 35.49     0.174 HD
ATOM     11  HH  ARG D 557     -25.085  -1.871 -13.146  1.00 35.49     0.174 HD
ATOM     12  HH  ARG D 557     -23.880  -2.723 -13.323  1.00 35.49     0.174 HD
ATOM     13  HE  ARG D 557     -25.625  -0.380 -14.543  1.00 35.49     0.178 HD
ENDBRANCH   4   5
ENDBRANCH   3   4
ENDBRANCH   2   3
ENDBRANCH   1   2
END_RES ARG D 557
BEGIN_RES GLU D 570
REMARK  3 active torsions:
REMARK  status: ('A' for Active; 'I' for Inactive)
REMARK    5  A    between atoms: CA   and  CB  
REMARK    6  A    between atoms: CB   and  CG  
REMARK    7  A    between atoms: CG   and  CD  
ROOT
ATOM     14  CA  GLU D 570     -18.033  -6.348 -13.375  1.00 32.92     0.160 C 
ENDROOT
BRANCH  14  15
ATOM     15  CB  GLU D 570     -19.500  -6.345 -13.794  1.00 32.92     0.043 C 
BRANCH  15  16
ATOM     16  CG  GLU D 570     -20.441  -5.527 -12.986  1.00 32.92     0.100 C 
BRANCH  16  17
ATOM     17  CD  GLU D 570     -21.742  -5.248 -13.701  1.00 32.92     0.185 C 
ATOM     18  OE1 GLU D 570     -22.229  -6.127 -14.438  1.00 32.92    -0.647 OA
ATOM     19  OE2 GLU D 570     -22.272  -4.131 -13.535  1.00 32.92    -0.647 OA
ENDBRANCH  16  17
ENDBRANCH  15  16
ENDBRANCH  14  15
END_RES GLU D 570
ENDMDL
