MODEL 1
REMARK VINA RESULT:      -6.6      0.000      0.000
REMARK  4 active torsions:
REMARK  status: ('A' for Active; 'I' for Inactive)
REMARK    1  A    between atoms: C_2  and  O_3 
REMARK    2  A    between atoms: O_3  and  C_4 
REMARK    3  A    between atoms: C_4  and  C_6 
REMARK    4  A    between atoms: C_9  and  O_12 
ROOT
HETATM    1  C   UNL     1     -23.841  -3.875 -11.692  1.00  0.00     0.039 A 
HETATM    2  C   UNL     1     -23.515  -5.110 -12.276  1.00  0.00     0.020 A 
HETATM    3  C   UNL     1     -22.894  -5.157 -13.526  1.00  0.00     0.037 A 
HETATM    4  C   UNL     1     -22.604  -3.966 -14.185  1.00  0.00     0.065 A 
HETATM    5  C   UNL     1     -22.918  -2.735 -13.615  1.00  0.00     0.037 A 
HETATM    6  C   UNL     1     -23.532  -2.686 -12.363  1.00  0.00     0.020 A 
ENDROOT
BRANCH   1   7
HETATM    7  C   UNL     1     -24.417  -3.798 -10.325  1.00  0.00     0.293 C 
HETATM    8  O   UNL     1     -25.413  -3.154 -10.045  1.00  0.00    -0.259 OA
BRANCH   7   9
HETATM    9  O   UNL     1     -23.618  -4.481  -9.472  1.00  0.00    -0.318 OA
BRANCH   9  10
HETATM   10  C   UNL     1     -22.580  -3.714  -8.854  1.00  0.00     0.174 C 
HETATM   11  C   UNL     1     -21.272  -4.441  -9.107  1.00  0.00     0.034 C 
ENDBRANCH   9  10
ENDBRANCH   7   9
ENDBRANCH   1   7
BRANCH   4  12
HETATM   12  O   UNL     1     -21.993  -3.964 -15.403  1.00  0.00    -0.361 OA
HETATM   13  H   UNL     1     -22.147  -3.105 -15.828  1.00  0.00     0.217 HD
ENDBRANCH   4  12
TORSDOF 4
BEGIN_RES ARG D 557
REMARK  4 active torsions:
REMARK  status: ('A' for Active; 'I' for Inactive)
REMARK    1  A    between atoms: CA   and  CB  
REMARK    2  A    between atoms: CB   and  CG  
REMARK    3  A    between atoms: CG   and  CD  
REMARK    4  A    between atoms: CD   and  NE  
REMARK       I    between atoms: NE   and  CZ  
REMARK       I    between atoms: CZ   and  NH1 
REMARK       I    between atoms: CZ   and  NH2 
ROOT
ATOM      1  CA  ARG D 557     -26.217   2.705 -17.014  1.00 35.49     0.159 C 
ENDROOT
BRANCH   1   2
ATOM      2  CB  ARG D 557     -26.789   1.319 -17.183  1.00 35.49     0.034 C 
BRANCH   2   3
ATOM      3  CG  ARG D 557     -28.236   1.225 -17.414  1.00 35.49     0.027 C 
BRANCH   3   4
ATOM      4  CD  ARG D 557     -28.896   0.285 -16.479  1.00 35.49     0.116 C 
BRANCH   4   5
ATOM      5  NE  ARG D 557     -29.283  -0.941 -17.126  1.00 35.49    -0.212 N 
ATOM      6  CZ  ARG D 557     -28.655  -2.091 -17.031  1.00 35.49     0.666 C 
ATOM      7  NH1 ARG D 557     -27.555  -2.241 -16.317  1.00 35.49    -0.235 N 
ATOM      8  NH2 ARG D 557     -29.161  -3.106 -17.670  1.00 35.49    -0.235 N 
ATOM      9  HH  ARG D 557     -27.206  -1.587 -15.886  1.00 35.49     0.174 HD
ATOM     10  HH  ARG D 557     -27.190  -3.016 -16.289  1.00 35.49     0.174 HD
ATOM     11  HH  ARG D 557     -29.876  -2.981 -18.117  1.00 35.49     0.174 HD
ATOM     12  HH  ARG D 557     -28.785  -3.865 -17.629  1.00 35.49     0.174 HD
ATOM     13  HE  ARG D 557     -29.941  -0.918 -17.665  1.00 35.49     0.178 HD
ENDBRANCH   4   5
ENDBRANCH   3   4
ENDBRANCH   2   3
ENDBRANCH   1   2
END_RES ARG D 557
BEGIN_RES GLU D 570
REMARK  3 active torsions:
REMARK  status: ('A' for Active; 'I' for Inactive)
REMARK    5  A    between atoms: CA   and  CB  
REMARK    6  A    between atoms: CB   and  CG  
REMARK    7  A    between atoms: CG   and  CD  
ROOT
ATOM     14  CA  GLU D 570     -18.033  -6.348 -13.375  1.00 32.92     0.160 C 
ENDROOT
BRANCH  14  15
ATOM     15  CB  GLU D 570     -19.500  -6.345 -13.794  1.00 32.92     0.043 C 
BRANCH  15  16
ATOM     16  CG  GLU D 570     -20.084  -7.632 -14.251  1.00 32.92     0.100 C 
BRANCH  16  17
ATOM     17  CD  GLU D 570     -20.703  -7.543 -15.627  1.00 32.92     0.185 C 
ATOM     18  OE1 GLU D 570     -21.205  -8.565 -16.132  1.00 32.92    -0.647 OA
ATOM     19  OE2 GLU D 570     -20.670  -6.443 -16.213  1.00 32.92    -0.647 OA
ENDBRANCH  16  17
ENDBRANCH  15  16
ENDBRANCH  14  15
END_RES GLU D 570
ENDMDL
MODEL 2
REMARK VINA RESULT:      -6.5      2.762      3.784
REMARK  4 active torsions:
REMARK  status: ('A' for Active; 'I' for Inactive)
REMARK    1  A    between atoms: C_2  and  O_3 
REMARK    2  A    between atoms: O_3  and  C_4 
REMARK    3  A    between atoms: C_4  and  C_6 
REMARK    4  A    between atoms: C_9  and  O_12 
ROOT
HETATM    1  C   UNL     1     -21.967  -4.124  -8.783  1.00  0.00     0.039 A 
HETATM    2  C   UNL     1     -20.721  -4.171  -9.431  1.00  0.00     0.020 A 
HETATM    3  C   UNL     1     -20.629  -3.919 -10.802  1.00  0.00     0.037 A 
HETATM    4  C   UNL     1     -21.787  -3.621 -11.516  1.00  0.00     0.065 A 
HETATM    5  C   UNL     1     -23.026  -3.567 -10.884  1.00  0.00     0.037 A 
HETATM    6  C   UNL     1     -23.119  -3.811  -9.514  1.00  0.00     0.020 A 
ENDROOT
BRANCH   1   7
HETATM    7  C   UNL     1     -22.076  -4.296  -7.311  1.00  0.00     0.293 C 
HETATM    8  O   UNL     1     -23.115  -4.579  -6.739  1.00  0.00    -0.259 OA
BRANCH   7   9
HETATM    9  O   UNL     1     -20.879  -4.017  -6.745  1.00  0.00    -0.318 OA
BRANCH   9  10
HETATM   10  C   UNL     1     -20.482  -4.890  -5.683  1.00  0.00     0.174 C 
HETATM   11  C   UNL     1     -20.075  -6.209  -6.313  1.00  0.00     0.034 C 
ENDBRANCH   9  10
ENDBRANCH   7   9
ENDBRANCH   1   7
BRANCH   4  12
HETATM   12  O   UNL     1     -21.743  -3.362 -12.853  1.00  0.00    -0.361 OA
HETATM   13  H   UNL     1     -20.994  -3.843 -13.240  1.00  0.00     0.217 HD
ENDBRANCH   4  12
TORSDOF 4
BEGIN_RES ARG D 557
REMARK  4 active torsions:
REMARK  status: ('A' for Active; 'I' for Inactive)
REMARK    1  A    between atoms: CA   and  CB  
REMARK    2  A    between atoms: CB   and  CG  
REMARK    3  A    between atoms: CG   and  CD  
REMARK    4  A    between atoms: CD   and  NE  
REMARK       I    between atoms: NE   and  CZ  
REMARK       I    between atoms: CZ   and  NH1 
REMARK       I    between atoms: CZ   and  NH2 
ROOT
ATOM      1  CA  ARG D 557     -26.217   2.705 -17.014  1.00 35.49     0.159 C 
ENDROOT
BRANCH   1   2
ATOM      2  CB  ARG D 557     -26.789   1.319 -17.183  1.00 35.49     0.034 C 
BRANCH   2   3
ATOM      3  CG  ARG D 557     -25.833   0.205 -17.178  1.00 35.49     0.027 C 
BRANCH   3   4
ATOM      4  CD  ARG D 557     -24.763   0.384 -16.170  1.00 35.49     0.116 C 
BRANCH   4   5
ATOM      5  NE  ARG D 557     -24.939  -0.481 -15.033  1.00 35.49    -0.212 N 
ATOM      6  CZ  ARG D 557     -24.125  -1.447 -14.670  1.00 35.49     0.666 C 
ATOM      7  NH1 ARG D 557     -23.029  -1.742 -15.345  1.00 35.49    -0.235 N 
ATOM      8  NH2 ARG D 557     -24.430  -2.117 -13.597  1.00 35.49    -0.235 N 
ATOM      9  HH  ARG D 557     -22.808  -1.313 -16.052  1.00 35.49     0.174 HD
ATOM     10  HH  ARG D 557     -22.535  -2.381 -15.059  1.00 35.49     0.174 HD
ATOM     11  HH  ARG D 557     -25.140  -1.899 -13.177  1.00 35.49     0.174 HD
ATOM     12  HH  ARG D 557     -23.927  -2.745 -13.329  1.00 35.49     0.174 HD
ATOM     13  HE  ARG D 557     -25.656  -0.408 -14.583  1.00 35.49     0.178 HD
ENDBRANCH   4   5
ENDBRANCH   3   4
ENDBRANCH   2   3
ENDBRANCH   1   2
END_RES ARG D 557
BEGIN_RES GLU D 570
REMARK  3 active torsions:
REMARK  status: ('A' for Active; 'I' for Inactive)
REMARK    5  A    between atoms: CA   and  CB  
REMARK    6  A    between atoms: CB   and  CG  
REMARK    7  A    between atoms: CG   and  CD  
ROOT
ATOM     14  CA  GLU D 570     -18.033  -6.348 -13.375  1.00 32.92     0.160 C 
ENDROOT
BRANCH  14  15
ATOM     15  CB  GLU D 570     -19.500  -6.345 -13.794  1.00 32.92     0.043 C 
BRANCH  15  16
ATOM     16  CG  GLU D 570     -19.819  -5.873 -15.166  1.00 32.92     0.100 C 
BRANCH  16  17
ATOM     17  CD  GLU D 570     -21.300  -5.677 -15.392  1.00 32.92     0.185 C 
ATOM     18  OE1 GLU D 570     -21.727  -4.535 -15.649  1.00 32.92    -0.647 OA
ATOM     19  OE2 GLU D 570     -22.043  -6.673 -15.295  1.00 32.92    -0.647 OA
ENDBRANCH  16  17
ENDBRANCH  15  16
ENDBRANCH  14  15
END_RES GLU D 570
ENDMDL
MODEL 3
REMARK VINA RESULT:      -6.4      7.246      9.540
REMARK  4 active torsions:
REMARK  status: ('A' for Active; 'I' for Inactive)
REMARK    1  A    between atoms: C_2  and  O_3 
REMARK    2  A    between atoms: O_3  and  C_4 
REMARK    3  A    between atoms: C_4  and  C_6 
REMARK    4  A    between atoms: C_9  and  O_12 
ROOT
HETATM    1  C   UNL     1     -35.025  -2.690 -11.059  1.00  0.00     0.039 A 
HETATM    2  C   UNL     1     -33.678  -2.589 -11.446  1.00  0.00     0.020 A 
HETATM    3  C   UNL     1     -32.888  -3.736 -11.555  1.00  0.00     0.037 A 
HETATM    4  C   UNL     1     -33.453  -4.977 -11.275  1.00  0.00     0.065 A 
HETATM    5  C   UNL     1     -34.788  -5.091 -10.896  1.00  0.00     0.037 A 
HETATM    6  C   UNL     1     -35.580  -3.947 -10.793  1.00  0.00     0.020 A 
ENDROOT
BRANCH   1   7
HETATM    7  C   UNL     1     -35.907  -1.495 -11.026  1.00  0.00     0.293 C 
HETATM    8  O   UNL     1     -36.607  -1.145 -11.960  1.00  0.00    -0.259 OA
BRANCH   7   9
HETATM    9  O   UNL     1     -35.735  -0.853  -9.847  1.00  0.00    -0.318 OA
BRANCH   9  10
HETATM   10  C   UNL     1     -36.937  -0.417  -9.203  1.00  0.00     0.174 C 
HETATM   11  C   UNL     1     -36.527   0.407  -7.996  1.00  0.00     0.034 C 
ENDBRANCH   9  10
ENDBRANCH   7   9
ENDBRANCH   1   7
BRANCH   4  12
HETATM   12  O   UNL     1     -32.722  -6.123 -11.376  1.00  0.00    -0.361 OA
HETATM   13  H   UNL     1     -31.929  -5.942 -11.906  1.00  0.00     0.217 HD
ENDBRANCH   4  12
TORSDOF 4
BEGIN_RES ARG D 557
REMARK  4 active torsions:
REMARK  status: ('A' for Active; 'I' for Inactive)
REMARK    1  A    between atoms: CA   and  CB  
REMARK    2  A    between atoms: CB   and  CG  
REMARK    3  A    between atoms: CG   and  CD  
REMARK    4  A    between atoms: CD   and  NE  
REMARK       I    between atoms: NE   and  CZ  
REMARK       I    between atoms: CZ   and  NH1 
REMARK       I    between atoms: CZ   and  NH2 
ROOT
ATOM      1  CA  ARG D 557     -26.217   2.705 -17.014  1.00 35.49     0.159 C 
ENDROOT
BRANCH   1   2
ATOM      2  CB  ARG D 557     -26.789   1.319 -17.183  1.00 35.49     0.034 C 
BRANCH   2   3
ATOM      3  CG  ARG D 557     -25.834   0.204 -17.169  1.00 35.49     0.027 C 
BRANCH   3   4
ATOM      4  CD  ARG D 557     -24.744   0.407 -16.188  1.00 35.49     0.116 C 
BRANCH   4   5
ATOM      5  NE  ARG D 557     -24.893  -0.434 -15.030  1.00 35.49    -0.212 N 
ATOM      6  CZ  ARG D 557     -24.079  -1.402 -14.673  1.00 35.49     0.666 C 
ATOM      7  NH1 ARG D 557     -23.009  -1.724 -15.376  1.00 35.49    -0.235 N 
ATOM      8  NH2 ARG D 557     -24.359  -2.049 -13.579  1.00 35.49    -0.235 N 
ATOM      9  HH  ARG D 557     -22.805  -1.310 -16.098  1.00 35.49     0.174 HD
ATOM     10  HH  ARG D 557     -22.513  -2.363 -15.093  1.00 35.49     0.174 HD
ATOM     11  HH  ARG D 557     -25.052  -1.814 -13.141  1.00 35.49     0.174 HD
ATOM     12  HH  ARG D 557     -23.855  -2.677 -13.314  1.00 35.49     0.174 HD
ATOM     13  HE  ARG D 557     -25.596  -0.344 -14.559  1.00 35.49     0.178 HD
ENDBRANCH   4   5
ENDBRANCH   3   4
ENDBRANCH   2   3
ENDBRANCH   1   2
END_RES ARG D 557
BEGIN_RES GLU D 570
REMARK  3 active torsions:
REMARK  status: ('A' for Active; 'I' for Inactive)
REMARK    5  A    between atoms: CA   and  CB  
REMARK    6  A    between atoms: CB   and  CG  
REMARK    7  A    between atoms: CG   and  CD  
ROOT
ATOM     14  CA  GLU D 570     -18.033  -6.348 -13.375  1.00 32.92     0.160 C 
ENDROOT
BRANCH  14  15
ATOM     15  CB  GLU D 570     -19.500  -6.345 -13.794  1.00 32.92     0.043 C 
BRANCH  15  16
ATOM     16  CG  GLU D 570     -20.443  -5.538 -12.978  1.00 32.92     0.100 C 
BRANCH  16  17
ATOM     17  CD  GLU D 570     -21.734  -5.231 -13.701  1.00 32.92     0.185 C 
ATOM     18  OE1 GLU D 570     -22.266  -4.115 -13.543  1.00 32.92    -0.647 OA
ATOM     19  OE2 GLU D 570     -22.228  -6.122 -14.419  1.00 32.92    -0.647 OA
ENDBRANCH  16  17
ENDBRANCH  15  16
ENDBRANCH  14  15
END_RES GLU D 570
ENDMDL
MODEL 4
REMARK VINA RESULT:      -6.4      6.692      9.330
REMARK  4 active torsions:
REMARK  status: ('A' for Active; 'I' for Inactive)
REMARK    1  A    between atoms: C_2  and  O_3 
REMARK    2  A    between atoms: O_3  and  C_4 
REMARK    3  A    between atoms: C_4  and  C_6 
REMARK    4  A    between atoms: C_9  and  O_12 
ROOT
HETATM    1  C   UNL     1     -34.905  -2.928 -11.294  1.00  0.00     0.039 A 
HETATM    2  C   UNL     1     -35.501  -4.126 -10.862  1.00  0.00     0.020 A 
HETATM    3  C   UNL     1     -34.769  -5.315 -10.855  1.00  0.00     0.037 A 
HETATM    4  C   UNL     1     -33.444  -5.299 -11.282  1.00  0.00     0.065 A 
HETATM    5  C   UNL     1     -32.841  -4.118 -11.708  1.00  0.00     0.037 A 
HETATM    6  C   UNL     1     -33.569  -2.928 -11.709  1.00  0.00     0.020 A 
ENDROOT
BRANCH   1   7
HETATM    7  C   UNL     1     -35.635  -1.636 -11.222  1.00  0.00     0.293 C 
HETATM    8  O   UNL     1     -35.682  -0.941 -10.222  1.00  0.00    -0.259 OA
BRANCH   7   9
HETATM    9  O   UNL     1     -36.272  -1.425 -12.397  1.00  0.00    -0.318 OA
BRANCH   9  10
HETATM   10  C   UNL     1     -36.357  -0.058 -12.814  1.00  0.00     0.174 C 
HETATM   11  C   UNL     1     -35.024   0.303 -13.443  1.00  0.00     0.034 C 
ENDBRANCH   9  10
ENDBRANCH   7   9
ENDBRANCH   1   7
BRANCH   4  12
HETATM   12  O   UNL     1     -32.690  -6.434 -11.286  1.00  0.00    -0.361 OA
HETATM   13  H   UNL     1     -32.345  -6.576 -12.182  1.00  0.00     0.217 HD
ENDBRANCH   4  12
TORSDOF 4
BEGIN_RES ARG D 557
REMARK  4 active torsions:
REMARK  status: ('A' for Active; 'I' for Inactive)
REMARK    1  A    between atoms: CA   and  CB  
REMARK    2  A    between atoms: CB   and  CG  
REMARK    3  A    between atoms: CG   and  CD  
REMARK    4  A    between atoms: CD   and  NE  
REMARK       I    between atoms: NE   and  CZ  
REMARK       I    between atoms: CZ   and  NH1 
REMARK       I    between atoms: CZ   and  NH2 
ROOT
ATOM      1  CA  ARG D 557     -26.217   2.705 -17.014  1.00 35.49     0.159 C 
ENDROOT
BRANCH   1   2
ATOM      2  CB  ARG D 557     -26.789   1.319 -17.183  1.00 35.49     0.034 C 
BRANCH   2   3
ATOM      3  CG  ARG D 557     -25.865   0.195 -16.989  1.00 35.49     0.027 C 
BRANCH   3   4
ATOM      4  CD  ARG D 557     -26.290  -0.700 -15.888  1.00 35.49     0.116 C 
BRANCH   4   5
ATOM      5  NE  ARG D 557     -25.239  -0.915 -14.928  1.00 35.49    -0.212 N 
ATOM      6  CZ  ARG D 557     -24.950  -2.059 -14.349  1.00 35.49     0.666 C 
ATOM      7  NH1 ARG D 557     -25.630  -3.166 -14.587  1.00 35.49    -0.235 N 
ATOM      8  NH2 ARG D 557     -23.949  -2.075 -13.518  1.00 35.49    -0.235 N 
ATOM      9  HH  ARG D 557     -26.291  -3.179 -15.131  1.00 35.49     0.174 HD
ATOM     10  HH  ARG D 557     -25.394  -3.883 -14.181  1.00 35.49     0.174 HD
ATOM     11  HH  ARG D 557     -23.524  -1.347 -13.389  1.00 35.49     0.174 HD
ATOM     12  HH  ARG D 557     -23.730  -2.795 -13.128  1.00 35.49     0.174 HD
ATOM     13  HE  ARG D 557     -24.797  -0.239 -14.662  1.00 35.49     0.178 HD
ENDBRANCH   4   5
ENDBRANCH   3   4
ENDBRANCH   2   3
ENDBRANCH   1   2
END_RES ARG D 557
BEGIN_RES GLU D 570
REMARK  3 active torsions:
REMARK  status: ('A' for Active; 'I' for Inactive)
REMARK    5  A    between atoms: CA   and  CB  
REMARK    6  A    between atoms: CB   and  CG  
REMARK    7  A    between atoms: CG   and  CD  
ROOT
ATOM     14  CA  GLU D 570     -18.033  -6.348 -13.375  1.00 32.92     0.160 C 
ENDROOT
BRANCH  14  15
ATOM     15  CB  GLU D 570     -19.500  -6.345 -13.794  1.00 32.92     0.043 C 
BRANCH  15  16
ATOM     16  CG  GLU D 570     -20.448  -5.561 -12.961  1.00 32.92     0.100 C 
BRANCH  16  17
ATOM     17  CD  GLU D 570     -21.677  -5.122 -13.722  1.00 32.92     0.185 C 
ATOM     18  OE1 GLU D 570     -21.612  -5.004 -14.961  1.00 32.92    -0.647 OA
ATOM     19  OE2 GLU D 570     -22.712  -4.878 -13.071  1.00 32.92    -0.647 OA
ENDBRANCH  16  17
ENDBRANCH  15  16
ENDBRANCH  14  15
END_RES GLU D 570
ENDMDL
MODEL 5
REMARK VINA RESULT:      -6.2      6.454      8.970
REMARK  4 active torsions:
REMARK  status: ('A' for Active; 'I' for Inactive)
REMARK    1  A    between atoms: C_2  and  O_3 
REMARK    2  A    between atoms: O_3  and  C_4 
REMARK    3  A    between atoms: C_4  and  C_6 
REMARK    4  A    between atoms: C_9  and  O_12 
ROOT
HETATM    1  C   UNL     1     -34.934  -2.903 -11.262  1.00  0.00     0.039 A 
HETATM    2  C   UNL     1     -35.507  -4.122 -10.862  1.00  0.00     0.020 A 
HETATM    3  C   UNL     1     -34.750  -5.295 -10.877  1.00  0.00     0.037 A 
HETATM    4  C   UNL     1     -33.423  -5.241 -11.292  1.00  0.00     0.065 A 
HETATM    5  C   UNL     1     -32.841  -4.038 -11.686  1.00  0.00     0.037 A 
HETATM    6  C   UNL     1     -33.594  -2.864 -11.665  1.00  0.00     0.020 A 
ENDROOT
BRANCH   1   7
HETATM    7  C   UNL     1     -35.691  -1.628 -11.166  1.00  0.00     0.293 C 
HETATM    8  O   UNL     1     -35.728  -0.937 -10.163  1.00  0.00    -0.259 OA
BRANCH   7   9
HETATM    9  O   UNL     1     -36.366  -1.429 -12.323  1.00  0.00    -0.318 OA
BRANCH   9  10
HETATM   10  C   UNL     1     -36.407  -0.075 -12.785  1.00  0.00     0.174 C 
HETATM   11  C   UNL     1     -35.041   0.246 -13.362  1.00  0.00     0.034 C 
ENDBRANCH   9  10
ENDBRANCH   7   9
ENDBRANCH   1   7
BRANCH   4  12
HETATM   12  O   UNL     1     -32.645  -6.359 -11.316  1.00  0.00    -0.361 OA
HETATM   13  H   UNL     1     -32.734  -6.820 -10.465  1.00  0.00     0.217 HD
ENDBRANCH   4  12
TORSDOF 4
BEGIN_RES ARG D 557
REMARK  4 active torsions:
REMARK  status: ('A' for Active; 'I' for Inactive)
REMARK    1  A    between atoms: CA   and  CB  
REMARK    2  A    between atoms: CB   and  CG  
REMARK    3  A    between atoms: CG   and  CD  
REMARK    4  A    between atoms: CD   and  NE  
REMARK       I    between atoms: NE   and  CZ  
REMARK       I    between atoms: CZ   and  NH1 
REMARK       I    between atoms: CZ   and  NH2 
ROOT
ATOM      1  CA  ARG D 557     -26.217   2.705 -17.014  1.00 35.49     0.159 C 
ENDROOT
BRANCH   1   2
ATOM      2  CB  ARG D 557     -26.789   1.319 -17.183  1.00 35.49     0.034 C 
BRANCH   2   3
ATOM      3  CG  ARG D 557     -28.232   1.226 -17.439  1.00 35.49     0.027 C 
BRANCH   3   4
ATOM      4  CD  ARG D 557     -28.913   0.304 -16.502  1.00 35.49     0.116 C 
BRANCH   4   5
ATOM      5  NE  ARG D 557     -29.288  -0.933 -17.134  1.00 35.49    -0.212 N 
ATOM      6  CZ  ARG D 557     -28.648  -2.076 -17.026  1.00 35.49     0.666 C 
ATOM      7  NH1 ARG D 557     -27.547  -2.207 -16.310  1.00 35.49    -0.235 N 
ATOM      8  NH2 ARG D 557     -29.144  -3.103 -17.654  1.00 35.49    -0.235 N 
ATOM      9  HH  ARG D 557     -27.204  -1.545 -15.888  1.00 35.49     0.174 HD
ATOM     10  HH  ARG D 557     -27.174  -2.978 -16.274  1.00 35.49     0.174 HD
ATOM     11  HH  ARG D 557     -29.860  -2.990 -18.102  1.00 35.49     0.174 HD
ATOM     12  HH  ARG D 557     -28.761  -3.858 -17.604  1.00 35.49     0.174 HD
ATOM     13  HE  ARG D 557     -29.945  -0.922 -17.674  1.00 35.49     0.178 HD
ENDBRANCH   4   5
ENDBRANCH   3   4
ENDBRANCH   2   3
ENDBRANCH   1   2
END_RES ARG D 557
BEGIN_RES GLU D 570
REMARK  3 active torsions:
REMARK  status: ('A' for Active; 'I' for Inactive)
REMARK    5  A    between atoms: CA   and  CB  
REMARK    6  A    between atoms: CB   and  CG  
REMARK    7  A    between atoms: CG   and  CD  
ROOT
ATOM     14  CA  GLU D 570     -18.033  -6.348 -13.375  1.00 32.92     0.160 C 
ENDROOT
BRANCH  14  15
ATOM     15  CB  GLU D 570     -19.500  -6.345 -13.794  1.00 32.92     0.043 C 
BRANCH  15  16
ATOM     16  CG  GLU D 570     -20.081  -7.630 -14.261  1.00 32.92     0.100 C 
BRANCH  16  17
ATOM     17  CD  GLU D 570     -20.683  -7.537 -15.644  1.00 32.92     0.185 C 
ATOM     18  OE1 GLU D 570     -20.570  -6.473 -16.283  1.00 32.92    -0.647 OA
ATOM     19  OE2 GLU D 570     -21.289  -8.532 -16.087  1.00 32.92    -0.647 OA
ENDBRANCH  16  17
ENDBRANCH  15  16
ENDBRANCH  14  15
END_RES GLU D 570
ENDMDL
MODEL 6
REMARK VINA RESULT:      -6.1      1.684      3.708
REMARK  4 active torsions:
REMARK  status: ('A' for Active; 'I' for Inactive)
REMARK    1  A    between atoms: C_2  and  O_3 
REMARK    2  A    between atoms: O_3  and  C_4 
REMARK    3  A    between atoms: C_4  and  C_6 
REMARK    4  A    between atoms: C_9  and  O_12 
ROOT
HETATM    1  C   UNL     1     -23.113  -3.732  -9.778  1.00  0.00     0.039 A 
HETATM    2  C   UNL     1     -23.282  -4.099  -8.432  1.00  0.00     0.020 A 
HETATM    3  C   UNL     1     -22.179  -4.460  -7.656  1.00  0.00     0.037 A 
HETATM    4  C   UNL     1     -20.912  -4.450  -8.232  1.00  0.00     0.065 A 
HETATM    5  C   UNL     1     -20.730  -4.083  -9.563  1.00  0.00     0.037 A 
HETATM    6  C   UNL     1     -21.831  -3.716 -10.338  1.00  0.00     0.020 A 
ENDROOT
BRANCH   1   7
HETATM    7  C   UNL     1     -24.259  -3.256 -10.596  1.00  0.00     0.293 C 
HETATM    8  O   UNL     1     -25.418  -3.295 -10.222  1.00  0.00    -0.259 OA
BRANCH   7   9
HETATM    9  O   UNL     1     -23.802  -2.865 -11.808  1.00  0.00    -0.318 OA
BRANCH   9  10
HETATM   10  C   UNL     1     -24.761  -2.907 -12.870  1.00  0.00     0.174 C 
HETATM   11  C   UNL     1     -24.135  -2.218 -14.069  1.00  0.00     0.034 C 
ENDBRANCH   9  10
ENDBRANCH   7   9
ENDBRANCH   1   7
BRANCH   4  12
HETATM   12  O   UNL     1     -19.806  -4.787  -7.510  1.00  0.00    -0.361 OA
HETATM   13  H   UNL     1     -20.066  -4.916  -6.583  1.00  0.00     0.217 HD
ENDBRANCH   4  12
TORSDOF 4
BEGIN_RES ARG D 557
REMARK  4 active torsions:
REMARK  status: ('A' for Active; 'I' for Inactive)
REMARK    1  A    between atoms: CA   and  CB  
REMARK    2  A    between atoms: CB   and  CG  
REMARK    3  A    between atoms: CG   and  CD  
REMARK    4  A    between atoms: CD   and  NE  
REMARK       I    between atoms: NE   and  CZ  
REMARK       I    between atoms: CZ   and  NH1 
REMARK       I    between atoms: CZ   and  NH2 
ROOT
ATOM      1  CA  ARG D 557     -26.217   2.705 -17.014  1.00 35.49     0.159 C 
ENDROOT
BRANCH   1   2
ATOM      2  CB  ARG D 557     -26.789   1.319 -17.183  1.00 35.49     0.034 C 
BRANCH   2   3
ATOM      3  CG  ARG D 557     -28.233   1.226 -17.433  1.00 35.49     0.027 C 
BRANCH   3   4
ATOM      4  CD  ARG D 557     -28.909   0.300 -16.496  1.00 35.49     0.116 C 
BRANCH   4   5
ATOM      5  NE  ARG D 557     -29.299  -0.929 -17.134  1.00 35.49    -0.212 N 
ATOM      6  CZ  ARG D 557     -28.671  -2.079 -17.034  1.00 35.49     0.666 C 
ATOM      7  NH1 ARG D 557     -27.569  -2.226 -16.322  1.00 35.49    -0.235 N 
ATOM      8  NH2 ARG D 557     -29.179  -3.098 -17.665  1.00 35.49    -0.235 N 
ATOM      9  HH  ARG D 557     -27.218  -1.570 -15.896  1.00 35.49     0.174 HD
ATOM     10  HH  ARG D 557     -27.205  -3.001 -16.291  1.00 35.49     0.174 HD
ATOM     11  HH  ARG D 557     -29.895  -2.975 -18.112  1.00 35.49     0.174 HD
ATOM     12  HH  ARG D 557     -28.804  -3.857 -17.621  1.00 35.49     0.174 HD
ATOM     13  HE  ARG D 557     -29.958  -0.909 -17.672  1.00 35.49     0.178 HD
ENDBRANCH   4   5
ENDBRANCH   3   4
ENDBRANCH   2   3
ENDBRANCH   1   2
END_RES ARG D 557
BEGIN_RES GLU D 570
REMARK  3 active torsions:
REMARK  status: ('A' for Active; 'I' for Inactive)
REMARK    5  A    between atoms: CA   and  CB  
REMARK    6  A    between atoms: CB   and  CG  
REMARK    7  A    between atoms: CG   and  CD  
ROOT
ATOM     14  CA  GLU D 570     -18.033  -6.348 -13.375  1.00 32.92     0.160 C 
ENDROOT
BRANCH  14  15
ATOM     15  CB  GLU D 570     -19.500  -6.345 -13.794  1.00 32.92     0.043 C 
BRANCH  15  16
ATOM     16  CG  GLU D 570     -20.423  -5.449 -13.050  1.00 32.92     0.100 C 
BRANCH  16  17
ATOM     17  CD  GLU D 570     -21.733  -5.226 -13.767  1.00 32.92     0.185 C 
ATOM     18  OE1 GLU D 570     -22.786  -5.645 -13.249  1.00 32.92    -0.647 OA
ATOM     19  OE2 GLU D 570     -21.705  -4.640 -14.868  1.00 32.92    -0.647 OA
ENDBRANCH  16  17
ENDBRANCH  15  16
ENDBRANCH  14  15
END_RES GLU D 570
ENDMDL
MODEL 7
REMARK VINA RESULT:      -6.0      2.671      3.850
REMARK  4 active torsions:
REMARK  status: ('A' for Active; 'I' for Inactive)
REMARK    1  A    between atoms: C_2  and  O_3 
REMARK    2  A    between atoms: O_3  and  C_4 
REMARK    3  A    between atoms: C_4  and  C_6 
REMARK    4  A    between atoms: C_9  and  O_12 
ROOT
HETATM    1  C   UNL     1     -21.105  -4.704  -8.875  1.00  0.00     0.039 A 
HETATM    2  C   UNL     1     -22.408  -4.225  -9.087  1.00  0.00     0.020 A 
HETATM    3  C   UNL     1     -22.749  -3.621 -10.299  1.00  0.00     0.037 A 
HETATM    4  C   UNL     1     -21.781  -3.500 -11.292  1.00  0.00     0.065 A 
HETATM    5  C   UNL     1     -20.487  -3.975 -11.096  1.00  0.00     0.037 A 
HETATM    6  C   UNL     1     -20.147  -4.585  -9.888  1.00  0.00     0.020 A 
ENDROOT
BRANCH   1   7
HETATM    7  C   UNL     1     -20.745  -5.432  -7.630  1.00  0.00     0.293 C 
HETATM    8  O   UNL     1     -19.861  -6.269  -7.568  1.00  0.00    -0.259 OA
BRANCH   7   9
HETATM    9  O   UNL     1     -21.598  -5.066  -6.645  1.00  0.00    -0.318 OA
BRANCH   9  10
HETATM   10  C   UNL     1     -21.274  -5.555  -5.339  1.00  0.00     0.174 C 
HETATM   11  C   UNL     1     -22.316  -6.598  -4.978  1.00  0.00     0.034 C 
ENDBRANCH   9  10
ENDBRANCH   7   9
ENDBRANCH   1   7
BRANCH   4  12
HETATM   12  O   UNL     1     -22.070  -2.924 -12.493  1.00  0.00    -0.361 OA
HETATM   13  H   UNL     1     -21.246  -2.602 -12.892  1.00  0.00     0.217 HD
ENDBRANCH   4  12
TORSDOF 4
BEGIN_RES ARG D 557
REMARK  4 active torsions:
REMARK  status: ('A' for Active; 'I' for Inactive)
REMARK    1  A    between atoms: CA   and  CB  
REMARK    2  A    between atoms: CB   and  CG  
REMARK    3  A    between atoms: CG   and  CD  
REMARK    4  A    between atoms: CD   and  NE  
REMARK       I    between atoms: NE   and  CZ  
REMARK       I    between atoms: CZ   and  NH1 
REMARK       I    between atoms: CZ   and  NH2 
ROOT
ATOM      1  CA  ARG D 557     -26.217   2.705 -17.014  1.00 35.49     0.159 C 
ENDROOT
BRANCH   1   2
ATOM      2  CB  ARG D 557     -26.789   1.319 -17.183  1.00 35.49     0.034 C 
BRANCH   2   3
ATOM      3  CG  ARG D 557     -25.907   0.195 -16.848  1.00 35.49     0.027 C 
BRANCH   3   4
ATOM      4  CD  ARG D 557     -26.605  -0.861 -16.079  1.00 35.49     0.116 C 
BRANCH   4   5
ATOM      5  NE  ARG D 557     -25.778  -1.408 -15.035  1.00 35.49    -0.212 N 
ATOM      6  CZ  ARG D 557     -25.771  -2.660 -14.638  1.00 35.49     0.666 C 
ATOM      7  NH1 ARG D 557     -26.562  -3.576 -15.166  1.00 35.49    -0.235 N 
ATOM      8  NH2 ARG D 557     -24.940  -2.985 -13.691  1.00 35.49    -0.235 N 
ATOM      9  HH  ARG D 557     -27.116  -3.385 -15.791  1.00 35.49     0.174 HD
ATOM     10  HH  ARG D 557     -26.512  -4.378 -14.868  1.00 35.49     0.174 HD
ATOM     11  HH  ARG D 557     -24.436  -2.375 -13.374  1.00 35.49     0.174 HD
ATOM     12  HH  ARG D 557     -24.904  -3.785 -13.411  1.00 35.49     0.174 HD
ATOM     13  HE  ARG D 557     -25.289  -0.872 -14.591  1.00 35.49     0.178 HD
ENDBRANCH   4   5
ENDBRANCH   3   4
ENDBRANCH   2   3
ENDBRANCH   1   2
END_RES ARG D 557
BEGIN_RES GLU D 570
REMARK  3 active torsions:
REMARK  status: ('A' for Active; 'I' for Inactive)
REMARK    5  A    between atoms: CA   and  CB  
REMARK    6  A    between atoms: CB   and  CG  
REMARK    7  A    between atoms: CG   and  CD  
ROOT
ATOM     14  CA  GLU D 570     -18.033  -6.348 -13.375  1.00 32.92     0.160 C 
ENDROOT
BRANCH  14  15
ATOM     15  CB  GLU D 570     -19.500  -6.345 -13.794  1.00 32.92     0.043 C 
BRANCH  15  16
ATOM     16  CG  GLU D 570     -19.799  -6.166 -15.238  1.00 32.92     0.100 C 
BRANCH  16  17
ATOM     17  CD  GLU D 570     -21.078  -5.399 -15.485  1.00 32.92     0.185 C 
ATOM     18  OE1 GLU D 570     -21.422  -5.159 -16.658  1.00 32.92    -0.647 OA
ATOM     19  OE2 GLU D 570     -21.733  -5.021 -14.494  1.00 32.92    -0.647 OA
ENDBRANCH  16  17
ENDBRANCH  15  16
ENDBRANCH  14  15
END_RES GLU D 570
ENDMDL
MODEL 8
REMARK VINA RESULT:      -5.9      7.139      9.321
REMARK  4 active torsions:
REMARK  status: ('A' for Active; 'I' for Inactive)
REMARK    1  A    between atoms: C_2  and  O_3 
REMARK    2  A    between atoms: O_3  and  C_4 
REMARK    3  A    between atoms: C_4  and  C_6 
REMARK    4  A    between atoms: C_9  and  O_12 
ROOT
HETATM    1  C   UNL     1     -35.411  -2.525 -10.848  1.00  0.00     0.039 A 
HETATM    2  C   UNL     1     -35.740  -3.891 -10.861  1.00  0.00     0.020 A 
HETATM    3  C   UNL     1     -34.758  -4.851 -11.116  1.00  0.00     0.037 A 
HETATM    4  C   UNL     1     -33.451  -4.436 -11.357  1.00  0.00     0.065 A 
HETATM    5  C   UNL     1     -33.111  -3.086 -11.342  1.00  0.00     0.037 A 
HETATM    6  C   UNL     1     -34.090  -2.127 -11.081  1.00  0.00     0.020 A 
ENDROOT
BRANCH   1   7
HETATM    7  C   UNL     1     -36.419  -1.494 -10.489  1.00  0.00     0.293 C 
HETATM    8  O   UNL     1     -37.520  -1.416 -11.006  1.00  0.00    -0.259 OA
BRANCH   7   9
HETATM    9  O   UNL     1     -35.880  -0.650  -9.578  1.00  0.00    -0.318 OA
BRANCH   9  10
HETATM   10  C   UNL     1     -36.736   0.408  -9.138  1.00  0.00     0.174 C 
HETATM   11  C   UNL     1     -36.503   0.586  -7.649  1.00  0.00     0.034 C 
ENDBRANCH   9  10
ENDBRANCH   7   9
ENDBRANCH   1   7
BRANCH   4  12
HETATM   12  O   UNL     1     -32.459  -5.338 -11.602  1.00  0.00    -0.361 OA
HETATM   13  H   UNL     1     -32.712  -5.879 -12.368  1.00  0.00     0.217 HD
ENDBRANCH   4  12
TORSDOF 4
BEGIN_RES ARG D 557
REMARK  4 active torsions:
REMARK  status: ('A' for Active; 'I' for Inactive)
REMARK    1  A    between atoms: CA   and  CB  
REMARK    2  A    between atoms: CB   and  CG  
REMARK    3  A    between atoms: CG   and  CD  
REMARK    4  A    between atoms: CD   and  NE  
REMARK       I    between atoms: NE   and  CZ  
REMARK       I    between atoms: CZ   and  NH1 
REMARK       I    between atoms: CZ   and  NH2 
ROOT
ATOM      1  CA  ARG D 557     -26.217   2.705 -17.014  1.00 35.49     0.159 C 
ENDROOT
BRANCH   1   2
ATOM      2  CB  ARG D 557     -26.789   1.319 -17.183  1.00 35.49     0.034 C 
BRANCH   2   3
ATOM      3  CG  ARG D 557     -28.155   1.103 -16.690  1.00 35.49     0.027 C 
BRANCH   3   4
ATOM      4  CD  ARG D 557     -28.792  -0.088 -17.297  1.00 35.49     0.116 C 
BRANCH   4   5
ATOM      5  NE  ARG D 557     -28.182  -1.314 -16.855  1.00 35.49    -0.212 N 
ATOM      6  CZ  ARG D 557     -28.669  -2.522 -17.033  1.00 35.49     0.666 C 
ATOM      7  NH1 ARG D 557     -29.817  -2.740 -17.646  1.00 35.49    -0.235 N 
ATOM      8  NH2 ARG D 557     -27.969  -3.523 -16.584  1.00 35.49    -0.235 N 
ATOM      9  HH  ARG D 557     -30.293  -2.096 -17.951  1.00 35.49     0.174 HD
ATOM     10  HH  ARG D 557     -30.084  -3.550 -17.735  1.00 35.49     0.174 HD
ATOM     11  HH  ARG D 557     -27.227  -3.352 -16.199  1.00 35.49     0.174 HD
ATOM     12  HH  ARG D 557     -28.249  -4.317 -16.684  1.00 35.49     0.174 HD
ATOM     13  HE  ARG D 557     -27.474  -1.261 -16.387  1.00 35.49     0.178 HD
ENDBRANCH   4   5
ENDBRANCH   3   4
ENDBRANCH   2   3
ENDBRANCH   1   2
END_RES ARG D 557
BEGIN_RES GLU D 570
REMARK  3 active torsions:
REMARK  status: ('A' for Active; 'I' for Inactive)
REMARK    5  A    between atoms: CA   and  CB  
REMARK    6  A    between atoms: CB   and  CG  
REMARK    7  A    between atoms: CG   and  CD  
ROOT
ATOM     14  CA  GLU D 570     -18.033  -6.348 -13.375  1.00 32.92     0.160 C 
ENDROOT
BRANCH  14  15
ATOM     15  CB  GLU D 570     -19.500  -6.345 -13.794  1.00 32.92     0.043 C 
BRANCH  15  16
ATOM     16  CG  GLU D 570     -20.450  -5.571 -12.954  1.00 32.92     0.100 C 
BRANCH  16  17
ATOM     17  CD  GLU D 570     -21.696  -5.158 -13.702  1.00 32.92     0.185 C 
ATOM     18  OE1 GLU D 570     -22.700  -4.803 -13.056  1.00 32.92    -0.647 OA
ATOM     19  OE2 GLU D 570     -21.673  -5.205 -14.948  1.00 32.92    -0.647 OA
ENDBRANCH  16  17
ENDBRANCH  15  16
ENDBRANCH  14  15
END_RES GLU D 570
ENDMDL
MODEL 9
REMARK VINA RESULT:      -5.8      1.929      3.010
REMARK  4 active torsions:
REMARK  status: ('A' for Active; 'I' for Inactive)
REMARK    1  A    between atoms: C_2  and  O_3 
REMARK    2  A    between atoms: O_3  and  C_4 
REMARK    3  A    between atoms: C_4  and  C_6 
REMARK    4  A    between atoms: C_9  and  O_12 
ROOT
HETATM    1  C   UNL     1     -21.852  -3.999  -9.801  1.00  0.00     0.039 A 
HETATM    2  C   UNL     1     -21.377  -3.537 -11.041  1.00  0.00     0.020 A 
HETATM    3  C   UNL     1     -22.266  -3.029 -11.991  1.00  0.00     0.037 A 
HETATM    4  C   UNL     1     -23.625  -2.987 -11.694  1.00  0.00     0.065 A 
HETATM    5  C   UNL     1     -24.108  -3.437 -10.468  1.00  0.00     0.037 A 
HETATM    6  C   UNL     1     -23.221  -3.938  -9.515  1.00  0.00     0.020 A 
ENDROOT
BRANCH   1   7
HETATM    7  C   UNL     1     -20.917  -4.457  -8.741  1.00  0.00     0.293 C 
HETATM    8  O   UNL     1     -19.717  -4.246  -8.760  1.00  0.00    -0.259 OA
BRANCH   7   9
HETATM    9  O   UNL     1     -21.606  -5.187  -7.833  1.00  0.00    -0.318 OA
BRANCH   9  10
HETATM   10  C   UNL     1     -20.806  -5.960  -6.931  1.00  0.00     0.174 C 
HETATM   11  C   UNL     1     -20.773  -5.215  -5.609  1.00  0.00     0.034 C 
ENDBRANCH   9  10
ENDBRANCH   7   9
ENDBRANCH   1   7
BRANCH   4  12
HETATM   12  O   UNL     1     -24.526  -2.492 -12.589  1.00  0.00    -0.361 OA
HETATM   13  H   UNL     1     -25.367  -2.333 -12.129  1.00  0.00     0.217 HD
ENDBRANCH   4  12
TORSDOF 4
BEGIN_RES ARG D 557
REMARK  4 active torsions:
REMARK  status: ('A' for Active; 'I' for Inactive)
REMARK    1  A    between atoms: CA   and  CB  
REMARK    2  A    between atoms: CB   and  CG  
REMARK    3  A    between atoms: CG   and  CD  
REMARK    4  A    between atoms: CD   and  NE  
REMARK       I    between atoms: NE   and  CZ  
REMARK       I    between atoms: CZ   and  NH1 
REMARK       I    between atoms: CZ   and  NH2 
ROOT
ATOM      1  CA  ARG D 557     -26.217   2.705 -17.014  1.00 35.49     0.159 C 
ENDROOT
BRANCH   1   2
ATOM      2  CB  ARG D 557     -26.789   1.319 -17.183  1.00 35.49     0.034 C 
BRANCH   2   3
ATOM      3  CG  ARG D 557     -28.208   1.144 -16.848  1.00 35.49     0.027 C 
BRANCH   3   4
ATOM      4  CD  ARG D 557     -28.552  -0.269 -16.571  1.00 35.49     0.116 C 
BRANCH   4   5
ATOM      5  NE  ARG D 557     -27.511  -0.949 -15.846  1.00 35.49    -0.212 N 
ATOM      6  CZ  ARG D 557     -27.246  -2.234 -15.907  1.00 35.49     0.666 C 
ATOM      7  NH1 ARG D 557     -27.944  -3.067 -16.657  1.00 35.49    -0.235 N 
ATOM      8  NH2 ARG D 557     -26.250  -2.676 -15.197  1.00 35.49    -0.235 N 
ATOM      9  HH  ARG D 557     -28.602  -2.798 -17.135  1.00 35.49     0.174 HD
ATOM     10  HH  ARG D 557     -27.723  -3.895 -16.659  1.00 35.49     0.174 HD
ATOM     11  HH  ARG D 557     -25.812  -2.114 -14.727  1.00 35.49     0.174 HD
ATOM     12  HH  ARG D 557     -26.046  -3.499 -15.213  1.00 35.49     0.174 HD
ATOM     13  HE  ARG D 557     -27.058  -0.500 -15.283  1.00 35.49     0.178 HD
ENDBRANCH   4   5
ENDBRANCH   3   4
ENDBRANCH   2   3
ENDBRANCH   1   2
END_RES ARG D 557
BEGIN_RES GLU D 570
REMARK  3 active torsions:
REMARK  status: ('A' for Active; 'I' for Inactive)
REMARK    5  A    between atoms: CA   and  CB  
REMARK    6  A    between atoms: CB   and  CG  
REMARK    7  A    between atoms: CG   and  CD  
ROOT
ATOM     14  CA  GLU D 570     -18.033  -6.348 -13.375  1.00 32.92     0.160 C 
ENDROOT
BRANCH  14  15
ATOM     15  CB  GLU D 570     -19.500  -6.345 -13.794  1.00 32.92     0.043 C 
BRANCH  15  16
ATOM     16  CG  GLU D 570     -19.796  -6.290 -15.249  1.00 32.92     0.100 C 
BRANCH  16  17
ATOM     17  CD  GLU D 570     -21.067  -5.535 -15.563  1.00 32.92     0.185 C 
ATOM     18  OE1 GLU D 570     -21.887  -5.324 -14.650  1.00 32.92    -0.647 OA
ATOM     19  OE2 GLU D 570     -21.251  -5.165 -16.740  1.00 32.92    -0.647 OA
ENDBRANCH  16  17
ENDBRANCH  15  16
ENDBRANCH  14  15
END_RES GLU D 570
ENDMDL
