MODEL 1
REMARK VINA RESULT:      -7.7      0.000      0.000
REMARK  14 active torsions:
REMARK  status: ('A' for Active; 'I' for Inactive)
REMARK    1  A    between atoms: C_2  and  C_4 
REMARK    2  A    between atoms: C_4  and  C_5 
REMARK    3  A    between atoms: C_5  and  C_6 
REMARK    4  A    between atoms: C_5  and  N_18 
REMARK       I    between atoms: C_6  and  N_8 
REMARK    5  A    between atoms: N_8  and  C_9 
REMARK    6  A    between atoms: C_9  and  C_10 
REMARK    7  A    between atoms: C_9  and  C_15 
REMARK    8  A    between atoms: C_10  and  C_11 
REMARK    9  A    between atoms: C_11  and  C_12 
REMARK       I    between atoms: C_12  and  N_14 
REMARK       I    between atoms: C_15  and  N_17 
REMARK       I    between atoms: N_18  and  C_19 
REMARK   10  A    between atoms: C_19  and  C_21 
REMARK       I    between atoms: N_25  and  C_26 
REMARK   11  A    between atoms: C_26  and  CA_28 
REMARK   12  A    between atoms: CA_28  and  C_29 
REMARK   13  A    between atoms: CA_28  and  N_31 
REMARK   14  A    between atoms: C_29  and  O_30 
ROOT
HETATM    1  C   UNL     1     -33.792  -4.135 -13.255  1.00  0.00     0.177 C 
ENDROOT
BRANCH   1   2
HETATM    2  C   UNL     1     -34.558  -5.352 -12.649  1.00  0.00     0.038 C 
BRANCH   2   3
HETATM    3  C   UNL     1     -34.046  -5.931 -11.309  1.00  0.00    -0.020 C 
HETATM    4  C   UNL     1     -34.318  -5.013 -10.116  1.00  0.00     0.009 C 
HETATM    5  C   UNL     1     -34.645  -7.317 -11.015  1.00  0.00     0.009 C 
ENDBRANCH   2   3
ENDBRANCH   1   2
BRANCH   1   6
HETATM    6  C   UNL     1     -33.582  -4.319 -14.791  1.00  0.00     0.241 C 
HETATM    7  O   UNL     1     -34.547  -4.417 -15.549  1.00  0.00    -0.271 OA
HETATM    8  N   UNL     1     -32.284  -4.410 -15.266  1.00  0.00    -0.346 N 
HETATM    9  H   UNL     1     -31.492  -4.406 -14.630  1.00  0.00     0.163 HD
BRANCH   8  10
HETATM   10  C   UNL     1     -32.007  -4.825 -16.649  1.00  0.00     0.176 C 
BRANCH  10  11
HETATM   11  C   UNL     1     -31.575  -3.655 -17.543  1.00  0.00     0.044 C 
BRANCH  11  12
HETATM   12  C   UNL     1     -30.165  -3.792 -18.122  1.00  0.00     0.105 C 
BRANCH  12  13
HETATM   13  C   UNL     1     -29.157  -3.000 -17.315  1.00  0.00     0.215 C 
HETATM   14  O   UNL     1     -28.230  -3.488 -16.682  1.00  0.00    -0.274 OA
HETATM   15  N   UNL     1     -29.367  -1.653 -17.323  1.00  0.00    -0.370 N 
HETATM   16  H   UNL     1     -30.147  -1.213 -17.792  1.00  0.00     0.159 HD
HETATM   17  H   UNL     1     -28.731  -1.074 -16.789  1.00  0.00     0.159 HD
ENDBRANCH  12  13
ENDBRANCH  11  12
ENDBRANCH  10  11
BRANCH  10  18
HETATM   18  C   UNL     1     -30.990  -5.988 -16.696  1.00  0.00     0.238 C 
HETATM   19  O   UNL     1     -31.055  -6.903 -17.513  1.00  0.00    -0.271 OA
HETATM   20  N   UNL     1     -30.000  -5.958 -15.753  1.00  0.00    -0.368 N 
HETATM   21  H   UNL     1     -29.888  -5.203 -15.089  1.00  0.00     0.159 HD
HETATM   22  H   UNL     1     -29.299  -6.691 -15.765  1.00  0.00     0.159 HD
ENDBRANCH  10  18
ENDBRANCH   8  10
ENDBRANCH   1   6
BRANCH   1  23
HETATM   23  N   UNL     1     -34.592  -2.884 -13.073  1.00  0.00    -0.346 N 
HETATM   24  C   UNL     1     -34.431  -2.017 -12.014  1.00  0.00     0.241 C 
HETATM   25  O   UNL     1     -33.550  -2.221 -11.170  1.00  0.00    -0.271 OA
HETATM   26  H   UNL     1     -35.164  -2.591 -13.862  1.00  0.00     0.163 HD
BRANCH  24  27
HETATM   27  C   UNL     1     -35.526  -0.907 -11.736  1.00  0.00     0.179 C 
HETATM   28  C   UNL     1     -36.034  -1.229 -10.307  1.00  0.00     0.037 C 
HETATM   29  C   UNL     1     -37.149  -0.242 -10.050  1.00  0.00     0.022 C 
HETATM   30  C   UNL     1     -37.749  -0.019 -11.419  1.00  0.00     0.127 C 
HETATM   31  N   UNL     1     -36.808  -0.554 -12.411  1.00  0.00    -0.337 N 
HETATM   32  C   UNL     1     -37.049  -0.043 -13.685  1.00  0.00     0.256 C 
HETATM   33  O   UNL     1     -38.074   0.635 -13.887  1.00  0.00    -0.271 OA
BRANCH  32  34
HETATM   34  CA  UNL     1     -36.166  -0.303 -14.908  1.00  0.00     0.332 C 
BRANCH  34  35
HETATM   35  C   UNL     1     -36.988  -0.030 -16.184  1.00  0.00     0.209 C 
BRANCH  35  36
HETATM   36  O   UNL     1     -36.483  -0.784 -17.289  1.00  0.00    -0.398 OA
HETATM   37  H   UNL     1     -36.294  -1.678 -16.961  1.00  0.00     0.209 HD
ENDBRANCH  35  36
ENDBRANCH  34  35
BRANCH  34  38
HETATM   38  N   UNL     1     -34.867   0.383 -14.916  1.00  0.00     0.094 N 
HETATM   39  H1  UNL     1     -34.969   1.330 -14.555  1.00  0.00     0.314 HD
HETATM   40  H2  UNL     1     -34.582   0.481 -15.893  1.00  0.00     0.314 HD
ENDBRANCH  34  38
ENDBRANCH  32  34
ENDBRANCH  24  27
ENDBRANCH   1  23
TORSDOF 14
BEGIN_RES ARG D 557
REMARK  4 active torsions:
REMARK  status: ('A' for Active; 'I' for Inactive)
REMARK    1  A    between atoms: CA   and  CB  
REMARK    2  A    between atoms: CB   and  CG  
REMARK    3  A    between atoms: CG   and  CD  
REMARK    4  A    between atoms: CD   and  NE  
REMARK       I    between atoms: NE   and  CZ  
REMARK       I    between atoms: CZ   and  NH1 
REMARK       I    between atoms: CZ   and  NH2 
ROOT
ATOM      1  CA  ARG D 557     -26.217   2.705 -17.014  1.00 35.49     0.159 C 
ENDROOT
BRANCH   1   2
ATOM      2  CB  ARG D 557     -26.789   1.319 -17.183  1.00 35.49     0.034 C 
BRANCH   2   3
ATOM      3  CG  ARG D 557     -25.882   0.194 -16.926  1.00 35.49     0.027 C 
BRANCH   3   4
ATOM      4  CD  ARG D 557     -26.367  -0.685 -15.838  1.00 35.49     0.116 C 
BRANCH   4   5
ATOM      5  NE  ARG D 557     -25.349  -0.941 -14.853  1.00 35.49    -0.212 N 
ATOM      6  CZ  ARG D 557     -25.085  -2.107 -14.306  1.00 35.49     0.666 C 
ATOM      7  NH1 ARG D 557     -25.761  -3.200 -14.606  1.00 35.49    -0.235 N 
ATOM      8  NH2 ARG D 557     -24.111  -2.159 -13.445  1.00 35.49    -0.235 N 
ATOM      9  HH  ARG D 557     -26.405  -3.189 -15.172  1.00 35.49     0.174 HD
ATOM     10  HH  ARG D 557     -25.542  -3.933 -14.220  1.00 35.49     0.174 HD
ATOM     11  HH  ARG D 557     -23.687  -1.438 -13.276  1.00 35.49     0.174 HD
ATOM     12  HH  ARG D 557     -23.908  -2.894 -13.074  1.00 35.49     0.174 HD
ATOM     13  HE  ARG D 557     -24.913  -0.278 -14.548  1.00 35.49     0.178 HD
ENDBRANCH   4   5
ENDBRANCH   3   4
ENDBRANCH   2   3
ENDBRANCH   1   2
END_RES ARG D 557
BEGIN_RES GLU D 570
REMARK  3 active torsions:
REMARK  status: ('A' for Active; 'I' for Inactive)
REMARK    5  A    between atoms: CA   and  CB  
REMARK    6  A    between atoms: CB   and  CG  
REMARK    7  A    between atoms: CG   and  CD  
ROOT
ATOM     14  CA  GLU D 570     -18.033  -6.348 -13.375  1.00 32.92     0.160 C 
ENDROOT
BRANCH  14  15
ATOM     15  CB  GLU D 570     -19.500  -6.345 -13.794  1.00 32.92     0.043 C 
BRANCH  15  16
ATOM     16  CG  GLU D 570     -20.448  -5.559 -12.962  1.00 32.92     0.100 C 
BRANCH  16  17
ATOM     17  CD  GLU D 570     -21.723  -5.209 -13.694  1.00 32.92     0.185 C 
ATOM     18  OE1 GLU D 570     -22.635  -4.627 -13.075  1.00 32.92    -0.647 OA
ATOM     19  OE2 GLU D 570     -21.817  -5.536 -14.893  1.00 32.92    -0.647 OA
ENDBRANCH  16  17
ENDBRANCH  15  16
ENDBRANCH  14  15
END_RES GLU D 570
ENDMDL
MODEL 2
REMARK VINA RESULT:      -7.3      5.644     10.043
REMARK  14 active torsions:
REMARK  status: ('A' for Active; 'I' for Inactive)
REMARK    1  A    between atoms: C_2  and  C_4 
REMARK    2  A    between atoms: C_4  and  C_5 
REMARK    3  A    between atoms: C_5  and  C_6 
REMARK    4  A    between atoms: C_5  and  N_18 
REMARK       I    between atoms: C_6  and  N_8 
REMARK    5  A    between atoms: N_8  and  C_9 
REMARK    6  A    between atoms: C_9  and  C_10 
REMARK    7  A    between atoms: C_9  and  C_15 
REMARK    8  A    between atoms: C_10  and  C_11 
REMARK    9  A    between atoms: C_11  and  C_12 
REMARK       I    between atoms: C_12  and  N_14 
REMARK       I    between atoms: C_15  and  N_17 
REMARK       I    between atoms: N_18  and  C_19 
REMARK   10  A    between atoms: C_19  and  C_21 
REMARK       I    between atoms: N_25  and  C_26 
REMARK   11  A    between atoms: C_26  and  CA_28 
REMARK   12  A    between atoms: CA_28  and  C_29 
REMARK   13  A    between atoms: CA_28  and  N_31 
REMARK   14  A    between atoms: C_29  and  O_30 
ROOT
HETATM    1  C   UNL     1     -22.943  -6.178 -15.467  1.00  0.00     0.177 C 
ENDROOT
BRANCH   1   2
HETATM    2  C   UNL     1     -21.586  -5.585 -15.960  1.00  0.00     0.038 C 
BRANCH   2   3
HETATM    3  C   UNL     1     -20.693  -6.478 -16.853  1.00  0.00    -0.020 C 
HETATM    4  C   UNL     1     -20.875  -7.973 -16.581  1.00  0.00     0.009 C 
HETATM    5  C   UNL     1     -20.929  -6.214 -18.350  1.00  0.00     0.009 C 
ENDBRANCH   2   3
ENDBRANCH   1   2
BRANCH   1   6
HETATM    6  C   UNL     1     -23.518  -5.339 -14.283  1.00  0.00     0.241 C 
HETATM    7  O   UNL     1     -24.078  -5.891 -13.336  1.00  0.00    -0.271 OA
HETATM    8  N   UNL     1     -23.415  -3.959 -14.350  1.00  0.00    -0.346 N 
HETATM    9  H   UNL     1     -23.022  -3.502 -15.167  1.00  0.00     0.163 HD
BRANCH   8  10
HETATM   10  C   UNL     1     -24.140  -3.095 -13.406  1.00  0.00     0.176 C 
BRANCH  10  11
HETATM   11  C   UNL     1     -23.201  -2.316 -12.476  1.00  0.00     0.044 C 
BRANCH  11  12
HETATM   12  C   UNL     1     -22.993  -2.964 -11.104  1.00  0.00     0.105 C 
BRANCH  12  13
HETATM   13  C   UNL     1     -24.231  -3.711 -10.652  1.00  0.00     0.215 C 
HETATM   14  O   UNL     1     -25.312  -3.189 -10.413  1.00  0.00    -0.274 OA
HETATM   15  N   UNL     1     -24.052  -5.054 -10.504  1.00  0.00    -0.370 N 
HETATM   16  H   UNL     1     -23.164  -5.517 -10.644  1.00  0.00     0.159 HD
HETATM   17  H   UNL     1     -24.843  -5.602 -10.190  1.00  0.00     0.159 HD
ENDBRANCH  12  13
ENDBRANCH  11  12
ENDBRANCH  10  11
BRANCH  10  18
HETATM   18  C   UNL     1     -25.125  -2.158 -14.142  1.00  0.00     0.238 C 
HETATM   19  O   UNL     1     -26.261  -2.499 -14.460  1.00  0.00    -0.271 OA
HETATM   20  N   UNL     1     -24.657  -0.910 -14.442  1.00  0.00    -0.368 N 
HETATM   21  H   UNL     1     -23.742  -0.578 -14.162  1.00  0.00     0.159 HD
HETATM   22  H   UNL     1     -25.280  -0.257 -14.903  1.00  0.00     0.159 HD
ENDBRANCH  10  18
ENDBRANCH   8  10
ENDBRANCH   1   6
BRANCH   1  23
HETATM   23  N   UNL     1     -23.954  -6.124 -16.568  1.00  0.00    -0.346 N 
HETATM   24  C   UNL     1     -25.069  -6.932 -16.627  1.00  0.00     0.241 C 
HETATM   25  O   UNL     1     -25.311  -7.728 -15.711  1.00  0.00    -0.271 OA
HETATM   26  H   UNL     1     -23.888  -5.335 -17.209  1.00  0.00     0.163 HD
BRANCH  24  27
HETATM   27  C   UNL     1     -25.898  -7.028 -17.973  1.00  0.00     0.179 C 
HETATM   28  C   UNL     1     -24.847  -6.766 -19.082  1.00  0.00     0.037 C 
HETATM   29  C   UNL     1     -25.629  -6.756 -20.376  1.00  0.00     0.022 C 
HETATM   30  C   UNL     1     -26.979  -6.210 -19.972  1.00  0.00     0.127 C 
HETATM   31  N   UNL     1     -27.060  -6.259 -18.507  1.00  0.00    -0.337 N 
HETATM   32  C   UNL     1     -28.376  -6.178 -18.056  1.00  0.00     0.256 C 
HETATM   33  O   UNL     1     -29.283  -5.914 -18.866  1.00  0.00    -0.271 OA
BRANCH  32  34
HETATM   34  CA  UNL     1     -28.806  -6.331 -16.594  1.00  0.00     0.332 C 
BRANCH  34  35
HETATM   35  C   UNL     1     -30.329  -6.117 -16.497  1.00  0.00     0.209 C 
BRANCH  35  36
HETATM   36  O   UNL     1     -30.659  -4.729 -16.596  1.00  0.00    -0.398 OA
HETATM   37  H   UNL     1     -30.548  -4.476 -17.526  1.00  0.00     0.209 HD
ENDBRANCH  35  36
ENDBRANCH  34  35
BRANCH  34  38
HETATM   38  N   UNL     1     -28.365  -7.562 -15.924  1.00  0.00     0.094 N 
HETATM   39  H1  UNL     1     -28.361  -8.337 -16.584  1.00  0.00     0.314 HD
HETATM   40  H2  UNL     1     -29.069  -7.791 -15.220  1.00  0.00     0.314 HD
ENDBRANCH  34  38
ENDBRANCH  32  34
ENDBRANCH  24  27
ENDBRANCH   1  23
TORSDOF 14
BEGIN_RES ARG D 557
REMARK  4 active torsions:
REMARK  status: ('A' for Active; 'I' for Inactive)
REMARK    1  A    between atoms: CA   and  CB  
REMARK    2  A    between atoms: CB   and  CG  
REMARK    3  A    between atoms: CG   and  CD  
REMARK    4  A    between atoms: CD   and  NE  
REMARK       I    between atoms: NE   and  CZ  
REMARK       I    between atoms: CZ   and  NH1 
REMARK       I    between atoms: CZ   and  NH2 
ROOT
ATOM      1  CA  ARG D 557     -26.217   2.705 -17.014  1.00 35.49     0.159 C 
ENDROOT
BRANCH   1   2
ATOM      2  CB  ARG D 557     -26.789   1.319 -17.183  1.00 35.49     0.034 C 
BRANCH   2   3
ATOM      3  CG  ARG D 557     -28.235   1.225 -17.415  1.00 35.49     0.027 C 
BRANCH   3   4
ATOM      4  CD  ARG D 557     -28.904   0.323 -16.450  1.00 35.49     0.116 C 
BRANCH   4   5
ATOM      5  NE  ARG D 557     -28.226  -0.940 -16.328  1.00 35.49    -0.212 N 
ATOM      6  CZ  ARG D 557     -28.619  -2.077 -16.858  1.00 35.49     0.666 C 
ATOM      7  NH1 ARG D 557     -29.726  -2.183 -17.570  1.00 35.49    -0.235 N 
ATOM      8  NH2 ARG D 557     -27.868  -3.122 -16.663  1.00 35.49    -0.235 N 
ATOM      9  HH  ARG D 557     -30.234  -1.508 -17.713  1.00 35.49     0.174 HD
ATOM     10  HH  ARG D 557     -29.931  -2.950 -17.892  1.00 35.49     0.174 HD
ATOM     11  HH  ARG D 557     -27.155  -3.022 -16.205  1.00 35.49     0.174 HD
ATOM     12  HH  ARG D 557     -28.087  -3.872 -16.992  1.00 35.49     0.174 HD
ATOM     13  HE  ARG D 557     -27.542  -0.979 -15.825  1.00 35.49     0.178 HD
ENDBRANCH   4   5
ENDBRANCH   3   4
ENDBRANCH   2   3
ENDBRANCH   1   2
END_RES ARG D 557
BEGIN_RES GLU D 570
REMARK  3 active torsions:
REMARK  status: ('A' for Active; 'I' for Inactive)
REMARK    5  A    between atoms: CA   and  CB  
REMARK    6  A    between atoms: CB   and  CG  
REMARK    7  A    between atoms: CG   and  CD  
ROOT
ATOM     14  CA  GLU D 570     -18.033  -6.348 -13.375  1.00 32.92     0.160 C 
ENDROOT
BRANCH  14  15
ATOM     15  CB  GLU D 570     -19.500  -6.345 -13.794  1.00 32.92     0.043 C 
BRANCH  15  16
ATOM     16  CG  GLU D 570     -20.505  -5.977 -12.764  1.00 32.92     0.100 C 
BRANCH  16  17
ATOM     17  CD  GLU D 570     -19.988  -4.961 -11.772  1.00 32.92     0.185 C 
ATOM     18  OE1 GLU D 570     -19.997  -3.754 -12.082  1.00 32.92    -0.647 OA
ATOM     19  OE2 GLU D 570     -19.554  -5.378 -10.680  1.00 32.92    -0.647 OA
ENDBRANCH  16  17
ENDBRANCH  15  16
ENDBRANCH  14  15
END_RES GLU D 570
ENDMDL
MODEL 3
REMARK VINA RESULT:      -7.2      2.141      6.940
REMARK  14 active torsions:
REMARK  status: ('A' for Active; 'I' for Inactive)
REMARK    1  A    between atoms: C_2  and  C_4 
REMARK    2  A    between atoms: C_4  and  C_5 
REMARK    3  A    between atoms: C_5  and  C_6 
REMARK    4  A    between atoms: C_5  and  N_18 
REMARK       I    between atoms: C_6  and  N_8 
REMARK    5  A    between atoms: N_8  and  C_9 
REMARK    6  A    between atoms: C_9  and  C_10 
REMARK    7  A    between atoms: C_9  and  C_15 
REMARK    8  A    between atoms: C_10  and  C_11 
REMARK    9  A    between atoms: C_11  and  C_12 
REMARK       I    between atoms: C_12  and  N_14 
REMARK       I    between atoms: C_15  and  N_17 
REMARK       I    between atoms: N_18  and  C_19 
REMARK   10  A    between atoms: C_19  and  C_21 
REMARK       I    between atoms: N_25  and  C_26 
REMARK   11  A    between atoms: C_26  and  CA_28 
REMARK   12  A    between atoms: CA_28  and  C_29 
REMARK   13  A    between atoms: CA_28  and  N_31 
REMARK   14  A    between atoms: C_29  and  O_30 
ROOT
HETATM    1  C   UNL     1     -34.747  -4.881 -15.913  1.00  0.00     0.177 C 
ENDROOT
BRANCH   1   2
HETATM    2  C   UNL     1     -35.899  -5.887 -16.226  1.00  0.00     0.038 C 
BRANCH   2   3
HETATM    3  C   UNL     1     -35.577  -7.398 -16.141  1.00  0.00    -0.020 C 
HETATM    4  C   UNL     1     -36.252  -8.090 -14.955  1.00  0.00     0.009 C 
HETATM    5  C   UNL     1     -35.960  -8.141 -17.433  1.00  0.00     0.009 C 
ENDBRANCH   2   3
ENDBRANCH   1   2
BRANCH   1   6
HETATM    6  C   UNL     1     -34.683  -4.568 -14.385  1.00  0.00     0.241 C 
HETATM    7  O   UNL     1     -35.023  -5.414 -13.556  1.00  0.00    -0.271 OA
HETATM    8  N   UNL     1     -34.274  -3.304 -13.994  1.00  0.00    -0.346 N 
HETATM    9  H   UNL     1     -34.068  -2.584 -14.680  1.00  0.00     0.163 HD
BRANCH   8  10
HETATM   10  C   UNL     1     -34.418  -2.854 -12.601  1.00  0.00     0.176 C 
BRANCH  10  11
HETATM   11  C   UNL     1     -33.234  -3.269 -11.719  1.00  0.00     0.044 C 
BRANCH  11  12
HETATM   12  C   UNL     1     -33.633  -3.981 -10.424  1.00  0.00     0.105 C 
BRANCH  12  13
HETATM   13  C   UNL     1     -33.901  -5.452 -10.662  1.00  0.00     0.215 C 
HETATM   14  O   UNL     1     -34.874  -6.063 -10.238  1.00  0.00    -0.274 OA
HETATM   15  N   UNL     1     -32.941  -6.086 -11.394  1.00  0.00    -0.370 N 
HETATM   16  H   UNL     1     -32.100  -5.631 -11.721  1.00  0.00     0.159 HD
HETATM   17  H   UNL     1     -33.062  -7.075 -11.573  1.00  0.00     0.159 HD
ENDBRANCH  12  13
ENDBRANCH  11  12
ENDBRANCH  10  11
BRANCH  10  18
HETATM   18  C   UNL     1     -34.686  -1.333 -12.526  1.00  0.00     0.238 C 
HETATM   19  O   UNL     1     -34.636  -0.696 -11.477  1.00  0.00    -0.271 OA
HETATM   20  N   UNL     1     -35.002  -0.720 -13.706  1.00  0.00    -0.368 N 
HETATM   21  H   UNL     1     -35.014  -1.201 -14.596  1.00  0.00     0.159 HD
HETATM   22  H   UNL     1     -35.161   0.282 -13.703  1.00  0.00     0.159 HD
ENDBRANCH  10  18
ENDBRANCH   8  10
ENDBRANCH   1   6
BRANCH   1  23
HETATM   23  N   UNL     1     -33.429  -5.479 -16.290  1.00  0.00    -0.346 N 
HETATM   24  C   UNL     1     -32.369  -4.751 -16.785  1.00  0.00     0.241 C 
HETATM   25  O   UNL     1     -32.454  -3.521 -16.894  1.00  0.00    -0.271 OA
HETATM   26  H   UNL     1     -33.269  -6.443 -16.006  1.00  0.00     0.163 HD
BRANCH  24  27
HETATM   27  C   UNL     1     -31.144  -5.503 -17.451  1.00  0.00     0.179 C 
HETATM   28  C   UNL     1     -31.588  -6.988 -17.486  1.00  0.00     0.037 C 
HETATM   29  C   UNL     1     -30.398  -7.745 -18.030  1.00  0.00     0.022 C 
HETATM   30  C   UNL     1     -29.213  -6.950 -17.532  1.00  0.00     0.127 C 
HETATM   31  N   UNL     1     -29.712  -5.652 -17.062  1.00  0.00    -0.337 N 
HETATM   32  C   UNL     1     -28.694  -4.704 -16.975  1.00  0.00     0.256 C 
HETATM   33  O   UNL     1     -27.512  -5.063 -17.124  1.00  0.00    -0.271 OA
BRANCH  32  34
HETATM   34  CA  UNL     1     -28.908  -3.225 -16.642  1.00  0.00     0.332 C 
BRANCH  34  35
HETATM   35  C   UNL     1     -27.542  -2.579 -16.336  1.00  0.00     0.209 C 
BRANCH  35  36
HETATM   36  O   UNL     1     -26.935  -3.184 -15.191  1.00  0.00    -0.398 OA
HETATM   37  H   UNL     1     -27.654  -3.493 -14.617  1.00  0.00     0.209 HD
ENDBRANCH  35  36
ENDBRANCH  34  35
BRANCH  34  38
HETATM   38  N   UNL     1     -29.689  -2.456 -17.620  1.00  0.00     0.094 N 
HETATM   39  H1  UNL     1     -30.661  -2.394 -17.321  1.00  0.00     0.314 HD
HETATM   40  H2  UNL     1     -29.694  -2.991 -18.491  1.00  0.00     0.314 HD
ENDBRANCH  34  38
ENDBRANCH  32  34
ENDBRANCH  24  27
ENDBRANCH   1  23
TORSDOF 14
BEGIN_RES ARG D 557
REMARK  4 active torsions:
REMARK  status: ('A' for Active; 'I' for Inactive)
REMARK    1  A    between atoms: CA   and  CB  
REMARK    2  A    between atoms: CB   and  CG  
REMARK    3  A    between atoms: CG   and  CD  
REMARK    4  A    between atoms: CD   and  NE  
REMARK       I    between atoms: NE   and  CZ  
REMARK       I    between atoms: CZ   and  NH1 
REMARK       I    between atoms: CZ   and  NH2 
ROOT
ATOM      1  CA  ARG D 557     -26.217   2.705 -17.014  1.00 35.49     0.159 C 
ENDROOT
BRANCH   1   2
ATOM      2  CB  ARG D 557     -26.789   1.319 -17.183  1.00 35.49     0.034 C 
BRANCH   2   3
ATOM      3  CG  ARG D 557     -25.834   0.204 -17.168  1.00 35.49     0.027 C 
BRANCH   3   4
ATOM      4  CD  ARG D 557     -24.771   0.385 -16.153  1.00 35.49     0.116 C 
BRANCH   4   5
ATOM      5  NE  ARG D 557     -24.950  -0.484 -15.020  1.00 35.49    -0.212 N 
ATOM      6  CZ  ARG D 557     -24.134  -1.446 -14.653  1.00 35.49     0.666 C 
ATOM      7  NH1 ARG D 557     -23.032  -1.734 -15.320  1.00 35.49    -0.235 N 
ATOM      8  NH2 ARG D 557     -24.444  -2.121 -13.584  1.00 35.49    -0.235 N 
ATOM      9  HH  ARG D 557     -22.807  -1.301 -16.025  1.00 35.49     0.174 HD
ATOM     10  HH  ARG D 557     -22.536  -2.371 -15.032  1.00 35.49     0.174 HD
ATOM     11  HH  ARG D 557     -25.158  -1.909 -13.169  1.00 35.49     0.174 HD
ATOM     12  HH  ARG D 557     -23.939  -2.747 -13.314  1.00 35.49     0.174 HD
ATOM     13  HE  ARG D 557     -25.672  -0.416 -14.575  1.00 35.49     0.178 HD
ENDBRANCH   4   5
ENDBRANCH   3   4
ENDBRANCH   2   3
ENDBRANCH   1   2
END_RES ARG D 557
BEGIN_RES GLU D 570
REMARK  3 active torsions:
REMARK  status: ('A' for Active; 'I' for Inactive)
REMARK    5  A    between atoms: CA   and  CB  
REMARK    6  A    between atoms: CB   and  CG  
REMARK    7  A    between atoms: CG   and  CD  
ROOT
ATOM     14  CA  GLU D 570     -18.033  -6.348 -13.375  1.00 32.92     0.160 C 
ENDROOT
BRANCH  14  15
ATOM     15  CB  GLU D 570     -19.500  -6.345 -13.794  1.00 32.92     0.043 C 
BRANCH  15  16
ATOM     16  CG  GLU D 570     -20.450  -5.570 -12.955  1.00 32.92     0.100 C 
BRANCH  16  17
ATOM     17  CD  GLU D 570     -21.736  -5.238 -13.674  1.00 32.92     0.185 C 
ATOM     18  OE1 GLU D 570     -22.237  -4.106 -13.527  1.00 32.92    -0.647 OA
ATOM     19  OE2 GLU D 570     -22.258  -6.124 -14.379  1.00 32.92    -0.647 OA
ENDBRANCH  16  17
ENDBRANCH  15  16
ENDBRANCH  14  15
END_RES GLU D 570
ENDMDL
MODEL 4
REMARK VINA RESULT:      -7.0      5.521      9.664
REMARK  14 active torsions:
REMARK  status: ('A' for Active; 'I' for Inactive)
REMARK    1  A    between atoms: C_2  and  C_4 
REMARK    2  A    between atoms: C_4  and  C_5 
REMARK    3  A    between atoms: C_5  and  C_6 
REMARK    4  A    between atoms: C_5  and  N_18 
REMARK       I    between atoms: C_6  and  N_8 
REMARK    5  A    between atoms: N_8  and  C_9 
REMARK    6  A    between atoms: C_9  and  C_10 
REMARK    7  A    between atoms: C_9  and  C_15 
REMARK    8  A    between atoms: C_10  and  C_11 
REMARK    9  A    between atoms: C_11  and  C_12 
REMARK       I    between atoms: C_12  and  N_14 
REMARK       I    between atoms: C_15  and  N_17 
REMARK       I    between atoms: N_18  and  C_19 
REMARK   10  A    between atoms: C_19  and  C_21 
REMARK       I    between atoms: N_25  and  C_26 
REMARK   11  A    between atoms: C_26  and  CA_28 
REMARK   12  A    between atoms: CA_28  and  C_29 
REMARK   13  A    between atoms: CA_28  and  N_31 
REMARK   14  A    between atoms: C_29  and  O_30 
ROOT
HETATM    1  C   UNL     1     -23.388  -6.569 -15.379  1.00  0.00     0.177 C 
ENDROOT
BRANCH   1   2
HETATM    2  C   UNL     1     -22.026  -7.046 -15.973  1.00  0.00     0.038 C 
BRANCH   2   3
HETATM    3  C   UNL     1     -21.550  -6.397 -17.294  1.00  0.00    -0.020 C 
HETATM    4  C   UNL     1     -20.075  -5.990 -17.266  1.00  0.00     0.009 C 
HETATM    5  C   UNL     1     -21.788  -7.316 -18.505  1.00  0.00     0.009 C 
ENDBRANCH   2   3
ENDBRANCH   1   2
BRANCH   1   6
HETATM    6  C   UNL     1     -23.227  -5.194 -14.656  1.00  0.00     0.241 C 
HETATM    7  O   UNL     1     -22.410  -4.365 -15.059  1.00  0.00    -0.271 OA
HETATM    8  N   UNL     1     -23.997  -4.954 -13.530  1.00  0.00    -0.346 N 
HETATM    9  H   UNL     1     -24.613  -5.670 -13.155  1.00  0.00     0.163 HD
BRANCH   8  10
HETATM   10  C   UNL     1     -23.733  -3.800 -12.659  1.00  0.00     0.176 C 
BRANCH  10  11
HETATM   11  C   UNL     1     -24.388  -2.511 -13.170  1.00  0.00     0.044 C 
BRANCH  11  12
HETATM   12  C   UNL     1     -23.479  -1.650 -14.052  1.00  0.00     0.105 C 
BRANCH  12  13
HETATM   13  C   UNL     1     -24.278  -0.876 -15.080  1.00  0.00     0.215 C 
HETATM   14  O   UNL     1     -25.479  -1.009 -15.276  1.00  0.00    -0.274 OA
HETATM   15  N   UNL     1     -23.541   0.003 -15.817  1.00  0.00    -0.370 N 
HETATM   16  H   UNL     1     -22.540   0.109 -15.720  1.00  0.00     0.159 HD
HETATM   17  H   UNL     1     -24.021   0.538 -16.529  1.00  0.00     0.159 HD
ENDBRANCH  12  13
ENDBRANCH  11  12
ENDBRANCH  10  11
BRANCH  10  18
HETATM   18  C   UNL     1     -24.123  -4.099 -11.193  1.00  0.00     0.238 C 
HETATM   19  O   UNL     1     -24.951  -3.438 -10.572  1.00  0.00    -0.271 OA
HETATM   20  N   UNL     1     -23.477  -5.150 -10.603  1.00  0.00    -0.368 N 
HETATM   21  H   UNL     1     -22.819  -5.743 -11.092  1.00  0.00     0.159 HD
HETATM   22  H   UNL     1     -23.721  -5.394  -9.649  1.00  0.00     0.159 HD
ENDBRANCH  10  18
ENDBRANCH   8  10
ENDBRANCH   1   6
BRANCH   1  23
HETATM   23  N   UNL     1     -24.383  -6.368 -16.478  1.00  0.00    -0.346 N 
HETATM   24  C   UNL     1     -25.676  -6.841 -16.437  1.00  0.00     0.241 C 
HETATM   25  O   UNL     1     -26.095  -7.428 -15.433  1.00  0.00    -0.271 OA
HETATM   26  H   UNL     1     -24.126  -5.708 -17.209  1.00  0.00     0.163 HD
BRANCH  24  27
HETATM   27  C   UNL     1     -26.545  -6.861 -17.762  1.00  0.00     0.179 C 
HETATM   28  C   UNL     1     -25.498  -6.764 -18.901  1.00  0.00     0.037 C 
HETATM   29  C   UNL     1     -26.305  -6.685 -20.177  1.00  0.00     0.022 C 
HETATM   30  C   UNL     1     -27.562  -5.959 -19.758  1.00  0.00     0.127 C 
HETATM   31  N   UNL     1     -27.611  -5.962 -18.291  1.00  0.00    -0.337 N 
HETATM   32  C   UNL     1     -28.894  -5.701 -17.813  1.00  0.00     0.256 C 
HETATM   33  O   UNL     1     -29.780  -5.342 -18.610  1.00  0.00    -0.271 OA
BRANCH  32  34
HETATM   34  CA  UNL     1     -29.303  -5.761 -16.339  1.00  0.00     0.332 C 
BRANCH  34  35
HETATM   35  C   UNL     1     -30.762  -5.282 -16.205  1.00  0.00     0.209 C 
BRANCH  35  36
HETATM   36  O   UNL     1     -31.663  -6.205 -16.822  1.00  0.00    -0.398 OA
HETATM   37  H   UNL     1     -31.724  -5.960 -17.759  1.00  0.00     0.209 HD
ENDBRANCH  35  36
ENDBRANCH  34  35
BRANCH  34  38
HETATM   38  N   UNL     1     -29.066  -7.044 -15.662  1.00  0.00     0.094 N 
HETATM   39  H1  UNL     1     -28.610  -6.887 -14.764  1.00  0.00     0.314 HD
HETATM   40  H2  UNL     1     -28.398  -7.567 -16.232  1.00  0.00     0.314 HD
ENDBRANCH  34  38
ENDBRANCH  32  34
ENDBRANCH  24  27
ENDBRANCH   1  23
TORSDOF 14
BEGIN_RES ARG D 557
REMARK  4 active torsions:
REMARK  status: ('A' for Active; 'I' for Inactive)
REMARK    1  A    between atoms: CA   and  CB  
REMARK    2  A    between atoms: CB   and  CG  
REMARK    3  A    between atoms: CG   and  CD  
REMARK    4  A    between atoms: CD   and  NE  
REMARK       I    between atoms: NE   and  CZ  
REMARK       I    between atoms: CZ   and  NH1 
REMARK       I    between atoms: CZ   and  NH2 
ROOT
ATOM      1  CA  ARG D 557     -26.217   2.705 -17.014  1.00 35.49     0.159 C 
ENDROOT
BRANCH   1   2
ATOM      2  CB  ARG D 557     -26.789   1.319 -17.183  1.00 35.49     0.034 C 
BRANCH   2   3
ATOM      3  CG  ARG D 557     -28.229   1.227 -17.452  1.00 35.49     0.027 C 
BRANCH   3   4
ATOM      4  CD  ARG D 557     -28.924   0.325 -16.505  1.00 35.49     0.116 C 
BRANCH   4   5
ATOM      5  NE  ARG D 557     -28.140  -0.841 -16.193  1.00 35.49    -0.212 N 
ATOM      6  CZ  ARG D 557     -28.324  -2.045 -16.686  1.00 35.49     0.666 C 
ATOM      7  NH1 ARG D 557     -29.292  -2.321 -17.541  1.00 35.49    -0.235 N 
ATOM      8  NH2 ARG D 557     -27.504  -2.981 -16.307  1.00 35.49    -0.235 N 
ATOM      9  HH  ARG D 557     -29.842  -1.720 -17.806  1.00 35.49     0.174 HD
ATOM     10  HH  ARG D 557     -29.362  -3.124 -17.831  1.00 35.49     0.174 HD
ATOM     11  HH  ARG D 557     -26.884  -2.772 -15.760  1.00 35.49     0.174 HD
ATOM     12  HH  ARG D 557     -27.588  -3.769 -16.607  1.00 35.49     0.174 HD
ATOM     13  HE  ARG D 557     -27.540  -0.770 -15.594  1.00 35.49     0.178 HD
ENDBRANCH   4   5
ENDBRANCH   3   4
ENDBRANCH   2   3
ENDBRANCH   1   2
END_RES ARG D 557
BEGIN_RES GLU D 570
REMARK  3 active torsions:
REMARK  status: ('A' for Active; 'I' for Inactive)
REMARK    5  A    between atoms: CA   and  CB  
REMARK    6  A    between atoms: CB   and  CG  
REMARK    7  A    between atoms: CG   and  CD  
ROOT
ATOM     14  CA  GLU D 570     -18.033  -6.348 -13.375  1.00 32.92     0.160 C 
ENDROOT
BRANCH  14  15
ATOM     15  CB  GLU D 570     -19.500  -6.345 -13.794  1.00 32.92     0.043 C 
BRANCH  15  16
ATOM     16  CG  GLU D 570     -20.510  -6.032 -12.750  1.00 32.92     0.100 C 
BRANCH  16  17
ATOM     17  CD  GLU D 570     -20.057  -4.949 -11.798  1.00 32.92     0.185 C 
ATOM     18  OE1 GLU D 570     -20.276  -3.757 -12.089  1.00 32.92    -0.647 OA
ATOM     19  OE2 GLU D 570     -19.462  -5.295 -10.759  1.00 32.92    -0.647 OA
ENDBRANCH  16  17
ENDBRANCH  15  16
ENDBRANCH  14  15
END_RES GLU D 570
ENDMDL
MODEL 5
REMARK VINA RESULT:      -7.0      6.433      9.770
REMARK  14 active torsions:
REMARK  status: ('A' for Active; 'I' for Inactive)
REMARK    1  A    between atoms: C_2  and  C_4 
REMARK    2  A    between atoms: C_4  and  C_5 
REMARK    3  A    between atoms: C_5  and  C_6 
REMARK    4  A    between atoms: C_5  and  N_18 
REMARK       I    between atoms: C_6  and  N_8 
REMARK    5  A    between atoms: N_8  and  C_9 
REMARK    6  A    between atoms: C_9  and  C_10 
REMARK    7  A    between atoms: C_9  and  C_15 
REMARK    8  A    between atoms: C_10  and  C_11 
REMARK    9  A    between atoms: C_11  and  C_12 
REMARK       I    between atoms: C_12  and  N_14 
REMARK       I    between atoms: C_15  and  N_17 
REMARK       I    between atoms: N_18  and  C_19 
REMARK   10  A    between atoms: C_19  and  C_21 
REMARK       I    between atoms: N_25  and  C_26 
REMARK   11  A    between atoms: C_26  and  CA_28 
REMARK   12  A    between atoms: CA_28  and  C_29 
REMARK   13  A    between atoms: CA_28  and  N_31 
REMARK   14  A    between atoms: C_29  and  O_30 
ROOT
HETATM    1  C   UNL     1     -26.289  -6.548 -15.926  1.00  0.00     0.177 C 
ENDROOT
BRANCH   1   2
HETATM    2  C   UNL     1     -27.558  -6.336 -16.809  1.00  0.00     0.038 C 
BRANCH   2   3
HETATM    3  C   UNL     1     -28.933  -6.667 -16.184  1.00  0.00    -0.020 C 
HETATM    4  C   UNL     1     -29.359  -5.668 -15.107  1.00  0.00     0.009 C 
HETATM    5  C   UNL     1     -30.042  -6.754 -17.247  1.00  0.00     0.009 C 
ENDBRANCH   2   3
ENDBRANCH   1   2
BRANCH   1   6
HETATM    6  C   UNL     1     -25.174  -7.294 -16.725  1.00  0.00     0.241 C 
HETATM    7  O   UNL     1     -24.455  -8.128 -16.172  1.00  0.00    -0.271 OA
HETATM    8  N   UNL     1     -24.992  -6.961 -18.058  1.00  0.00    -0.346 N 
HETATM    9  H   UNL     1     -25.534  -6.219 -18.490  1.00  0.00     0.163 HD
BRANCH   8  10
HETATM   10  C   UNL     1     -23.818  -7.432 -18.807  1.00  0.00     0.176 C 
BRANCH  10  11
HETATM   11  C   UNL     1     -23.941  -7.186 -20.316  1.00  0.00     0.044 C 
BRANCH  11  12
HETATM   12  C   UNL     1     -24.936  -8.109 -21.025  1.00  0.00     0.105 C 
BRANCH  12  13
HETATM   13  C   UNL     1     -26.362  -7.637 -20.833  1.00  0.00     0.215 C 
HETATM   14  O   UNL     1     -26.682  -6.511 -20.475  1.00  0.00    -0.274 OA
HETATM   15  N   UNL     1     -27.305  -8.591 -21.077  1.00  0.00    -0.370 N 
HETATM   16  H   UNL     1     -27.082  -9.544 -21.327  1.00  0.00     0.159 HD
HETATM   17  H   UNL     1     -28.277  -8.334 -20.951  1.00  0.00     0.159 HD
ENDBRANCH  12  13
ENDBRANCH  11  12
ENDBRANCH  10  11
BRANCH  10  18
HETATM   18  C   UNL     1     -22.509  -6.842 -18.233  1.00  0.00     0.238 C 
HETATM   19  O   UNL     1     -22.121  -5.704 -18.484  1.00  0.00    -0.271 OA
HETATM   20  N   UNL     1     -21.779  -7.670 -17.427  1.00  0.00    -0.368 N 
HETATM   21  H   UNL     1     -22.084  -8.599 -17.164  1.00  0.00     0.159 HD
HETATM   22  H   UNL     1     -20.926  -7.313 -17.012  1.00  0.00     0.159 HD
ENDBRANCH  10  18
ENDBRANCH   8  10
ENDBRANCH   1   6
BRANCH   1  23
HETATM   23  N   UNL     1     -25.720  -5.225 -15.521  1.00  0.00    -0.346 N 
HETATM   24  C   UNL     1     -24.943  -5.035 -14.399  1.00  0.00     0.241 C 
HETATM   25  O   UNL     1     -24.632  -5.996 -13.685  1.00  0.00    -0.271 OA
HETATM   26  H   UNL     1     -25.783  -4.474 -16.204  1.00  0.00     0.163 HD
BRANCH  24  27
HETATM   27  C   UNL     1     -24.660  -3.565 -13.881  1.00  0.00     0.179 C 
HETATM   28  C   UNL     1     -25.104  -2.659 -15.058  1.00  0.00     0.037 C 
HETATM   29  C   UNL     1     -24.756  -1.252 -14.629  1.00  0.00     0.022 C 
HETATM   30  C   UNL     1     -23.527  -1.435 -13.770  1.00  0.00     0.127 C 
HETATM   31  N   UNL     1     -23.418  -2.863 -13.446  1.00  0.00    -0.337 N 
HETATM   32  C   UNL     1     -22.590  -3.085 -12.347  1.00  0.00     0.256 C 
HETATM   33  O   UNL     1     -21.928  -2.140 -11.881  1.00  0.00    -0.271 OA
BRANCH  32  34
HETATM   34  CA  UNL     1     -22.375  -4.447 -11.681  1.00  0.00     0.332 C 
BRANCH  34  35
HETATM   35  C   UNL     1     -21.074  -4.398 -10.855  1.00  0.00     0.209 C 
BRANCH  35  36
HETATM   36  O   UNL     1     -19.969  -3.986 -11.664  1.00  0.00    -0.398 OA
HETATM   37  H   UNL     1     -19.840  -3.037 -11.507  1.00  0.00     0.209 HD
ENDBRANCH  35  36
ENDBRANCH  34  35
BRANCH  34  38
HETATM   38  N   UNL     1     -23.512  -4.970 -10.912  1.00  0.00     0.094 N 
HETATM   39  H1  UNL     1     -23.206  -5.732 -10.310  1.00  0.00     0.314 HD
HETATM   40  H2  UNL     1     -24.166  -5.381 -11.581  1.00  0.00     0.314 HD
ENDBRANCH  34  38
ENDBRANCH  32  34
ENDBRANCH  24  27
ENDBRANCH   1  23
TORSDOF 14
BEGIN_RES ARG D 557
REMARK  4 active torsions:
REMARK  status: ('A' for Active; 'I' for Inactive)
REMARK    1  A    between atoms: CA   and  CB  
REMARK    2  A    between atoms: CB   and  CG  
REMARK    3  A    between atoms: CG   and  CD  
REMARK    4  A    between atoms: CD   and  NE  
REMARK       I    between atoms: NE   and  CZ  
REMARK       I    between atoms: CZ   and  NH1 
REMARK       I    between atoms: CZ   and  NH2 
ROOT
ATOM      1  CA  ARG D 557     -26.217   2.705 -17.014  1.00 35.49     0.159 C 
ENDROOT
BRANCH   1   2
ATOM      2  CB  ARG D 557     -26.789   1.319 -17.183  1.00 35.49     0.034 C 
BRANCH   2   3
ATOM      3  CG  ARG D 557     -28.250   1.195 -17.118  1.00 35.49     0.027 C 
BRANCH   3   4
ATOM      4  CD  ARG D 557     -28.683   0.051 -16.284  1.00 35.49     0.116 C 
BRANCH   4   5
ATOM      5  NE  ARG D 557     -29.384  -0.945 -17.051  1.00 35.49    -0.212 N 
ATOM      6  CZ  ARG D 557     -29.050  -2.212 -17.153  1.00 35.49     0.666 C 
ATOM      7  NH1 ARG D 557     -27.988  -2.716 -16.551  1.00 35.49    -0.235 N 
ATOM      8  NH2 ARG D 557     -29.814  -2.978 -17.876  1.00 35.49    -0.235 N 
ATOM      9  HH  ARG D 557     -27.472  -2.231 -16.069  1.00 35.49     0.174 HD
ATOM     10  HH  ARG D 557     -27.821  -3.550 -16.652  1.00 35.49     0.174 HD
ATOM     11  HH  ARG D 557     -30.497  -2.627 -18.246  1.00 35.49     0.174 HD
ATOM     12  HH  ARG D 557     -29.633  -3.802 -17.962  1.00 35.49     0.174 HD
ATOM     13  HE  ARG D 557     -30.040  -0.692 -17.530  1.00 35.49     0.178 HD
ENDBRANCH   4   5
ENDBRANCH   3   4
ENDBRANCH   2   3
ENDBRANCH   1   2
END_RES ARG D 557
BEGIN_RES GLU D 570
REMARK  3 active torsions:
REMARK  status: ('A' for Active; 'I' for Inactive)
REMARK    5  A    between atoms: CA   and  CB  
REMARK    6  A    between atoms: CB   and  CG  
REMARK    7  A    between atoms: CG   and  CD  
ROOT
ATOM     14  CA  GLU D 570     -18.033  -6.348 -13.375  1.00 32.92     0.160 C 
ENDROOT
BRANCH  14  15
ATOM     15  CB  GLU D 570     -19.500  -6.345 -13.794  1.00 32.92     0.043 C 
BRANCH  15  16
ATOM     16  CG  GLU D 570     -19.860  -5.586 -15.019  1.00 32.92     0.100 C 
BRANCH  16  17
ATOM     17  CD  GLU D 570     -21.350  -5.385 -15.171  1.00 32.92     0.185 C 
ATOM     18  OE1 GLU D 570     -22.125  -6.279 -14.781  1.00 32.92    -0.647 OA
ATOM     19  OE2 GLU D 570     -21.746  -4.328 -15.701  1.00 32.92    -0.647 OA
ENDBRANCH  16  17
ENDBRANCH  15  16
ENDBRANCH  14  15
END_RES GLU D 570
ENDMDL
MODEL 6
REMARK VINA RESULT:      -7.0      8.370     15.777
REMARK  14 active torsions:
REMARK  status: ('A' for Active; 'I' for Inactive)
REMARK    1  A    between atoms: C_2  and  C_4 
REMARK    2  A    between atoms: C_4  and  C_5 
REMARK    3  A    between atoms: C_5  and  C_6 
REMARK    4  A    between atoms: C_5  and  N_18 
REMARK       I    between atoms: C_6  and  N_8 
REMARK    5  A    between atoms: N_8  and  C_9 
REMARK    6  A    between atoms: C_9  and  C_10 
REMARK    7  A    between atoms: C_9  and  C_15 
REMARK    8  A    between atoms: C_10  and  C_11 
REMARK    9  A    between atoms: C_11  and  C_12 
REMARK       I    between atoms: C_12  and  N_14 
REMARK       I    between atoms: C_15  and  N_17 
REMARK       I    between atoms: N_18  and  C_19 
REMARK   10  A    between atoms: C_19  and  C_21 
REMARK       I    between atoms: N_25  and  C_26 
REMARK   11  A    between atoms: C_26  and  CA_28 
REMARK   12  A    between atoms: CA_28  and  C_29 
REMARK   13  A    between atoms: CA_28  and  N_31 
REMARK   14  A    between atoms: C_29  and  O_30 
ROOT
HETATM    1  C   UNL     1     -21.104  -7.592  -5.581  1.00  0.00     0.177 C 
ENDROOT
BRANCH   1   2
HETATM    2  C   UNL     1     -21.977  -7.285  -4.324  1.00  0.00     0.038 C 
BRANCH   2   3
HETATM    3  C   UNL     1     -21.257  -7.160  -2.961  1.00  0.00    -0.020 C 
HETATM    4  C   UNL     1     -21.734  -5.961  -2.138  1.00  0.00     0.009 C 
HETATM    5  C   UNL     1     -21.405  -8.435  -2.113  1.00  0.00     0.009 C 
ENDBRANCH   2   3
ENDBRANCH   1   2
BRANCH   1   6
HETATM    6  C   UNL     1     -20.624  -6.270  -6.259  1.00  0.00     0.241 C 
HETATM    7  O   UNL     1     -20.026  -5.412  -5.609  1.00  0.00    -0.271 OA
HETATM    8  N   UNL     1     -20.926  -6.075  -7.597  1.00  0.00    -0.346 N 
HETATM    9  H   UNL     1     -21.486  -6.749  -8.111  1.00  0.00     0.163 HD
BRANCH   8  10
HETATM   10  C   UNL     1     -20.728  -4.767  -8.240  1.00  0.00     0.176 C 
BRANCH  10  11
HETATM   11  C   UNL     1     -20.689  -4.860  -9.770  1.00  0.00     0.044 C 
BRANCH  11  12
HETATM   12  C   UNL     1     -20.664  -3.505 -10.483  1.00  0.00     0.105 C 
BRANCH  12  13
HETATM   13  C   UNL     1     -21.849  -3.347 -11.412  1.00  0.00     0.215 C 
HETATM   14  O   UNL     1     -22.984  -3.059 -11.054  1.00  0.00    -0.274 OA
HETATM   15  N   UNL     1     -21.565  -3.573 -12.726  1.00  0.00    -0.370 N 
HETATM   16  H   UNL     1     -20.655  -3.858 -13.058  1.00  0.00     0.159 HD
HETATM   17  H   UNL     1     -22.324  -3.494 -13.392  1.00  0.00     0.159 HD
ENDBRANCH  12  13
ENDBRANCH  11  12
ENDBRANCH  10  11
BRANCH  10  18
HETATM   18  C   UNL     1     -21.772  -3.736  -7.753  1.00  0.00     0.238 C 
HETATM   19  O   UNL     1     -21.472  -2.721  -7.132  1.00  0.00    -0.271 OA
HETATM   20  N   UNL     1     -23.078  -4.023  -8.041  1.00  0.00    -0.368 N 
HETATM   21  H   UNL     1     -23.363  -4.827  -8.585  1.00  0.00     0.159 HD
HETATM   22  H   UNL     1     -23.792  -3.360  -7.760  1.00  0.00     0.159 HD
ENDBRANCH  10  18
ENDBRANCH   8  10
ENDBRANCH   1   6
BRANCH   1  23
HETATM   23  N   UNL     1     -19.876  -8.345  -5.179  1.00  0.00    -0.346 N 
HETATM   24  C   UNL     1     -19.761  -9.716  -5.245  1.00  0.00     0.241 C 
HETATM   25  O   UNL     1     -20.685 -10.398  -5.704  1.00  0.00    -0.271 OA
HETATM   26  H   UNL     1     -19.039  -7.792  -5.007  1.00  0.00     0.163 HD
BRANCH  24  27
HETATM   27  C   UNL     1     -18.560 -10.439  -4.505  1.00  0.00     0.179 C 
HETATM   28  C   UNL     1     -17.980  -9.345  -3.572  1.00  0.00     0.037 C 
HETATM   29  C   UNL     1     -16.771  -9.978  -2.922  1.00  0.00     0.022 C 
HETATM   30  C   UNL     1     -16.254 -10.926  -3.979  1.00  0.00     0.127 C 
HETATM   31  N   UNL     1     -17.305 -11.079  -4.994  1.00  0.00    -0.337 N 
HETATM   32  C   UNL     1     -17.113 -12.218  -5.773  1.00  0.00     0.256 C 
HETATM   33  O   UNL     1     -16.053 -12.862  -5.663  1.00  0.00    -0.271 OA
BRANCH  32  34
HETATM   34  CA  UNL     1     -18.100 -12.727  -6.827  1.00  0.00     0.332 C 
BRANCH  34  35
HETATM   35  C   UNL     1     -19.171 -13.592  -6.132  1.00  0.00     0.209 C 
BRANCH  35  36
HETATM   36  O   UNL     1     -20.487 -13.153  -6.478  1.00  0.00    -0.398 OA
HETATM   37  H   UNL     1     -20.446 -12.189  -6.585  1.00  0.00     0.209 HD
ENDBRANCH  35  36
ENDBRANCH  34  35
BRANCH  34  38
HETATM   38  N   UNL     1     -18.684 -11.703  -7.704  1.00  0.00     0.094 N 
HETATM   39  H1  UNL     1     -19.242 -11.051  -7.156  1.00  0.00     0.314 HD
HETATM   40  H2  UNL     1     -19.336 -12.178  -8.331  1.00  0.00     0.314 HD
ENDBRANCH  34  38
ENDBRANCH  32  34
ENDBRANCH  24  27
ENDBRANCH   1  23
TORSDOF 14
BEGIN_RES ARG D 557
REMARK  4 active torsions:
REMARK  status: ('A' for Active; 'I' for Inactive)
REMARK    1  A    between atoms: CA   and  CB  
REMARK    2  A    between atoms: CB   and  CG  
REMARK    3  A    between atoms: CG   and  CD  
REMARK    4  A    between atoms: CD   and  NE  
REMARK       I    between atoms: NE   and  CZ  
REMARK       I    between atoms: CZ   and  NH1 
REMARK       I    between atoms: CZ   and  NH2 
ROOT
ATOM      1  CA  ARG D 557     -26.217   2.705 -17.014  1.00 35.49     0.159 C 
ENDROOT
BRANCH   1   2
ATOM      2  CB  ARG D 557     -26.789   1.319 -17.183  1.00 35.49     0.034 C 
BRANCH   2   3
ATOM      3  CG  ARG D 557     -25.993   0.206 -16.650  1.00 35.49     0.027 C 
BRANCH   3   4
ATOM      4  CD  ARG D 557     -26.838  -0.907 -16.160  1.00 35.49     0.116 C 
BRANCH   4   5
ATOM      5  NE  ARG D 557     -26.207  -1.637 -15.092  1.00 35.49    -0.212 N 
ATOM      6  CZ  ARG D 557     -24.988  -1.439 -14.642  1.00 35.49     0.666 C 
ATOM      7  NH1 ARG D 557     -24.183  -0.526 -15.153  1.00 35.49    -0.235 N 
ATOM      8  NH2 ARG D 557     -24.586  -2.180 -13.651  1.00 35.49    -0.235 N 
ATOM      9  HH  ARG D 557     -24.427  -0.025 -15.804  1.00 35.49     0.174 HD
ATOM     10  HH  ARG D 557     -23.399  -0.440 -14.817  1.00 35.49     0.174 HD
ATOM     11  HH  ARG D 557     -25.130  -2.757 -13.336  1.00 35.49     0.174 HD
ATOM     12  HH  ARG D 557     -23.807  -2.079 -13.331  1.00 35.49     0.174 HD
ATOM     13  HE  ARG D 557     -26.628  -2.293 -14.753  1.00 35.49     0.178 HD
ENDBRANCH   4   5
ENDBRANCH   3   4
ENDBRANCH   2   3
ENDBRANCH   1   2
END_RES ARG D 557
BEGIN_RES GLU D 570
REMARK  3 active torsions:
REMARK  status: ('A' for Active; 'I' for Inactive)
REMARK    5  A    between atoms: CA   and  CB  
REMARK    6  A    between atoms: CB   and  CG  
REMARK    7  A    between atoms: CG   and  CD  
ROOT
ATOM     14  CA  GLU D 570     -18.033  -6.348 -13.375  1.00 32.92     0.160 C 
ENDROOT
BRANCH  14  15
ATOM     15  CB  GLU D 570     -19.500  -6.345 -13.794  1.00 32.92     0.043 C 
BRANCH  15  16
ATOM     16  CG  GLU D 570     -19.808  -6.673 -15.210  1.00 32.92     0.100 C 
BRANCH  16  17
ATOM     17  CD  GLU D 570     -20.821  -5.735 -15.825  1.00 32.92     0.185 C 
ATOM     18  OE1 GLU D 570     -20.817  -5.565 -17.060  1.00 32.92    -0.647 OA
ATOM     19  OE2 GLU D 570     -21.615  -5.151 -15.062  1.00 32.92    -0.647 OA
ENDBRANCH  16  17
ENDBRANCH  15  16
ENDBRANCH  14  15
END_RES GLU D 570
ENDMDL
MODEL 7
REMARK VINA RESULT:      -7.0      2.140      6.920
REMARK  14 active torsions:
REMARK  status: ('A' for Active; 'I' for Inactive)
REMARK    1  A    between atoms: C_2  and  C_4 
REMARK    2  A    between atoms: C_4  and  C_5 
REMARK    3  A    between atoms: C_5  and  C_6 
REMARK    4  A    between atoms: C_5  and  N_18 
REMARK       I    between atoms: C_6  and  N_8 
REMARK    5  A    between atoms: N_8  and  C_9 
REMARK    6  A    between atoms: C_9  and  C_10 
REMARK    7  A    between atoms: C_9  and  C_15 
REMARK    8  A    between atoms: C_10  and  C_11 
REMARK    9  A    between atoms: C_11  and  C_12 
REMARK       I    between atoms: C_12  and  N_14 
REMARK       I    between atoms: C_15  and  N_17 
REMARK       I    between atoms: N_18  and  C_19 
REMARK   10  A    between atoms: C_19  and  C_21 
REMARK       I    between atoms: N_25  and  C_26 
REMARK   11  A    between atoms: C_26  and  CA_28 
REMARK   12  A    between atoms: CA_28  and  C_29 
REMARK   13  A    between atoms: CA_28  and  N_31 
REMARK   14  A    between atoms: C_29  and  O_30 
ROOT
HETATM    1  C   UNL     1     -34.617  -4.575 -15.792  1.00  0.00     0.177 C 
ENDROOT
BRANCH   1   2
HETATM    2  C   UNL     1     -35.775  -5.616 -15.901  1.00  0.00     0.038 C 
BRANCH   2   3
HETATM    3  C   UNL     1     -35.400  -7.117 -15.856  1.00  0.00    -0.020 C 
HETATM    4  C   UNL     1     -36.055  -7.864 -14.693  1.00  0.00     0.009 C 
HETATM    5  C   UNL     1     -35.751  -7.837 -17.170  1.00  0.00     0.009 C 
ENDBRANCH   2   3
ENDBRANCH   1   2
BRANCH   1   6
HETATM    6  C   UNL     1     -34.460  -4.071 -14.323  1.00  0.00     0.241 C 
HETATM    7  O   UNL     1     -34.214  -2.888 -14.088  1.00  0.00    -0.271 OA
HETATM    8  N   UNL     1     -34.563  -5.000 -13.300  1.00  0.00    -0.346 N 
HETATM    9  H   UNL     1     -34.688  -5.987 -13.500  1.00  0.00     0.163 HD
BRANCH   8  10
HETATM   10  C   UNL     1     -34.187  -4.657 -11.920  1.00  0.00     0.176 C 
BRANCH  10  11
HETATM   11  C   UNL     1     -35.275  -3.857 -11.193  1.00  0.00     0.044 C 
BRANCH  11  12
HETATM   12  C   UNL     1     -34.858  -2.435 -10.805  1.00  0.00     0.105 C 
BRANCH  12  13
HETATM   13  C   UNL     1     -35.881  -1.415 -11.261  1.00  0.00     0.215 C 
HETATM   14  O   UNL     1     -36.496  -1.467 -12.318  1.00  0.00    -0.274 OA
HETATM   15  N   UNL     1     -36.068  -0.382 -10.391  1.00  0.00    -0.370 N 
HETATM   16  H   UNL     1     -35.547  -0.276  -9.531  1.00  0.00     0.159 HD
HETATM   17  H   UNL     1     -36.732   0.337 -10.650  1.00  0.00     0.159 HD
ENDBRANCH  12  13
ENDBRANCH  11  12
ENDBRANCH  10  11
BRANCH  10  18
HETATM   18  C   UNL     1     -33.767  -5.912 -11.122  1.00  0.00     0.238 C 
HETATM   19  O   UNL     1     -34.491  -6.449 -10.288  1.00  0.00    -0.271 OA
HETATM   20  N   UNL     1     -32.516  -6.398 -11.383  1.00  0.00    -0.368 N 
HETATM   21  H   UNL     1     -31.905  -6.009 -12.090  1.00  0.00     0.159 HD
HETATM   22  H   UNL     1     -32.211  -7.234 -10.898  1.00  0.00     0.159 HD
ENDBRANCH  10  18
ENDBRANCH   8  10
ENDBRANCH   1   6
BRANCH   1  23
HETATM   23  N   UNL     1     -33.319  -5.213 -16.174  1.00  0.00    -0.346 N 
HETATM   24  C   UNL     1     -32.307  -4.555 -16.838  1.00  0.00     0.241 C 
HETATM   25  O   UNL     1     -32.417  -3.353 -17.110  1.00  0.00    -0.271 OA
HETATM   26  H   UNL     1     -33.125  -6.127 -15.772  1.00  0.00     0.163 HD
BRANCH  24  27
HETATM   27  C   UNL     1     -31.118  -5.385 -17.478  1.00  0.00     0.179 C 
HETATM   28  C   UNL     1     -31.666  -6.834 -17.546  1.00  0.00     0.037 C 
HETATM   29  C   UNL     1     -30.517  -7.668 -18.065  1.00  0.00     0.022 C 
HETATM   30  C   UNL     1     -29.294  -6.967 -17.522  1.00  0.00     0.127 C 
HETATM   31  N   UNL     1     -29.713  -5.641 -17.049  1.00  0.00    -0.337 N 
HETATM   32  C   UNL     1     -28.633  -4.770 -16.920  1.00  0.00     0.256 C 
HETATM   33  O   UNL     1     -27.476  -5.211 -17.039  1.00  0.00    -0.271 OA
BRANCH  32  34
HETATM   34  CA  UNL     1     -28.752  -3.283 -16.573  1.00  0.00     0.332 C 
BRANCH  34  35
HETATM   35  C   UNL     1     -27.358  -2.749 -16.184  1.00  0.00     0.209 C 
BRANCH  35  36
HETATM   36  O   UNL     1     -26.826  -3.471 -15.071  1.00  0.00    -0.398 OA
HETATM   37  H   UNL     1     -25.885  -3.623 -15.254  1.00  0.00     0.209 HD
ENDBRANCH  35  36
ENDBRANCH  34  35
BRANCH  34  38
HETATM   38  N   UNL     1     -29.417  -2.443 -17.579  1.00  0.00     0.094 N 
HETATM   39  H1  UNL     1     -30.287  -2.880 -17.879  1.00  0.00     0.314 HD
HETATM   40  H2  UNL     1     -28.812  -2.420 -18.402  1.00  0.00     0.314 HD
ENDBRANCH  34  38
ENDBRANCH  32  34
ENDBRANCH  24  27
ENDBRANCH   1  23
TORSDOF 14
BEGIN_RES ARG D 557
REMARK  4 active torsions:
REMARK  status: ('A' for Active; 'I' for Inactive)
REMARK    1  A    between atoms: CA   and  CB  
REMARK    2  A    between atoms: CB   and  CG  
REMARK    3  A    between atoms: CG   and  CD  
REMARK    4  A    between atoms: CD   and  NE  
REMARK       I    between atoms: NE   and  CZ  
REMARK       I    between atoms: CZ   and  NH1 
REMARK       I    between atoms: CZ   and  NH2 
ROOT
ATOM      1  CA  ARG D 557     -26.217   2.705 -17.014  1.00 35.49     0.159 C 
ENDROOT
BRANCH   1   2
ATOM      2  CB  ARG D 557     -26.789   1.319 -17.183  1.00 35.49     0.034 C 
BRANCH   2   3
ATOM      3  CG  ARG D 557     -25.834   0.205 -17.175  1.00 35.49     0.027 C 
BRANCH   3   4
ATOM      4  CD  ARG D 557     -24.746   0.401 -16.190  1.00 35.49     0.116 C 
BRANCH   4   5
ATOM      5  NE  ARG D 557     -24.908  -0.435 -15.030  1.00 35.49    -0.212 N 
ATOM      6  CZ  ARG D 557     -24.106  -1.413 -14.669  1.00 35.49     0.666 C 
ATOM      7  NH1 ARG D 557     -23.038  -1.749 -15.369  1.00 35.49    -0.235 N 
ATOM      8  NH2 ARG D 557     -24.395  -2.053 -13.574  1.00 35.49    -0.235 N 
ATOM      9  HH  ARG D 557     -22.828  -1.340 -16.092  1.00 35.49     0.174 HD
ATOM     10  HH  ARG D 557     -22.551  -2.393 -15.084  1.00 35.49     0.174 HD
ATOM     11  HH  ARG D 557     -25.087  -1.809 -13.138  1.00 35.49     0.174 HD
ATOM     12  HH  ARG D 557     -23.900  -2.687 -13.307  1.00 35.49     0.174 HD
ATOM     13  HE  ARG D 557     -25.610  -0.336 -14.561  1.00 35.49     0.178 HD
ENDBRANCH   4   5
ENDBRANCH   3   4
ENDBRANCH   2   3
ENDBRANCH   1   2
END_RES ARG D 557
BEGIN_RES GLU D 570
REMARK  3 active torsions:
REMARK  status: ('A' for Active; 'I' for Inactive)
REMARK    5  A    between atoms: CA   and  CB  
REMARK    6  A    between atoms: CB   and  CG  
REMARK    7  A    between atoms: CG   and  CD  
ROOT
ATOM     14  CA  GLU D 570     -18.033  -6.348 -13.375  1.00 32.92     0.160 C 
ENDROOT
BRANCH  14  15
ATOM     15  CB  GLU D 570     -19.500  -6.345 -13.794  1.00 32.92     0.043 C 
BRANCH  15  16
ATOM     16  CG  GLU D 570     -20.438  -5.511 -12.998  1.00 32.92     0.100 C 
BRANCH  16  17
ATOM     17  CD  GLU D 570     -21.606  -5.001 -13.809  1.00 32.92     0.185 C 
ATOM     18  OE1 GLU D 570     -22.387  -4.178 -13.293  1.00 32.92    -0.647 OA
ATOM     19  OE2 GLU D 570     -21.751  -5.441 -14.966  1.00 32.92    -0.647 OA
ENDBRANCH  16  17
ENDBRANCH  15  16
ENDBRANCH  14  15
END_RES GLU D 570
ENDMDL
MODEL 8
REMARK VINA RESULT:      -6.9      9.177     16.156
REMARK  14 active torsions:
REMARK  status: ('A' for Active; 'I' for Inactive)
REMARK    1  A    between atoms: C_2  and  C_4 
REMARK    2  A    between atoms: C_4  and  C_5 
REMARK    3  A    between atoms: C_5  and  C_6 
REMARK    4  A    between atoms: C_5  and  N_18 
REMARK       I    between atoms: C_6  and  N_8 
REMARK    5  A    between atoms: N_8  and  C_9 
REMARK    6  A    between atoms: C_9  and  C_10 
REMARK    7  A    between atoms: C_9  and  C_15 
REMARK    8  A    between atoms: C_10  and  C_11 
REMARK    9  A    between atoms: C_11  and  C_12 
REMARK       I    between atoms: C_12  and  N_14 
REMARK       I    between atoms: C_15  and  N_17 
REMARK       I    between atoms: N_18  and  C_19 
REMARK   10  A    between atoms: C_19  and  C_21 
REMARK       I    between atoms: N_25  and  C_26 
REMARK   11  A    between atoms: C_26  and  CA_28 
REMARK   12  A    between atoms: CA_28  and  C_29 
REMARK   13  A    between atoms: CA_28  and  N_31 
REMARK   14  A    between atoms: C_29  and  O_30 
ROOT
HETATM    1  C   UNL     1     -20.940  -7.642  -4.096  1.00  0.00     0.177 C 
ENDROOT
BRANCH   1   2
HETATM    2  C   UNL     1     -21.149  -7.106  -2.646  1.00  0.00     0.038 C 
BRANCH   2   3
HETATM    3  C   UNL     1     -21.794  -8.060  -1.612  1.00  0.00    -0.020 C 
HETATM    4  C   UNL     1     -20.781  -8.993  -0.944  1.00  0.00     0.009 C 
HETATM    5  C   UNL     1     -22.557  -7.292  -0.519  1.00  0.00     0.009 C 
ENDBRANCH   2   3
ENDBRANCH   1   2
BRANCH   1   6
HETATM    6  C   UNL     1     -20.891  -6.466  -5.122  1.00  0.00     0.241 C 
HETATM    7  O   UNL     1     -20.787  -5.301  -4.736  1.00  0.00    -0.271 OA
HETATM    8  N   UNL     1     -21.008  -6.768  -6.469  1.00  0.00    -0.346 N 
HETATM    9  H   UNL     1     -21.171  -7.721  -6.779  1.00  0.00     0.163 HD
BRANCH   8  10
HETATM   10  C   UNL     1     -21.216  -5.712  -7.470  1.00  0.00     0.176 C 
BRANCH  10  11
HETATM   11  C   UNL     1     -22.141  -4.595  -6.970  1.00  0.00     0.044 C 
BRANCH  11  12
HETATM   12  C   UNL     1     -23.524  -4.582  -7.626  1.00  0.00     0.105 C 
BRANCH  12  13
HETATM   13  C   UNL     1     -23.524  -3.762  -8.899  1.00  0.00     0.215 C 
HETATM   14  O   UNL     1     -22.560  -3.624  -9.641  1.00  0.00    -0.274 OA
HETATM   15  N   UNL     1     -24.710  -3.146  -9.169  1.00  0.00    -0.370 N 
HETATM   16  H   UNL     1     -25.515  -3.195  -8.560  1.00  0.00     0.159 HD
HETATM   17  H   UNL     1     -24.764  -2.573 -10.003  1.00  0.00     0.159 HD
ENDBRANCH  12  13
ENDBRANCH  11  12
ENDBRANCH  10  11
BRANCH  10  18
HETATM   18  C   UNL     1     -19.871  -5.155  -7.989  1.00  0.00     0.238 C 
HETATM   19  O   UNL     1     -18.898  -4.970  -7.263  1.00  0.00    -0.271 OA
HETATM   20  N   UNL     1     -19.819  -4.856  -9.323  1.00  0.00    -0.368 N 
HETATM   21  H   UNL     1     -20.585  -5.031  -9.961  1.00  0.00     0.159 HD
HETATM   22  H   UNL     1     -18.947  -4.511  -9.707  1.00  0.00     0.159 HD
ENDBRANCH  10  18
ENDBRANCH   8  10
ENDBRANCH   1   6
BRANCH   1  23
HETATM   23  N   UNL     1     -19.630  -8.358  -4.193  1.00  0.00    -0.346 N 
HETATM   24  C   UNL     1     -19.508  -9.727  -4.285  1.00  0.00     0.241 C 
HETATM   25  O   UNL     1     -20.517 -10.440  -4.344  1.00  0.00    -0.271 OA
HETATM   26  H   UNL     1     -18.808  -7.782  -4.364  1.00  0.00     0.163 HD
BRANCH  24  27
HETATM   27  C   UNL     1     -18.094 -10.406  -4.060  1.00  0.00     0.179 C 
HETATM   28  C   UNL     1     -17.315  -9.376  -3.202  1.00  0.00     0.037 C 
HETATM   29  C   UNL     1     -15.927  -9.955  -3.051  1.00  0.00     0.022 C 
HETATM   30  C   UNL     1     -15.716 -10.714  -4.340  1.00  0.00     0.127 C 
HETATM   31  N   UNL     1     -17.022 -10.852  -4.996  1.00  0.00    -0.337 N 
HETATM   32  C   UNL     1     -17.020 -11.867  -5.951  1.00  0.00     0.256 C 
HETATM   33  O   UNL     1     -15.943 -12.407  -6.264  1.00  0.00    -0.271 OA
BRANCH  32  34
HETATM   34  CA  UNL     1     -18.257 -12.346  -6.715  1.00  0.00     0.332 C 
BRANCH  34  35
HETATM   35  C   UNL     1     -18.972 -13.427  -5.879  1.00  0.00     0.209 C 
BRANCH  35  36
HETATM   36  O   UNL     1     -20.293 -13.011  -5.527  1.00  0.00    -0.398 OA
HETATM   37  H   UNL     1     -20.781 -13.808  -5.263  1.00  0.00     0.209 HD
ENDBRANCH  35  36
ENDBRANCH  34  35
BRANCH  34  38
HETATM   38  N   UNL     1     -19.172 -11.292  -7.175  1.00  0.00     0.094 N 
HETATM   39  H1  UNL     1     -19.858 -11.682  -7.819  1.00  0.00     0.314 HD
HETATM   40  H2  UNL     1     -18.618 -10.627  -7.719  1.00  0.00     0.314 HD
ENDBRANCH  34  38
ENDBRANCH  32  34
ENDBRANCH  24  27
ENDBRANCH   1  23
TORSDOF 14
BEGIN_RES ARG D 557
REMARK  4 active torsions:
REMARK  status: ('A' for Active; 'I' for Inactive)
REMARK    1  A    between atoms: CA   and  CB  
REMARK    2  A    between atoms: CB   and  CG  
REMARK    3  A    between atoms: CG   and  CD  
REMARK    4  A    between atoms: CD   and  NE  
REMARK       I    between atoms: NE   and  CZ  
REMARK       I    between atoms: CZ   and  NH1 
REMARK       I    between atoms: CZ   and  NH2 
ROOT
ATOM      1  CA  ARG D 557     -26.217   2.705 -17.014  1.00 35.49     0.159 C 
ENDROOT
BRANCH   1   2
ATOM      2  CB  ARG D 557     -26.789   1.319 -17.183  1.00 35.49     0.034 C 
BRANCH   2   3
ATOM      3  CG  ARG D 557     -25.840   0.200 -17.119  1.00 35.49     0.027 C 
BRANCH   3   4
ATOM      4  CD  ARG D 557     -24.767   0.427 -16.125  1.00 35.49     0.116 C 
BRANCH   4   5
ATOM      5  NE  ARG D 557     -24.877  -0.458 -14.996  1.00 35.49    -0.212 N 
ATOM      6  CZ  ARG D 557     -24.035  -1.419 -14.688  1.00 35.49     0.666 C 
ATOM      7  NH1 ARG D 557     -22.969  -1.689 -15.420  1.00 35.49    -0.235 N 
ATOM      8  NH2 ARG D 557     -24.280  -2.112 -13.614  1.00 35.49    -0.235 N 
ATOM      9  HH  ARG D 557     -22.787  -1.245 -16.129  1.00 35.49     0.174 HD
ATOM     10  HH  ARG D 557     -22.454  -2.326 -15.169  1.00 35.49     0.174 HD
ATOM     11  HH  ARG D 557     -24.972  -1.910 -13.157  1.00 35.49     0.174 HD
ATOM     12  HH  ARG D 557     -23.757  -2.737 -13.381  1.00 35.49     0.174 HD
ATOM     13  HE  ARG D 557     -25.573  -0.402 -14.511  1.00 35.49     0.178 HD
ENDBRANCH   4   5
ENDBRANCH   3   4
ENDBRANCH   2   3
ENDBRANCH   1   2
END_RES ARG D 557
BEGIN_RES GLU D 570
REMARK  3 active torsions:
REMARK  status: ('A' for Active; 'I' for Inactive)
REMARK    5  A    between atoms: CA   and  CB  
REMARK    6  A    between atoms: CB   and  CG  
REMARK    7  A    between atoms: CG   and  CD  
ROOT
ATOM     14  CA  GLU D 570     -18.033  -6.348 -13.375  1.00 32.92     0.160 C 
ENDROOT
BRANCH  14  15
ATOM     15  CB  GLU D 570     -19.500  -6.345 -13.794  1.00 32.92     0.043 C 
BRANCH  15  16
ATOM     16  CG  GLU D 570     -20.451  -5.574 -12.952  1.00 32.92     0.100 C 
BRANCH  16  17
ATOM     17  CD  GLU D 570     -21.652  -5.078 -13.723  1.00 32.92     0.185 C 
ATOM     18  OE1 GLU D 570     -21.631  -5.118 -14.968  1.00 32.92    -0.647 OA
ATOM     19  OE2 GLU D 570     -22.618  -4.629 -13.074  1.00 32.92    -0.647 OA
ENDBRANCH  16  17
ENDBRANCH  15  16
ENDBRANCH  14  15
END_RES GLU D 570
ENDMDL
MODEL 9
REMARK VINA RESULT:      -6.8      9.780     16.974
REMARK  14 active torsions:
REMARK  status: ('A' for Active; 'I' for Inactive)
REMARK    1  A    between atoms: C_2  and  C_4 
REMARK    2  A    between atoms: C_4  and  C_5 
REMARK    3  A    between atoms: C_5  and  C_6 
REMARK    4  A    between atoms: C_5  and  N_18 
REMARK       I    between atoms: C_6  and  N_8 
REMARK    5  A    between atoms: N_8  and  C_9 
REMARK    6  A    between atoms: C_9  and  C_10 
REMARK    7  A    between atoms: C_9  and  C_15 
REMARK    8  A    between atoms: C_10  and  C_11 
REMARK    9  A    between atoms: C_11  and  C_12 
REMARK       I    between atoms: C_12  and  N_14 
REMARK       I    between atoms: C_15  and  N_17 
REMARK       I    between atoms: N_18  and  C_19 
REMARK   10  A    between atoms: C_19  and  C_21 
REMARK       I    between atoms: N_25  and  C_26 
REMARK   11  A    between atoms: C_26  and  CA_28 
REMARK   12  A    between atoms: CA_28  and  C_29 
REMARK   13  A    between atoms: CA_28  and  N_31 
REMARK   14  A    between atoms: C_29  and  O_30 
ROOT
HETATM    1  C   UNL     1     -21.002  -8.803  -4.258  1.00  0.00     0.177 C 
ENDROOT
BRANCH   1   2
HETATM    2  C   UNL     1     -22.053  -8.177  -3.290  1.00  0.00     0.038 C 
BRANCH   2   3
HETATM    3  C   UNL     1     -21.526  -7.394  -2.064  1.00  0.00    -0.020 C 
HETATM    4  C   UNL     1     -21.872  -5.904  -2.109  1.00  0.00     0.009 C 
HETATM    5  C   UNL     1     -22.043  -7.984  -0.740  1.00  0.00     0.009 C 
ENDBRANCH   2   3
ENDBRANCH   1   2
BRANCH   1   6
HETATM    6  C   UNL     1     -20.686  -7.831  -5.439  1.00  0.00     0.241 C 
HETATM    7  O   UNL     1     -19.630  -7.927  -6.066  1.00  0.00    -0.271 OA
HETATM    8  N   UNL     1     -21.606  -6.837  -5.730  1.00  0.00    -0.346 N 
HETATM    9  H   UNL     1     -22.439  -6.712  -5.162  1.00  0.00     0.163 HD
BRANCH   8  10
HETATM   10  C   UNL     1     -21.276  -5.742  -6.654  1.00  0.00     0.176 C 
BRANCH  10  11
HETATM   11  C   UNL     1     -22.482  -4.847  -6.965  1.00  0.00     0.044 C 
BRANCH  11  12
HETATM   12  C   UNL     1     -22.195  -3.731  -7.973  1.00  0.00     0.105 C 
BRANCH  12  13
HETATM   13  C   UNL     1     -21.778  -4.292  -9.316  1.00  0.00     0.215 C 
HETATM   14  O   UNL     1     -20.627  -4.329  -9.731  1.00  0.00    -0.274 OA
HETATM   15  N   UNL     1     -22.812  -4.757 -10.074  1.00  0.00    -0.370 N 
HETATM   16  H   UNL     1     -23.780  -4.702  -9.790  1.00  0.00     0.159 HD
HETATM   17  H   UNL     1     -22.593  -5.132 -10.989  1.00  0.00     0.159 HD
ENDBRANCH  12  13
ENDBRANCH  11  12
ENDBRANCH  10  11
BRANCH  10  18
HETATM   18  C   UNL     1     -20.068  -4.922  -6.148  1.00  0.00     0.238 C 
HETATM   19  O   UNL     1     -20.038  -4.386  -5.043  1.00  0.00    -0.271 OA
HETATM   20  N   UNL     1     -19.016  -4.806  -7.013  1.00  0.00    -0.368 N 
HETATM   21  H   UNL     1     -18.985  -5.266  -7.914  1.00  0.00     0.159 HD
HETATM   22  H   UNL     1     -18.194  -4.296  -6.709  1.00  0.00     0.159 HD
ENDBRANCH  10  18
ENDBRANCH   8  10
ENDBRANCH   1   6
BRANCH   1  23
HETATM   23  N   UNL     1     -19.715  -9.037  -3.533  1.00  0.00    -0.346 N 
HETATM   24  C   UNL     1     -19.151 -10.282  -3.354  1.00  0.00     0.241 C 
HETATM   25  O   UNL     1     -19.681 -11.284  -3.847  1.00  0.00    -0.271 OA
HETATM   26  H   UNL     1     -19.160  -8.213  -3.311  1.00  0.00     0.163 HD
BRANCH  24  27
HETATM   27  C   UNL     1     -17.973 -10.466  -2.310  1.00  0.00     0.179 C 
HETATM   28  C   UNL     1     -16.691 -10.183  -3.136  1.00  0.00     0.037 C 
HETATM   29  C   UNL     1     -15.543 -10.445  -2.188  1.00  0.00     0.022 C 
HETATM   30  C   UNL     1     -16.066 -11.540  -1.288  1.00  0.00     0.127 C 
HETATM   31  N   UNL     1     -17.519 -11.622  -1.484  1.00  0.00    -0.337 N 
HETATM   32  C   UNL     1     -18.149 -12.286  -0.433  1.00  0.00     0.256 C 
HETATM   33  O   UNL     1     -17.457 -12.861   0.427  1.00  0.00    -0.271 OA
BRANCH  32  34
HETATM   34  CA  UNL     1     -19.666 -12.423  -0.275  1.00  0.00     0.332 C 
BRANCH  34  35
HETATM   35  C   UNL     1     -20.237 -11.086   0.238  1.00  0.00     0.209 C 
BRANCH  35  36
HETATM   36  O   UNL     1     -21.595 -11.238   0.660  1.00  0.00    -0.398 OA
HETATM   37  H   UNL     1     -21.856 -12.151   0.457  1.00  0.00     0.209 HD
ENDBRANCH  35  36
ENDBRANCH  34  35
BRANCH  34  38
HETATM   38  N   UNL     1     -20.388 -12.932  -1.450  1.00  0.00     0.094 N 
HETATM   39  H1  UNL     1     -20.483 -13.944  -1.390  1.00  0.00     0.314 HD
HETATM   40  H2  UNL     1     -19.802 -12.749  -2.267  1.00  0.00     0.314 HD
ENDBRANCH  34  38
ENDBRANCH  32  34
ENDBRANCH  24  27
ENDBRANCH   1  23
TORSDOF 14
BEGIN_RES ARG D 557
REMARK  4 active torsions:
REMARK  status: ('A' for Active; 'I' for Inactive)
REMARK    1  A    between atoms: CA   and  CB  
REMARK    2  A    between atoms: CB   and  CG  
REMARK    3  A    between atoms: CG   and  CD  
REMARK    4  A    between atoms: CD   and  NE  
REMARK       I    between atoms: NE   and  CZ  
REMARK       I    between atoms: CZ   and  NH1 
REMARK       I    between atoms: CZ   and  NH2 
ROOT
ATOM      1  CA  ARG D 557     -26.217   2.705 -17.014  1.00 35.49     0.159 C 
ENDROOT
BRANCH   1   2
ATOM      2  CB  ARG D 557     -26.789   1.319 -17.183  1.00 35.49     0.034 C 
BRANCH   2   3
ATOM      3  CG  ARG D 557     -28.232   1.226 -17.436  1.00 35.49     0.027 C 
BRANCH   3   4
ATOM      4  CD  ARG D 557     -28.910   0.299 -16.501  1.00 35.49     0.116 C 
BRANCH   4   5
ATOM      5  NE  ARG D 557     -29.305  -0.927 -17.143  1.00 35.49    -0.212 N 
ATOM      6  CZ  ARG D 557     -28.684  -2.081 -17.043  1.00 35.49     0.666 C 
ATOM      7  NH1 ARG D 557     -27.586  -2.236 -16.327  1.00 35.49    -0.235 N 
ATOM      8  NH2 ARG D 557     -29.196  -3.095 -17.678  1.00 35.49    -0.235 N 
ATOM      9  HH  ARG D 557     -27.233  -1.583 -15.898  1.00 35.49     0.174 HD
ATOM     10  HH  ARG D 557     -27.227  -3.013 -16.296  1.00 35.49     0.174 HD
ATOM     11  HH  ARG D 557     -29.910  -2.967 -18.127  1.00 35.49     0.174 HD
ATOM     12  HH  ARG D 557     -28.826  -3.856 -17.634  1.00 35.49     0.174 HD
ATOM     13  HE  ARG D 557     -29.961  -0.901 -17.683  1.00 35.49     0.178 HD
ENDBRANCH   4   5
ENDBRANCH   3   4
ENDBRANCH   2   3
ENDBRANCH   1   2
END_RES ARG D 557
BEGIN_RES GLU D 570
REMARK  3 active torsions:
REMARK  status: ('A' for Active; 'I' for Inactive)
REMARK    5  A    between atoms: CA   and  CB  
REMARK    6  A    between atoms: CB   and  CG  
REMARK    7  A    between atoms: CG   and  CD  
ROOT
ATOM     14  CA  GLU D 570     -18.033  -6.348 -13.375  1.00 32.92     0.160 C 
ENDROOT
BRANCH  14  15
ATOM     15  CB  GLU D 570     -19.500  -6.345 -13.794  1.00 32.92     0.043 C 
BRANCH  15  16
ATOM     16  CG  GLU D 570     -20.449  -5.567 -12.957  1.00 32.92     0.100 C 
BRANCH  16  17
ATOM     17  CD  GLU D 570     -21.695  -5.154 -13.706  1.00 32.92     0.185 C 
ATOM     18  OE1 GLU D 570     -21.654  -5.074 -14.949  1.00 32.92    -0.647 OA
ATOM     19  OE2 GLU D 570     -22.717  -4.892 -13.042  1.00 32.92    -0.647 OA
ENDBRANCH  16  17
ENDBRANCH  15  16
ENDBRANCH  14  15
END_RES GLU D 570
ENDMDL
