MODEL 1
REMARK VINA RESULT:      -6.1      0.000      0.000
REMARK WARNING: 32 MAX_TORS EXCEEDED!!!
REMARK  62 active torsions:
REMARK  status: ('A' for Active; 'I' for Inactive)
REMARK    1  A    between atoms: C_2  and  C_4 
REMARK    2  A    between atoms: C_4  and  C_5 
REMARK    3  A    between atoms: C_5  and  C_6 
REMARK    4  A    between atoms: C_6  and  C_7 
REMARK    5  A    between atoms: C_7  and  C_8 
REMARK    6  A    between atoms: C_8  and  C_9 
REMARK    7  A    between atoms: C_9  and  C_10 
REMARK    8  A    between atoms: C_10  and  C_11 
REMARK    9  A    between atoms: C_11  and  C_12 
REMARK   10  A    between atoms: C_12  and  C_13 
REMARK   11  A    between atoms: C_13  and  C_14 
REMARK   12  A    between atoms: C_14  and  C_15 
REMARK   13  A    between atoms: C_15  and  C_16 
REMARK   14  A    between atoms: C_16  and  C_17 
REMARK   15  A    between atoms: C_17  and  C_18 
REMARK   16  A    between atoms: C_18  and  O_20 
REMARK   17  A    between atoms: O_20  and  C_21 
REMARK   18  A    between atoms: C_21  and  C_22 
REMARK   19  A    between atoms: C_22  and  O_23 
REMARK   20  A    between atoms: O_23  and  C_24 
REMARK   21  A    between atoms: C_24  and  C_25 
REMARK   22  A    between atoms: C_25  and  C_26 
REMARK   23  A    between atoms: C_25  and  O_50 
REMARK   24  A    between atoms: C_26  and  O_27 
REMARK   25  A    between atoms: O_27  and  C_28 
REMARK   26  A    between atoms: C_28  and  C_29 
REMARK   27  A    between atoms: C_29  and  O_30 
REMARK   28  A    between atoms: O_30  and  C_31 
REMARK   29  A    between atoms: C_31  and  C_33 
REMARK   30  A    between atoms: C_33  and  C_34 
REMARK   31  A    between atoms: C_34  and  C_35 
REMARK   32  A    between atoms: C_35  and  C_36 
REMARK   33  A    between atoms: C_36  and  C_37 
REMARK   34  A    between atoms: C_37  and  C_38 
REMARK   35  A    between atoms: C_38  and  C_39 
REMARK   36  A    between atoms: C_39  and  C_40 
REMARK   37  A    between atoms: C_40  and  C_41 
REMARK   38  A    between atoms: C_41  and  C_42 
REMARK   39  A    between atoms: C_42  and  C_43 
REMARK   40  A    between atoms: C_43  and  C_44 
REMARK   41  A    between atoms: C_44  and  C_45 
REMARK   42  A    between atoms: C_45  and  C_46 
REMARK   43  A    between atoms: C_46  and  C_47 
REMARK   44  A    between atoms: O_50  and  C_51 
REMARK   45  A    between atoms: C_51  and  C_52 
REMARK   46  A    between atoms: C_52  and  O_53 
REMARK   47  A    between atoms: O_53  and  C_54 
REMARK   48  A    between atoms: C_54  and  C_56 
REMARK   49  A    between atoms: C_56  and  C_57 
REMARK   50  A    between atoms: C_57  and  C_58 
REMARK   51  A    between atoms: C_58  and  C_59 
REMARK   52  A    between atoms: C_59  and  C_60 
REMARK   53  A    between atoms: C_60  and  C_61 
REMARK   54  A    between atoms: C_61  and  C_62 
REMARK   55  A    between atoms: C_62  and  C_63 
REMARK   56  A    between atoms: C_63  and  C_64 
REMARK   57  A    between atoms: C_64  and  C_65 
REMARK   58  A    between atoms: C_65  and  C_66 
REMARK   59  A    between atoms: C_66  and  C_67 
REMARK   60  A    between atoms: C_67  and  C_68 
REMARK   61  A    between atoms: C_68  and  C_69 
REMARK   62  A    between atoms: C_69  and  C_70 
ROOT
HETATM    1  C   UNL     1     -20.543  -6.450  -5.501  1.00  0.00     0.169 C 
ENDROOT
BRANCH   1   2
HETATM    2  C   UNL     1     -21.017  -7.905  -5.523  1.00  0.00     0.201 C 
BRANCH   2   3
HETATM    3  O   UNL     1     -20.130  -8.759  -4.802  1.00  0.00    -0.386 OA
BRANCH   3   4
HETATM    4  C   UNL     1     -20.759  -9.976  -4.379  1.00  0.00     0.194 C 
BRANCH   4   5
HETATM    5  C   UNL     1     -19.900 -10.740  -3.391  1.00  0.00     0.205 C 
BRANCH   5   6
HETATM    6  O   UNL     1     -19.159  -9.858  -2.554  1.00  0.00    -0.319 OA
BRANCH   6   7
HETATM    7  C   UNL     1     -17.794 -10.085  -2.484  1.00  0.00     0.258 C 
HETATM    8  O   UNL     1     -16.914  -9.259  -2.634  1.00  0.00    -0.265 OA
BRANCH   7   9
HETATM    9  C   UNL     1     -17.459 -11.525  -2.269  1.00  0.00     0.111 C 
BRANCH   9  10
HETATM   10  C   UNL     1     -16.824 -11.679  -0.899  1.00  0.00     0.010 C 
BRANCH  10  11
HETATM   11  C   UNL     1     -17.769 -12.361   0.081  1.00  0.00     0.000 C 
BRANCH  11  12
HETATM   12  C   UNL     1     -18.861 -13.090  -0.673  1.00  0.00     0.000 C 
BRANCH  12  13
HETATM   13  C   UNL     1     -18.929 -14.537  -0.222  1.00  0.00     0.000 C 
BRANCH  13  14
HETATM   14  C   UNL     1     -17.758 -15.314  -0.794  1.00  0.00     0.000 C 
BRANCH  14  15
HETATM   15  C   UNL     1     -17.799 -15.268  -2.310  1.00  0.00     0.000 C 
BRANCH  15  16
HETATM   16  C   UNL     1     -16.402 -15.044  -2.855  1.00  0.00     0.000 C 
BRANCH  16  17
HETATM   17  C   UNL     1     -15.393 -15.101  -1.727  1.00  0.00     0.000 C 
BRANCH  17  18
HETATM   18  C   UNL     1     -14.341 -14.029  -1.921  1.00  0.00     0.000 C 
BRANCH  18  19
HETATM   19  C   UNL     1     -13.899 -13.996  -3.369  1.00  0.00     0.000 C 
BRANCH  19  20
HETATM   20  C   UNL     1     -13.775 -12.557  -3.827  1.00  0.00     0.000 C 
BRANCH  20  21
HETATM   21  C   UNL     1     -14.246 -12.446  -5.258  1.00  0.00     0.000 C 
BRANCH  21  22
HETATM   22  C   UNL     1     -15.759 -12.306  -5.315  1.00  0.00     0.004 C 
BRANCH  22  23
HETATM   23  C   UNL     1     -16.165 -11.108  -6.175  1.00  0.00    -0.023 C 
HETATM   24  C   UNL     1     -17.683 -11.049  -6.284  1.00  0.00     0.009 C 
HETATM   25  C   UNL     1     -15.645  -9.805  -5.572  1.00  0.00     0.009 C 
ENDBRANCH  22  23
ENDBRANCH  21  22
ENDBRANCH  20  21
ENDBRANCH  19  20
ENDBRANCH  18  19
ENDBRANCH  17  18
ENDBRANCH  16  17
ENDBRANCH  15  16
ENDBRANCH  14  15
ENDBRANCH  13  14
ENDBRANCH  12  13
ENDBRANCH  11  12
ENDBRANCH  10  11
ENDBRANCH   9  10
ENDBRANCH   7   9
ENDBRANCH   6   7
ENDBRANCH   5   6
ENDBRANCH   4   5
ENDBRANCH   3   4
ENDBRANCH   2   3
ENDBRANCH   1   2
BRANCH   1  26
HETATM   26  C   UNL     1     -20.990  -5.754  -6.780  1.00  0.00     0.201 C 
BRANCH  26  27
HETATM   27  O   UNL     1     -20.681  -4.367  -6.718  1.00  0.00    -0.386 OA
BRANCH  27  28
HETATM   28  C   UNL     1     -21.622  -3.596  -7.464  1.00  0.00     0.194 C 
BRANCH  28  29
HETATM   29  C   UNL     1     -22.407  -4.451  -8.418  1.00  0.00     0.205 C 
BRANCH  29  30
HETATM   30  O   UNL     1     -23.743  -3.942  -8.540  1.00  0.00    -0.319 OA
BRANCH  30  31
HETATM   31  C   UNL     1     -24.144  -3.692  -9.820  1.00  0.00     0.258 C 
HETATM   32  O   UNL     1     -25.208  -3.176 -10.147  1.00  0.00    -0.265 OA
BRANCH  31  33
HETATM   33  C   UNL     1     -23.074  -4.071 -10.817  1.00  0.00     0.111 C 
BRANCH  33  34
HETATM   34  C   UNL     1     -22.608  -2.852 -11.604  1.00  0.00     0.010 C 
BRANCH  34  35
HETATM   35  C   UNL     1     -23.042  -2.936 -13.063  1.00  0.00     0.000 C 
BRANCH  35  36
HETATM   36  C   UNL     1     -22.674  -4.288 -13.648  1.00  0.00     0.000 C 
BRANCH  36  37
HETATM   37  C   UNL     1     -23.803  -4.796 -14.526  1.00  0.00     0.000 C 
BRANCH  37  38
HETATM   38  C   UNL     1     -23.861  -6.311 -14.475  1.00  0.00     0.000 C 
BRANCH  38  39
HETATM   39  C   UNL     1     -24.651  -6.840 -15.657  1.00  0.00     0.000 C 
BRANCH  39  40
HETATM   40  C   UNL     1     -25.985  -6.123 -15.748  1.00  0.00     0.000 C 
BRANCH  40  41
HETATM   41  C   UNL     1     -27.116  -7.132 -15.689  1.00  0.00     0.000 C 
BRANCH  41  42
HETATM   42  C   UNL     1     -28.439  -6.428 -15.914  1.00  0.00     0.000 C 
BRANCH  42  43
HETATM   43  C   UNL     1     -29.053  -6.893 -17.216  1.00  0.00     0.000 C 
BRANCH  43  44
HETATM   44  C   UNL     1     -28.742  -5.894 -18.313  1.00  0.00     0.000 C 
BRANCH  44  45
HETATM   45  C   UNL     1     -27.977  -6.586 -19.417  1.00  0.00     0.000 C 
BRANCH  45  46
HETATM   46  C   UNL     1     -26.488  -6.299 -19.294  1.00  0.00     0.004 C 
BRANCH  46  47
HETATM   47  C   UNL     1     -25.713  -6.937 -20.448  1.00  0.00    -0.023 C 
HETATM   48  C   UNL     1     -24.390  -7.522 -19.956  1.00  0.00     0.009 C 
HETATM   49  C   UNL     1     -26.553  -8.038 -21.082  1.00  0.00     0.009 C 
ENDBRANCH  46  47
ENDBRANCH  45  46
ENDBRANCH  44  45
ENDBRANCH  43  44
ENDBRANCH  42  43
ENDBRANCH  41  42
ENDBRANCH  40  41
ENDBRANCH  39  40
ENDBRANCH  38  39
ENDBRANCH  37  38
ENDBRANCH  36  37
ENDBRANCH  35  36
ENDBRANCH  34  35
ENDBRANCH  33  34
ENDBRANCH  31  33
ENDBRANCH  30  31
ENDBRANCH  29  30
ENDBRANCH  28  29
ENDBRANCH  27  28
ENDBRANCH  26  27
ENDBRANCH   1  26
BRANCH   1  50
HETATM   50  O   UNL     1     -20.954  -5.741  -4.320  1.00  0.00    -0.380 OA
BRANCH  50  51
HETATM   51  C   UNL     1     -21.999  -6.333  -3.585  1.00  0.00     0.195 C 
BRANCH  51  52
HETATM   52  C   UNL     1     -21.554  -6.422  -2.149  1.00  0.00     0.205 C 
BRANCH  52  53
HETATM   53  O   UNL     1     -22.646  -6.459  -1.232  1.00  0.00    -0.319 OA
BRANCH  53  54
HETATM   54  C   UNL     1     -22.655  -7.476  -0.318  1.00  0.00     0.258 C 
HETATM   55  O   UNL     1     -23.488  -7.744   0.470  1.00  0.00    -0.265 OA
BRANCH  54  56
HETATM   56  C   UNL     1     -21.428  -8.312  -0.377  1.00  0.00     0.111 C 
BRANCH  56  57
HETATM   57  C   UNL     1     -21.235  -9.074   0.914  1.00  0.00     0.010 C 
BRANCH  57  58
HETATM   58  C   UNL     1     -21.108 -10.573   0.683  1.00  0.00     0.000 C 
BRANCH  58  59
HETATM   59  C   UNL     1     -21.987 -10.997  -0.479  1.00  0.00     0.000 C 
BRANCH  59  60
HETATM   60  C   UNL     1     -23.370 -11.367   0.022  1.00  0.00     0.000 C 
BRANCH  60  61
HETATM   61  C   UNL     1     -23.309 -12.665   0.806  1.00  0.00     0.000 C 
BRANCH  61  62
HETATM   62  C   UNL     1     -22.973 -13.816  -0.123  1.00  0.00     0.000 C 
BRANCH  62  63
HETATM   63  C   UNL     1     -24.022 -13.921  -1.214  1.00  0.00     0.000 C 
BRANCH  63  64
HETATM   64  C   UNL     1     -23.424 -14.582  -2.441  1.00  0.00     0.000 C 
BRANCH  64  65
HETATM   65  C   UNL     1     -21.913 -14.470  -2.397  1.00  0.00     0.000 C 
BRANCH  65  66
HETATM   66  C   UNL     1     -21.389 -14.064  -3.758  1.00  0.00     0.000 C 
BRANCH  66  67
HETATM   67  C   UNL     1     -22.509 -13.435  -4.566  1.00  0.00     0.000 C 
BRANCH  67  68
HETATM   68  C   UNL     1     -22.211 -13.594  -6.038  1.00  0.00     0.000 C 
BRANCH  68  69
HETATM   69  C   UNL     1     -20.825 -13.057  -6.364  1.00  0.00     0.004 C 
BRANCH  69  70
HETATM   70  C   UNL     1     -20.055 -14.038  -7.248  1.00  0.00    -0.023 C 
HETATM   71  C   UNL     1     -19.524 -13.343  -8.499  1.00  0.00     0.009 C 
HETATM   72  C   UNL     1     -18.891 -14.627  -6.460  1.00  0.00     0.009 C 
ENDBRANCH  69  70
ENDBRANCH  68  69
ENDBRANCH  67  68
ENDBRANCH  66  67
ENDBRANCH  65  66
ENDBRANCH  64  65
ENDBRANCH  63  64
ENDBRANCH  62  63
ENDBRANCH  61  62
ENDBRANCH  60  61
ENDBRANCH  59  60
ENDBRANCH  58  59
ENDBRANCH  57  58
ENDBRANCH  56  57
ENDBRANCH  54  56
ENDBRANCH  53  54
ENDBRANCH  52  53
ENDBRANCH  51  52
ENDBRANCH  50  51
ENDBRANCH   1  50
TORSDOF 62
BEGIN_RES ARG D 557
REMARK  4 active torsions:
REMARK  status: ('A' for Active; 'I' for Inactive)
REMARK    1  A    between atoms: CA   and  CB  
REMARK    2  A    between atoms: CB   and  CG  
REMARK    3  A    between atoms: CG   and  CD  
REMARK    4  A    between atoms: CD   and  NE  
REMARK       I    between atoms: NE   and  CZ  
REMARK       I    between atoms: CZ   and  NH1 
REMARK       I    between atoms: CZ   and  NH2 
ROOT
ATOM      1  CA  ARG D 557     -26.217   2.705 -17.014  1.00 35.49     0.159 C 
ENDROOT
BRANCH   1   2
ATOM      2  CB  ARG D 557     -26.789   1.319 -17.183  1.00 35.49     0.034 C 
BRANCH   2   3
ATOM      3  CG  ARG D 557     -28.233   1.226 -17.431  1.00 35.49     0.027 C 
BRANCH   3   4
ATOM      4  CD  ARG D 557     -28.910   0.313 -16.482  1.00 35.49     0.116 C 
BRANCH   4   5
ATOM      5  NE  ARG D 557     -28.139  -0.876 -16.229  1.00 35.49    -0.212 N 
ATOM      6  CZ  ARG D 557     -28.386  -2.070 -16.719  1.00 35.49     0.666 C 
ATOM      7  NH1 ARG D 557     -29.413  -2.314 -17.511  1.00 35.49    -0.235 N 
ATOM      8  NH2 ARG D 557     -27.567  -3.031 -16.400  1.00 35.49    -0.235 N 
ATOM      9  HH  ARG D 557     -29.963  -1.696 -17.736  1.00 35.49     0.174 HD
ATOM     10  HH  ARG D 557     -29.522  -3.112 -17.802  1.00 35.49     0.174 HD
ATOM     11  HH  ARG D 557     -26.908  -2.843 -15.892  1.00 35.49     0.174 HD
ATOM     12  HH  ARG D 557     -27.691  -3.814 -16.699  1.00 35.49     0.174 HD
ATOM     13  HE  ARG D 557     -27.500  -0.826 -15.670  1.00 35.49     0.178 HD
ENDBRANCH   4   5
ENDBRANCH   3   4
ENDBRANCH   2   3
ENDBRANCH   1   2
END_RES ARG D 557
BEGIN_RES GLU D 570
REMARK  3 active torsions:
REMARK  status: ('A' for Active; 'I' for Inactive)
REMARK    5  A    between atoms: CA   and  CB  
REMARK    6  A    between atoms: CB   and  CG  
REMARK    7  A    between atoms: CG   and  CD  
ROOT
ATOM     14  CA  GLU D 570     -18.033  -6.348 -13.375  1.00 32.92     0.160 C 
ENDROOT
BRANCH  14  15
ATOM     15  CB  GLU D 570     -19.500  -6.345 -13.794  1.00 32.92     0.043 C 
BRANCH  15  16
ATOM     16  CG  GLU D 570     -19.803  -6.078 -15.224  1.00 32.92     0.100 C 
BRANCH  16  17
ATOM     17  CD  GLU D 570     -20.643  -7.160 -15.860  1.00 32.92     0.185 C 
ATOM     18  OE1 GLU D 570     -21.274  -6.902 -16.904  1.00 32.92    -0.647 OA
ATOM     19  OE2 GLU D 570     -20.685  -8.273 -15.301  1.00 32.92    -0.647 OA
ENDBRANCH  16  17
ENDBRANCH  15  16
ENDBRANCH  14  15
END_RES GLU D 570
ENDMDL
MODEL 2
REMARK VINA RESULT:      -6.1      1.551     11.894
REMARK WARNING: 32 MAX_TORS EXCEEDED!!!
REMARK  62 active torsions:
REMARK  status: ('A' for Active; 'I' for Inactive)
REMARK    1  A    between atoms: C_2  and  C_4 
REMARK    2  A    between atoms: C_4  and  C_5 
REMARK    3  A    between atoms: C_5  and  C_6 
REMARK    4  A    between atoms: C_6  and  C_7 
REMARK    5  A    between atoms: C_7  and  C_8 
REMARK    6  A    between atoms: C_8  and  C_9 
REMARK    7  A    between atoms: C_9  and  C_10 
REMARK    8  A    between atoms: C_10  and  C_11 
REMARK    9  A    between atoms: C_11  and  C_12 
REMARK   10  A    between atoms: C_12  and  C_13 
REMARK   11  A    between atoms: C_13  and  C_14 
REMARK   12  A    between atoms: C_14  and  C_15 
REMARK   13  A    between atoms: C_15  and  C_16 
REMARK   14  A    between atoms: C_16  and  C_17 
REMARK   15  A    between atoms: C_17  and  C_18 
REMARK   16  A    between atoms: C_18  and  O_20 
REMARK   17  A    between atoms: O_20  and  C_21 
REMARK   18  A    between atoms: C_21  and  C_22 
REMARK   19  A    between atoms: C_22  and  O_23 
REMARK   20  A    between atoms: O_23  and  C_24 
REMARK   21  A    between atoms: C_24  and  C_25 
REMARK   22  A    between atoms: C_25  and  C_26 
REMARK   23  A    between atoms: C_25  and  O_50 
REMARK   24  A    between atoms: C_26  and  O_27 
REMARK   25  A    between atoms: O_27  and  C_28 
REMARK   26  A    between atoms: C_28  and  C_29 
REMARK   27  A    between atoms: C_29  and  O_30 
REMARK   28  A    between atoms: O_30  and  C_31 
REMARK   29  A    between atoms: C_31  and  C_33 
REMARK   30  A    between atoms: C_33  and  C_34 
REMARK   31  A    between atoms: C_34  and  C_35 
REMARK   32  A    between atoms: C_35  and  C_36 
REMARK   33  A    between atoms: C_36  and  C_37 
REMARK   34  A    between atoms: C_37  and  C_38 
REMARK   35  A    between atoms: C_38  and  C_39 
REMARK   36  A    between atoms: C_39  and  C_40 
REMARK   37  A    between atoms: C_40  and  C_41 
REMARK   38  A    between atoms: C_41  and  C_42 
REMARK   39  A    between atoms: C_42  and  C_43 
REMARK   40  A    between atoms: C_43  and  C_44 
REMARK   41  A    between atoms: C_44  and  C_45 
REMARK   42  A    between atoms: C_45  and  C_46 
REMARK   43  A    between atoms: C_46  and  C_47 
REMARK   44  A    between atoms: O_50  and  C_51 
REMARK   45  A    between atoms: C_51  and  C_52 
REMARK   46  A    between atoms: C_52  and  O_53 
REMARK   47  A    between atoms: O_53  and  C_54 
REMARK   48  A    between atoms: C_54  and  C_56 
REMARK   49  A    between atoms: C_56  and  C_57 
REMARK   50  A    between atoms: C_57  and  C_58 
REMARK   51  A    between atoms: C_58  and  C_59 
REMARK   52  A    between atoms: C_59  and  C_60 
REMARK   53  A    between atoms: C_60  and  C_61 
REMARK   54  A    between atoms: C_61  and  C_62 
REMARK   55  A    between atoms: C_62  and  C_63 
REMARK   56  A    between atoms: C_63  and  C_64 
REMARK   57  A    between atoms: C_64  and  C_65 
REMARK   58  A    between atoms: C_65  and  C_66 
REMARK   59  A    between atoms: C_66  and  C_67 
REMARK   60  A    between atoms: C_67  and  C_68 
REMARK   61  A    between atoms: C_68  and  C_69 
REMARK   62  A    between atoms: C_69  and  C_70 
ROOT
HETATM    1  C   UNL     1     -20.807  -7.296  -5.273  1.00  0.00     0.169 C 
ENDROOT
BRANCH   1   2
HETATM    2  C   UNL     1     -21.939  -6.573  -4.539  1.00  0.00     0.201 C 
BRANCH   2   3
HETATM    3  O   UNL     1     -21.456  -5.853  -3.406  1.00  0.00    -0.386 OA
BRANCH   3   4
HETATM    4  C   UNL     1     -22.183  -6.160  -2.209  1.00  0.00     0.194 C 
BRANCH   4   5
HETATM    5  C   UNL     1     -21.528  -7.281  -1.425  1.00  0.00     0.205 C 
BRANCH   5   6
HETATM    6  O   UNL     1     -22.390  -7.778  -0.407  1.00  0.00    -0.319 OA
BRANCH   6   7
HETATM    7  C   UNL     1     -21.825  -8.669   0.492  1.00  0.00     0.258 C 
HETATM    8  O   UNL     1     -21.139  -8.386   1.456  1.00  0.00    -0.265 OA
BRANCH   7   9
HETATM    9  C   UNL     1     -22.075 -10.095   0.126  1.00  0.00     0.111 C 
BRANCH   9  10
HETATM   10  C   UNL     1     -23.524 -10.243  -0.300  1.00  0.00     0.010 C 
BRANCH  10  11
HETATM   11  C   UNL     1     -23.875 -11.696  -0.590  1.00  0.00     0.000 C 
BRANCH  11  12
HETATM   12  C   UNL     1     -23.241 -12.600   0.446  1.00  0.00     0.000 C 
BRANCH  12  13
HETATM   13  C   UNL     1     -22.671 -13.837  -0.222  1.00  0.00     0.000 C 
BRANCH  13  14
HETATM   14  C   UNL     1     -21.891 -13.444  -1.463  1.00  0.00     0.000 C 
BRANCH  14  15
HETATM   15  C   UNL     1     -20.406 -13.633  -1.220  1.00  0.00     0.000 C 
BRANCH  15  16
HETATM   16  C   UNL     1     -19.701 -13.906  -2.536  1.00  0.00     0.000 C 
BRANCH  16  17
HETATM   17  C   UNL     1     -18.309 -14.441  -2.273  1.00  0.00     0.000 C 
BRANCH  17  18
HETATM   18  C   UNL     1     -17.510 -14.457  -3.560  1.00  0.00     0.000 C 
BRANCH  18  19
HETATM   19  C   UNL     1     -18.181 -13.576  -4.593  1.00  0.00     0.000 C 
BRANCH  19  20
HETATM   20  C   UNL     1     -17.576 -13.847  -5.957  1.00  0.00     0.000 C 
BRANCH  20  21
HETATM   21  C   UNL     1     -18.617 -13.596  -7.023  1.00  0.00     0.000 C 
BRANCH  21  22
HETATM   22  C   UNL     1     -19.761 -12.762  -6.468  1.00  0.00     0.004 C 
BRANCH  22  23
HETATM   23  C   UNL     1     -21.111 -13.312  -6.929  1.00  0.00    -0.023 C 
HETATM   24  C   UNL     1     -21.197 -14.796  -6.597  1.00  0.00     0.009 C 
HETATM   25  C   UNL     1     -22.261 -12.569  -6.252  1.00  0.00     0.009 C 
ENDBRANCH  22  23
ENDBRANCH  21  22
ENDBRANCH  20  21
ENDBRANCH  19  20
ENDBRANCH  18  19
ENDBRANCH  17  18
ENDBRANCH  16  17
ENDBRANCH  15  16
ENDBRANCH  14  15
ENDBRANCH  13  14
ENDBRANCH  12  13
ENDBRANCH  11  12
ENDBRANCH  10  11
ENDBRANCH   9  10
ENDBRANCH   7   9
ENDBRANCH   6   7
ENDBRANCH   5   6
ENDBRANCH   4   5
ENDBRANCH   3   4
ENDBRANCH   2   3
ENDBRANCH   1   2
BRANCH   1  26
HETATM   26  C   UNL     1     -21.046  -8.800  -5.212  1.00  0.00     0.201 C 
BRANCH  26  27
HETATM   27  O   UNL     1     -22.023  -9.102  -4.223  1.00  0.00    -0.386 OA
BRANCH  27  28
HETATM   28  C   UNL     1     -21.666 -10.271  -3.487  1.00  0.00     0.194 C 
BRANCH  28  29
HETATM   29  C   UNL     1     -20.198 -10.573  -3.604  1.00  0.00     0.205 C 
BRANCH  29  30
HETATM   30  O   UNL     1     -19.553 -10.346  -2.342  1.00  0.00    -0.319 OA
BRANCH  30  31
HETATM   31  C   UNL     1     -18.191 -10.386  -2.382  1.00  0.00     0.258 C 
HETATM   32  O   UNL     1     -17.476 -11.097  -1.683  1.00  0.00    -0.265 OA
BRANCH  31  33
HETATM   33  C   UNL     1     -17.643  -9.478  -3.459  1.00  0.00     0.111 C 
BRANCH  33  34
HETATM   34  C   UNL     1     -16.169  -9.766  -3.714  1.00  0.00     0.010 C 
BRANCH  34  35
HETATM   35  C   UNL     1     -15.853  -9.760  -5.205  1.00  0.00     0.000 C 
BRANCH  35  36
HETATM   36  C   UNL     1     -15.359 -11.125  -5.647  1.00  0.00     0.000 C 
BRANCH  36  37
HETATM   37  C   UNL     1     -14.809 -11.887  -4.455  1.00  0.00     0.000 C 
BRANCH  37  38
HETATM   38  C   UNL     1     -13.431 -12.432  -4.777  1.00  0.00     0.000 C 
BRANCH  38  39
HETATM   39  C   UNL     1     -13.462 -13.166  -6.104  1.00  0.00     0.000 C 
BRANCH  39  40
HETATM   40  C   UNL     1     -13.984 -14.576  -5.902  1.00  0.00     0.000 C 
BRANCH  40  41
HETATM   41  C   UNL     1     -13.225 -15.248  -4.774  1.00  0.00     0.000 C 
BRANCH  41  42
HETATM   42  C   UNL     1     -14.164 -16.148  -3.994  1.00  0.00     0.000 C 
BRANCH  42  43
HETATM   43  C   UNL     1     -13.830 -16.085  -2.520  1.00  0.00     0.000 C 
BRANCH  43  44
HETATM   44  C   UNL     1     -13.091 -14.796  -2.219  1.00  0.00     0.000 C 
BRANCH  44  45
HETATM   45  C   UNL     1     -13.536 -14.267  -0.875  1.00  0.00     0.000 C 
BRANCH  45  46
HETATM   46  C   UNL     1     -14.791 -13.420  -1.025  1.00  0.00     0.004 C 
BRANCH  46  47
HETATM   47  C   UNL     1     -15.712 -13.591   0.184  1.00  0.00    -0.023 C 
HETATM   48  C   UNL     1     -15.309 -14.814   1.005  1.00  0.00     0.009 C 
HETATM   49  C   UNL     1     -15.645 -12.345   1.058  1.00  0.00     0.009 C 
ENDBRANCH  46  47
ENDBRANCH  45  46
ENDBRANCH  44  45
ENDBRANCH  43  44
ENDBRANCH  42  43
ENDBRANCH  41  42
ENDBRANCH  40  41
ENDBRANCH  39  40
ENDBRANCH  38  39
ENDBRANCH  37  38
ENDBRANCH  36  37
ENDBRANCH  35  36
ENDBRANCH  34  35
ENDBRANCH  33  34
ENDBRANCH  31  33
ENDBRANCH  30  31
ENDBRANCH  29  30
ENDBRANCH  28  29
ENDBRANCH  27  28
ENDBRANCH  26  27
ENDBRANCH   1  26
BRANCH   1  50
HETATM   50  O   UNL     1     -20.618  -6.827  -6.619  1.00  0.00    -0.380 OA
BRANCH  50  51
HETATM   51  C   UNL     1     -19.631  -5.837  -6.787  1.00  0.00     0.195 C 
BRANCH  51  52
HETATM   52  C   UNL     1     -20.144  -4.847  -7.799  1.00  0.00     0.205 C 
BRANCH  52  53
HETATM   53  O   UNL     1     -21.152  -3.987  -7.272  1.00  0.00    -0.319 OA
BRANCH  53  54
HETATM   54  C   UNL     1     -22.430  -4.179  -7.721  1.00  0.00     0.258 C 
HETATM   55  O   UNL     1     -23.389  -4.463  -7.100  1.00  0.00    -0.265 OA
BRANCH  54  56
HETATM   56  C   UNL     1     -22.556  -3.992  -9.190  1.00  0.00     0.111 C 
BRANCH  56  57
HETATM   57  C   UNL     1     -23.975  -4.250  -9.644  1.00  0.00     0.010 C 
BRANCH  57  58
HETATM   58  C   UNL     1     -24.415  -3.281 -10.733  1.00  0.00     0.000 C 
BRANCH  58  59
HETATM   59  C   UNL     1     -23.240  -2.944 -11.634  1.00  0.00     0.000 C 
BRANCH  59  60
HETATM   60  C   UNL     1     -23.740  -2.455 -12.980  1.00  0.00     0.000 C 
BRANCH  60  61
HETATM   61  C   UNL     1     -23.169  -3.317 -14.091  1.00  0.00     0.000 C 
BRANCH  61  62
HETATM   62  C   UNL     1     -22.502  -4.545 -13.502  1.00  0.00     0.000 C 
BRANCH  62  63
HETATM   63  C   UNL     1     -23.417  -5.747 -13.642  1.00  0.00     0.000 C 
BRANCH  63  64
HETATM   64  C   UNL     1     -24.344  -5.552 -14.825  1.00  0.00     0.000 C 
BRANCH  64  65
HETATM   65  C   UNL     1     -24.496  -6.859 -15.577  1.00  0.00     0.000 C 
BRANCH  65  66
HETATM   66  C   UNL     1     -25.904  -6.978 -16.121  1.00  0.00     0.000 C 
BRANCH  66  67
HETATM   67  C   UNL     1     -26.621  -5.650 -15.965  1.00  0.00     0.000 C 
BRANCH  67  68
HETATM   68  C   UNL     1     -28.090  -5.903 -15.719  1.00  0.00     0.000 C 
BRANCH  68  69
HETATM   69  C   UNL     1     -28.473  -7.306 -16.166  1.00  0.00     0.004 C 
BRANCH  69  70
HETATM   70  C   UNL     1     -29.695  -7.271 -17.085  1.00  0.00    -0.023 C 
HETATM   71  C   UNL     1     -30.553  -6.040 -16.802  1.00  0.00     0.009 C 
HETATM   72  C   UNL     1     -29.238  -7.251 -18.539  1.00  0.00     0.009 C 
ENDBRANCH  69  70
ENDBRANCH  68  69
ENDBRANCH  67  68
ENDBRANCH  66  67
ENDBRANCH  65  66
ENDBRANCH  64  65
ENDBRANCH  63  64
ENDBRANCH  62  63
ENDBRANCH  61  62
ENDBRANCH  60  61
ENDBRANCH  59  60
ENDBRANCH  58  59
ENDBRANCH  57  58
ENDBRANCH  56  57
ENDBRANCH  54  56
ENDBRANCH  53  54
ENDBRANCH  52  53
ENDBRANCH  51  52
ENDBRANCH  50  51
ENDBRANCH   1  50
TORSDOF 62
BEGIN_RES ARG D 557
REMARK  4 active torsions:
REMARK  status: ('A' for Active; 'I' for Inactive)
REMARK    1  A    between atoms: CA   and  CB  
REMARK    2  A    between atoms: CB   and  CG  
REMARK    3  A    between atoms: CG   and  CD  
REMARK    4  A    between atoms: CD   and  NE  
REMARK       I    between atoms: NE   and  CZ  
REMARK       I    between atoms: CZ   and  NH1 
REMARK       I    between atoms: CZ   and  NH2 
ROOT
ATOM      1  CA  ARG D 557     -26.217   2.705 -17.014  1.00 35.49     0.159 C 
ENDROOT
BRANCH   1   2
ATOM      2  CB  ARG D 557     -26.789   1.319 -17.183  1.00 35.49     0.034 C 
BRANCH   2   3
ATOM      3  CG  ARG D 557     -28.223   1.228 -17.484  1.00 35.49     0.027 C 
BRANCH   3   4
ATOM      4  CD  ARG D 557     -28.940   0.332 -16.549  1.00 35.49     0.116 C 
BRANCH   4   5
ATOM      5  NE  ARG D 557     -29.289  -0.923 -17.160  1.00 35.49    -0.212 N 
ATOM      6  CZ  ARG D 557     -28.624  -2.050 -17.033  1.00 35.49     0.666 C 
ATOM      7  NH1 ARG D 557     -27.520  -2.145 -16.316  1.00 35.49    -0.235 N 
ATOM      8  NH2 ARG D 557     -29.098  -3.098 -17.642  1.00 35.49    -0.235 N 
ATOM      9  HH  ARG D 557     -27.192  -1.469 -15.905  1.00 35.49     0.174 HD
ATOM     10  HH  ARG D 557     -27.131  -2.907 -16.267  1.00 35.49     0.174 HD
ATOM     11  HH  ARG D 557     -29.817  -3.009 -18.092  1.00 35.49     0.174 HD
ATOM     12  HH  ARG D 557     -28.699  -3.844 -17.581  1.00 35.49     0.174 HD
ATOM     13  HE  ARG D 557     -29.947  -0.936 -17.699  1.00 35.49     0.178 HD
ENDBRANCH   4   5
ENDBRANCH   3   4
ENDBRANCH   2   3
ENDBRANCH   1   2
END_RES ARG D 557
BEGIN_RES GLU D 570
REMARK  3 active torsions:
REMARK  status: ('A' for Active; 'I' for Inactive)
REMARK    5  A    between atoms: CA   and  CB  
REMARK    6  A    between atoms: CB   and  CG  
REMARK    7  A    between atoms: CG   and  CD  
ROOT
ATOM     14  CA  GLU D 570     -18.033  -6.348 -13.375  1.00 32.92     0.160 C 
ENDROOT
BRANCH  14  15
ATOM     15  CB  GLU D 570     -19.500  -6.345 -13.794  1.00 32.92     0.043 C 
BRANCH  15  16
ATOM     16  CG  GLU D 570     -20.079  -7.628 -14.268  1.00 32.92     0.100 C 
BRANCH  16  17
ATOM     17  CD  GLU D 570     -20.760  -7.507 -15.612  1.00 32.92     0.185 C 
ATOM     18  OE1 GLU D 570     -20.782  -6.399 -16.181  1.00 32.92    -0.647 OA
ATOM     19  OE2 GLU D 570     -21.291  -8.528 -16.093  1.00 32.92    -0.647 OA
ENDBRANCH  16  17
ENDBRANCH  15  16
ENDBRANCH  14  15
END_RES GLU D 570
ENDMDL
MODEL 3
REMARK VINA RESULT:      -6.1      1.685     12.034
REMARK WARNING: 32 MAX_TORS EXCEEDED!!!
REMARK  62 active torsions:
REMARK  status: ('A' for Active; 'I' for Inactive)
REMARK    1  A    between atoms: C_2  and  C_4 
REMARK    2  A    between atoms: C_4  and  C_5 
REMARK    3  A    between atoms: C_5  and  C_6 
REMARK    4  A    between atoms: C_6  and  C_7 
REMARK    5  A    between atoms: C_7  and  C_8 
REMARK    6  A    between atoms: C_8  and  C_9 
REMARK    7  A    between atoms: C_9  and  C_10 
REMARK    8  A    between atoms: C_10  and  C_11 
REMARK    9  A    between atoms: C_11  and  C_12 
REMARK   10  A    between atoms: C_12  and  C_13 
REMARK   11  A    between atoms: C_13  and  C_14 
REMARK   12  A    between atoms: C_14  and  C_15 
REMARK   13  A    between atoms: C_15  and  C_16 
REMARK   14  A    between atoms: C_16  and  C_17 
REMARK   15  A    between atoms: C_17  and  C_18 
REMARK   16  A    between atoms: C_18  and  O_20 
REMARK   17  A    between atoms: O_20  and  C_21 
REMARK   18  A    between atoms: C_21  and  C_22 
REMARK   19  A    between atoms: C_22  and  O_23 
REMARK   20  A    between atoms: O_23  and  C_24 
REMARK   21  A    between atoms: C_24  and  C_25 
REMARK   22  A    between atoms: C_25  and  C_26 
REMARK   23  A    between atoms: C_25  and  O_50 
REMARK   24  A    between atoms: C_26  and  O_27 
REMARK   25  A    between atoms: O_27  and  C_28 
REMARK   26  A    between atoms: C_28  and  C_29 
REMARK   27  A    between atoms: C_29  and  O_30 
REMARK   28  A    between atoms: O_30  and  C_31 
REMARK   29  A    between atoms: C_31  and  C_33 
REMARK   30  A    between atoms: C_33  and  C_34 
REMARK   31  A    between atoms: C_34  and  C_35 
REMARK   32  A    between atoms: C_35  and  C_36 
REMARK   33  A    between atoms: C_36  and  C_37 
REMARK   34  A    between atoms: C_37  and  C_38 
REMARK   35  A    between atoms: C_38  and  C_39 
REMARK   36  A    between atoms: C_39  and  C_40 
REMARK   37  A    between atoms: C_40  and  C_41 
REMARK   38  A    between atoms: C_41  and  C_42 
REMARK   39  A    between atoms: C_42  and  C_43 
REMARK   40  A    between atoms: C_43  and  C_44 
REMARK   41  A    between atoms: C_44  and  C_45 
REMARK   42  A    between atoms: C_45  and  C_46 
REMARK   43  A    between atoms: C_46  and  C_47 
REMARK   44  A    between atoms: O_50  and  C_51 
REMARK   45  A    between atoms: C_51  and  C_52 
REMARK   46  A    between atoms: C_52  and  O_53 
REMARK   47  A    between atoms: O_53  and  C_54 
REMARK   48  A    between atoms: C_54  and  C_56 
REMARK   49  A    between atoms: C_56  and  C_57 
REMARK   50  A    between atoms: C_57  and  C_58 
REMARK   51  A    between atoms: C_58  and  C_59 
REMARK   52  A    between atoms: C_59  and  C_60 
REMARK   53  A    between atoms: C_60  and  C_61 
REMARK   54  A    between atoms: C_61  and  C_62 
REMARK   55  A    between atoms: C_62  and  C_63 
REMARK   56  A    between atoms: C_63  and  C_64 
REMARK   57  A    between atoms: C_64  and  C_65 
REMARK   58  A    between atoms: C_65  and  C_66 
REMARK   59  A    between atoms: C_66  and  C_67 
REMARK   60  A    between atoms: C_67  and  C_68 
REMARK   61  A    between atoms: C_68  and  C_69 
REMARK   62  A    between atoms: C_69  and  C_70 
ROOT
HETATM    1  C   UNL     1     -20.505  -7.322  -5.173  1.00  0.00     0.169 C 
ENDROOT
BRANCH   1   2
HETATM    2  C   UNL     1     -21.931  -7.502  -4.648  1.00  0.00     0.201 C 
BRANCH   2   3
HETATM    3  O   UNL     1     -22.411  -6.319  -4.010  1.00  0.00    -0.386 OA
BRANCH   3   4
HETATM    4  C   UNL     1     -21.587  -5.915  -2.908  1.00  0.00     0.194 C 
BRANCH   4   5
HETATM    5  C   UNL     1     -21.518  -6.984  -1.836  1.00  0.00     0.205 C 
BRANCH   5   6
HETATM    6  O   UNL     1     -22.631  -6.906  -0.950  1.00  0.00    -0.319 OA
BRANCH   6   7
HETATM    7  C   UNL     1     -22.731  -7.914  -0.005  1.00  0.00     0.258 C 
HETATM    8  O   UNL     1     -23.555  -7.991   0.886  1.00  0.00    -0.265 OA
BRANCH   7   9
HETATM    9  C   UNL     1     -21.640  -8.928  -0.123  1.00  0.00     0.111 C 
BRANCH   9  10
HETATM   10  C   UNL     1     -20.952  -9.062   1.222  1.00  0.00     0.010 C 
BRANCH  10  11
HETATM   11  C   UNL     1     -20.436 -10.477   1.447  1.00  0.00     0.000 C 
BRANCH  11  12
HETATM   12  C   UNL     1     -19.993 -11.084   0.132  1.00  0.00     0.000 C 
BRANCH  12  13
HETATM   13  C   UNL     1     -18.767 -11.950   0.346  1.00  0.00     0.000 C 
BRANCH  13  14
HETATM   14  C   UNL     1     -17.828 -11.822  -0.839  1.00  0.00     0.000 C 
BRANCH  14  15
HETATM   15  C   UNL     1     -18.395 -10.836  -1.843  1.00  0.00     0.000 C 
BRANCH  15  16
HETATM   16  C   UNL     1     -17.430 -10.669  -3.002  1.00  0.00     0.000 C 
BRANCH  16  17
HETATM   17  C   UNL     1     -16.007 -10.626  -2.484  1.00  0.00     0.000 C 
BRANCH  17  18
HETATM   18  C   UNL     1     -15.122 -11.516  -3.332  1.00  0.00     0.000 C 
BRANCH  18  19
HETATM   19  C   UNL     1     -15.319 -11.193  -4.798  1.00  0.00     0.000 C 
BRANCH  19  20
HETATM   20  C   UNL     1     -14.595 -12.222  -5.644  1.00  0.00     0.000 C 
BRANCH  20  21
HETATM   21  C   UNL     1     -15.592 -13.232  -6.162  1.00  0.00     0.000 C 
BRANCH  21  22
HETATM   22  C   UNL     1     -16.923 -12.564  -6.469  1.00  0.00     0.004 C 
BRANCH  22  23
HETATM   23  C   UNL     1     -17.768 -13.432  -7.401  1.00  0.00    -0.023 C 
HETATM   24  C   UNL     1     -18.798 -14.203  -6.586  1.00  0.00     0.009 C 
HETATM   25  C   UNL     1     -18.481 -12.574  -8.445  1.00  0.00     0.009 C 
ENDBRANCH  22  23
ENDBRANCH  21  22
ENDBRANCH  20  21
ENDBRANCH  19  20
ENDBRANCH  18  19
ENDBRANCH  17  18
ENDBRANCH  16  17
ENDBRANCH  15  16
ENDBRANCH  14  15
ENDBRANCH  13  14
ENDBRANCH  12  13
ENDBRANCH  11  12
ENDBRANCH  10  11
ENDBRANCH   9  10
ENDBRANCH   7   9
ENDBRANCH   6   7
ENDBRANCH   5   6
ENDBRANCH   4   5
ENDBRANCH   3   4
ENDBRANCH   2   3
ENDBRANCH   1   2
BRANCH   1  26
HETATM   26  C   UNL     1     -19.687  -8.566  -4.849  1.00  0.00     0.201 C 
BRANCH  26  27
HETATM   27  O   UNL     1     -19.675  -9.449  -5.964  1.00  0.00    -0.386 OA
BRANCH  27  28
HETATM   28  C   UNL     1     -20.002 -10.781  -5.569  1.00  0.00     0.194 C 
BRANCH  28  29
HETATM   29  C   UNL     1     -21.450 -11.094  -5.821  1.00  0.00     0.205 C 
BRANCH  29  30
HETATM   30  O   UNL     1     -21.884 -12.135  -4.934  1.00  0.00    -0.319 OA
BRANCH  30  31
HETATM   31  C   UNL     1     -22.044 -11.749  -3.636  1.00  0.00     0.258 C 
HETATM   32  O   UNL     1     -22.583 -10.712  -3.260  1.00  0.00    -0.265 OA
BRANCH  31  33
HETATM   33  C   UNL     1     -21.526 -12.798  -2.679  1.00  0.00     0.111 C 
BRANCH  33  34
HETATM   34  C   UNL     1     -20.518 -13.710  -3.366  1.00  0.00     0.010 C 
BRANCH  34  35
HETATM   35  C   UNL     1     -19.734 -14.534  -2.350  1.00  0.00     0.000 C 
BRANCH  35  36
HETATM   36  C   UNL     1     -18.315 -14.763  -2.836  1.00  0.00     0.000 C 
BRANCH  36  37
HETATM   37  C   UNL     1     -17.919 -16.211  -2.614  1.00  0.00     0.000 C 
BRANCH  37  38
HETATM   38  C   UNL     1     -16.738 -16.288  -1.665  1.00  0.00     0.000 C 
BRANCH  38  39
HETATM   39  C   UNL     1     -16.087 -14.923  -1.538  1.00  0.00     0.000 C 
BRANCH  39  40
HETATM   40  C   UNL     1     -15.730 -14.655  -0.089  1.00  0.00     0.000 C 
BRANCH  40  41
HETATM   41  C   UNL     1     -16.381 -15.695   0.802  1.00  0.00     0.000 C 
BRANCH  41  42
HETATM   42  C   UNL     1     -17.208 -15.007   1.869  1.00  0.00     0.000 C 
BRANCH  42  43
HETATM   43  C   UNL     1     -18.466 -15.804   2.138  1.00  0.00     0.000 C 
BRANCH  43  44
HETATM   44  C   UNL     1     -19.497 -15.508   1.068  1.00  0.00     0.000 C 
BRANCH  44  45
HETATM   45  C   UNL     1     -20.796 -15.099   1.724  1.00  0.00     0.000 C 
BRANCH  45  46
HETATM   46  C   UNL     1     -21.664 -14.322   0.746  1.00  0.00     0.004 C 
BRANCH  46  47
HETATM   47  C   UNL     1     -22.610 -13.377   1.490  1.00  0.00    -0.023 C 
HETATM   48  C   UNL     1     -23.437 -12.552   0.506  1.00  0.00     0.009 C 
HETATM   49  C   UNL     1     -23.540 -14.187   2.385  1.00  0.00     0.009 C 
ENDBRANCH  46  47
ENDBRANCH  45  46
ENDBRANCH  44  45
ENDBRANCH  43  44
ENDBRANCH  42  43
ENDBRANCH  41  42
ENDBRANCH  40  41
ENDBRANCH  39  40
ENDBRANCH  38  39
ENDBRANCH  37  38
ENDBRANCH  36  37
ENDBRANCH  35  36
ENDBRANCH  34  35
ENDBRANCH  33  34
ENDBRANCH  31  33
ENDBRANCH  30  31
ENDBRANCH  29  30
ENDBRANCH  28  29
ENDBRANCH  27  28
ENDBRANCH  26  27
ENDBRANCH   1  26
BRANCH   1  50
HETATM   50  O   UNL     1     -20.458  -6.985  -6.570  1.00  0.00    -0.380 OA
BRANCH  50  51
HETATM   51  C   UNL     1     -19.703  -5.842  -6.896  1.00  0.00     0.195 C 
BRANCH  51  52
HETATM   52  C   UNL     1     -20.580  -4.637  -6.674  1.00  0.00     0.205 C 
BRANCH  52  53
HETATM   53  O   UNL     1     -21.953  -4.889  -6.967  1.00  0.00    -0.319 OA
BRANCH  53  54
HETATM   54  C   UNL     1     -22.448  -4.360  -8.128  1.00  0.00     0.258 C 
HETATM   55  O   UNL     1     -23.566  -4.109  -8.399  1.00  0.00    -0.265 OA
BRANCH  54  56
HETATM   56  C   UNL     1     -21.388  -4.093  -9.135  1.00  0.00     0.111 C 
BRANCH  56  57
HETATM   57  C   UNL     1     -21.929  -4.248 -10.537  1.00  0.00     0.010 C 
BRANCH  57  58
HETATM   58  C   UNL     1     -21.394  -3.179 -11.481  1.00  0.00     0.000 C 
BRANCH  58  59
HETATM   59  C   UNL     1     -22.546  -2.418 -12.111  1.00  0.00     0.000 C 
BRANCH  59  60
HETATM   60  C   UNL     1     -23.857  -3.125 -11.823  1.00  0.00     0.000 C 
BRANCH  60  61
HETATM   61  C   UNL     1     -24.667  -3.262 -13.099  1.00  0.00     0.000 C 
BRANCH  61  62
HETATM   62  C   UNL     1     -23.853  -3.990 -14.152  1.00  0.00     0.000 C 
BRANCH  62  63
HETATM   63  C   UNL     1     -23.699  -5.449 -13.767  1.00  0.00     0.000 C 
BRANCH  63  64
HETATM   64  C   UNL     1     -24.147  -6.334 -14.913  1.00  0.00     0.000 C 
BRANCH  64  65
HETATM   65  C   UNL     1     -25.509  -5.886 -15.404  1.00  0.00     0.000 C 
BRANCH  65  66
HETATM   66  C   UNL     1     -26.223  -7.045 -16.068  1.00  0.00     0.000 C 
BRANCH  66  67
HETATM   67  C   UNL     1     -27.572  -7.253 -15.407  1.00  0.00     0.000 C 
BRANCH  67  68
HETATM   68  C   UNL     1     -28.507  -6.142 -15.824  1.00  0.00     0.000 C 
BRANCH  68  69
HETATM   69  C   UNL     1     -28.874  -6.275 -17.294  1.00  0.00     0.004 C 
BRANCH  69  70
HETATM   70  C   UNL     1     -29.978  -7.315 -17.489  1.00  0.00    -0.023 C 
HETATM   71  C   UNL     1     -31.357  -6.662 -17.430  1.00  0.00     0.009 C 
HETATM   72  C   UNL     1     -29.797  -8.003 -18.836  1.00  0.00     0.009 C 
ENDBRANCH  69  70
ENDBRANCH  68  69
ENDBRANCH  67  68
ENDBRANCH  66  67
ENDBRANCH  65  66
ENDBRANCH  64  65
ENDBRANCH  63  64
ENDBRANCH  62  63
ENDBRANCH  61  62
ENDBRANCH  60  61
ENDBRANCH  59  60
ENDBRANCH  58  59
ENDBRANCH  57  58
ENDBRANCH  56  57
ENDBRANCH  54  56
ENDBRANCH  53  54
ENDBRANCH  52  53
ENDBRANCH  51  52
ENDBRANCH  50  51
ENDBRANCH   1  50
TORSDOF 62
BEGIN_RES ARG D 557
REMARK  4 active torsions:
REMARK  status: ('A' for Active; 'I' for Inactive)
REMARK    1  A    between atoms: CA   and  CB  
REMARK    2  A    between atoms: CB   and  CG  
REMARK    3  A    between atoms: CG   and  CD  
REMARK    4  A    between atoms: CD   and  NE  
REMARK       I    between atoms: NE   and  CZ  
REMARK       I    between atoms: CZ   and  NH1 
REMARK       I    between atoms: CZ   and  NH2 
ROOT
ATOM      1  CA  ARG D 557     -26.217   2.705 -17.014  1.00 35.49     0.159 C 
ENDROOT
BRANCH   1   2
ATOM      2  CB  ARG D 557     -26.789   1.319 -17.183  1.00 35.49     0.034 C 
BRANCH   2   3
ATOM      3  CG  ARG D 557     -28.232   1.226 -17.439  1.00 35.49     0.027 C 
BRANCH   3   4
ATOM      4  CD  ARG D 557     -28.896   0.230 -16.568  1.00 35.49     0.116 C 
BRANCH   4   5
ATOM      5  NE  ARG D 557     -28.004  -0.830 -16.178  1.00 35.49    -0.212 N 
ATOM      6  CZ  ARG D 557     -28.078  -2.081 -16.576  1.00 35.49     0.666 C 
ATOM      7  NH1 ARG D 557     -29.021  -2.511 -17.393  1.00 35.49    -0.235 N 
ATOM      8  NH2 ARG D 557     -27.170  -2.904 -16.138  1.00 35.49    -0.235 N 
ATOM      9  HH  ARG D 557     -29.628  -1.986 -17.696  1.00 35.49     0.174 HD
ATOM     10  HH  ARG D 557     -29.018  -3.337 -17.621  1.00 35.49     0.174 HD
ATOM     11  HH  ARG D 557     -26.569  -2.597 -15.618  1.00 35.49     0.174 HD
ATOM     12  HH  ARG D 557     -27.183  -3.718 -16.376  1.00 35.49     0.174 HD
ATOM     13  HE  ARG D 557     -27.409  -0.658 -15.596  1.00 35.49     0.178 HD
ENDBRANCH   4   5
ENDBRANCH   3   4
ENDBRANCH   2   3
ENDBRANCH   1   2
END_RES ARG D 557
BEGIN_RES GLU D 570
REMARK  3 active torsions:
REMARK  status: ('A' for Active; 'I' for Inactive)
REMARK    5  A    between atoms: CA   and  CB  
REMARK    6  A    between atoms: CB   and  CG  
REMARK    7  A    between atoms: CG   and  CD  
ROOT
ATOM     14  CA  GLU D 570     -18.033  -6.348 -13.375  1.00 32.92     0.160 C 
ENDROOT
BRANCH  14  15
ATOM     15  CB  GLU D 570     -19.500  -6.345 -13.794  1.00 32.92     0.043 C 
BRANCH  15  16
ATOM     16  CG  GLU D 570     -20.113  -7.651 -14.148  1.00 32.92     0.100 C 
BRANCH  16  17
ATOM     17  CD  GLU D 570     -20.554  -7.723 -15.591  1.00 32.92     0.185 C 
ATOM     18  OE1 GLU D 570     -20.930  -6.681 -16.162  1.00 32.92    -0.647 OA
ATOM     19  OE2 GLU D 570     -20.540  -8.837 -16.152  1.00 32.92    -0.647 OA
ENDBRANCH  16  17
ENDBRANCH  15  16
ENDBRANCH  14  15
END_RES GLU D 570
ENDMDL
MODEL 4
REMARK VINA RESULT:      -6.0      3.192     12.898
REMARK WARNING: 32 MAX_TORS EXCEEDED!!!
REMARK  62 active torsions:
REMARK  status: ('A' for Active; 'I' for Inactive)
REMARK    1  A    between atoms: C_2  and  C_4 
REMARK    2  A    between atoms: C_4  and  C_5 
REMARK    3  A    between atoms: C_5  and  C_6 
REMARK    4  A    between atoms: C_6  and  C_7 
REMARK    5  A    between atoms: C_7  and  C_8 
REMARK    6  A    between atoms: C_8  and  C_9 
REMARK    7  A    between atoms: C_9  and  C_10 
REMARK    8  A    between atoms: C_10  and  C_11 
REMARK    9  A    between atoms: C_11  and  C_12 
REMARK   10  A    between atoms: C_12  and  C_13 
REMARK   11  A    between atoms: C_13  and  C_14 
REMARK   12  A    between atoms: C_14  and  C_15 
REMARK   13  A    between atoms: C_15  and  C_16 
REMARK   14  A    between atoms: C_16  and  C_17 
REMARK   15  A    between atoms: C_17  and  C_18 
REMARK   16  A    between atoms: C_18  and  O_20 
REMARK   17  A    between atoms: O_20  and  C_21 
REMARK   18  A    between atoms: C_21  and  C_22 
REMARK   19  A    between atoms: C_22  and  O_23 
REMARK   20  A    between atoms: O_23  and  C_24 
REMARK   21  A    between atoms: C_24  and  C_25 
REMARK   22  A    between atoms: C_25  and  C_26 
REMARK   23  A    between atoms: C_25  and  O_50 
REMARK   24  A    between atoms: C_26  and  O_27 
REMARK   25  A    between atoms: O_27  and  C_28 
REMARK   26  A    between atoms: C_28  and  C_29 
REMARK   27  A    between atoms: C_29  and  O_30 
REMARK   28  A    between atoms: O_30  and  C_31 
REMARK   29  A    between atoms: C_31  and  C_33 
REMARK   30  A    between atoms: C_33  and  C_34 
REMARK   31  A    between atoms: C_34  and  C_35 
REMARK   32  A    between atoms: C_35  and  C_36 
REMARK   33  A    between atoms: C_36  and  C_37 
REMARK   34  A    between atoms: C_37  and  C_38 
REMARK   35  A    between atoms: C_38  and  C_39 
REMARK   36  A    between atoms: C_39  and  C_40 
REMARK   37  A    between atoms: C_40  and  C_41 
REMARK   38  A    between atoms: C_41  and  C_42 
REMARK   39  A    between atoms: C_42  and  C_43 
REMARK   40  A    between atoms: C_43  and  C_44 
REMARK   41  A    between atoms: C_44  and  C_45 
REMARK   42  A    between atoms: C_45  and  C_46 
REMARK   43  A    between atoms: C_46  and  C_47 
REMARK   44  A    between atoms: O_50  and  C_51 
REMARK   45  A    between atoms: C_51  and  C_52 
REMARK   46  A    between atoms: C_52  and  O_53 
REMARK   47  A    between atoms: O_53  and  C_54 
REMARK   48  A    between atoms: C_54  and  C_56 
REMARK   49  A    between atoms: C_56  and  C_57 
REMARK   50  A    between atoms: C_57  and  C_58 
REMARK   51  A    between atoms: C_58  and  C_59 
REMARK   52  A    between atoms: C_59  and  C_60 
REMARK   53  A    between atoms: C_60  and  C_61 
REMARK   54  A    between atoms: C_61  and  C_62 
REMARK   55  A    between atoms: C_62  and  C_63 
REMARK   56  A    between atoms: C_63  and  C_64 
REMARK   57  A    between atoms: C_64  and  C_65 
REMARK   58  A    between atoms: C_65  and  C_66 
REMARK   59  A    between atoms: C_66  and  C_67 
REMARK   60  A    between atoms: C_67  and  C_68 
REMARK   61  A    between atoms: C_68  and  C_69 
REMARK   62  A    between atoms: C_69  and  C_70 
ROOT
HETATM    1  C   UNL     1     -22.447  -4.418 -11.583  1.00  0.00     0.169 C 
ENDROOT
BRANCH   1   2
HETATM    2  C   UNL     1     -21.352  -3.388 -11.298  1.00  0.00     0.201 C 
BRANCH   2   3
HETATM    3  O   UNL     1     -20.072  -4.004 -11.158  1.00  0.00    -0.386 OA
BRANCH   3   4
HETATM    4  C   UNL     1     -19.968  -4.790  -9.963  1.00  0.00     0.194 C 
BRANCH   4   5
HETATM    5  C   UNL     1     -19.955  -3.923  -8.720  1.00  0.00     0.205 C 
BRANCH   5   6
HETATM    6  O   UNL     1     -19.032  -4.412  -7.752  1.00  0.00    -0.319 OA
BRANCH   6   7
HETATM    7  C   UNL     1     -19.580  -5.070  -6.663  1.00  0.00     0.258 C 
HETATM    8  O   UNL     1     -19.949  -4.562  -5.622  1.00  0.00    -0.265 OA
BRANCH   7   9
HETATM    9  C   UNL     1     -19.621  -6.552  -6.845  1.00  0.00     0.111 C 
BRANCH   9  10
HETATM   10  C   UNL     1     -19.584  -7.212  -5.479  1.00  0.00     0.010 C 
BRANCH  10  11
HETATM   11  C   UNL     1     -19.412  -8.721  -5.592  1.00  0.00     0.000 C 
BRANCH  11  12
HETATM   12  C   UNL     1     -20.124  -9.412  -4.448  1.00  0.00     0.000 C 
BRANCH  12  13
HETATM   13  C   UNL     1     -19.498  -9.008  -3.126  1.00  0.00     0.000 C 
BRANCH  13  14
HETATM   14  C   UNL     1     -18.277  -9.866  -2.847  1.00  0.00     0.000 C 
BRANCH  14  15
HETATM   15  C   UNL     1     -18.701 -11.174  -2.205  1.00  0.00     0.000 C 
BRANCH  15  16
HETATM   16  C   UNL     1     -17.488 -12.059  -1.993  1.00  0.00     0.000 C 
BRANCH  16  17
HETATM   17  C   UNL     1     -16.230 -11.310  -2.383  1.00  0.00     0.000 C 
BRANCH  17  18
HETATM   18  C   UNL     1     -15.102 -12.290  -2.629  1.00  0.00     0.000 C 
BRANCH  18  19
HETATM   19  C   UNL     1     -14.534 -12.084  -4.018  1.00  0.00     0.000 C 
BRANCH  19  20
HETATM   20  C   UNL     1     -15.224 -10.907  -4.677  1.00  0.00     0.000 C 
BRANCH  20  21
HETATM   21  C   UNL     1     -15.661 -11.299  -6.069  1.00  0.00     0.000 C 
BRANCH  21  22
HETATM   22  C   UNL     1     -17.157 -11.087  -6.241  1.00  0.00     0.004 C 
BRANCH  22  23
HETATM   23  C   UNL     1     -17.855 -12.397  -6.611  1.00  0.00    -0.023 C 
HETATM   24  C   UNL     1     -18.724 -12.859  -5.448  1.00  0.00     0.009 C 
HETATM   25  C   UNL     1     -18.721 -12.218  -7.856  1.00  0.00     0.009 C 
ENDBRANCH  22  23
ENDBRANCH  21  22
ENDBRANCH  20  21
ENDBRANCH  19  20
ENDBRANCH  18  19
ENDBRANCH  17  18
ENDBRANCH  16  17
ENDBRANCH  15  16
ENDBRANCH  14  15
ENDBRANCH  13  14
ENDBRANCH  12  13
ENDBRANCH  11  12
ENDBRANCH  10  11
ENDBRANCH   9  10
ENDBRANCH   7   9
ENDBRANCH   6   7
ENDBRANCH   5   6
ENDBRANCH   4   5
ENDBRANCH   3   4
ENDBRANCH   2   3
ENDBRANCH   1   2
BRANCH   1  26
HETATM   26  C   UNL     1     -23.765  -3.929 -10.995  1.00  0.00     0.201 C 
BRANCH  26  27
HETATM   27  O   UNL     1     -24.106  -4.698  -9.848  1.00  0.00    -0.386 OA
BRANCH  27  28
HETATM   28  C   UNL     1     -23.673  -4.055  -8.650  1.00  0.00     0.194 C 
BRANCH  28  29
HETATM   29  C   UNL     1     -23.056  -5.031  -7.689  1.00  0.00     0.205 C 
BRANCH  29  30
HETATM   30  O   UNL     1     -23.369  -4.650  -6.341  1.00  0.00    -0.319 OA
BRANCH  30  31
HETATM   31  C   UNL     1     -23.774  -5.674  -5.537  1.00  0.00     0.258 C 
HETATM   32  O   UNL     1     -24.927  -5.887  -5.176  1.00  0.00    -0.265 OA
BRANCH  31  33
HETATM   33  C   UNL     1     -22.621  -6.585  -5.181  1.00  0.00     0.111 C 
BRANCH  33  34
HETATM   34  C   UNL     1     -22.669  -6.970  -3.708  1.00  0.00     0.010 C 
BRANCH  34  35
HETATM   35  C   UNL     1     -21.753  -6.080  -2.874  1.00  0.00     0.000 C 
BRANCH  35  36
HETATM   36  C   UNL     1     -22.103  -6.193  -1.401  1.00  0.00     0.000 C 
BRANCH  36  37
HETATM   37  C   UNL     1     -22.272  -7.653  -1.020  1.00  0.00     0.000 C 
BRANCH  37  38
HETATM   38  C   UNL     1     -22.760  -7.764   0.412  1.00  0.00     0.000 C 
BRANCH  38  39
HETATM   39  C   UNL     1     -21.666  -8.344   1.288  1.00  0.00     0.000 C 
BRANCH  39  40
HETATM   40  C   UNL     1     -20.772  -9.251   0.465  1.00  0.00     0.000 C 
BRANCH  40  41
HETATM   41  C   UNL     1     -20.749 -10.640   1.073  1.00  0.00     0.000 C 
BRANCH  41  42
HETATM   42  C   UNL     1     -21.343 -11.635   0.096  1.00  0.00     0.000 C 
BRANCH  42  43
HETATM   43  C   UNL     1     -22.764 -11.965   0.498  1.00  0.00     0.000 C 
BRANCH  43  44
HETATM   44  C   UNL     1     -23.734 -11.262  -0.430  1.00  0.00     0.000 C 
BRANCH  44  45
HETATM   45  C   UNL     1     -23.107 -11.125  -1.798  1.00  0.00     0.000 C 
BRANCH  45  46
HETATM   46  C   UNL     1     -23.184 -12.444  -2.553  1.00  0.00     0.004 C 
BRANCH  46  47
HETATM   47  C   UNL     1     -21.972 -12.618  -3.470  1.00  0.00    -0.023 C 
HETATM   48  C   UNL     1     -21.292 -13.963  -3.221  1.00  0.00     0.009 C 
HETATM   49  C   UNL     1     -22.415 -12.532  -4.925  1.00  0.00     0.009 C 
ENDBRANCH  46  47
ENDBRANCH  45  46
ENDBRANCH  44  45
ENDBRANCH  43  44
ENDBRANCH  42  43
ENDBRANCH  41  42
ENDBRANCH  40  41
ENDBRANCH  39  40
ENDBRANCH  38  39
ENDBRANCH  37  38
ENDBRANCH  36  37
ENDBRANCH  35  36
ENDBRANCH  34  35
ENDBRANCH  33  34
ENDBRANCH  31  33
ENDBRANCH  30  31
ENDBRANCH  29  30
ENDBRANCH  28  29
ENDBRANCH  27  28
ENDBRANCH  26  27
ENDBRANCH   1  26
BRANCH   1  50
HETATM   50  O   UNL     1     -22.560  -4.749 -12.978  1.00  0.00    -0.380 OA
BRANCH  50  51
HETATM   51  C   UNL     1     -23.575  -5.667 -13.307  1.00  0.00     0.195 C 
BRANCH  51  52
HETATM   52  C   UNL     1     -23.620  -5.781 -14.807  1.00  0.00     0.205 C 
BRANCH  52  53
HETATM   53  O   UNL     1     -24.836  -5.286 -15.365  1.00  0.00    -0.319 OA
BRANCH  53  54
HETATM   54  C   UNL     1     -25.809  -6.205 -15.647  1.00  0.00     0.258 C 
HETATM   55  O   UNL     1     -25.750  -7.379 -15.575  1.00  0.00    -0.265 OA
BRANCH  54  56
HETATM   56  C   UNL     1     -27.078  -5.577 -16.099  1.00  0.00     0.111 C 
BRANCH  56  57
HETATM   57  C   UNL     1     -27.412  -6.000 -17.511  1.00  0.00     0.010 C 
BRANCH  57  58
HETATM   58  C   UNL     1     -28.640  -5.280 -18.051  1.00  0.00     0.000 C 
BRANCH  58  59
HETATM   59  C   UNL     1     -29.894  -6.069 -17.718  1.00  0.00     0.000 C 
BRANCH  59  60
HETATM   60  C   UNL     1     -30.686  -5.357 -16.638  1.00  0.00     0.000 C 
BRANCH  60  61
HETATM   61  C   UNL     1     -31.437  -4.180 -17.234  1.00  0.00     0.000 C 
BRANCH  61  62
HETATM   62  C   UNL     1     -32.893  -4.229 -16.814  1.00  0.00     0.000 C 
BRANCH  62  63
HETATM   63  C   UNL     1     -33.600  -2.961 -17.254  1.00  0.00     0.000 C 
BRANCH  63  64
HETATM   64  C   UNL     1     -34.723  -2.636 -16.288  1.00  0.00     0.000 C 
BRANCH  64  65
HETATM   65  C   UNL     1     -35.361  -1.316 -16.672  1.00  0.00     0.000 C 
BRANCH  65  66
HETATM   66  C   UNL     1     -36.158  -0.773 -15.504  1.00  0.00     0.000 C 
BRANCH  66  67
HETATM   67  C   UNL     1     -35.211  -0.202 -14.466  1.00  0.00     0.000 C 
BRANCH  67  68
HETATM   68  C   UNL     1     -35.608  -0.706 -13.099  1.00  0.00     0.000 C 
BRANCH  68  69
HETATM   69  C   UNL     1     -34.908  -2.021 -12.789  1.00  0.00     0.004 C 
BRANCH  69  70
HETATM   70  C   UNL     1     -34.838  -2.259 -11.280  1.00  0.00    -0.023 C 
HETATM   71  C   UNL     1     -35.507  -3.580 -10.906  1.00  0.00     0.009 C 
HETATM   72  C   UNL     1     -33.381  -2.282 -10.835  1.00  0.00     0.009 C 
ENDBRANCH  69  70
ENDBRANCH  68  69
ENDBRANCH  67  68
ENDBRANCH  66  67
ENDBRANCH  65  66
ENDBRANCH  64  65
ENDBRANCH  63  64
ENDBRANCH  62  63
ENDBRANCH  61  62
ENDBRANCH  60  61
ENDBRANCH  59  60
ENDBRANCH  58  59
ENDBRANCH  57  58
ENDBRANCH  56  57
ENDBRANCH  54  56
ENDBRANCH  53  54
ENDBRANCH  52  53
ENDBRANCH  51  52
ENDBRANCH  50  51
ENDBRANCH   1  50
TORSDOF 62
BEGIN_RES ARG D 557
REMARK  4 active torsions:
REMARK  status: ('A' for Active; 'I' for Inactive)
REMARK    1  A    between atoms: CA   and  CB  
REMARK    2  A    between atoms: CB   and  CG  
REMARK    3  A    between atoms: CG   and  CD  
REMARK    4  A    between atoms: CD   and  NE  
REMARK       I    between atoms: NE   and  CZ  
REMARK       I    between atoms: CZ   and  NH1 
REMARK       I    between atoms: CZ   and  NH2 
ROOT
ATOM      1  CA  ARG D 557     -26.217   2.705 -17.014  1.00 35.49     0.159 C 
ENDROOT
BRANCH   1   2
ATOM      2  CB  ARG D 557     -26.789   1.319 -17.183  1.00 35.49     0.034 C 
BRANCH   2   3
ATOM      3  CG  ARG D 557     -25.855   0.196 -17.034  1.00 35.49     0.027 C 
BRANCH   3   4
ATOM      4  CD  ARG D 557     -26.170  -0.647 -15.858  1.00 35.49     0.116 C 
BRANCH   4   5
ATOM      5  NE  ARG D 557     -25.017  -0.871 -15.027  1.00 35.49    -0.212 N 
ATOM      6  CZ  ARG D 557     -24.831  -1.903 -14.234  1.00 35.49     0.666 C 
ATOM      7  NH1 ARG D 557     -25.722  -2.868 -14.104  1.00 35.49    -0.235 N 
ATOM      8  NH2 ARG D 557     -23.714  -1.954 -13.568  1.00 35.49    -0.235 N 
ATOM      9  HH  ARG D 557     -26.463  -2.856 -14.535  1.00 35.49     0.174 HD
ATOM     10  HH  ARG D 557     -25.545  -3.518 -13.574  1.00 35.49     0.174 HD
ATOM     11  HH  ARG D 557     -23.153  -1.320 -13.677  1.00 35.49     0.174 HD
ATOM     12  HH  ARG D 557     -23.556  -2.606 -13.049  1.00 35.49     0.174 HD
ATOM     13  HE  ARG D 557     -24.425  -0.262 -14.993  1.00 35.49     0.178 HD
ENDBRANCH   4   5
ENDBRANCH   3   4
ENDBRANCH   2   3
ENDBRANCH   1   2
END_RES ARG D 557
BEGIN_RES GLU D 570
REMARK  3 active torsions:
REMARK  status: ('A' for Active; 'I' for Inactive)
REMARK    5  A    between atoms: CA   and  CB  
REMARK    6  A    between atoms: CB   and  CG  
REMARK    7  A    between atoms: CG   and  CD  
ROOT
ATOM     14  CA  GLU D 570     -18.033  -6.348 -13.375  1.00 32.92     0.160 C 
ENDROOT
BRANCH  14  15
ATOM     15  CB  GLU D 570     -19.500  -6.345 -13.794  1.00 32.92     0.043 C 
BRANCH  15  16
ATOM     16  CG  GLU D 570     -19.812  -5.954 -15.193  1.00 32.92     0.100 C 
BRANCH  16  17
ATOM     17  CD  GLU D 570     -20.584  -7.014 -15.943  1.00 32.92     0.185 C 
ATOM     18  OE1 GLU D 570     -20.965  -6.777 -17.105  1.00 32.92    -0.647 OA
ATOM     19  OE2 GLU D 570     -20.824  -8.088 -15.356  1.00 32.92    -0.647 OA
ENDBRANCH  16  17
ENDBRANCH  15  16
ENDBRANCH  14  15
END_RES GLU D 570
ENDMDL
MODEL 5
REMARK VINA RESULT:      -6.0      1.713      3.697
REMARK WARNING: 32 MAX_TORS EXCEEDED!!!
REMARK  62 active torsions:
REMARK  status: ('A' for Active; 'I' for Inactive)
REMARK    1  A    between atoms: C_2  and  C_4 
REMARK    2  A    between atoms: C_4  and  C_5 
REMARK    3  A    between atoms: C_5  and  C_6 
REMARK    4  A    between atoms: C_6  and  C_7 
REMARK    5  A    between atoms: C_7  and  C_8 
REMARK    6  A    between atoms: C_8  and  C_9 
REMARK    7  A    between atoms: C_9  and  C_10 
REMARK    8  A    between atoms: C_10  and  C_11 
REMARK    9  A    between atoms: C_11  and  C_12 
REMARK   10  A    between atoms: C_12  and  C_13 
REMARK   11  A    between atoms: C_13  and  C_14 
REMARK   12  A    between atoms: C_14  and  C_15 
REMARK   13  A    between atoms: C_15  and  C_16 
REMARK   14  A    between atoms: C_16  and  C_17 
REMARK   15  A    between atoms: C_17  and  C_18 
REMARK   16  A    between atoms: C_18  and  O_20 
REMARK   17  A    between atoms: O_20  and  C_21 
REMARK   18  A    between atoms: C_21  and  C_22 
REMARK   19  A    between atoms: C_22  and  O_23 
REMARK   20  A    between atoms: O_23  and  C_24 
REMARK   21  A    between atoms: C_24  and  C_25 
REMARK   22  A    between atoms: C_25  and  C_26 
REMARK   23  A    between atoms: C_25  and  O_50 
REMARK   24  A    between atoms: C_26  and  O_27 
REMARK   25  A    between atoms: O_27  and  C_28 
REMARK   26  A    between atoms: C_28  and  C_29 
REMARK   27  A    between atoms: C_29  and  O_30 
REMARK   28  A    between atoms: O_30  and  C_31 
REMARK   29  A    between atoms: C_31  and  C_33 
REMARK   30  A    between atoms: C_33  and  C_34 
REMARK   31  A    between atoms: C_34  and  C_35 
REMARK   32  A    between atoms: C_35  and  C_36 
REMARK   33  A    between atoms: C_36  and  C_37 
REMARK   34  A    between atoms: C_37  and  C_38 
REMARK   35  A    between atoms: C_38  and  C_39 
REMARK   36  A    between atoms: C_39  and  C_40 
REMARK   37  A    between atoms: C_40  and  C_41 
REMARK   38  A    between atoms: C_41  and  C_42 
REMARK   39  A    between atoms: C_42  and  C_43 
REMARK   40  A    between atoms: C_43  and  C_44 
REMARK   41  A    between atoms: C_44  and  C_45 
REMARK   42  A    between atoms: C_45  and  C_46 
REMARK   43  A    between atoms: C_46  and  C_47 
REMARK   44  A    between atoms: O_50  and  C_51 
REMARK   45  A    between atoms: C_51  and  C_52 
REMARK   46  A    between atoms: C_52  and  O_53 
REMARK   47  A    between atoms: O_53  and  C_54 
REMARK   48  A    between atoms: C_54  and  C_56 
REMARK   49  A    between atoms: C_56  and  C_57 
REMARK   50  A    between atoms: C_57  and  C_58 
REMARK   51  A    between atoms: C_58  and  C_59 
REMARK   52  A    between atoms: C_59  and  C_60 
REMARK   53  A    between atoms: C_60  and  C_61 
REMARK   54  A    between atoms: C_61  and  C_62 
REMARK   55  A    between atoms: C_62  and  C_63 
REMARK   56  A    between atoms: C_63  and  C_64 
REMARK   57  A    between atoms: C_64  and  C_65 
REMARK   58  A    between atoms: C_65  and  C_66 
REMARK   59  A    between atoms: C_66  and  C_67 
REMARK   60  A    between atoms: C_67  and  C_68 
REMARK   61  A    between atoms: C_68  and  C_69 
REMARK   62  A    between atoms: C_69  and  C_70 
ROOT
HETATM    1  C   UNL     1     -20.850  -6.078  -4.899  1.00  0.00     0.169 C 
ENDROOT
BRANCH   1   2
HETATM    2  C   UNL     1     -21.777  -7.149  -5.477  1.00  0.00     0.201 C 
BRANCH   2   3
HETATM    3  O   UNL     1     -21.045  -8.270  -5.969  1.00  0.00    -0.386 OA
BRANCH   3   4
HETATM    4  C   UNL     1     -21.277  -9.459  -5.204  1.00  0.00     0.194 C 
BRANCH   4   5
HETATM    5  C   UNL     1     -20.256 -10.536  -5.513  1.00  0.00     0.205 C 
BRANCH   5   6
HETATM    6  O   UNL     1     -20.600 -11.258  -6.691  1.00  0.00    -0.319 OA
BRANCH   6   7
HETATM    7  C   UNL     1     -21.203 -12.491  -6.498  1.00  0.00     0.258 C 
HETATM    8  O   UNL     1     -22.291 -12.693  -5.994  1.00  0.00    -0.265 OA
BRANCH   7   9
HETATM    9  C   UNL     1     -20.333 -13.631  -6.913  1.00  0.00     0.111 C 
BRANCH   9  10
HETATM   10  C   UNL     1     -19.320 -13.897  -5.816  1.00  0.00     0.010 C 
BRANCH  10  11
HETATM   11  C   UNL     1     -19.316 -15.363  -5.402  1.00  0.00     0.000 C 
BRANCH  11  12
HETATM   12  C   UNL     1     -18.059 -15.678  -4.618  1.00  0.00     0.000 C 
BRANCH  12  13
HETATM   13  C   UNL     1     -17.059 -14.546  -4.762  1.00  0.00     0.000 C 
BRANCH  13  14
HETATM   14  C   UNL     1     -15.877 -14.778  -3.840  1.00  0.00     0.000 C 
BRANCH  14  15
HETATM   15  C   UNL     1     -14.808 -15.576  -4.562  1.00  0.00     0.000 C 
BRANCH  15  16
HETATM   16  C   UNL     1     -13.662 -14.662  -4.956  1.00  0.00     0.000 C 
BRANCH  16  17
HETATM   17  C   UNL     1     -13.687 -13.409  -4.105  1.00  0.00     0.000 C 
BRANCH  17  18
HETATM   18  C   UNL     1     -13.565 -12.184  -4.988  1.00  0.00     0.000 C 
BRANCH  18  19
HETATM   19  C   UNL     1     -14.397 -12.365  -6.240  1.00  0.00     0.000 C 
BRANCH  19  20
HETATM   20  C   UNL     1     -15.353 -11.198  -6.384  1.00  0.00     0.000 C 
BRANCH  20  21
HETATM   21  C   UNL     1     -15.520 -10.521  -5.043  1.00  0.00     0.000 C 
BRANCH  21  22
HETATM   22  C   UNL     1     -16.921 -10.751  -4.498  1.00  0.00     0.004 C 
BRANCH  22  23
HETATM   23  C   UNL     1     -17.017 -10.309  -3.037  1.00  0.00    -0.023 C 
HETATM   24  C   UNL     1     -15.791  -9.483  -2.672  1.00  0.00     0.009 C 
HETATM   25  C   UNL     1     -18.280  -9.482  -2.801  1.00  0.00     0.009 C 
ENDBRANCH  22  23
ENDBRANCH  21  22
ENDBRANCH  20  21
ENDBRANCH  19  20
ENDBRANCH  18  19
ENDBRANCH  17  18
ENDBRANCH  16  17
ENDBRANCH  15  16
ENDBRANCH  14  15
ENDBRANCH  13  14
ENDBRANCH  12  13
ENDBRANCH  11  12
ENDBRANCH  10  11
ENDBRANCH   9  10
ENDBRANCH   7   9
ENDBRANCH   6   7
ENDBRANCH   5   6
ENDBRANCH   4   5
ENDBRANCH   3   4
ENDBRANCH   2   3
ENDBRANCH   1   2
BRANCH   1  26
HETATM   26  C   UNL     1     -20.722  -4.931  -5.894  1.00  0.00     0.201 C 
BRANCH  26  27
HETATM   27  O   UNL     1     -21.942  -4.758  -6.604  1.00  0.00    -0.386 OA
BRANCH  27  28
HETATM   28  C   UNL     1     -21.802  -3.788  -7.641  1.00  0.00     0.194 C 
BRANCH  28  29
HETATM   29  C   UNL     1     -22.355  -4.288  -8.946  1.00  0.00     0.205 C 
BRANCH  29  30
HETATM   30  O   UNL     1     -23.678  -3.767  -9.144  1.00  0.00    -0.319 OA
BRANCH  30  31
HETATM   31  C   UNL     1     -24.148  -3.875 -10.420  1.00  0.00     0.258 C 
HETATM   32  O   UNL     1     -24.997  -3.152 -10.932  1.00  0.00    -0.265 OA
BRANCH  31  33
HETATM   33  C   UNL     1     -23.441  -4.975 -11.178  1.00  0.00     0.111 C 
BRANCH  33  34
HETATM   34  C   UNL     1     -22.322  -4.407 -12.042  1.00  0.00     0.010 C 
BRANCH  34  35
HETATM   35  C   UNL     1     -22.479  -4.830 -13.499  1.00  0.00     0.000 C 
BRANCH  35  36
HETATM   36  C   UNL     1     -23.620  -5.821 -13.642  1.00  0.00     0.000 C 
BRANCH  36  37
HETATM   37  C   UNL     1     -24.218  -5.724 -15.034  1.00  0.00     0.000 C 
BRANCH  37  38
HETATM   38  C   UNL     1     -24.214  -7.088 -15.697  1.00  0.00     0.000 C 
BRANCH  38  39
HETATM   39  C   UNL     1     -24.954  -7.022 -17.020  1.00  0.00     0.000 C 
BRANCH  39  40
HETATM   40  C   UNL     1     -24.011  -7.370 -18.156  1.00  0.00     0.000 C 
BRANCH  40  41
HETATM   41  C   UNL     1     -24.439  -6.647 -19.419  1.00  0.00     0.000 C 
BRANCH  41  42
HETATM   42  C   UNL     1     -24.755  -7.658 -20.503  1.00  0.00     0.000 C 
BRANCH  42  43
HETATM   43  C   UNL     1     -26.246  -7.692 -20.756  1.00  0.00     0.000 C 
BRANCH  43  44
HETATM   44  C   UNL     1     -26.875  -6.400 -20.274  1.00  0.00     0.000 C 
BRANCH  44  45
HETATM   45  C   UNL     1     -27.951  -6.715 -19.261  1.00  0.00     0.000 C 
BRANCH  45  46
HETATM   46  C   UNL     1     -28.396  -5.450 -18.544  1.00  0.00     0.004 C 
BRANCH  46  47
HETATM   47  C   UNL     1     -28.510  -5.688 -17.038  1.00  0.00    -0.023 C 
HETATM   48  C   UNL     1     -27.776  -4.598 -16.258  1.00  0.00     0.009 C 
HETATM   49  C   UNL     1     -29.979  -5.702 -16.633  1.00  0.00     0.009 C 
ENDBRANCH  46  47
ENDBRANCH  45  46
ENDBRANCH  44  45
ENDBRANCH  43  44
ENDBRANCH  42  43
ENDBRANCH  41  42
ENDBRANCH  40  41
ENDBRANCH  39  40
ENDBRANCH  38  39
ENDBRANCH  37  38
ENDBRANCH  36  37
ENDBRANCH  35  36
ENDBRANCH  34  35
ENDBRANCH  33  34
ENDBRANCH  31  33
ENDBRANCH  30  31
ENDBRANCH  29  30
ENDBRANCH  28  29
ENDBRANCH  27  28
ENDBRANCH  26  27
ENDBRANCH   1  26
BRANCH   1  50
HETATM   50  O   UNL     1     -21.253  -5.627  -3.594  1.00  0.00    -0.380 OA
BRANCH  50  51
HETATM   51  C   UNL     1     -22.151  -6.467  -2.910  1.00  0.00     0.195 C 
BRANCH  51  52
HETATM   52  C   UNL     1     -21.988  -6.205  -1.436  1.00  0.00     0.205 C 
BRANCH  52  53
HETATM   53  O   UNL     1     -22.903  -6.951  -0.635  1.00  0.00    -0.319 OA
BRANCH  53  54
HETATM   54  C   UNL     1     -22.403  -8.033   0.035  1.00  0.00     0.258 C 
HETATM   55  O   UNL     1     -21.955  -8.076   1.123  1.00  0.00    -0.265 OA
BRANCH  54  56
HETATM   56  C   UNL     1     -22.461  -9.282  -0.768  1.00  0.00     0.111 C 
BRANCH  56  57
HETATM   57  C   UNL     1     -22.372 -10.498   0.125  1.00  0.00     0.010 C 
BRANCH  57  58
HETATM   58  C   UNL     1     -23.526 -11.465  -0.105  1.00  0.00     0.000 C 
BRANCH  58  59
HETATM   59  C   UNL     1     -23.410 -12.647   0.841  1.00  0.00     0.000 C 
BRANCH  59  60
HETATM   60  C   UNL     1     -21.951 -12.999   1.058  1.00  0.00     0.000 C 
BRANCH  60  61
HETATM   61  C   UNL     1     -21.818 -14.470   1.408  1.00  0.00     0.000 C 
BRANCH  61  62
HETATM   62  C   UNL     1     -21.081 -15.200   0.301  1.00  0.00     0.000 C 
BRANCH  62  63
HETATM   63  C   UNL     1     -21.946 -15.258  -0.943  1.00  0.00     0.000 C 
BRANCH  63  64
HETATM   64  C   UNL     1     -21.126 -14.872  -2.158  1.00  0.00     0.000 C 
BRANCH  64  65
HETATM   65  C   UNL     1     -21.507 -13.477  -2.610  1.00  0.00     0.000 C 
BRANCH  65  66
HETATM   66  C   UNL     1     -20.396 -12.505  -2.268  1.00  0.00     0.000 C 
BRANCH  66  67
HETATM   67  C   UNL     1     -19.093 -13.264  -2.101  1.00  0.00     0.000 C 
BRANCH  67  68
HETATM   68  C   UNL     1     -18.409 -12.806  -0.834  1.00  0.00     0.000 C 
BRANCH  68  69
HETATM   69  C   UNL     1     -17.199 -13.678  -0.534  1.00  0.00     0.004 C 
BRANCH  69  70
HETATM   70  C   UNL     1     -15.918 -12.844  -0.514  1.00  0.00    -0.023 C 
HETATM   71  C   UNL     1     -15.865 -11.959   0.730  1.00  0.00     0.009 C 
HETATM   72  C   UNL     1     -14.708 -13.769  -0.533  1.00  0.00     0.009 C 
ENDBRANCH  69  70
ENDBRANCH  68  69
ENDBRANCH  67  68
ENDBRANCH  66  67
ENDBRANCH  65  66
ENDBRANCH  64  65
ENDBRANCH  63  64
ENDBRANCH  62  63
ENDBRANCH  61  62
ENDBRANCH  60  61
ENDBRANCH  59  60
ENDBRANCH  58  59
ENDBRANCH  57  58
ENDBRANCH  56  57
ENDBRANCH  54  56
ENDBRANCH  53  54
ENDBRANCH  52  53
ENDBRANCH  51  52
ENDBRANCH  50  51
ENDBRANCH   1  50
TORSDOF 62
BEGIN_RES ARG D 557
REMARK  4 active torsions:
REMARK  status: ('A' for Active; 'I' for Inactive)
REMARK    1  A    between atoms: CA   and  CB  
REMARK    2  A    between atoms: CB   and  CG  
REMARK    3  A    between atoms: CG   and  CD  
REMARK    4  A    between atoms: CD   and  NE  
REMARK       I    between atoms: NE   and  CZ  
REMARK       I    between atoms: CZ   and  NH1 
REMARK       I    between atoms: CZ   and  NH2 
ROOT
ATOM      1  CA  ARG D 557     -26.217   2.705 -17.014  1.00 35.49     0.159 C 
ENDROOT
BRANCH   1   2
ATOM      2  CB  ARG D 557     -26.789   1.319 -17.183  1.00 35.49     0.034 C 
BRANCH   2   3
ATOM      3  CG  ARG D 557     -25.853   0.197 -17.045  1.00 35.49     0.027 C 
BRANCH   3   4
ATOM      4  CD  ARG D 557     -26.163  -0.656 -15.874  1.00 35.49     0.116 C 
BRANCH   4   5
ATOM      5  NE  ARG D 557     -25.028  -0.817 -15.004  1.00 35.49    -0.212 N 
ATOM      6  CZ  ARG D 557     -24.849  -1.799 -14.149  1.00 35.49     0.666 C 
ATOM      7  NH1 ARG D 557     -25.732  -2.766 -13.985  1.00 35.49    -0.235 N 
ATOM      8  NH2 ARG D 557     -23.748  -1.797 -13.455  1.00 35.49    -0.235 N 
ATOM      9  HH  ARG D 557     -26.462  -2.789 -14.433  1.00 35.49     0.174 HD
ATOM     10  HH  ARG D 557     -25.560  -3.382 -13.415  1.00 35.49     0.174 HD
ATOM     11  HH  ARG D 557     -23.193  -1.164 -13.588  1.00 35.49     0.174 HD
ATOM     12  HH  ARG D 557     -23.595  -2.416 -12.897  1.00 35.49     0.174 HD
ATOM     13  HE  ARG D 557     -24.444  -0.199 -14.992  1.00 35.49     0.178 HD
ENDBRANCH   4   5
ENDBRANCH   3   4
ENDBRANCH   2   3
ENDBRANCH   1   2
END_RES ARG D 557
BEGIN_RES GLU D 570
REMARK  3 active torsions:
REMARK  status: ('A' for Active; 'I' for Inactive)
REMARK    5  A    between atoms: CA   and  CB  
REMARK    6  A    between atoms: CB   and  CG  
REMARK    7  A    between atoms: CG   and  CD  
ROOT
ATOM     14  CA  GLU D 570     -18.033  -6.348 -13.375  1.00 32.92     0.160 C 
ENDROOT
BRANCH  14  15
ATOM     15  CB  GLU D 570     -19.500  -6.345 -13.794  1.00 32.92     0.043 C 
BRANCH  15  16
ATOM     16  CG  GLU D 570     -20.073  -7.623 -14.291  1.00 32.92     0.100 C 
BRANCH  16  17
ATOM     17  CD  GLU D 570     -20.640  -7.511 -15.687  1.00 32.92     0.185 C 
ATOM     18  OE1 GLU D 570     -20.620  -6.406 -16.262  1.00 32.92    -0.647 OA
ATOM     19  OE2 GLU D 570     -21.124  -8.537 -16.205  1.00 32.92    -0.647 OA
ENDBRANCH  16  17
ENDBRANCH  15  16
ENDBRANCH  14  15
END_RES GLU D 570
ENDMDL
MODEL 6
REMARK VINA RESULT:      -6.0      2.200      5.738
REMARK WARNING: 32 MAX_TORS EXCEEDED!!!
REMARK  62 active torsions:
REMARK  status: ('A' for Active; 'I' for Inactive)
REMARK    1  A    between atoms: C_2  and  C_4 
REMARK    2  A    between atoms: C_4  and  C_5 
REMARK    3  A    between atoms: C_5  and  C_6 
REMARK    4  A    between atoms: C_6  and  C_7 
REMARK    5  A    between atoms: C_7  and  C_8 
REMARK    6  A    between atoms: C_8  and  C_9 
REMARK    7  A    between atoms: C_9  and  C_10 
REMARK    8  A    between atoms: C_10  and  C_11 
REMARK    9  A    between atoms: C_11  and  C_12 
REMARK   10  A    between atoms: C_12  and  C_13 
REMARK   11  A    between atoms: C_13  and  C_14 
REMARK   12  A    between atoms: C_14  and  C_15 
REMARK   13  A    between atoms: C_15  and  C_16 
REMARK   14  A    between atoms: C_16  and  C_17 
REMARK   15  A    between atoms: C_17  and  C_18 
REMARK   16  A    between atoms: C_18  and  O_20 
REMARK   17  A    between atoms: O_20  and  C_21 
REMARK   18  A    between atoms: C_21  and  C_22 
REMARK   19  A    between atoms: C_22  and  O_23 
REMARK   20  A    between atoms: O_23  and  C_24 
REMARK   21  A    between atoms: C_24  and  C_25 
REMARK   22  A    between atoms: C_25  and  C_26 
REMARK   23  A    between atoms: C_25  and  O_50 
REMARK   24  A    between atoms: C_26  and  O_27 
REMARK   25  A    between atoms: O_27  and  C_28 
REMARK   26  A    between atoms: C_28  and  C_29 
REMARK   27  A    between atoms: C_29  and  O_30 
REMARK   28  A    between atoms: O_30  and  C_31 
REMARK   29  A    between atoms: C_31  and  C_33 
REMARK   30  A    between atoms: C_33  and  C_34 
REMARK   31  A    between atoms: C_34  and  C_35 
REMARK   32  A    between atoms: C_35  and  C_36 
REMARK   33  A    between atoms: C_36  and  C_37 
REMARK   34  A    between atoms: C_37  and  C_38 
REMARK   35  A    between atoms: C_38  and  C_39 
REMARK   36  A    between atoms: C_39  and  C_40 
REMARK   37  A    between atoms: C_40  and  C_41 
REMARK   38  A    between atoms: C_41  and  C_42 
REMARK   39  A    between atoms: C_42  and  C_43 
REMARK   40  A    between atoms: C_43  and  C_44 
REMARK   41  A    between atoms: C_44  and  C_45 
REMARK   42  A    between atoms: C_45  and  C_46 
REMARK   43  A    between atoms: C_46  and  C_47 
REMARK   44  A    between atoms: O_50  and  C_51 
REMARK   45  A    between atoms: C_51  and  C_52 
REMARK   46  A    between atoms: C_52  and  O_53 
REMARK   47  A    between atoms: O_53  and  C_54 
REMARK   48  A    between atoms: C_54  and  C_56 
REMARK   49  A    between atoms: C_56  and  C_57 
REMARK   50  A    between atoms: C_57  and  C_58 
REMARK   51  A    between atoms: C_58  and  C_59 
REMARK   52  A    between atoms: C_59  and  C_60 
REMARK   53  A    between atoms: C_60  and  C_61 
REMARK   54  A    between atoms: C_61  and  C_62 
REMARK   55  A    between atoms: C_62  and  C_63 
REMARK   56  A    between atoms: C_63  and  C_64 
REMARK   57  A    between atoms: C_64  and  C_65 
REMARK   58  A    between atoms: C_65  and  C_66 
REMARK   59  A    between atoms: C_66  and  C_67 
REMARK   60  A    between atoms: C_67  and  C_68 
REMARK   61  A    between atoms: C_68  and  C_69 
REMARK   62  A    between atoms: C_69  and  C_70 
ROOT
HETATM    1  C   UNL     1     -20.149 -12.183  -6.361  1.00  0.00     0.169 C 
ENDROOT
BRANCH   1   2
HETATM    2  C   UNL     1     -19.188 -12.277  -7.548  1.00  0.00     0.201 C 
BRANCH   2   3
HETATM    3  O   UNL     1     -19.482 -13.401  -8.376  1.00  0.00    -0.386 OA
BRANCH   3   4
HETATM    4  C   UNL     1     -18.309 -14.145  -8.732  1.00  0.00     0.194 C 
BRANCH   4   5
HETATM    5  C   UNL     1     -17.342 -14.259  -7.570  1.00  0.00     0.205 C 
BRANCH   5   6
HETATM    6  O   UNL     1     -17.613 -15.411  -6.778  1.00  0.00    -0.319 OA
BRANCH   6   7
HETATM    7  C   UNL     1     -18.169 -15.178  -5.530  1.00  0.00     0.258 C 
HETATM    8  O   UNL     1     -19.184 -15.679  -5.085  1.00  0.00    -0.265 OA
BRANCH   7   9
HETATM    9  C   UNL     1     -17.424 -14.144  -4.750  1.00  0.00     0.111 C 
BRANCH   9  10
HETATM   10  C   UNL     1     -16.656 -14.833  -3.638  1.00  0.00     0.010 C 
BRANCH  10  11
HETATM   11  C   UNL     1     -15.167 -14.909  -3.951  1.00  0.00     0.000 C 
BRANCH  11  12
HETATM   12  C   UNL     1     -14.366 -14.315  -2.811  1.00  0.00     0.000 C 
BRANCH  12  13
HETATM   13  C   UNL     1     -13.315 -13.365  -3.353  1.00  0.00     0.000 C 
BRANCH  13  14
HETATM   14  C   UNL     1     -13.426 -13.277  -4.864  1.00  0.00     0.000 C 
BRANCH  14  15
HETATM   15  C   UNL     1     -13.768 -11.857  -5.274  1.00  0.00     0.000 C 
BRANCH  15  16
HETATM   16  C   UNL     1     -14.953 -11.867  -6.221  1.00  0.00     0.000 C 
BRANCH  16  17
HETATM   17  C   UNL     1     -15.950 -10.803  -5.810  1.00  0.00     0.000 C 
BRANCH  17  18
HETATM   18  C   UNL     1     -15.322  -9.874  -4.791  1.00  0.00     0.000 C 
BRANCH  18  19
HETATM   19  C   UNL     1     -16.248  -9.709  -3.604  1.00  0.00     0.000 C 
BRANCH  19  20
HETATM   20  C   UNL     1     -16.046 -10.864  -2.642  1.00  0.00     0.000 C 
BRANCH  20  21
HETATM   21  C   UNL     1     -17.393 -11.407  -2.226  1.00  0.00     0.000 C 
BRANCH  21  22
HETATM   22  C   UNL     1     -17.415 -11.697  -0.734  1.00  0.00     0.004 C 
BRANCH  22  23
HETATM   23  C   UNL     1     -16.319 -12.694  -0.354  1.00  0.00    -0.023 C 
HETATM   24  C   UNL     1     -15.518 -12.148   0.821  1.00  0.00     0.009 C 
HETATM   25  C   UNL     1     -16.920 -14.047   0.021  1.00  0.00     0.009 C 
ENDBRANCH  22  23
ENDBRANCH  21  22
ENDBRANCH  20  21
ENDBRANCH  19  20
ENDBRANCH  18  19
ENDBRANCH  17  18
ENDBRANCH  16  17
ENDBRANCH  15  16
ENDBRANCH  14  15
ENDBRANCH  13  14
ENDBRANCH  12  13
ENDBRANCH  11  12
ENDBRANCH  10  11
ENDBRANCH   9  10
ENDBRANCH   7   9
ENDBRANCH   6   7
ENDBRANCH   5   6
ENDBRANCH   4   5
ENDBRANCH   3   4
ENDBRANCH   2   3
ENDBRANCH   1   2
BRANCH   1  26
HETATM   26  C   UNL     1     -19.602 -11.187  -5.346  1.00  0.00     0.201 C 
BRANCH  26  27
HETATM   27  O   UNL     1     -19.247  -9.972  -5.994  1.00  0.00    -0.386 OA
BRANCH  27  28
HETATM   28  C   UNL     1     -19.425  -8.854  -5.125  1.00  0.00     0.194 C 
BRANCH  28  29
HETATM   29  C   UNL     1     -20.876  -8.491  -4.979  1.00  0.00     0.205 C 
BRANCH  29  30
HETATM   30  O   UNL     1     -21.244  -7.541  -5.991  1.00  0.00    -0.319 OA
BRANCH  30  31
HETATM   31  C   UNL     1     -21.662  -6.334  -5.514  1.00  0.00     0.258 C 
HETATM   32  O   UNL     1     -22.778  -6.091  -5.066  1.00  0.00    -0.265 OA
BRANCH  31  33
HETATM   33  C   UNL     1     -20.548  -5.313  -5.541  1.00  0.00     0.111 C 
BRANCH  33  34
HETATM   34  C   UNL     1     -20.814  -4.246  -6.594  1.00  0.00     0.010 C 
BRANCH  34  35
HETATM   35  C   UNL     1     -19.940  -4.454  -7.826  1.00  0.00     0.000 C 
BRANCH  35  36
HETATM   36  C   UNL     1     -20.783  -4.402  -9.087  1.00  0.00     0.000 C 
BRANCH  36  37
HETATM   37  C   UNL     1     -22.160  -3.849  -8.766  1.00  0.00     0.000 C 
BRANCH  37  38
HETATM   38  C   UNL     1     -22.966  -3.689 -10.042  1.00  0.00     0.000 C 
BRANCH  38  39
HETATM   39  C   UNL     1     -22.409  -4.596 -11.123  1.00  0.00     0.000 C 
BRANCH  39  40
HETATM   40  C   UNL     1     -22.141  -3.793 -12.381  1.00  0.00     0.000 C 
BRANCH  40  41
HETATM   41  C   UNL     1     -23.001  -2.544 -12.388  1.00  0.00     0.000 C 
BRANCH  41  42
HETATM   42  C   UNL     1     -23.741  -2.441 -13.707  1.00  0.00     0.000 C 
BRANCH  42  43
HETATM   43  C   UNL     1     -25.087  -3.123 -13.596  1.00  0.00     0.000 C 
BRANCH  43  44
HETATM   44  C   UNL     1     -25.285  -4.056 -14.774  1.00  0.00     0.000 C 
BRANCH  44  45
HETATM   45  C   UNL     1     -26.758  -4.139 -15.103  1.00  0.00     0.000 C 
BRANCH  45  46
HETATM   46  C   UNL     1     -26.989  -5.078 -16.278  1.00  0.00     0.004 C 
BRANCH  46  47
HETATM   47  C   UNL     1     -28.254  -5.911 -16.069  1.00  0.00    -0.023 C 
HETATM   48  C   UNL     1     -29.023  -6.068 -17.380  1.00  0.00     0.009 C 
HETATM   49  C   UNL     1     -27.877  -7.286 -15.531  1.00  0.00     0.009 C 
ENDBRANCH  46  47
ENDBRANCH  45  46
ENDBRANCH  44  45
ENDBRANCH  43  44
ENDBRANCH  42  43
ENDBRANCH  41  42
ENDBRANCH  40  41
ENDBRANCH  39  40
ENDBRANCH  38  39
ENDBRANCH  37  38
ENDBRANCH  36  37
ENDBRANCH  35  36
ENDBRANCH  34  35
ENDBRANCH  33  34
ENDBRANCH  31  33
ENDBRANCH  30  31
ENDBRANCH  29  30
ENDBRANCH  28  29
ENDBRANCH  27  28
ENDBRANCH  26  27
ENDBRANCH   1  26
BRANCH   1  50
HETATM   50  O   UNL     1     -21.499 -11.880  -6.752  1.00  0.00    -0.380 OA
BRANCH  50  51
HETATM   51  C   UNL     1     -22.505 -12.352  -5.887  1.00  0.00     0.195 C 
BRANCH  51  52
HETATM   52  C   UNL     1     -22.233 -13.809  -5.622  1.00  0.00     0.205 C 
BRANCH  52  53
HETATM   53  O   UNL     1     -23.341 -14.482  -5.027  1.00  0.00    -0.319 OA
BRANCH  53  54
HETATM   54  C   UNL     1     -23.077 -15.286  -3.953  1.00  0.00     0.258 C 
HETATM   55  O   UNL     1     -22.176 -16.029  -3.800  1.00  0.00    -0.265 OA
BRANCH  54  56
HETATM   56  C   UNL     1     -24.094 -15.159  -2.877  1.00  0.00     0.111 C 
BRANCH  56  57
HETATM   57  C   UNL     1     -23.487 -15.463  -1.527  1.00  0.00     0.010 C 
BRANCH  57  58
HETATM   58  C   UNL     1     -24.385 -15.019  -0.380  1.00  0.00     0.000 C 
BRANCH  58  59
HETATM   59  C   UNL     1     -23.626 -15.092   0.932  1.00  0.00     0.000 C 
BRANCH  59  60
HETATM   60  C   UNL     1     -22.923 -13.776   1.202  1.00  0.00     0.000 C 
BRANCH  60  61
HETATM   61  C   UNL     1     -21.419 -13.977   1.191  1.00  0.00     0.000 C 
BRANCH  61  62
HETATM   62  C   UNL     1     -20.772 -12.989   0.240  1.00  0.00     0.000 C 
BRANCH  62  63
HETATM   63  C   UNL     1     -20.436 -13.677  -1.069  1.00  0.00     0.000 C 
BRANCH  63  64
HETATM   64  C   UNL     1     -20.927 -12.839  -2.233  1.00  0.00     0.000 C 
BRANCH  64  65
HETATM   65  C   UNL     1     -21.406 -11.493  -1.728  1.00  0.00     0.000 C 
BRANCH  65  66
HETATM   66  C   UNL     1     -22.782 -11.196  -2.284  1.00  0.00     0.000 C 
BRANCH  66  67
HETATM   67  C   UNL     1     -23.778 -11.095  -1.144  1.00  0.00     0.000 C 
BRANCH  67  68
HETATM   68  C   UNL     1     -23.114 -10.431   0.040  1.00  0.00     0.000 C 
BRANCH  68  69
HETATM   69  C   UNL     1     -23.570  -8.986   0.169  1.00  0.00     0.004 C 
BRANCH  69  70
HETATM   70  C   UNL     1     -22.379  -8.056   0.399  1.00  0.00    -0.023 C 
HETATM   71  C   UNL     1     -21.180  -8.832   0.941  1.00  0.00     0.009 C 
HETATM   72  C   UNL     1     -21.997  -7.382  -0.913  1.00  0.00     0.009 C 
ENDBRANCH  69  70
ENDBRANCH  68  69
ENDBRANCH  67  68
ENDBRANCH  66  67
ENDBRANCH  65  66
ENDBRANCH  64  65
ENDBRANCH  63  64
ENDBRANCH  62  63
ENDBRANCH  61  62
ENDBRANCH  60  61
ENDBRANCH  59  60
ENDBRANCH  58  59
ENDBRANCH  57  58
ENDBRANCH  56  57
ENDBRANCH  54  56
ENDBRANCH  53  54
ENDBRANCH  52  53
ENDBRANCH  51  52
ENDBRANCH  50  51
ENDBRANCH   1  50
TORSDOF 62
BEGIN_RES ARG D 557
REMARK  4 active torsions:
REMARK  status: ('A' for Active; 'I' for Inactive)
REMARK    1  A    between atoms: CA   and  CB  
REMARK    2  A    between atoms: CB   and  CG  
REMARK    3  A    between atoms: CG   and  CD  
REMARK    4  A    between atoms: CD   and  NE  
REMARK       I    between atoms: NE   and  CZ  
REMARK       I    between atoms: CZ   and  NH1 
REMARK       I    between atoms: CZ   and  NH2 
ROOT
ATOM      1  CA  ARG D 557     -26.217   2.705 -17.014  1.00 35.49     0.159 C 
ENDROOT
BRANCH   1   2
ATOM      2  CB  ARG D 557     -26.789   1.319 -17.183  1.00 35.49     0.034 C 
BRANCH   2   3
ATOM      3  CG  ARG D 557     -25.979   0.204 -16.678  1.00 35.49     0.027 C 
BRANCH   3   4
ATOM      4  CD  ARG D 557     -26.755  -0.709 -15.807  1.00 35.49     0.116 C 
BRANCH   4   5
ATOM      5  NE  ARG D 557     -27.591  -1.601 -16.566  1.00 35.49    -0.212 N 
ATOM      6  CZ  ARG D 557     -28.844  -1.384 -16.898  1.00 35.49     0.666 C 
ATOM      7  NH1 ARG D 557     -29.492  -0.290 -16.544  1.00 35.49    -0.235 N 
ATOM      8  NH2 ARG D 557     -29.444  -2.295 -17.608  1.00 35.49    -0.235 N 
ATOM      9  HH  ARG D 557     -29.116   0.324 -16.078  1.00 35.49     0.174 HD
ATOM     10  HH  ARG D 557     -30.307  -0.201 -16.791  1.00 35.49     0.174 HD
ATOM     11  HH  ARG D 557     -28.998  -2.988 -17.828  1.00 35.49     0.174 HD
ATOM     12  HH  ARG D 557     -30.251  -2.189 -17.845  1.00 35.49     0.174 HD
ATOM     13  HE  ARG D 557     -27.276  -2.363 -16.774  1.00 35.49     0.178 HD
ENDBRANCH   4   5
ENDBRANCH   3   4
ENDBRANCH   2   3
ENDBRANCH   1   2
END_RES ARG D 557
BEGIN_RES GLU D 570
REMARK  3 active torsions:
REMARK  status: ('A' for Active; 'I' for Inactive)
REMARK    5  A    between atoms: CA   and  CB  
REMARK    6  A    between atoms: CB   and  CG  
REMARK    7  A    between atoms: CG   and  CD  
ROOT
ATOM     14  CA  GLU D 570     -18.033  -6.348 -13.375  1.00 32.92     0.160 C 
ENDROOT
BRANCH  14  15
ATOM     15  CB  GLU D 570     -19.500  -6.345 -13.794  1.00 32.92     0.043 C 
BRANCH  15  16
ATOM     16  CG  GLU D 570     -20.076  -7.625 -14.281  1.00 32.92     0.100 C 
BRANCH  16  17
ATOM     17  CD  GLU D 570     -21.187  -7.428 -15.285  1.00 32.92     0.185 C 
ATOM     18  OE1 GLU D 570     -22.116  -6.644 -15.013  1.00 32.92    -0.647 OA
ATOM     19  OE2 GLU D 570     -21.136  -8.078 -16.348  1.00 32.92    -0.647 OA
ENDBRANCH  16  17
ENDBRANCH  15  16
ENDBRANCH  14  15
END_RES GLU D 570
ENDMDL
MODEL 7
REMARK VINA RESULT:      -5.9      2.306     13.181
REMARK WARNING: 32 MAX_TORS EXCEEDED!!!
REMARK  62 active torsions:
REMARK  status: ('A' for Active; 'I' for Inactive)
REMARK    1  A    between atoms: C_2  and  C_4 
REMARK    2  A    between atoms: C_4  and  C_5 
REMARK    3  A    between atoms: C_5  and  C_6 
REMARK    4  A    between atoms: C_6  and  C_7 
REMARK    5  A    between atoms: C_7  and  C_8 
REMARK    6  A    between atoms: C_8  and  C_9 
REMARK    7  A    between atoms: C_9  and  C_10 
REMARK    8  A    between atoms: C_10  and  C_11 
REMARK    9  A    between atoms: C_11  and  C_12 
REMARK   10  A    between atoms: C_12  and  C_13 
REMARK   11  A    between atoms: C_13  and  C_14 
REMARK   12  A    between atoms: C_14  and  C_15 
REMARK   13  A    between atoms: C_15  and  C_16 
REMARK   14  A    between atoms: C_16  and  C_17 
REMARK   15  A    between atoms: C_17  and  C_18 
REMARK   16  A    between atoms: C_18  and  O_20 
REMARK   17  A    between atoms: O_20  and  C_21 
REMARK   18  A    between atoms: C_21  and  C_22 
REMARK   19  A    between atoms: C_22  and  O_23 
REMARK   20  A    between atoms: O_23  and  C_24 
REMARK   21  A    between atoms: C_24  and  C_25 
REMARK   22  A    between atoms: C_25  and  C_26 
REMARK   23  A    between atoms: C_25  and  O_50 
REMARK   24  A    between atoms: C_26  and  O_27 
REMARK   25  A    between atoms: O_27  and  C_28 
REMARK   26  A    between atoms: C_28  and  C_29 
REMARK   27  A    between atoms: C_29  and  O_30 
REMARK   28  A    between atoms: O_30  and  C_31 
REMARK   29  A    between atoms: C_31  and  C_33 
REMARK   30  A    between atoms: C_33  and  C_34 
REMARK   31  A    between atoms: C_34  and  C_35 
REMARK   32  A    between atoms: C_35  and  C_36 
REMARK   33  A    between atoms: C_36  and  C_37 
REMARK   34  A    between atoms: C_37  and  C_38 
REMARK   35  A    between atoms: C_38  and  C_39 
REMARK   36  A    between atoms: C_39  and  C_40 
REMARK   37  A    between atoms: C_40  and  C_41 
REMARK   38  A    between atoms: C_41  and  C_42 
REMARK   39  A    between atoms: C_42  and  C_43 
REMARK   40  A    between atoms: C_43  and  C_44 
REMARK   41  A    between atoms: C_44  and  C_45 
REMARK   42  A    between atoms: C_45  and  C_46 
REMARK   43  A    between atoms: C_46  and  C_47 
REMARK   44  A    between atoms: O_50  and  C_51 
REMARK   45  A    between atoms: C_51  and  C_52 
REMARK   46  A    between atoms: C_52  and  O_53 
REMARK   47  A    between atoms: O_53  and  C_54 
REMARK   48  A    between atoms: C_54  and  C_56 
REMARK   49  A    between atoms: C_56  and  C_57 
REMARK   50  A    between atoms: C_57  and  C_58 
REMARK   51  A    between atoms: C_58  and  C_59 
REMARK   52  A    between atoms: C_59  and  C_60 
REMARK   53  A    between atoms: C_60  and  C_61 
REMARK   54  A    between atoms: C_61  and  C_62 
REMARK   55  A    between atoms: C_62  and  C_63 
REMARK   56  A    between atoms: C_63  and  C_64 
REMARK   57  A    between atoms: C_64  and  C_65 
REMARK   58  A    between atoms: C_65  and  C_66 
REMARK   59  A    between atoms: C_66  and  C_67 
REMARK   60  A    between atoms: C_67  and  C_68 
REMARK   61  A    between atoms: C_68  and  C_69 
REMARK   62  A    between atoms: C_69  and  C_70 
ROOT
HETATM    1  C   UNL     1     -20.556 -10.858  -4.851  1.00  0.00     0.169 C 
ENDROOT
BRANCH   1   2
HETATM    2  C   UNL     1     -20.342  -9.344  -4.783  1.00  0.00     0.201 C 
BRANCH   2   3
HETATM    3  O   UNL     1     -21.122  -8.658  -5.762  1.00  0.00    -0.386 OA
BRANCH   3   4
HETATM    4  C   UNL     1     -21.500  -7.341  -5.340  1.00  0.00     0.194 C 
BRANCH   4   5
HETATM    5  C   UNL     1     -20.504  -6.295  -5.801  1.00  0.00     0.205 C 
BRANCH   5   6
HETATM    6  O   UNL     1     -20.335  -6.323  -7.214  1.00  0.00    -0.319 OA
BRANCH   6   7
HETATM    7  C   UNL     1     -19.962  -5.129  -7.809  1.00  0.00     0.258 C 
HETATM    8  O   UNL     1     -18.980  -4.463  -7.542  1.00  0.00    -0.265 OA
BRANCH   7   9
HETATM    9  C   UNL     1     -20.955  -4.651  -8.817  1.00  0.00     0.111 C 
BRANCH   9  10
HETATM   10  C   UNL     1     -20.249  -4.459 -10.146  1.00  0.00     0.010 C 
BRANCH  10  11
HETATM   11  C   UNL     1     -21.169  -3.828 -11.183  1.00  0.00     0.000 C 
BRANCH  11  12
HETATM   12  C   UNL     1     -22.605  -3.886 -10.706  1.00  0.00     0.000 C 
BRANCH  12  13
HETATM   13  C   UNL     1     -23.416  -4.795 -11.609  1.00  0.00     0.000 C 
BRANCH  13  14
HETATM   14  C   UNL     1     -22.774  -4.870 -12.982  1.00  0.00     0.000 C 
BRANCH  14  15
HETATM   15  C   UNL     1     -23.335  -6.051 -13.751  1.00  0.00     0.000 C 
BRANCH  15  16
HETATM   16  C   UNL     1     -24.306  -5.562 -14.809  1.00  0.00     0.000 C 
BRANCH  16  17
HETATM   17  C   UNL     1     -24.788  -6.729 -15.645  1.00  0.00     0.000 C 
BRANCH  17  18
HETATM   18  C   UNL     1     -26.301  -6.722 -15.718  1.00  0.00     0.000 C 
BRANCH  18  19
HETATM   19  C   UNL     1     -26.756  -5.873 -16.888  1.00  0.00     0.000 C 
BRANCH  19  20
HETATM   20  C   UNL     1     -27.442  -4.625 -16.369  1.00  0.00     0.000 C 
BRANCH  20  21
HETATM   21  C   UNL     1     -28.556  -4.239 -17.314  1.00  0.00     0.000 C 
BRANCH  21  22
HETATM   22  C   UNL     1     -28.836  -5.363 -18.299  1.00  0.00     0.004 C 
BRANCH  22  23
HETATM   23  C   UNL     1     -30.207  -5.989 -18.039  1.00  0.00    -0.023 C 
HETATM   24  C   UNL     1     -30.050  -7.487 -17.816  1.00  0.00     0.009 C 
HETATM   25  C   UNL     1     -30.870  -5.357 -16.816  1.00  0.00     0.009 C 
ENDBRANCH  22  23
ENDBRANCH  21  22
ENDBRANCH  20  21
ENDBRANCH  19  20
ENDBRANCH  18  19
ENDBRANCH  17  18
ENDBRANCH  16  17
ENDBRANCH  15  16
ENDBRANCH  14  15
ENDBRANCH  13  14
ENDBRANCH  12  13
ENDBRANCH  11  12
ENDBRANCH  10  11
ENDBRANCH   9  10
ENDBRANCH   7   9
ENDBRANCH   6   7
ENDBRANCH   5   6
ENDBRANCH   4   5
ENDBRANCH   3   4
ENDBRANCH   2   3
ENDBRANCH   1   2
BRANCH   1  26
HETATM   26  C   UNL     1     -20.840 -11.391  -3.452  1.00  0.00     0.201 C 
BRANCH  26  27
HETATM   27  O   UNL     1     -19.693 -11.233  -2.625  1.00  0.00    -0.386 OA
BRANCH  27  28
HETATM   28  C   UNL     1     -19.630 -12.256  -1.632  1.00  0.00     0.194 C 
BRANCH  28  29
HETATM   29  C   UNL     1     -18.760 -11.852  -0.475  1.00  0.00     0.205 C 
BRANCH  29  30
HETATM   30  O   UNL     1     -17.761 -12.856  -0.244  1.00  0.00    -0.319 OA
BRANCH  30  31
HETATM   31  C   UNL     1     -16.700 -12.812  -1.099  1.00  0.00     0.258 C 
HETATM   32  O   UNL     1     -16.380 -13.697  -1.887  1.00  0.00    -0.265 OA
BRANCH  31  33
HETATM   33  C   UNL     1     -15.975 -11.489  -1.012  1.00  0.00     0.111 C 
BRANCH  33  34
HETATM   34  C   UNL     1     -15.503 -11.037  -2.388  1.00  0.00     0.010 C 
BRANCH  34  35
HETATM   35  C   UNL     1     -16.283  -9.819  -2.869  1.00  0.00     0.000 C 
BRANCH  35  36
HETATM   36  C   UNL     1     -16.686  -9.988  -4.322  1.00  0.00     0.000 C 
BRANCH  36  37
HETATM   37  C   UNL     1     -16.990 -11.448  -4.608  1.00  0.00     0.000 C 
BRANCH  37  38
HETATM   38  C   UNL     1     -16.590 -11.793  -6.030  1.00  0.00     0.000 C 
BRANCH  38  39
HETATM   39  C   UNL     1     -15.237 -11.186  -6.348  1.00  0.00     0.000 C 
BRANCH  39  40
HETATM   40  C   UNL     1     -14.186 -12.277  -6.426  1.00  0.00     0.000 C 
BRANCH  40  41
HETATM   41  C   UNL     1     -13.424 -12.351  -5.117  1.00  0.00     0.000 C 
BRANCH  41  42
HETATM   42  C   UNL     1     -13.716 -13.672  -4.432  1.00  0.00     0.000 C 
BRANCH  42  43
HETATM   43  C   UNL     1     -13.003 -13.728  -3.099  1.00  0.00     0.000 C 
BRANCH  43  44
HETATM   44  C   UNL     1     -12.786 -15.173  -2.696  1.00  0.00     0.000 C 
BRANCH  44  45
HETATM   45  C   UNL     1     -12.930 -15.300  -1.196  1.00  0.00     0.000 C 
BRANCH  45  46
HETATM   46  C   UNL     1     -13.144 -13.934  -0.564  1.00  0.00     0.004 C 
BRANCH  46  47
HETATM   47  C   UNL     1     -13.080 -14.023   0.962  1.00  0.00    -0.023 C 
HETATM   48  C   UNL     1     -14.483 -14.101   1.561  1.00  0.00     0.009 C 
HETATM   49  C   UNL     1     -12.284 -15.257   1.368  1.00  0.00     0.009 C 
ENDBRANCH  46  47
ENDBRANCH  45  46
ENDBRANCH  44  45
ENDBRANCH  43  44
ENDBRANCH  42  43
ENDBRANCH  41  42
ENDBRANCH  40  41
ENDBRANCH  39  40
ENDBRANCH  38  39
ENDBRANCH  37  38
ENDBRANCH  36  37
ENDBRANCH  35  36
ENDBRANCH  34  35
ENDBRANCH  33  34
ENDBRANCH  31  33
ENDBRANCH  30  31
ENDBRANCH  29  30
ENDBRANCH  28  29
ENDBRANCH  27  28
ENDBRANCH  26  27
ENDBRANCH   1  26
BRANCH   1  50
HETATM   50  O   UNL     1     -21.567 -11.242  -5.798  1.00  0.00    -0.380 OA
BRANCH  50  51
HETATM   51  C   UNL     1     -21.161 -12.161  -6.785  1.00  0.00     0.195 C 
BRANCH  51  52
HETATM   52  C   UNL     1     -21.651 -13.523  -6.370  1.00  0.00     0.205 C 
BRANCH  52  53
HETATM   53  O   UNL     1     -22.895 -13.477  -5.674  1.00  0.00    -0.319 OA
BRANCH  53  54
HETATM   54  C   UNL     1     -23.667 -14.606  -5.704  1.00  0.00     0.258 C 
HETATM   55  O   UNL     1     -24.573 -14.853  -6.414  1.00  0.00    -0.265 OA
BRANCH  54  56
HETATM   56  C   UNL     1     -23.258 -15.608  -4.685  1.00  0.00     0.111 C 
BRANCH  56  57
HETATM   57  C   UNL     1     -24.149 -15.529  -3.468  1.00  0.00     0.010 C 
BRANCH  57  58
HETATM   58  C   UNL     1     -23.457 -14.857  -2.290  1.00  0.00     0.000 C 
BRANCH  58  59
HETATM   59  C   UNL     1     -21.952 -15.017  -2.412  1.00  0.00     0.000 C 
BRANCH  59  60
HETATM   60  C   UNL     1     -21.360 -15.417  -1.075  1.00  0.00     0.000 C 
BRANCH  60  61
HETATM   61  C   UNL     1     -22.251 -16.442  -0.398  1.00  0.00     0.000 C 
BRANCH  61  62
HETATM   62  C   UNL     1     -22.285 -16.191   1.098  1.00  0.00     0.000 C 
BRANCH  62  63
HETATM   63  C   UNL     1     -21.518 -14.925   1.426  1.00  0.00     0.000 C 
BRANCH  63  64
HETATM   64  C   UNL     1     -22.413 -13.962   2.181  1.00  0.00     0.000 C 
BRANCH  64  65
HETATM   65  C   UNL     1     -23.388 -13.310   1.223  1.00  0.00     0.000 C 
BRANCH  65  66
HETATM   66  C   UNL     1     -22.756 -12.082   0.602  1.00  0.00     0.000 C 
BRANCH  66  67
HETATM   67  C   UNL     1     -23.804 -11.314  -0.181  1.00  0.00     0.000 C 
BRANCH  67  68
HETATM   68  C   UNL     1     -23.456  -9.844  -0.167  1.00  0.00     0.000 C 
BRANCH  68  69
HETATM   69  C   UNL     1     -21.985  -9.639  -0.496  1.00  0.00     0.004 C 
BRANCH  69  70
HETATM   70  C   UNL     1     -21.532  -8.230  -0.113  1.00  0.00    -0.023 C 
HETATM   71  C   UNL     1     -22.393  -7.175  -0.805  1.00  0.00     0.009 C 
HETATM   72  C   UNL     1     -21.630  -8.056   1.398  1.00  0.00     0.009 C 
ENDBRANCH  69  70
ENDBRANCH  68  69
ENDBRANCH  67  68
ENDBRANCH  66  67
ENDBRANCH  65  66
ENDBRANCH  64  65
ENDBRANCH  63  64
ENDBRANCH  62  63
ENDBRANCH  61  62
ENDBRANCH  60  61
ENDBRANCH  59  60
ENDBRANCH  58  59
ENDBRANCH  57  58
ENDBRANCH  56  57
ENDBRANCH  54  56
ENDBRANCH  53  54
ENDBRANCH  52  53
ENDBRANCH  51  52
ENDBRANCH  50  51
ENDBRANCH   1  50
TORSDOF 62
BEGIN_RES ARG D 557
REMARK  4 active torsions:
REMARK  status: ('A' for Active; 'I' for Inactive)
REMARK    1  A    between atoms: CA   and  CB  
REMARK    2  A    between atoms: CB   and  CG  
REMARK    3  A    between atoms: CG   and  CD  
REMARK    4  A    between atoms: CD   and  NE  
REMARK       I    between atoms: NE   and  CZ  
REMARK       I    between atoms: CZ   and  NH1 
REMARK       I    between atoms: CZ   and  NH2 
ROOT
ATOM      1  CA  ARG D 557     -26.217   2.705 -17.014  1.00 35.49     0.159 C 
ENDROOT
BRANCH   1   2
ATOM      2  CB  ARG D 557     -26.789   1.319 -17.183  1.00 35.49     0.034 C 
BRANCH   2   3
ATOM      3  CG  ARG D 557     -25.836   0.203 -17.155  1.00 35.49     0.027 C 
BRANCH   3   4
ATOM      4  CD  ARG D 557     -24.722   0.436 -16.207  1.00 35.49     0.116 C 
BRANCH   4   5
ATOM      5  NE  ARG D 557     -24.842  -0.371 -15.021  1.00 35.49    -0.212 N 
ATOM      6  CZ  ARG D 557     -24.044  -1.358 -14.680  1.00 35.49     0.666 C 
ATOM      7  NH1 ARG D 557     -23.022  -1.733 -15.425  1.00 35.49    -0.235 N 
ATOM      8  NH2 ARG D 557     -24.290  -1.968 -13.557  1.00 35.49    -0.235 N 
ATOM      9  HH  ARG D 557     -22.840  -1.345 -16.167  1.00 35.49     0.174 HD
ATOM     10  HH  ARG D 557     -22.534  -2.382 -15.151  1.00 35.49     0.174 HD
ATOM     11  HH  ARG D 557     -24.953  -1.699 -13.092  1.00 35.49     0.174 HD
ATOM     12  HH  ARG D 557     -23.795  -2.607 -13.301  1.00 35.49     0.174 HD
ATOM     13  HE  ARG D 557     -25.517  -0.245 -14.519  1.00 35.49     0.178 HD
ENDBRANCH   4   5
ENDBRANCH   3   4
ENDBRANCH   2   3
ENDBRANCH   1   2
END_RES ARG D 557
BEGIN_RES GLU D 570
REMARK  3 active torsions:
REMARK  status: ('A' for Active; 'I' for Inactive)
REMARK    5  A    between atoms: CA   and  CB  
REMARK    6  A    between atoms: CB   and  CG  
REMARK    7  A    between atoms: CG   and  CD  
ROOT
ATOM     14  CA  GLU D 570     -18.033  -6.348 -13.375  1.00 32.92     0.160 C 
ENDROOT
BRANCH  14  15
ATOM     15  CB  GLU D 570     -19.500  -6.345 -13.794  1.00 32.92     0.043 C 
BRANCH  15  16
ATOM     16  CG  GLU D 570     -19.797  -6.229 -15.245  1.00 32.92     0.100 C 
BRANCH  16  17
ATOM     17  CD  GLU D 570     -20.635  -7.373 -15.768  1.00 32.92     0.185 C 
ATOM     18  OE1 GLU D 570     -21.431  -7.161 -16.703  1.00 32.92    -0.647 OA
ATOM     19  OE2 GLU D 570     -20.506  -8.488 -15.226  1.00 32.92    -0.647 OA
ENDBRANCH  16  17
ENDBRANCH  15  16
ENDBRANCH  14  15
END_RES GLU D 570
ENDMDL
MODEL 8
REMARK VINA RESULT:      -5.9      3.126      7.654
REMARK WARNING: 32 MAX_TORS EXCEEDED!!!
REMARK  62 active torsions:
REMARK  status: ('A' for Active; 'I' for Inactive)
REMARK    1  A    between atoms: C_2  and  C_4 
REMARK    2  A    between atoms: C_4  and  C_5 
REMARK    3  A    between atoms: C_5  and  C_6 
REMARK    4  A    between atoms: C_6  and  C_7 
REMARK    5  A    between atoms: C_7  and  C_8 
REMARK    6  A    between atoms: C_8  and  C_9 
REMARK    7  A    between atoms: C_9  and  C_10 
REMARK    8  A    between atoms: C_10  and  C_11 
REMARK    9  A    between atoms: C_11  and  C_12 
REMARK   10  A    between atoms: C_12  and  C_13 
REMARK   11  A    between atoms: C_13  and  C_14 
REMARK   12  A    between atoms: C_14  and  C_15 
REMARK   13  A    between atoms: C_15  and  C_16 
REMARK   14  A    between atoms: C_16  and  C_17 
REMARK   15  A    between atoms: C_17  and  C_18 
REMARK   16  A    between atoms: C_18  and  O_20 
REMARK   17  A    between atoms: O_20  and  C_21 
REMARK   18  A    between atoms: C_21  and  C_22 
REMARK   19  A    between atoms: C_22  and  O_23 
REMARK   20  A    between atoms: O_23  and  C_24 
REMARK   21  A    between atoms: C_24  and  C_25 
REMARK   22  A    between atoms: C_25  and  C_26 
REMARK   23  A    between atoms: C_25  and  O_50 
REMARK   24  A    between atoms: C_26  and  O_27 
REMARK   25  A    between atoms: O_27  and  C_28 
REMARK   26  A    between atoms: C_28  and  C_29 
REMARK   27  A    between atoms: C_29  and  O_30 
REMARK   28  A    between atoms: O_30  and  C_31 
REMARK   29  A    between atoms: C_31  and  C_33 
REMARK   30  A    between atoms: C_33  and  C_34 
REMARK   31  A    between atoms: C_34  and  C_35 
REMARK   32  A    between atoms: C_35  and  C_36 
REMARK   33  A    between atoms: C_36  and  C_37 
REMARK   34  A    between atoms: C_37  and  C_38 
REMARK   35  A    between atoms: C_38  and  C_39 
REMARK   36  A    between atoms: C_39  and  C_40 
REMARK   37  A    between atoms: C_40  and  C_41 
REMARK   38  A    between atoms: C_41  and  C_42 
REMARK   39  A    between atoms: C_42  and  C_43 
REMARK   40  A    between atoms: C_43  and  C_44 
REMARK   41  A    between atoms: C_44  and  C_45 
REMARK   42  A    between atoms: C_45  and  C_46 
REMARK   43  A    between atoms: C_46  and  C_47 
REMARK   44  A    between atoms: O_50  and  C_51 
REMARK   45  A    between atoms: C_51  and  C_52 
REMARK   46  A    between atoms: C_52  and  O_53 
REMARK   47  A    between atoms: O_53  and  C_54 
REMARK   48  A    between atoms: C_54  and  C_56 
REMARK   49  A    between atoms: C_56  and  C_57 
REMARK   50  A    between atoms: C_57  and  C_58 
REMARK   51  A    between atoms: C_58  and  C_59 
REMARK   52  A    between atoms: C_59  and  C_60 
REMARK   53  A    between atoms: C_60  and  C_61 
REMARK   54  A    between atoms: C_61  and  C_62 
REMARK   55  A    between atoms: C_62  and  C_63 
REMARK   56  A    between atoms: C_63  and  C_64 
REMARK   57  A    between atoms: C_64  and  C_65 
REMARK   58  A    between atoms: C_65  and  C_66 
REMARK   59  A    between atoms: C_66  and  C_67 
REMARK   60  A    between atoms: C_67  and  C_68 
REMARK   61  A    between atoms: C_68  and  C_69 
REMARK   62  A    between atoms: C_69  and  C_70 
ROOT
HETATM    1  C   UNL     1     -23.295  -3.990 -11.409  1.00  0.00     0.169 C 
ENDROOT
BRANCH   1   2
HETATM    2  C   UNL     1     -23.996  -3.150 -10.339  1.00  0.00     0.201 C 
BRANCH   2   3
HETATM    3  O   UNL     1     -24.426  -3.950  -9.239  1.00  0.00    -0.386 OA
BRANCH   3   4
HETATM    4  C   UNL     1     -23.332  -4.562  -8.543  1.00  0.00     0.194 C 
BRANCH   4   5
HETATM    5  C   UNL     1     -23.475  -4.425  -7.040  1.00  0.00     0.205 C 
BRANCH   5   6
HETATM    6  O   UNL     1     -22.664  -5.371  -6.351  1.00  0.00    -0.319 OA
BRANCH   6   7
HETATM    7  C   UNL     1     -23.289  -6.097  -5.350  1.00  0.00     0.258 C 
HETATM    8  O   UNL     1     -24.452  -6.003  -5.007  1.00  0.00    -0.265 OA
BRANCH   7   9
HETATM    9  C   UNL     1     -22.353  -7.010  -4.629  1.00  0.00     0.111 C 
BRANCH   9  10
HETATM   10  C   UNL     1     -21.589  -6.207  -3.592  1.00  0.00     0.010 C 
BRANCH  10  11
HETATM   11  C   UNL     1     -22.323  -6.177  -2.257  1.00  0.00     0.000 C 
BRANCH  11  12
HETATM   12  C   UNL     1     -21.815  -7.286  -1.360  1.00  0.00     0.000 C 
BRANCH  12  13
HETATM   13  C   UNL     1     -22.671  -7.379  -0.112  1.00  0.00     0.000 C 
BRANCH  13  14
HETATM   14  C   UNL     1     -22.247  -8.574   0.721  1.00  0.00     0.000 C 
BRANCH  14  15
HETATM   15  C   UNL     1     -20.868  -9.040   0.291  1.00  0.00     0.000 C 
BRANCH  15  16
HETATM   16  C   UNL     1     -20.642 -10.468   0.750  1.00  0.00     0.000 C 
BRANCH  16  17
HETATM   17  C   UNL     1     -21.875 -11.301   0.468  1.00  0.00     0.000 C 
BRANCH  17  18
HETATM   18  C   UNL     1     -21.666 -12.127  -0.784  1.00  0.00     0.000 C 
BRANCH  18  19
HETATM   19  C   UNL     1     -22.720 -11.777  -1.814  1.00  0.00     0.000 C 
BRANCH  19  20
HETATM   20  C   UNL     1     -22.228 -10.626  -2.670  1.00  0.00     0.000 C 
BRANCH  20  21
HETATM   21  C   UNL     1     -22.705 -10.822  -4.090  1.00  0.00     0.000 C 
BRANCH  21  22
HETATM   22  C   UNL     1     -22.607 -12.285  -4.491  1.00  0.00     0.004 C 
BRANCH  22  23
HETATM   23  C   UNL     1     -21.422 -12.516  -5.430  1.00  0.00    -0.023 C 
HETATM   24  C   UNL     1     -21.310 -14.001  -5.755  1.00  0.00     0.009 C 
HETATM   25  C   UNL     1     -21.590 -11.721  -6.723  1.00  0.00     0.009 C 
ENDBRANCH  22  23
ENDBRANCH  21  22
ENDBRANCH  20  21
ENDBRANCH  19  20
ENDBRANCH  18  19
ENDBRANCH  17  18
ENDBRANCH  16  17
ENDBRANCH  15  16
ENDBRANCH  14  15
ENDBRANCH  13  14
ENDBRANCH  12  13
ENDBRANCH  11  12
ENDBRANCH  10  11
ENDBRANCH   9  10
ENDBRANCH   7   9
ENDBRANCH   6   7
ENDBRANCH   5   6
ENDBRANCH   4   5
ENDBRANCH   3   4
ENDBRANCH   2   3
ENDBRANCH   1   2
BRANCH   1  26
HETATM   26  C   UNL     1     -24.198  -4.108 -12.631  1.00  0.00     0.201 C 
BRANCH  26  27
HETATM   27  O   UNL     1     -23.500  -3.692 -13.798  1.00  0.00    -0.386 OA
BRANCH  27  28
HETATM   28  C   UNL     1     -23.219  -4.800 -14.653  1.00  0.00     0.194 C 
BRANCH  28  29
HETATM   29  C   UNL     1     -24.355  -5.783 -14.677  1.00  0.00     0.205 C 
BRANCH  29  30
HETATM   30  O   UNL     1     -25.274  -5.439 -15.725  1.00  0.00    -0.319 OA
BRANCH  30  31
HETATM   31  C   UNL     1     -26.191  -6.404 -16.020  1.00  0.00     0.258 C 
HETATM   32  O   UNL     1     -26.349  -7.452 -15.402  1.00  0.00    -0.265 OA
BRANCH  31  33
HETATM   33  C   UNL     1     -27.061  -6.001 -17.188  1.00  0.00     0.111 C 
BRANCH  33  34
HETATM   34  C   UNL     1     -28.416  -6.693 -17.120  1.00  0.00     0.010 C 
BRANCH  34  35
HETATM   35  C   UNL     1     -29.499  -5.858 -17.796  1.00  0.00     0.000 C 
BRANCH  35  36
HETATM   36  C   UNL     1     -30.632  -5.578 -16.826  1.00  0.00     0.000 C 
BRANCH  36  37
HETATM   37  C   UNL     1     -31.349  -4.300 -17.224  1.00  0.00     0.000 C 
BRANCH  37  38
HETATM   38  C   UNL     1     -32.775  -4.322 -16.707  1.00  0.00     0.000 C 
BRANCH  38  39
HETATM   39  C   UNL     1     -33.528  -3.107 -17.215  1.00  0.00     0.000 C 
BRANCH  39  40
HETATM   40  C   UNL     1     -34.670  -2.776 -16.272  1.00  0.00     0.000 C 
BRANCH  40  41
HETATM   41  C   UNL     1     -35.411  -1.551 -16.773  1.00  0.00     0.000 C 
BRANCH  41  42
HETATM   42  C   UNL     1     -35.204  -0.400 -15.809  1.00  0.00     0.000 C 
BRANCH  42  43
HETATM   43  C   UNL     1     -35.861  -0.715 -14.483  1.00  0.00     0.000 C 
BRANCH  43  44
HETATM   44  C   UNL     1     -35.060  -0.095 -13.356  1.00  0.00     0.000 C 
BRANCH  44  45
HETATM   45  C   UNL     1     -35.044  -1.040 -12.176  1.00  0.00     0.000 C 
BRANCH  45  46
HETATM   46  C   UNL     1     -34.622  -2.434 -12.614  1.00  0.00     0.004 C 
BRANCH  46  47
HETATM   47  C   UNL     1     -33.654  -3.053 -11.606  1.00  0.00    -0.023 C 
HETATM   48  C   UNL     1     -33.305  -2.054 -10.504  1.00  0.00     0.009 C 
HETATM   49  C   UNL     1     -34.286  -4.294 -10.987  1.00  0.00     0.009 C 
ENDBRANCH  46  47
ENDBRANCH  45  46
ENDBRANCH  44  45
ENDBRANCH  43  44
ENDBRANCH  42  43
ENDBRANCH  41  42
ENDBRANCH  40  41
ENDBRANCH  39  40
ENDBRANCH  38  39
ENDBRANCH  37  38
ENDBRANCH  36  37
ENDBRANCH  35  36
ENDBRANCH  34  35
ENDBRANCH  33  34
ENDBRANCH  31  33
ENDBRANCH  30  31
ENDBRANCH  29  30
ENDBRANCH  28  29
ENDBRANCH  27  28
ENDBRANCH  26  27
ENDBRANCH   1  26
BRANCH   1  50
HETATM   50  O   UNL     1     -21.985  -3.499 -11.742  1.00  0.00    -0.380 OA
BRANCH  50  51
HETATM   51  C   UNL     1     -20.917  -4.372 -11.465  1.00  0.00     0.195 C 
BRANCH  51  52
HETATM   52  C   UNL     1     -20.148  -3.799 -10.305  1.00  0.00     0.205 C 
BRANCH  52  53
HETATM   53  O   UNL     1     -19.908  -4.752  -9.271  1.00  0.00    -0.319 OA
BRANCH  53  54
HETATM   54  C   UNL     1     -19.841  -4.277  -7.990  1.00  0.00     0.258 C 
HETATM   55  O   UNL     1     -20.307  -3.289  -7.552  1.00  0.00    -0.265 OA
BRANCH  54  56
HETATM   56  C   UNL     1     -19.064  -5.167  -7.089  1.00  0.00     0.111 C 
BRANCH  56  57
HETATM   57  C   UNL     1     -19.771  -6.489  -6.901  1.00  0.00     0.010 C 
BRANCH  57  58
HETATM   58  C   UNL     1     -18.984  -7.441  -6.010  1.00  0.00     0.000 C 
BRANCH  58  59
HETATM   59  C   UNL     1     -19.838  -8.642  -5.650  1.00  0.00     0.000 C 
BRANCH  59  60
HETATM   60  C   UNL     1     -19.040  -9.614  -4.803  1.00  0.00     0.000 C 
BRANCH  60  61
HETATM   61  C   UNL     1     -19.146  -9.236  -3.337  1.00  0.00     0.000 C 
BRANCH  61  62
HETATM   62  C   UNL     1     -18.055  -9.929  -2.543  1.00  0.00     0.000 C 
BRANCH  62  63
HETATM   63  C   UNL     1     -16.703  -9.646  -3.169  1.00  0.00     0.000 C 
BRANCH  63  64
HETATM   64  C   UNL     1     -15.618 -10.379  -2.404  1.00  0.00     0.000 C 
BRANCH  64  65
HETATM   65  C   UNL     1     -15.678 -11.859  -2.723  1.00  0.00     0.000 C 
BRANCH  65  66
HETATM   66  C   UNL     1     -14.371 -12.305  -3.343  1.00  0.00     0.000 C 
BRANCH  66  67
HETATM   67  C   UNL     1     -14.351 -11.924  -4.812  1.00  0.00     0.000 C 
BRANCH  67  68
HETATM   68  C   UNL     1     -15.221 -12.887  -5.587  1.00  0.00     0.000 C 
BRANCH  68  69
HETATM   69  C   UNL     1     -15.914 -12.173  -6.737  1.00  0.00     0.004 C 
BRANCH  69  70
HETATM   70  C   UNL     1     -17.432 -12.194  -6.556  1.00  0.00    -0.023 C 
HETATM   71  C   UNL     1     -18.128 -12.644  -7.839  1.00  0.00     0.009 C 
HETATM   72  C   UNL     1     -17.797 -13.141  -5.419  1.00  0.00     0.009 C 
ENDBRANCH  69  70
ENDBRANCH  68  69
ENDBRANCH  67  68
ENDBRANCH  66  67
ENDBRANCH  65  66
ENDBRANCH  64  65
ENDBRANCH  63  64
ENDBRANCH  62  63
ENDBRANCH  61  62
ENDBRANCH  60  61
ENDBRANCH  59  60
ENDBRANCH  58  59
ENDBRANCH  57  58
ENDBRANCH  56  57
ENDBRANCH  54  56
ENDBRANCH  53  54
ENDBRANCH  52  53
ENDBRANCH  51  52
ENDBRANCH  50  51
ENDBRANCH   1  50
TORSDOF 62
BEGIN_RES ARG D 557
REMARK  4 active torsions:
REMARK  status: ('A' for Active; 'I' for Inactive)
REMARK    1  A    between atoms: CA   and  CB  
REMARK    2  A    between atoms: CB   and  CG  
REMARK    3  A    between atoms: CG   and  CD  
REMARK    4  A    between atoms: CD   and  NE  
REMARK       I    between atoms: NE   and  CZ  
REMARK       I    between atoms: CZ   and  NH1 
REMARK       I    between atoms: CZ   and  NH2 
ROOT
ATOM      1  CA  ARG D 557     -26.217   2.705 -17.014  1.00 35.49     0.159 C 
ENDROOT
BRANCH   1   2
ATOM      2  CB  ARG D 557     -26.789   1.319 -17.183  1.00 35.49     0.034 C 
BRANCH   2   3
ATOM      3  CG  ARG D 557     -28.230   1.166 -16.950  1.00 35.49     0.027 C 
BRANCH   3   4
ATOM      4  CD  ARG D 557     -28.588  -0.199 -16.503  1.00 35.49     0.116 C 
BRANCH   4   5
ATOM      5  NE  ARG D 557     -27.495  -0.856 -15.836  1.00 35.49    -0.212 N 
ATOM      6  CZ  ARG D 557     -27.219  -2.139 -15.894  1.00 35.49     0.666 C 
ATOM      7  NH1 ARG D 557     -27.953  -2.992 -16.584  1.00 35.49    -0.235 N 
ATOM      8  NH2 ARG D 557     -26.173  -2.558 -15.242  1.00 35.49    -0.235 N 
ATOM      9  HH  ARG D 557     -28.644  -2.738 -17.023  1.00 35.49     0.174 HD
ATOM     10  HH  ARG D 557     -27.723  -3.817 -16.587  1.00 35.49     0.174 HD
ATOM     11  HH  ARG D 557     -25.714  -1.984 -14.810  1.00 35.49     0.174 HD
ATOM     12  HH  ARG D 557     -25.961  -3.379 -15.258  1.00 35.49     0.174 HD
ATOM     13  HE  ARG D 557     -27.012  -0.393 -15.310  1.00 35.49     0.178 HD
ENDBRANCH   4   5
ENDBRANCH   3   4
ENDBRANCH   2   3
ENDBRANCH   1   2
END_RES ARG D 557
BEGIN_RES GLU D 570
REMARK  3 active torsions:
REMARK  status: ('A' for Active; 'I' for Inactive)
REMARK    5  A    between atoms: CA   and  CB  
REMARK    6  A    between atoms: CB   and  CG  
REMARK    7  A    between atoms: CG   and  CD  
ROOT
ATOM     14  CA  GLU D 570     -18.033  -6.348 -13.375  1.00 32.92     0.160 C 
ENDROOT
BRANCH  14  15
ATOM     15  CB  GLU D 570     -19.500  -6.345 -13.794  1.00 32.92     0.043 C 
BRANCH  15  16
ATOM     16  CG  GLU D 570     -19.798  -6.467 -15.244  1.00 32.92     0.100 C 
BRANCH  16  17
ATOM     17  CD  GLU D 570     -20.632  -7.683 -15.574  1.00 32.92     0.185 C 
ATOM     18  OE1 GLU D 570     -20.131  -8.816 -15.442  1.00 32.92    -0.647 OA
ATOM     19  OE2 GLU D 570     -21.795  -7.500 -15.986  1.00 32.92    -0.647 OA
ENDBRANCH  16  17
ENDBRANCH  15  16
ENDBRANCH  14  15
END_RES GLU D 570
ENDMDL
MODEL 9
REMARK VINA RESULT:      -5.9      1.574      2.460
REMARK WARNING: 32 MAX_TORS EXCEEDED!!!
REMARK  62 active torsions:
REMARK  status: ('A' for Active; 'I' for Inactive)
REMARK    1  A    between atoms: C_2  and  C_4 
REMARK    2  A    between atoms: C_4  and  C_5 
REMARK    3  A    between atoms: C_5  and  C_6 
REMARK    4  A    between atoms: C_6  and  C_7 
REMARK    5  A    between atoms: C_7  and  C_8 
REMARK    6  A    between atoms: C_8  and  C_9 
REMARK    7  A    between atoms: C_9  and  C_10 
REMARK    8  A    between atoms: C_10  and  C_11 
REMARK    9  A    between atoms: C_11  and  C_12 
REMARK   10  A    between atoms: C_12  and  C_13 
REMARK   11  A    between atoms: C_13  and  C_14 
REMARK   12  A    between atoms: C_14  and  C_15 
REMARK   13  A    between atoms: C_15  and  C_16 
REMARK   14  A    between atoms: C_16  and  C_17 
REMARK   15  A    between atoms: C_17  and  C_18 
REMARK   16  A    between atoms: C_18  and  O_20 
REMARK   17  A    between atoms: O_20  and  C_21 
REMARK   18  A    between atoms: C_21  and  C_22 
REMARK   19  A    between atoms: C_22  and  O_23 
REMARK   20  A    between atoms: O_23  and  C_24 
REMARK   21  A    between atoms: C_24  and  C_25 
REMARK   22  A    between atoms: C_25  and  C_26 
REMARK   23  A    between atoms: C_25  and  O_50 
REMARK   24  A    between atoms: C_26  and  O_27 
REMARK   25  A    between atoms: O_27  and  C_28 
REMARK   26  A    between atoms: C_28  and  C_29 
REMARK   27  A    between atoms: C_29  and  O_30 
REMARK   28  A    between atoms: O_30  and  C_31 
REMARK   29  A    between atoms: C_31  and  C_33 
REMARK   30  A    between atoms: C_33  and  C_34 
REMARK   31  A    between atoms: C_34  and  C_35 
REMARK   32  A    between atoms: C_35  and  C_36 
REMARK   33  A    between atoms: C_36  and  C_37 
REMARK   34  A    between atoms: C_37  and  C_38 
REMARK   35  A    between atoms: C_38  and  C_39 
REMARK   36  A    between atoms: C_39  and  C_40 
REMARK   37  A    between atoms: C_40  and  C_41 
REMARK   38  A    between atoms: C_41  and  C_42 
REMARK   39  A    between atoms: C_42  and  C_43 
REMARK   40  A    between atoms: C_43  and  C_44 
REMARK   41  A    between atoms: C_44  and  C_45 
REMARK   42  A    between atoms: C_45  and  C_46 
REMARK   43  A    between atoms: C_46  and  C_47 
REMARK   44  A    between atoms: O_50  and  C_51 
REMARK   45  A    between atoms: C_51  and  C_52 
REMARK   46  A    between atoms: C_52  and  O_53 
REMARK   47  A    between atoms: O_53  and  C_54 
REMARK   48  A    between atoms: C_54  and  C_56 
REMARK   49  A    between atoms: C_56  and  C_57 
REMARK   50  A    between atoms: C_57  and  C_58 
REMARK   51  A    between atoms: C_58  and  C_59 
REMARK   52  A    between atoms: C_59  and  C_60 
REMARK   53  A    between atoms: C_60  and  C_61 
REMARK   54  A    between atoms: C_61  and  C_62 
REMARK   55  A    between atoms: C_62  and  C_63 
REMARK   56  A    between atoms: C_63  and  C_64 
REMARK   57  A    between atoms: C_64  and  C_65 
REMARK   58  A    between atoms: C_65  and  C_66 
REMARK   59  A    between atoms: C_66  and  C_67 
REMARK   60  A    between atoms: C_67  and  C_68 
REMARK   61  A    between atoms: C_68  and  C_69 
REMARK   62  A    between atoms: C_69  and  C_70 
ROOT
HETATM    1  C   UNL     1     -20.745  -6.076  -5.182  1.00  0.00     0.169 C 
ENDROOT
BRANCH   1   2
HETATM    2  C   UNL     1     -21.567  -7.275  -5.660  1.00  0.00     0.201 C 
BRANCH   2   3
HETATM    3  O   UNL     1     -20.744  -8.416  -5.898  1.00  0.00    -0.386 OA
BRANCH   3   4
HETATM    4  C   UNL     1     -19.574  -8.434  -5.070  1.00  0.00     0.194 C 
BRANCH   4   5
HETATM    5  C   UNL     1     -19.753  -9.333  -3.862  1.00  0.00     0.205 C 
BRANCH   5   6
HETATM    6  O   UNL     1     -18.952  -8.901  -2.767  1.00  0.00    -0.319 OA
BRANCH   6   7
HETATM    7  C   UNL     1     -17.805  -9.639  -2.521  1.00  0.00     0.258 C 
HETATM    8  O   UNL     1     -16.658  -9.260  -2.660  1.00  0.00    -0.265 OA
BRANCH   7   9
HETATM    9  C   UNL     1     -18.099 -11.046  -2.117  1.00  0.00     0.111 C 
BRANCH   9  10
HETATM   10  C   UNL     1     -17.063 -11.488  -1.100  1.00  0.00     0.010 C 
BRANCH  10  11
HETATM   11  C   UNL     1     -17.708 -12.189   0.088  1.00  0.00     0.000 C 
BRANCH  11  12
HETATM   12  C   UNL     1     -16.705 -13.104   0.758  1.00  0.00     0.000 C 
BRANCH  12  13
HETATM   13  C   UNL     1     -15.461 -12.323   1.138  1.00  0.00     0.000 C 
BRANCH  13  14
HETATM   14  C   UNL     1     -14.230 -13.195   0.969  1.00  0.00     0.000 C 
BRANCH  14  15
HETATM   15  C   UNL     1     -14.633 -14.657   0.943  1.00  0.00     0.000 C 
BRANCH  15  16
HETATM   16  C   UNL     1     -13.863 -15.383  -0.145  1.00  0.00     0.000 C 
BRANCH  16  17
HETATM   17  C   UNL     1     -12.742 -14.502  -0.656  1.00  0.00     0.000 C 
BRANCH  17  18
HETATM   18  C   UNL     1     -12.734 -14.505  -2.171  1.00  0.00     0.000 C 
BRANCH  18  19
HETATM   19  C   UNL     1     -14.154 -14.552  -2.694  1.00  0.00     0.000 C 
BRANCH  19  20
HETATM   20  C   UNL     1     -14.628 -13.144  -2.995  1.00  0.00     0.000 C 
BRANCH  20  21
HETATM   21  C   UNL     1     -13.992 -12.668  -4.280  1.00  0.00     0.000 C 
BRANCH  21  22
HETATM   22  C   UNL     1     -14.510 -11.288  -4.655  1.00  0.00     0.004 C 
BRANCH  22  23
HETATM   23  C   UNL     1     -15.706 -11.393  -5.603  1.00  0.00    -0.023 C 
HETATM   24  C   UNL     1     -16.184  -9.996  -5.977  1.00  0.00     0.009 C 
HETATM   25  C   UNL     1     -15.331 -12.161  -6.869  1.00  0.00     0.009 C 
ENDBRANCH  22  23
ENDBRANCH  21  22
ENDBRANCH  20  21
ENDBRANCH  19  20
ENDBRANCH  18  19
ENDBRANCH  17  18
ENDBRANCH  16  17
ENDBRANCH  15  16
ENDBRANCH  14  15
ENDBRANCH  13  14
ENDBRANCH  12  13
ENDBRANCH  11  12
ENDBRANCH  10  11
ENDBRANCH   9  10
ENDBRANCH   7   9
ENDBRANCH   6   7
ENDBRANCH   5   6
ENDBRANCH   4   5
ENDBRANCH   3   4
ENDBRANCH   2   3
ENDBRANCH   1   2
BRANCH   1  26
HETATM   26  C   UNL     1     -20.797  -4.975  -6.234  1.00  0.00     0.201 C 
BRANCH  26  27
HETATM   27  O   UNL     1     -21.850  -5.227  -7.156  1.00  0.00    -0.386 OA
BRANCH  27  28
HETATM   28  C   UNL     1     -21.941  -4.189  -8.131  1.00  0.00     0.194 C 
BRANCH  28  29
HETATM   29  C   UNL     1     -23.004  -4.479  -9.152  1.00  0.00     0.205 C 
BRANCH  29  30
HETATM   30  O   UNL     1     -23.220  -3.321  -9.972  1.00  0.00    -0.319 OA
BRANCH  30  31
HETATM   31  C   UNL     1     -22.765  -3.435 -11.252  1.00  0.00     0.258 C 
HETATM   32  O   UNL     1     -21.909  -2.726 -11.771  1.00  0.00    -0.265 OA
BRANCH  31  33
HETATM   33  C   UNL     1     -23.402  -4.607 -11.963  1.00  0.00     0.111 C 
BRANCH  33  34
HETATM   34  C   UNL     1     -22.665  -4.923 -13.258  1.00  0.00     0.010 C 
BRANCH  34  35
HETATM   35  C   UNL     1     -23.635  -5.065 -14.426  1.00  0.00     0.000 C 
BRANCH  35  36
HETATM   36  C   UNL     1     -24.091  -6.506 -14.561  1.00  0.00     0.000 C 
BRANCH  36  37
HETATM   37  C   UNL     1     -24.930  -6.667 -15.816  1.00  0.00     0.000 C 
BRANCH  37  38
HETATM   38  C   UNL     1     -26.197  -5.841 -15.704  1.00  0.00     0.000 C 
BRANCH  38  39
HETATM   39  C   UNL     1     -27.397  -6.753 -15.536  1.00  0.00     0.000 C 
BRANCH  39  40
HETATM   40  C   UNL     1     -28.631  -5.931 -15.216  1.00  0.00     0.000 C 
BRANCH  40  41
HETATM   41  C   UNL     1     -29.499  -5.804 -16.454  1.00  0.00     0.000 C 
BRANCH  41  42
HETATM   42  C   UNL     1     -29.612  -7.152 -17.137  1.00  0.00     0.000 C 
BRANCH  42  43
HETATM   43  C   UNL     1     -29.432  -6.987 -18.630  1.00  0.00     0.000 C 
BRANCH  43  44
HETATM   44  C   UNL     1     -28.372  -5.939 -18.905  1.00  0.00     0.000 C 
BRANCH  44  45
HETATM   45  C   UNL     1     -27.034  -6.616 -19.089  1.00  0.00     0.000 C 
BRANCH  45  46
HETATM   46  C   UNL     1     -26.601  -6.554 -20.545  1.00  0.00     0.004 C 
BRANCH  46  47
HETATM   47  C   UNL     1     -25.086  -6.727 -20.672  1.00  0.00    -0.023 C 
HETATM   48  C   UNL     1     -24.467  -7.093 -19.324  1.00  0.00     0.009 C 
HETATM   49  C   UNL     1     -24.780  -7.820 -21.688  1.00  0.00     0.009 C 
ENDBRANCH  46  47
ENDBRANCH  45  46
ENDBRANCH  44  45
ENDBRANCH  43  44
ENDBRANCH  42  43
ENDBRANCH  41  42
ENDBRANCH  40  41
ENDBRANCH  39  40
ENDBRANCH  38  39
ENDBRANCH  37  38
ENDBRANCH  36  37
ENDBRANCH  35  36
ENDBRANCH  34  35
ENDBRANCH  33  34
ENDBRANCH  31  33
ENDBRANCH  30  31
ENDBRANCH  29  30
ENDBRANCH  28  29
ENDBRANCH  27  28
ENDBRANCH  26  27
ENDBRANCH   1  26
BRANCH   1  50
HETATM   50  O   UNL     1     -21.137  -5.607  -3.880  1.00  0.00    -0.380 OA
BRANCH  50  51
HETATM   51  C   UNL     1     -22.132  -6.364  -3.233  1.00  0.00     0.195 C 
BRANCH  51  52
HETATM   52  C   UNL     1     -21.639  -6.675  -1.845  1.00  0.00     0.205 C 
BRANCH  52  53
HETATM   53  O   UNL     1     -22.697  -6.799  -0.895  1.00  0.00    -0.319 OA
BRANCH  53  54
HETATM   54  C   UNL     1     -22.601  -7.818   0.012  1.00  0.00     0.258 C 
HETATM   55  O   UNL     1     -23.426  -8.220   0.749  1.00  0.00    -0.265 OA
BRANCH  54  56
HETATM   56  C   UNL     1     -21.258  -8.455   0.019  1.00  0.00     0.111 C 
BRANCH  56  57
HETATM   57  C   UNL     1     -21.380  -9.960   0.093  1.00  0.00     0.010 C 
BRANCH  57  58
HETATM   58  C   UNL     1     -21.957 -10.553  -1.185  1.00  0.00     0.000 C 
BRANCH  58  59
HETATM   59  C   UNL     1     -21.587 -12.022  -1.290  1.00  0.00     0.000 C 
BRANCH  59  60
HETATM   60  C   UNL     1     -21.321 -12.591   0.090  1.00  0.00     0.000 C 
BRANCH  60  61
HETATM   61  C   UNL     1     -20.922 -14.051  -0.017  1.00  0.00     0.000 C 
BRANCH  61  62
HETATM   62  C   UNL     1     -20.272 -14.312  -1.362  1.00  0.00     0.000 C 
BRANCH  62  63
HETATM   63  C   UNL     1     -19.600 -15.673  -1.356  1.00  0.00     0.000 C 
BRANCH  63  64
HETATM   64  C   UNL     1     -18.159 -15.538  -1.804  1.00  0.00     0.000 C 
BRANCH  64  65
HETATM   65  C   UNL     1     -18.061 -14.506  -2.910  1.00  0.00     0.000 C 
BRANCH  65  66
HETATM   66  C   UNL     1     -17.539 -15.155  -4.174  1.00  0.00     0.000 C 
BRANCH  66  67
HETATM   67  C   UNL     1     -18.052 -14.395  -5.383  1.00  0.00     0.000 C 
BRANCH  67  68
HETATM   68  C   UNL     1     -18.787 -13.159  -4.918  1.00  0.00     0.000 C 
BRANCH  68  69
HETATM   69  C   UNL     1     -19.175 -12.290  -6.105  1.00  0.00     0.004 C 
BRANCH  69  70
HETATM   70  C   UNL     1     -19.394 -13.141  -7.356  1.00  0.00    -0.023 C 
HETATM   71  C   UNL     1     -20.881 -13.264  -7.678  1.00  0.00     0.009 C 
HETATM   72  C   UNL     1     -18.668 -12.507  -8.537  1.00  0.00     0.009 C 
ENDBRANCH  69  70
ENDBRANCH  68  69
ENDBRANCH  67  68
ENDBRANCH  66  67
ENDBRANCH  65  66
ENDBRANCH  64  65
ENDBRANCH  63  64
ENDBRANCH  62  63
ENDBRANCH  61  62
ENDBRANCH  60  61
ENDBRANCH  59  60
ENDBRANCH  58  59
ENDBRANCH  57  58
ENDBRANCH  56  57
ENDBRANCH  54  56
ENDBRANCH  53  54
ENDBRANCH  52  53
ENDBRANCH  51  52
ENDBRANCH  50  51
ENDBRANCH   1  50
TORSDOF 62
BEGIN_RES ARG D 557
REMARK  4 active torsions:
REMARK  status: ('A' for Active; 'I' for Inactive)
REMARK    1  A    between atoms: CA   and  CB  
REMARK    2  A    between atoms: CB   and  CG  
REMARK    3  A    between atoms: CG   and  CD  
REMARK    4  A    between atoms: CD   and  NE  
REMARK       I    between atoms: NE   and  CZ  
REMARK       I    between atoms: CZ   and  NH1 
REMARK       I    between atoms: CZ   and  NH2 
ROOT
ATOM      1  CA  ARG D 557     -26.217   2.705 -17.014  1.00 35.49     0.159 C 
ENDROOT
BRANCH   1   2
ATOM      2  CB  ARG D 557     -26.789   1.319 -17.183  1.00 35.49     0.034 C 
BRANCH   2   3
ATOM      3  CG  ARG D 557     -26.917   0.504 -15.968  1.00 35.49     0.027 C 
BRANCH   3   4
ATOM      4  CD  ARG D 557     -26.437  -0.882 -16.166  1.00 35.49     0.116 C 
BRANCH   4   5
ATOM      5  NE  ARG D 557     -25.587  -1.320 -15.091  1.00 35.49    -0.212 N 
ATOM      6  CZ  ARG D 557     -24.321  -1.001 -14.933  1.00 35.49     0.666 C 
ATOM      7  NH1 ARG D 557     -23.673  -0.229 -15.785  1.00 35.49    -0.235 N 
ATOM      8  NH2 ARG D 557     -23.710  -1.473 -13.886  1.00 35.49    -0.235 N 
ATOM      9  HH  ARG D 557     -24.057   0.094 -16.480  1.00 35.49     0.174 HD
ATOM     10  HH  ARG D 557     -22.850  -0.052 -15.629  1.00 35.49     0.174 HD
ATOM     11  HH  ARG D 557     -24.155  -1.963 -13.348  1.00 35.49     0.174 HD
ATOM     12  HH  ARG D 557     -22.894  -1.286 -13.748  1.00 35.49     0.174 HD
ATOM     13  HE  ARG D 557     -25.903  -1.881 -14.534  1.00 35.49     0.178 HD
ENDBRANCH   4   5
ENDBRANCH   3   4
ENDBRANCH   2   3
ENDBRANCH   1   2
END_RES ARG D 557
BEGIN_RES GLU D 570
REMARK  3 active torsions:
REMARK  status: ('A' for Active; 'I' for Inactive)
REMARK    5  A    between atoms: CA   and  CB  
REMARK    6  A    between atoms: CB   and  CG  
REMARK    7  A    between atoms: CG   and  CD  
ROOT
ATOM     14  CA  GLU D 570     -18.033  -6.348 -13.375  1.00 32.92     0.160 C 
ENDROOT
BRANCH  14  15
ATOM     15  CB  GLU D 570     -19.500  -6.345 -13.794  1.00 32.92     0.043 C 
BRANCH  15  16
ATOM     16  CG  GLU D 570     -20.102  -7.645 -14.188  1.00 32.92     0.100 C 
BRANCH  16  17
ATOM     17  CD  GLU D 570     -20.623  -7.647 -15.607  1.00 32.92     0.185 C 
ATOM     18  OE1 GLU D 570     -20.939  -6.565 -16.137  1.00 32.92    -0.647 OA
ATOM     19  OE2 GLU D 570     -20.731  -8.745 -16.188  1.00 32.92    -0.647 OA
ENDBRANCH  16  17
ENDBRANCH  15  16
ENDBRANCH  14  15
END_RES GLU D 570
ENDMDL
