MODEL 1
REMARK VINA RESULT:      -7.5      0.000      0.000
REMARK  22 active torsions:
REMARK  status: ('A' for Active; 'I' for Inactive)
REMARK    1  A    between atoms: C_2  and  C_3 
REMARK    2  A    between atoms: C_3  and  C_4 
REMARK    3  A    between atoms: C_4  and  C_5 
REMARK    4  A    between atoms: C_5  and  C_6 
REMARK    5  A    between atoms: C_6  and  C_7 
REMARK    6  A    between atoms: C_7  and  C_8 
REMARK    7  A    between atoms: C_8  and  C_9 
REMARK    8  A    between atoms: C_9  and  C_10 
REMARK    9  A    between atoms: C_10  and  C_11 
REMARK   10  A    between atoms: C_11  and  C_12 
REMARK   11  A    between atoms: C_12  and  C_13 
REMARK   12  A    between atoms: C_13  and  C_14 
REMARK   13  A    between atoms: C_14  and  C_15 
REMARK   14  A    between atoms: C_15  and  C_16 
REMARK   15  A    between atoms: C_16  and  C_17 
REMARK   16  A    between atoms: C_17  and  C_18 
REMARK   17  A    between atoms: C_18  and  O_20 
REMARK   18  A    between atoms: O_20  and  C_21 
REMARK   19  A    between atoms: C_21  and  C_22 
REMARK   20  A    between atoms: C_22  and  C_23 
REMARK   21  A    between atoms: C_22  and  O_25 
REMARK   22  A    between atoms: C_23  and  O_24 
ROOT
HETATM    1  C   UNL     1     -19.964  -4.137  -8.264  1.00  0.00     0.000 C 
ENDROOT
BRANCH   1   2
HETATM    2  C   UNL     1     -20.345  -5.271  -7.325  1.00  0.00     0.000 C 
BRANCH   2   3
HETATM    3  C   UNL     1     -20.142  -4.850  -5.879  1.00  0.00     0.000 C 
BRANCH   3   4
HETATM    4  C   UNL     1     -21.059  -5.652  -4.972  1.00  0.00     0.000 C 
BRANCH   4   5
HETATM    5  C   UNL     1     -20.810  -7.137  -5.164  1.00  0.00     0.000 C 
BRANCH   5   6
HETATM    6  C   UNL     1     -21.023  -7.871  -3.854  1.00  0.00     0.000 C 
BRANCH   6   7
HETATM    7  C   UNL     1     -21.325  -6.876  -2.749  1.00  0.00     0.000 C 
BRANCH   7   8
HETATM    8  C   UNL     1     -21.351  -7.587  -1.409  1.00  0.00     0.000 C 
BRANCH   8   9
HETATM    9  C   UNL     1     -22.513  -7.075  -0.576  1.00  0.00     0.000 C 
BRANCH   9  10
HETATM   10  C   UNL     1     -23.022  -8.178   0.334  1.00  0.00     0.000 C 
BRANCH  10  11
HETATM   11  C   UNL     1     -22.196  -9.438   0.135  1.00  0.00     0.000 C 
BRANCH  11  12
HETATM   12  C   UNL     1     -23.077 -10.561  -0.388  1.00  0.00    -0.000 C 
BRANCH  12  13
HETATM   13  C   UNL     1     -22.361 -11.329  -1.490  1.00  0.00    -0.005 C 
HETATM   14  C   UNL     1     -22.932 -10.960  -2.845  1.00  0.00     0.005 C 
ENDBRANCH  12  13
ENDBRANCH  11  12
ENDBRANCH  10  11
ENDBRANCH   9  10
ENDBRANCH   8   9
ENDBRANCH   7   8
ENDBRANCH   6   7
ENDBRANCH   5   6
ENDBRANCH   4   5
ENDBRANCH   3   4
ENDBRANCH   2   3
ENDBRANCH   1   2
BRANCH   1  15
HETATM   15  C   UNL     1     -20.825  -4.179  -9.522  1.00  0.00     0.000 C 
BRANCH  15  16
HETATM   16  C   UNL     1     -22.279  -3.902  -9.177  1.00  0.00     0.010 C 
BRANCH  16  17
HETATM   17  C   UNL     1     -23.232  -4.310 -10.301  1.00  0.00     0.111 C 
BRANCH  17  18
HETATM   18  C   UNL     1     -24.425  -3.386 -10.319  1.00  0.00     0.258 C 
HETATM   19  O   UNL     1     -24.891  -2.844  -9.313  1.00  0.00    -0.265 OA
BRANCH  18  20
HETATM   20  O   UNL     1     -24.967  -3.307 -11.564  1.00  0.00    -0.319 OA
BRANCH  20  21
HETATM   21  C   UNL     1     -24.077  -2.754 -12.548  1.00  0.00     0.212 C 
BRANCH  21  22
HETATM   22  C   UNL     1     -24.735  -2.552 -13.911  1.00  0.00     0.166 C 
BRANCH  22  23
HETATM   23  C   UNL     1     -24.032  -1.454 -14.705  1.00  0.00     0.198 C 
BRANCH  23  24
HETATM   24  O   UNL     1     -24.893  -0.339 -14.843  1.00  0.00    -0.398 OA
HETATM   25  H   UNL     1     -25.081   0.004 -13.949  1.00  0.00     0.209 HD
ENDBRANCH  23  24
ENDBRANCH  22  23
BRANCH  22  26
HETATM   26  O   UNL     1     -24.758  -3.780 -14.635  1.00  0.00    -0.391 OA
HETATM   27  H   UNL     1     -25.609  -4.230 -14.488  1.00  0.00     0.210 HD
ENDBRANCH  22  26
ENDBRANCH  21  22
ENDBRANCH  20  21
ENDBRANCH  18  20
ENDBRANCH  17  18
ENDBRANCH  16  17
ENDBRANCH  15  16
ENDBRANCH   1  15
TORSDOF 22
BEGIN_RES ARG D 557
REMARK  4 active torsions:
REMARK  status: ('A' for Active; 'I' for Inactive)
REMARK    1  A    between atoms: CA   and  CB  
REMARK    2  A    between atoms: CB   and  CG  
REMARK    3  A    between atoms: CG   and  CD  
REMARK    4  A    between atoms: CD   and  NE  
REMARK       I    between atoms: NE   and  CZ  
REMARK       I    between atoms: CZ   and  NH1 
REMARK       I    between atoms: CZ   and  NH2 
ROOT
ATOM      1  CA  ARG D 557     -26.217   2.705 -17.014  1.00 35.49     0.159 C 
ENDROOT
BRANCH   1   2
ATOM      2  CB  ARG D 557     -26.789   1.319 -17.183  1.00 35.49     0.034 C 
BRANCH   2   3
ATOM      3  CG  ARG D 557     -28.146   1.097 -16.668  1.00 35.49     0.027 C 
BRANCH   3   4
ATOM      4  CD  ARG D 557     -28.783  -0.103 -17.257  1.00 35.49     0.116 C 
BRANCH   4   5
ATOM      5  NE  ARG D 557     -28.148  -1.321 -16.827  1.00 35.49    -0.212 N 
ATOM      6  CZ  ARG D 557     -28.609  -2.537 -17.017  1.00 35.49     0.666 C 
ATOM      7  NH1 ARG D 557     -29.753  -2.773 -17.633  1.00 35.49    -0.235 N 
ATOM      8  NH2 ARG D 557     -27.889  -3.527 -16.578  1.00 35.49    -0.235 N 
ATOM      9  HH  ARG D 557     -30.242  -2.136 -17.932  1.00 35.49     0.174 HD
ATOM     10  HH  ARG D 557     -30.002  -3.587 -17.731  1.00 35.49     0.174 HD
ATOM     11  HH  ARG D 557     -27.151  -3.345 -16.190  1.00 35.49     0.174 HD
ATOM     12  HH  ARG D 557     -28.152  -4.326 -16.685  1.00 35.49     0.174 HD
ATOM     13  HE  ARG D 557     -27.441  -1.258 -16.358  1.00 35.49     0.178 HD
ENDBRANCH   4   5
ENDBRANCH   3   4
ENDBRANCH   2   3
ENDBRANCH   1   2
END_RES ARG D 557
BEGIN_RES GLU D 570
REMARK  3 active torsions:
REMARK  status: ('A' for Active; 'I' for Inactive)
REMARK    5  A    between atoms: CA   and  CB  
REMARK    6  A    between atoms: CB   and  CG  
REMARK    7  A    between atoms: CG   and  CD  
ROOT
ATOM     14  CA  GLU D 570     -18.033  -6.348 -13.375  1.00 32.92     0.160 C 
ENDROOT
BRANCH  14  15
ATOM     15  CB  GLU D 570     -19.500  -6.345 -13.794  1.00 32.92     0.043 C 
BRANCH  15  16
ATOM     16  CG  GLU D 570     -20.428  -5.469 -13.033  1.00 32.92     0.100 C 
BRANCH  16  17
ATOM     17  CD  GLU D 570     -21.725  -5.209 -13.762  1.00 32.92     0.185 C 
ATOM     18  OE1 GLU D 570     -22.760  -5.788 -13.380  1.00 32.92    -0.647 OA
ATOM     19  OE2 GLU D 570     -21.703  -4.432 -14.737  1.00 32.92    -0.647 OA
ENDBRANCH  16  17
ENDBRANCH  15  16
ENDBRANCH  14  15
END_RES GLU D 570
ENDMDL
MODEL 2
REMARK VINA RESULT:      -7.3      1.352      1.911
REMARK  22 active torsions:
REMARK  status: ('A' for Active; 'I' for Inactive)
REMARK    1  A    between atoms: C_2  and  C_3 
REMARK    2  A    between atoms: C_3  and  C_4 
REMARK    3  A    between atoms: C_4  and  C_5 
REMARK    4  A    between atoms: C_5  and  C_6 
REMARK    5  A    between atoms: C_6  and  C_7 
REMARK    6  A    between atoms: C_7  and  C_8 
REMARK    7  A    between atoms: C_8  and  C_9 
REMARK    8  A    between atoms: C_9  and  C_10 
REMARK    9  A    between atoms: C_10  and  C_11 
REMARK   10  A    between atoms: C_11  and  C_12 
REMARK   11  A    between atoms: C_12  and  C_13 
REMARK   12  A    between atoms: C_13  and  C_14 
REMARK   13  A    between atoms: C_14  and  C_15 
REMARK   14  A    between atoms: C_15  and  C_16 
REMARK   15  A    between atoms: C_16  and  C_17 
REMARK   16  A    between atoms: C_17  and  C_18 
REMARK   17  A    between atoms: C_18  and  O_20 
REMARK   18  A    between atoms: O_20  and  C_21 
REMARK   19  A    between atoms: C_21  and  C_22 
REMARK   20  A    between atoms: C_22  and  C_23 
REMARK   21  A    between atoms: C_22  and  O_25 
REMARK   22  A    between atoms: C_23  and  O_24 
ROOT
HETATM    1  C   UNL     1     -21.045  -3.635  -7.702  1.00  0.00     0.000 C 
ENDROOT
BRANCH   1   2
HETATM    2  C   UNL     1     -20.117  -4.749  -7.244  1.00  0.00     0.000 C 
BRANCH   2   3
HETATM    3  C   UNL     1     -20.189  -4.909  -5.735  1.00  0.00     0.000 C 
BRANCH   3   4
HETATM    4  C   UNL     1     -20.616  -6.324  -5.384  1.00  0.00     0.000 C 
BRANCH   4   5
HETATM    5  C   UNL     1     -21.750  -6.288  -4.374  1.00  0.00     0.000 C 
BRANCH   5   6
HETATM    6  C   UNL     1     -21.190  -6.367  -2.966  1.00  0.00     0.000 C 
BRANCH   6   7
HETATM    7  C   UNL     1     -22.311  -6.203  -1.956  1.00  0.00     0.000 C 
BRANCH   7   8
HETATM    8  C   UNL     1     -22.127  -7.190  -0.819  1.00  0.00     0.000 C 
BRANCH   8   9
HETATM    9  C   UNL     1     -21.240  -8.337  -1.270  1.00  0.00     0.000 C 
BRANCH   9  10
HETATM   10  C   UNL     1     -22.056  -9.613  -1.372  1.00  0.00     0.000 C 
BRANCH  10  11
HETATM   11  C   UNL     1     -21.500 -10.497  -2.475  1.00  0.00     0.000 C 
BRANCH  11  12
HETATM   12  C   UNL     1     -21.892  -9.942  -3.835  1.00  0.00    -0.000 C 
BRANCH  12  13
HETATM   13  C   UNL     1     -20.716 -10.018  -4.799  1.00  0.00    -0.005 C 
HETATM   14  C   UNL     1     -19.445  -9.553  -4.116  1.00  0.00     0.005 C 
ENDBRANCH  12  13
ENDBRANCH  11  12
ENDBRANCH  10  11
ENDBRANCH   9  10
ENDBRANCH   8   9
ENDBRANCH   7   8
ENDBRANCH   6   7
ENDBRANCH   5   6
ENDBRANCH   4   5
ENDBRANCH   3   4
ENDBRANCH   2   3
ENDBRANCH   1   2
BRANCH   1  15
HETATM   15  C   UNL     1     -22.406  -4.204  -8.089  1.00  0.00     0.000 C 
BRANCH  15  16
HETATM   16  C   UNL     1     -22.428  -4.564  -9.565  1.00  0.00     0.010 C 
BRANCH  16  17
HETATM   17  C   UNL     1     -23.287  -3.602 -10.387  1.00  0.00     0.111 C 
BRANCH  17  18
HETATM   18  C   UNL     1     -22.415  -2.837 -11.352  1.00  0.00     0.258 C 
HETATM   19  O   UNL     1     -21.195  -2.701 -11.218  1.00  0.00    -0.265 OA
BRANCH  18  20
HETATM   20  O   UNL     1     -23.159  -2.248 -12.326  1.00  0.00    -0.319 OA
BRANCH  20  21
HETATM   21  C   UNL     1     -24.401  -2.920 -12.591  1.00  0.00     0.212 C 
BRANCH  21  22
HETATM   22  C   UNL     1     -24.880  -2.758 -14.031  1.00  0.00     0.166 C 
BRANCH  22  23
HETATM   23  C   UNL     1     -24.178  -1.589 -14.717  1.00  0.00     0.198 C 
BRANCH  23  24
HETATM   24  O   UNL     1     -23.022  -2.052 -15.390  1.00  0.00    -0.398 OA
HETATM   25  H   UNL     1     -22.498  -1.273 -15.652  1.00  0.00     0.209 HD
ENDBRANCH  23  24
ENDBRANCH  22  23
BRANCH  22  26
HETATM   26  O   UNL     1     -24.691  -3.971 -14.755  1.00  0.00    -0.391 OA
HETATM   27  H   UNL     1     -25.309  -4.647 -14.426  1.00  0.00     0.210 HD
ENDBRANCH  22  26
ENDBRANCH  21  22
ENDBRANCH  20  21
ENDBRANCH  18  20
ENDBRANCH  17  18
ENDBRANCH  16  17
ENDBRANCH  15  16
ENDBRANCH   1  15
TORSDOF 22
BEGIN_RES ARG D 557
REMARK  4 active torsions:
REMARK  status: ('A' for Active; 'I' for Inactive)
REMARK    1  A    between atoms: CA   and  CB  
REMARK    2  A    between atoms: CB   and  CG  
REMARK    3  A    between atoms: CG   and  CD  
REMARK    4  A    between atoms: CD   and  NE  
REMARK       I    between atoms: NE   and  CZ  
REMARK       I    between atoms: CZ   and  NH1 
REMARK       I    between atoms: CZ   and  NH2 
ROOT
ATOM      1  CA  ARG D 557     -26.217   2.705 -17.014  1.00 35.49     0.159 C 
ENDROOT
BRANCH   1   2
ATOM      2  CB  ARG D 557     -26.789   1.319 -17.183  1.00 35.49     0.034 C 
BRANCH   2   3
ATOM      3  CG  ARG D 557     -28.232   1.226 -17.434  1.00 35.49     0.027 C 
BRANCH   3   4
ATOM      4  CD  ARG D 557     -28.912   0.315 -16.484  1.00 35.49     0.116 C 
BRANCH   4   5
ATOM      5  NE  ARG D 557     -29.338  -0.907 -17.115  1.00 35.49    -0.212 N 
ATOM      6  CZ  ARG D 557     -28.718  -2.063 -17.046  1.00 35.49     0.666 C 
ATOM      7  NH1 ARG D 557     -27.591  -2.225 -16.376  1.00 35.49    -0.235 N 
ATOM      8  NH2 ARG D 557     -29.259  -3.073 -17.664  1.00 35.49    -0.235 N 
ATOM      9  HH  ARG D 557     -27.219  -1.575 -15.960  1.00 35.49     0.174 HD
ATOM     10  HH  ARG D 557     -27.233  -3.003 -16.363  1.00 35.49     0.174 HD
ATOM     11  HH  ARG D 557     -29.990  -2.940 -18.082  1.00 35.49     0.174 HD
ATOM     12  HH  ARG D 557     -28.890  -3.836 -17.638  1.00 35.49     0.174 HD
ATOM     13  HE  ARG D 557     -30.016  -0.876 -17.627  1.00 35.49     0.178 HD
ENDBRANCH   4   5
ENDBRANCH   3   4
ENDBRANCH   2   3
ENDBRANCH   1   2
END_RES ARG D 557
BEGIN_RES GLU D 570
REMARK  3 active torsions:
REMARK  status: ('A' for Active; 'I' for Inactive)
REMARK    5  A    between atoms: CA   and  CB  
REMARK    6  A    between atoms: CB   and  CG  
REMARK    7  A    between atoms: CG   and  CD  
ROOT
ATOM     14  CA  GLU D 570     -18.033  -6.348 -13.375  1.00 32.92     0.160 C 
ENDROOT
BRANCH  14  15
ATOM     15  CB  GLU D 570     -19.500  -6.345 -13.794  1.00 32.92     0.043 C 
BRANCH  15  16
ATOM     16  CG  GLU D 570     -20.430  -5.478 -13.025  1.00 32.92     0.100 C 
BRANCH  16  17
ATOM     17  CD  GLU D 570     -21.736  -5.232 -13.743  1.00 32.92     0.185 C 
ATOM     18  OE1 GLU D 570     -22.781  -5.734 -13.287  1.00 32.92    -0.647 OA
ATOM     19  OE2 GLU D 570     -21.712  -4.544 -14.783  1.00 32.92    -0.647 OA
ENDBRANCH  16  17
ENDBRANCH  15  16
ENDBRANCH  14  15
END_RES GLU D 570
ENDMDL
MODEL 3
REMARK VINA RESULT:      -7.3      1.216      1.599
REMARK  22 active torsions:
REMARK  status: ('A' for Active; 'I' for Inactive)
REMARK    1  A    between atoms: C_2  and  C_3 
REMARK    2  A    between atoms: C_3  and  C_4 
REMARK    3  A    between atoms: C_4  and  C_5 
REMARK    4  A    between atoms: C_5  and  C_6 
REMARK    5  A    between atoms: C_6  and  C_7 
REMARK    6  A    between atoms: C_7  and  C_8 
REMARK    7  A    between atoms: C_8  and  C_9 
REMARK    8  A    between atoms: C_9  and  C_10 
REMARK    9  A    between atoms: C_10  and  C_11 
REMARK   10  A    between atoms: C_11  and  C_12 
REMARK   11  A    between atoms: C_12  and  C_13 
REMARK   12  A    between atoms: C_13  and  C_14 
REMARK   13  A    between atoms: C_14  and  C_15 
REMARK   14  A    between atoms: C_15  and  C_16 
REMARK   15  A    between atoms: C_16  and  C_17 
REMARK   16  A    between atoms: C_17  and  C_18 
REMARK   17  A    between atoms: C_18  and  O_20 
REMARK   18  A    between atoms: O_20  and  C_21 
REMARK   19  A    between atoms: C_21  and  C_22 
REMARK   20  A    between atoms: C_22  and  C_23 
REMARK   21  A    between atoms: C_22  and  O_25 
REMARK   22  A    between atoms: C_23  and  O_24 
ROOT
HETATM    1  C   UNL     1     -20.635  -4.705  -8.956  1.00  0.00     0.000 C 
ENDROOT
BRANCH   1   2
HETATM    2  C   UNL     1     -19.510  -4.361  -7.993  1.00  0.00     0.000 C 
BRANCH   2   3
HETATM    3  C   UNL     1     -19.926  -4.669  -6.564  1.00  0.00     0.000 C 
BRANCH   3   4
HETATM    4  C   UNL     1     -20.643  -6.007  -6.509  1.00  0.00     0.000 C 
BRANCH   4   5
HETATM    5  C   UNL     1     -21.715  -5.977  -5.435  1.00  0.00     0.000 C 
BRANCH   5   6
HETATM    6  C   UNL     1     -21.907  -7.366  -4.857  1.00  0.00     0.000 C 
BRANCH   6   7
HETATM    7  C   UNL     1     -21.006  -7.553  -3.650  1.00  0.00     0.000 C 
BRANCH   7   8
HETATM    8  C   UNL     1     -21.239  -6.431  -2.656  1.00  0.00     0.000 C 
BRANCH   8   9
HETATM    9  C   UNL     1     -22.484  -6.719  -1.836  1.00  0.00     0.000 C 
BRANCH   9  10
HETATM   10  C   UNL     1     -22.098  -7.031  -0.402  1.00  0.00     0.000 C 
BRANCH  10  11
HETATM   11  C   UNL     1     -22.892  -8.225   0.101  1.00  0.00     0.000 C 
BRANCH  11  12
HETATM   12  C   UNL     1     -22.498  -9.475  -0.669  1.00  0.00    -0.000 C 
BRANCH  12  13
HETATM   13  C   UNL     1     -21.042  -9.828  -0.399  1.00  0.00    -0.005 C 
HETATM   14  C   UNL     1     -20.946 -10.837   0.728  1.00  0.00     0.005 C 
ENDBRANCH  12  13
ENDBRANCH  11  12
ENDBRANCH  10  11
ENDBRANCH   9  10
ENDBRANCH   8   9
ENDBRANCH   7   8
ENDBRANCH   6   7
ENDBRANCH   5   6
ENDBRANCH   4   5
ENDBRANCH   3   4
ENDBRANCH   2   3
ENDBRANCH   1   2
BRANCH   1  15
HETATM   15  C   UNL     1     -20.213  -4.413 -10.392  1.00  0.00     0.000 C 
BRANCH  15  16
HETATM   16  C   UNL     1     -21.386  -3.860 -11.185  1.00  0.00     0.010 C 
BRANCH  16  17
HETATM   17  C   UNL     1     -22.734  -4.325 -10.633  1.00  0.00     0.111 C 
BRANCH  17  18
HETATM   18  C   UNL     1     -23.775  -3.258 -10.863  1.00  0.00     0.258 C 
HETATM   19  O   UNL     1     -24.601  -2.908 -10.014  1.00  0.00    -0.265 OA
BRANCH  18  20
HETATM   20  O   UNL     1     -23.742  -2.806 -12.145  1.00  0.00    -0.319 OA
BRANCH  20  21
HETATM   21  C   UNL     1     -24.979  -2.990 -12.854  1.00  0.00     0.212 C 
BRANCH  21  22
HETATM   22  C   UNL     1     -24.846  -2.786 -14.362  1.00  0.00     0.166 C 
BRANCH  22  23
HETATM   23  C   UNL     1     -23.677  -1.863 -14.692  1.00  0.00     0.198 C 
BRANCH  23  24
HETATM   24  O   UNL     1     -22.548  -2.633 -15.060  1.00  0.00    -0.398 OA
HETATM   25  H   UNL     1     -22.855  -3.344 -15.653  1.00  0.00     0.209 HD
ENDBRANCH  23  24
ENDBRANCH  22  23
BRANCH  22  26
HETATM   26  O   UNL     1     -24.716  -4.043 -15.022  1.00  0.00    -0.391 OA
HETATM   27  H   UNL     1     -25.504  -4.587 -14.847  1.00  0.00     0.210 HD
ENDBRANCH  22  26
ENDBRANCH  21  22
ENDBRANCH  20  21
ENDBRANCH  18  20
ENDBRANCH  17  18
ENDBRANCH  16  17
ENDBRANCH  15  16
ENDBRANCH   1  15
TORSDOF 22
BEGIN_RES ARG D 557
REMARK  4 active torsions:
REMARK  status: ('A' for Active; 'I' for Inactive)
REMARK    1  A    between atoms: CA   and  CB  
REMARK    2  A    between atoms: CB   and  CG  
REMARK    3  A    between atoms: CG   and  CD  
REMARK    4  A    between atoms: CD   and  NE  
REMARK       I    between atoms: NE   and  CZ  
REMARK       I    between atoms: CZ   and  NH1 
REMARK       I    between atoms: CZ   and  NH2 
ROOT
ATOM      1  CA  ARG D 557     -26.217   2.705 -17.014  1.00 35.49     0.159 C 
ENDROOT
BRANCH   1   2
ATOM      2  CB  ARG D 557     -26.789   1.319 -17.183  1.00 35.49     0.034 C 
BRANCH   2   3
ATOM      3  CG  ARG D 557     -28.183   1.124 -16.766  1.00 35.49     0.027 C 
BRANCH   3   4
ATOM      4  CD  ARG D 557     -28.736  -0.169 -17.231  1.00 35.49     0.116 C 
BRANCH   4   5
ATOM      5  NE  ARG D 557     -28.033  -1.292 -16.669  1.00 35.49    -0.212 N 
ATOM      6  CZ  ARG D 557     -28.345  -2.557 -16.843  1.00 35.49     0.666 C 
ATOM      7  NH1 ARG D 557     -29.381  -2.940 -17.565  1.00 35.49    -0.235 N 
ATOM      8  NH2 ARG D 557     -27.583  -3.446 -16.275  1.00 35.49    -0.235 N 
ATOM      9  HH  ARG D 557     -29.895  -2.372 -17.950  1.00 35.49     0.174 HD
ATOM     10  HH  ARG D 557     -29.534  -3.779 -17.645  1.00 35.49     0.174 HD
ATOM     11  HH  ARG D 557     -26.916  -3.170 -15.820  1.00 35.49     0.174 HD
ATOM     12  HH  ARG D 557     -27.750  -4.272 -16.367  1.00 35.49     0.174 HD
ATOM     13  HE  ARG D 557     -27.395  -1.135 -16.130  1.00 35.49     0.178 HD
ENDBRANCH   4   5
ENDBRANCH   3   4
ENDBRANCH   2   3
ENDBRANCH   1   2
END_RES ARG D 557
BEGIN_RES GLU D 570
REMARK  3 active torsions:
REMARK  status: ('A' for Active; 'I' for Inactive)
REMARK    5  A    between atoms: CA   and  CB  
REMARK    6  A    between atoms: CB   and  CG  
REMARK    7  A    between atoms: CG   and  CD  
ROOT
ATOM     14  CA  GLU D 570     -18.033  -6.348 -13.375  1.00 32.92     0.160 C 
ENDROOT
BRANCH  14  15
ATOM     15  CB  GLU D 570     -19.500  -6.345 -13.794  1.00 32.92     0.043 C 
BRANCH  15  16
ATOM     16  CG  GLU D 570     -19.806  -6.029 -15.213  1.00 32.92     0.100 C 
BRANCH  16  17
ATOM     17  CD  GLU D 570     -21.204  -5.489 -15.409  1.00 32.92     0.185 C 
ATOM     18  OE1 GLU D 570     -21.533  -5.053 -16.528  1.00 32.92    -0.647 OA
ATOM     19  OE2 GLU D 570     -21.972  -5.488 -14.427  1.00 32.92    -0.647 OA
ENDBRANCH  16  17
ENDBRANCH  15  16
ENDBRANCH  14  15
END_RES GLU D 570
ENDMDL
MODEL 4
REMARK VINA RESULT:      -7.2      2.169      4.121
REMARK  22 active torsions:
REMARK  status: ('A' for Active; 'I' for Inactive)
REMARK    1  A    between atoms: C_2  and  C_3 
REMARK    2  A    between atoms: C_3  and  C_4 
REMARK    3  A    between atoms: C_4  and  C_5 
REMARK    4  A    between atoms: C_5  and  C_6 
REMARK    5  A    between atoms: C_6  and  C_7 
REMARK    6  A    between atoms: C_7  and  C_8 
REMARK    7  A    between atoms: C_8  and  C_9 
REMARK    8  A    between atoms: C_9  and  C_10 
REMARK    9  A    between atoms: C_10  and  C_11 
REMARK   10  A    between atoms: C_11  and  C_12 
REMARK   11  A    between atoms: C_12  and  C_13 
REMARK   12  A    between atoms: C_13  and  C_14 
REMARK   13  A    between atoms: C_14  and  C_15 
REMARK   14  A    between atoms: C_15  and  C_16 
REMARK   15  A    between atoms: C_16  and  C_17 
REMARK   16  A    between atoms: C_17  and  C_18 
REMARK   17  A    between atoms: C_18  and  O_20 
REMARK   18  A    between atoms: O_20  and  C_21 
REMARK   19  A    between atoms: C_21  and  C_22 
REMARK   20  A    between atoms: C_22  and  C_23 
REMARK   21  A    between atoms: C_22  and  O_25 
REMARK   22  A    between atoms: C_23  and  O_24 
ROOT
HETATM    1  C   UNL     1     -21.244  -7.417  -4.455  1.00  0.00     0.000 C 
ENDROOT
BRANCH   1   2
HETATM    2  C   UNL     1     -22.076  -6.374  -3.728  1.00  0.00     0.000 C 
BRANCH   2   3
HETATM    3  C   UNL     1     -21.823  -6.445  -2.232  1.00  0.00     0.000 C 
BRANCH   3   4
HETATM    4  C   UNL     1     -20.864  -7.581  -1.921  1.00  0.00     0.000 C 
BRANCH   4   5
HETATM    5  C   UNL     1     -21.165  -8.154  -0.548  1.00  0.00     0.000 C 
BRANCH   5   6
HETATM    6  C   UNL     1     -22.420  -7.514   0.015  1.00  0.00     0.000 C 
BRANCH   6   7
HETATM    7  C   UNL     1     -23.391  -8.590   0.464  1.00  0.00     0.000 C 
BRANCH   7   8
HETATM    8  C   UNL     1     -22.838  -9.959   0.118  1.00  0.00     0.000 C 
BRANCH   8   9
HETATM    9  C   UNL     1     -23.977 -10.901  -0.231  1.00  0.00     0.000 C 
BRANCH   9  10
HETATM   10  C   UNL     1     -23.635 -11.682  -1.488  1.00  0.00     0.000 C 
BRANCH  10  11
HETATM   11  C   UNL     1     -22.467 -11.024  -2.205  1.00  0.00     0.000 C 
BRANCH  11  12
HETATM   12  C   UNL     1     -22.740 -10.966  -3.699  1.00  0.00    -0.000 C 
BRANCH  12  13
HETATM   13  C   UNL     1     -21.468 -11.253  -4.484  1.00  0.00    -0.005 C 
HETATM   14  C   UNL     1     -21.797 -11.982  -5.772  1.00  0.00     0.005 C 
ENDBRANCH  12  13
ENDBRANCH  11  12
ENDBRANCH  10  11
ENDBRANCH   9  10
ENDBRANCH   8   9
ENDBRANCH   7   8
ENDBRANCH   6   7
ENDBRANCH   5   6
ENDBRANCH   4   5
ENDBRANCH   3   4
ENDBRANCH   2   3
ENDBRANCH   1   2
BRANCH   1  15
HETATM   15  C   UNL     1     -20.436  -6.767  -5.574  1.00  0.00     0.000 C 
BRANCH  15  16
HETATM   16  C   UNL     1     -20.533  -5.252  -5.483  1.00  0.00     0.010 C 
BRANCH  16  17
HETATM   17  C   UNL     1     -20.537  -4.585  -6.859  1.00  0.00     0.111 C 
BRANCH  17  18
HETATM   18  C   UNL     1     -21.955  -4.281  -7.275  1.00  0.00     0.258 C 
HETATM   19  O   UNL     1     -22.951  -4.670  -6.658  1.00  0.00    -0.265 OA
BRANCH  18  20
HETATM   20  O   UNL     1     -21.988  -3.610  -8.457  1.00  0.00    -0.319 OA
BRANCH  20  21
HETATM   21  C   UNL     1     -22.235  -4.454  -9.594  1.00  0.00     0.212 C 
BRANCH  21  22
HETATM   22  C   UNL     1     -23.242  -3.862 -10.577  1.00  0.00     0.166 C 
BRANCH  22  23
HETATM   23  C   UNL     1     -24.513  -3.414  -9.862  1.00  0.00     0.198 C 
BRANCH  23  24
HETATM   24  O   UNL     1     -25.281  -4.545  -9.497  1.00  0.00    -0.398 OA
HETATM   25  H   UNL     1     -26.177  -4.235  -9.268  1.00  0.00     0.209 HD
ENDBRANCH  23  24
ENDBRANCH  22  23
BRANCH  22  26
HETATM   26  O   UNL     1     -22.650  -2.788 -11.304  1.00  0.00    -0.391 OA
HETATM   27  H   UNL     1     -22.709  -1.969 -10.782  1.00  0.00     0.210 HD
ENDBRANCH  22  26
ENDBRANCH  21  22
ENDBRANCH  20  21
ENDBRANCH  18  20
ENDBRANCH  17  18
ENDBRANCH  16  17
ENDBRANCH  15  16
ENDBRANCH   1  15
TORSDOF 22
BEGIN_RES ARG D 557
REMARK  4 active torsions:
REMARK  status: ('A' for Active; 'I' for Inactive)
REMARK    1  A    between atoms: CA   and  CB  
REMARK    2  A    between atoms: CB   and  CG  
REMARK    3  A    between atoms: CG   and  CD  
REMARK    4  A    between atoms: CD   and  NE  
REMARK       I    between atoms: NE   and  CZ  
REMARK       I    between atoms: CZ   and  NH1 
REMARK       I    between atoms: CZ   and  NH2 
ROOT
ATOM      1  CA  ARG D 557     -26.217   2.705 -17.014  1.00 35.49     0.159 C 
ENDROOT
BRANCH   1   2
ATOM      2  CB  ARG D 557     -26.789   1.319 -17.183  1.00 35.49     0.034 C 
BRANCH   2   3
ATOM      3  CG  ARG D 557     -25.837   0.202 -17.145  1.00 35.49     0.027 C 
BRANCH   3   4
ATOM      4  CD  ARG D 557     -24.752   0.420 -16.161  1.00 35.49     0.116 C 
BRANCH   4   5
ATOM      5  NE  ARG D 557     -24.886  -0.431 -15.008  1.00 35.49    -0.212 N 
ATOM      6  CZ  ARG D 557     -24.068  -1.402 -14.670  1.00 35.49     0.666 C 
ATOM      7  NH1 ARG D 557     -23.007  -1.718 -15.389  1.00 35.49    -0.235 N 
ATOM      8  NH2 ARG D 557     -24.334  -2.058 -13.577  1.00 35.49    -0.235 N 
ATOM      9  HH  ARG D 557     -22.812  -1.299 -16.111  1.00 35.49     0.174 HD
ATOM     10  HH  ARG D 557     -22.508  -2.360 -15.118  1.00 35.49     0.174 HD
ATOM     11  HH  ARG D 557     -25.022  -1.827 -13.129  1.00 35.49     0.174 HD
ATOM     12  HH  ARG D 557     -23.827  -2.689 -13.325  1.00 35.49     0.174 HD
ATOM     13  HE  ARG D 557     -25.583  -0.345 -14.527  1.00 35.49     0.178 HD
ENDBRANCH   4   5
ENDBRANCH   3   4
ENDBRANCH   2   3
ENDBRANCH   1   2
END_RES ARG D 557
BEGIN_RES GLU D 570
REMARK  3 active torsions:
REMARK  status: ('A' for Active; 'I' for Inactive)
REMARK    5  A    between atoms: CA   and  CB  
REMARK    6  A    between atoms: CB   and  CG  
REMARK    7  A    between atoms: CG   and  CD  
ROOT
ATOM     14  CA  GLU D 570     -18.033  -6.348 -13.375  1.00 32.92     0.160 C 
ENDROOT
BRANCH  14  15
ATOM     15  CB  GLU D 570     -19.500  -6.345 -13.794  1.00 32.92     0.043 C 
BRANCH  15  16
ATOM     16  CG  GLU D 570     -20.431  -5.484 -13.020  1.00 32.92     0.100 C 
BRANCH  16  17
ATOM     17  CD  GLU D 570     -21.733  -5.226 -13.742  1.00 32.92     0.185 C 
ATOM     18  OE1 GLU D 570     -22.192  -4.068 -13.769  1.00 32.92    -0.647 OA
ATOM     19  OE2 GLU D 570     -22.309  -6.196 -14.273  1.00 32.92    -0.647 OA
ENDBRANCH  16  17
ENDBRANCH  15  16
ENDBRANCH  14  15
END_RES GLU D 570
ENDMDL
MODEL 5
REMARK VINA RESULT:      -6.8      2.034      3.758
REMARK  22 active torsions:
REMARK  status: ('A' for Active; 'I' for Inactive)
REMARK    1  A    between atoms: C_2  and  C_3 
REMARK    2  A    between atoms: C_3  and  C_4 
REMARK    3  A    between atoms: C_4  and  C_5 
REMARK    4  A    between atoms: C_5  and  C_6 
REMARK    5  A    between atoms: C_6  and  C_7 
REMARK    6  A    between atoms: C_7  and  C_8 
REMARK    7  A    between atoms: C_8  and  C_9 
REMARK    8  A    between atoms: C_9  and  C_10 
REMARK    9  A    between atoms: C_10  and  C_11 
REMARK   10  A    between atoms: C_11  and  C_12 
REMARK   11  A    between atoms: C_12  and  C_13 
REMARK   12  A    between atoms: C_13  and  C_14 
REMARK   13  A    between atoms: C_14  and  C_15 
REMARK   14  A    between atoms: C_15  and  C_16 
REMARK   15  A    between atoms: C_16  and  C_17 
REMARK   16  A    between atoms: C_17  and  C_18 
REMARK   17  A    between atoms: C_18  and  O_20 
REMARK   18  A    between atoms: O_20  and  C_21 
REMARK   19  A    between atoms: C_21  and  C_22 
REMARK   20  A    between atoms: C_22  and  C_23 
REMARK   21  A    between atoms: C_22  and  O_25 
REMARK   22  A    between atoms: C_23  and  O_24 
ROOT
HETATM    1  C   UNL     1     -21.515  -7.317  -4.996  1.00  0.00     0.000 C 
ENDROOT
BRANCH   1   2
HETATM    2  C   UNL     1     -20.924  -8.379  -4.083  1.00  0.00     0.000 C 
BRANCH   2   3
HETATM    3  C   UNL     1     -20.729  -7.822  -2.683  1.00  0.00     0.000 C 
BRANCH   3   4
HETATM    4  C   UNL     1     -21.436  -6.484  -2.553  1.00  0.00     0.000 C 
BRANCH   4   5
HETATM    5  C   UNL     1     -22.392  -6.514  -1.374  1.00  0.00     0.000 C 
BRANCH   5   6
HETATM    6  C   UNL     1     -21.876  -7.470  -0.315  1.00  0.00     0.000 C 
BRANCH   6   7
HETATM    7  C   UNL     1     -23.022  -8.296   0.238  1.00  0.00     0.000 C 
BRANCH   7   8
HETATM    8  C   UNL     1     -22.640  -9.764   0.251  1.00  0.00     0.000 C 
BRANCH   8   9
HETATM    9  C   UNL     1     -23.238 -10.464  -0.956  1.00  0.00     0.000 C 
BRANCH   9  10
HETATM   10  C   UNL     1     -24.061 -11.658  -0.506  1.00  0.00     0.000 C 
BRANCH  10  11
HETATM   11  C   UNL     1     -23.142 -12.779  -0.051  1.00  0.00     0.000 C 
BRANCH  11  12
HETATM   12  C   UNL     1     -23.509 -13.214   1.358  1.00  0.00    -0.000 C 
BRANCH  12  13
HETATM   13  C   UNL     1     -22.297 -13.805   2.065  1.00  0.00    -0.005 C 
HETATM   14  C   UNL     1     -22.711 -14.988   2.918  1.00  0.00     0.005 C 
ENDBRANCH  12  13
ENDBRANCH  11  12
ENDBRANCH  10  11
ENDBRANCH   9  10
ENDBRANCH   8   9
ENDBRANCH   7   8
ENDBRANCH   6   7
ENDBRANCH   5   6
ENDBRANCH   4   5
ENDBRANCH   3   4
ENDBRANCH   2   3
ENDBRANCH   1   2
BRANCH   1  15
HETATM   15  C   UNL     1     -20.435  -6.731  -5.898  1.00  0.00     0.000 C 
BRANCH  15  16
HETATM   16  C   UNL     1     -20.502  -5.213  -5.886  1.00  0.00     0.010 C 
BRANCH  16  17
HETATM   17  C   UNL     1     -20.706  -4.627  -7.284  1.00  0.00     0.111 C 
BRANCH  17  18
HETATM   18  C   UNL     1     -22.146  -4.211  -7.458  1.00  0.00     0.258 C 
HETATM   19  O   UNL     1     -23.059  -4.560  -6.704  1.00  0.00    -0.265 OA
BRANCH  18  20
HETATM   20  O   UNL     1     -22.315  -3.486  -8.596  1.00  0.00    -0.319 OA
BRANCH  20  21
HETATM   21  C   UNL     1     -22.358  -4.286  -9.789  1.00  0.00     0.212 C 
BRANCH  21  22
HETATM   22  C   UNL     1     -23.771  -4.708 -10.182  1.00  0.00     0.166 C 
BRANCH  22  23
HETATM   23  C   UNL     1     -24.775  -3.589  -9.914  1.00  0.00     0.198 C 
BRANCH  23  24
HETATM   24  O   UNL     1     -25.221  -3.043 -11.141  1.00  0.00    -0.398 OA
HETATM   25  H   UNL     1     -25.334  -2.082 -11.016  1.00  0.00     0.209 HD
ENDBRANCH  23  24
ENDBRANCH  22  23
BRANCH  22  26
HETATM   26  O   UNL     1     -23.804  -5.117 -11.547  1.00  0.00    -0.391 OA
HETATM   27  H   UNL     1     -24.687  -5.461 -11.764  1.00  0.00     0.210 HD
ENDBRANCH  22  26
ENDBRANCH  21  22
ENDBRANCH  20  21
ENDBRANCH  18  20
ENDBRANCH  17  18
ENDBRANCH  16  17
ENDBRANCH  15  16
ENDBRANCH   1  15
TORSDOF 22
BEGIN_RES ARG D 557
REMARK  4 active torsions:
REMARK  status: ('A' for Active; 'I' for Inactive)
REMARK    1  A    between atoms: CA   and  CB  
REMARK    2  A    between atoms: CB   and  CG  
REMARK    3  A    between atoms: CG   and  CD  
REMARK    4  A    between atoms: CD   and  NE  
REMARK       I    between atoms: NE   and  CZ  
REMARK       I    between atoms: CZ   and  NH1 
REMARK       I    between atoms: CZ   and  NH2 
ROOT
ATOM      1  CA  ARG D 557     -26.217   2.705 -17.014  1.00 35.49     0.159 C 
ENDROOT
BRANCH   1   2
ATOM      2  CB  ARG D 557     -26.789   1.319 -17.183  1.00 35.49     0.034 C 
BRANCH   2   3
ATOM      3  CG  ARG D 557     -25.923   0.196 -16.802  1.00 35.49     0.027 C 
BRANCH   3   4
ATOM      4  CD  ARG D 557     -26.653  -0.847 -16.046  1.00 35.49     0.116 C 
BRANCH   4   5
ATOM      5  NE  ARG D 557     -25.805  -1.525 -15.101  1.00 35.49    -0.212 N 
ATOM      6  CZ  ARG D 557     -25.853  -2.805 -14.806  1.00 35.49     0.666 C 
ATOM      7  NH1 ARG D 557     -26.727  -3.627 -15.356  1.00 35.49    -0.235 N 
ATOM      8  NH2 ARG D 557     -24.992  -3.254 -13.940  1.00 35.49    -0.235 N 
ATOM      9  HH  ARG D 557     -27.302  -3.354 -15.930  1.00 35.49     0.174 HD
ATOM     10  HH  ARG D 557     -26.710  -4.453 -15.127  1.00 35.49     0.174 HD
ATOM     11  HH  ARG D 557     -24.434  -2.702 -13.607  1.00 35.49     0.174 HD
ATOM     12  HH  ARG D 557     -24.990  -4.075 -13.727  1.00 35.49     0.174 HD
ATOM     13  HE  ARG D 557     -25.260  -1.057 -14.646  1.00 35.49     0.178 HD
ENDBRANCH   4   5
ENDBRANCH   3   4
ENDBRANCH   2   3
ENDBRANCH   1   2
END_RES ARG D 557
BEGIN_RES GLU D 570
REMARK  3 active torsions:
REMARK  status: ('A' for Active; 'I' for Inactive)
REMARK    5  A    between atoms: CA   and  CB  
REMARK    6  A    between atoms: CB   and  CG  
REMARK    7  A    between atoms: CG   and  CD  
ROOT
ATOM     14  CA  GLU D 570     -18.033  -6.348 -13.375  1.00 32.92     0.160 C 
ENDROOT
BRANCH  14  15
ATOM     15  CB  GLU D 570     -19.500  -6.345 -13.794  1.00 32.92     0.043 C 
BRANCH  15  16
ATOM     16  CG  GLU D 570     -20.444  -5.543 -12.974  1.00 32.92     0.100 C 
BRANCH  16  17
ATOM     17  CD  GLU D 570     -21.732  -5.226 -13.699  1.00 32.92     0.185 C 
ATOM     18  OE1 GLU D 570     -22.350  -6.147 -14.266  1.00 32.92    -0.647 OA
ATOM     19  OE2 GLU D 570     -22.117  -4.040 -13.716  1.00 32.92    -0.647 OA
ENDBRANCH  16  17
ENDBRANCH  15  16
ENDBRANCH  14  15
END_RES GLU D 570
ENDMDL
MODEL 6
REMARK VINA RESULT:      -6.7      1.658      2.453
REMARK  22 active torsions:
REMARK  status: ('A' for Active; 'I' for Inactive)
REMARK    1  A    between atoms: C_2  and  C_3 
REMARK    2  A    between atoms: C_3  and  C_4 
REMARK    3  A    between atoms: C_4  and  C_5 
REMARK    4  A    between atoms: C_5  and  C_6 
REMARK    5  A    between atoms: C_6  and  C_7 
REMARK    6  A    between atoms: C_7  and  C_8 
REMARK    7  A    between atoms: C_8  and  C_9 
REMARK    8  A    between atoms: C_9  and  C_10 
REMARK    9  A    between atoms: C_10  and  C_11 
REMARK   10  A    between atoms: C_11  and  C_12 
REMARK   11  A    between atoms: C_12  and  C_13 
REMARK   12  A    between atoms: C_13  and  C_14 
REMARK   13  A    between atoms: C_14  and  C_15 
REMARK   14  A    between atoms: C_15  and  C_16 
REMARK   15  A    between atoms: C_16  and  C_17 
REMARK   16  A    between atoms: C_17  and  C_18 
REMARK   17  A    between atoms: C_18  and  O_20 
REMARK   18  A    between atoms: O_20  and  C_21 
REMARK   19  A    between atoms: C_21  and  C_22 
REMARK   20  A    between atoms: C_22  and  C_23 
REMARK   21  A    between atoms: C_22  and  O_25 
REMARK   22  A    between atoms: C_23  and  O_24 
ROOT
HETATM    1  C   UNL     1     -20.474  -4.249  -7.087  1.00  0.00     0.000 C 
ENDROOT
BRANCH   1   2
HETATM    2  C   UNL     1     -20.734  -5.134  -5.879  1.00  0.00     0.000 C 
BRANCH   2   3
HETATM    3  C   UNL     1     -22.113  -5.765  -5.974  1.00  0.00     0.000 C 
BRANCH   3   4
HETATM    4  C   UNL     1     -22.353  -6.670  -4.778  1.00  0.00     0.000 C 
BRANCH   4   5
HETATM    5  C   UNL     1     -21.277  -6.443  -3.732  1.00  0.00     0.000 C 
BRANCH   5   6
HETATM    6  C   UNL     1     -21.183  -7.650  -2.817  1.00  0.00     0.000 C 
BRANCH   6   7
HETATM    7  C   UNL     1     -19.970  -8.484  -3.185  1.00  0.00     0.000 C 
BRANCH   7   8
HETATM    8  C   UNL     1     -20.284  -9.957  -3.003  1.00  0.00     0.000 C 
BRANCH   8   9
HETATM    9  C   UNL     1     -20.267 -10.309  -1.527  1.00  0.00     0.000 C 
BRANCH   9  10
HETATM   10  C   UNL     1     -21.557 -11.013  -1.148  1.00  0.00     0.000 C 
BRANCH  10  11
HETATM   11  C   UNL     1     -22.136 -10.392   0.113  1.00  0.00     0.000 C 
BRANCH  11  12
HETATM   12  C   UNL     1     -21.129  -9.435   0.731  1.00  0.00    -0.000 C 
BRANCH  12  13
HETATM   13  C   UNL     1     -21.802  -8.119   1.098  1.00  0.00    -0.005 C 
HETATM   14  C   UNL     1     -23.167  -8.026   0.444  1.00  0.00     0.005 C 
ENDBRANCH  12  13
ENDBRANCH  11  12
ENDBRANCH  10  11
ENDBRANCH   9  10
ENDBRANCH   8   9
ENDBRANCH   7   8
ENDBRANCH   6   7
ENDBRANCH   5   6
ENDBRANCH   4   5
ENDBRANCH   3   4
ENDBRANCH   2   3
ENDBRANCH   1   2
BRANCH   1  15
HETATM   15  C   UNL     1     -21.153  -4.826  -8.325  1.00  0.00     0.000 C 
BRANCH  15  16
HETATM   16  C   UNL     1     -22.007  -3.766  -9.002  1.00  0.00     0.010 C 
BRANCH  16  17
HETATM   17  C   UNL     1     -23.460  -4.210  -9.174  1.00  0.00     0.111 C 
BRANCH  17  18
HETATM   18  C   UNL     1     -24.078  -3.489 -10.347  1.00  0.00     0.258 C 
HETATM   19  O   UNL     1     -25.268  -3.167 -10.406  1.00  0.00    -0.265 OA
BRANCH  18  20
HETATM   20  O   UNL     1     -23.180  -3.330 -11.356  1.00  0.00    -0.319 OA
BRANCH  20  21
HETATM   21  C   UNL     1     -23.759  -2.822 -12.569  1.00  0.00     0.212 C 
BRANCH  21  22
HETATM   22  C   UNL     1     -22.927  -3.134 -13.811  1.00  0.00     0.166 C 
BRANCH  22  23
HETATM   23  C   UNL     1     -22.980  -4.621 -14.150  1.00  0.00     0.198 C 
BRANCH  23  24
HETATM   24  O   UNL     1     -24.114  -4.889 -14.953  1.00  0.00    -0.398 OA
HETATM   25  H   UNL     1     -24.870  -4.406 -14.570  1.00  0.00     0.209 HD
ENDBRANCH  23  24
ENDBRANCH  22  23
BRANCH  22  26
HETATM   26  O   UNL     1     -23.361  -2.336 -14.910  1.00  0.00    -0.391 OA
HETATM   27  H   UNL     1     -22.743  -2.442 -15.654  1.00  0.00     0.210 HD
ENDBRANCH  22  26
ENDBRANCH  21  22
ENDBRANCH  20  21
ENDBRANCH  18  20
ENDBRANCH  17  18
ENDBRANCH  16  17
ENDBRANCH  15  16
ENDBRANCH   1  15
TORSDOF 22
BEGIN_RES ARG D 557
REMARK  4 active torsions:
REMARK  status: ('A' for Active; 'I' for Inactive)
REMARK    1  A    between atoms: CA   and  CB  
REMARK    2  A    between atoms: CB   and  CG  
REMARK    3  A    between atoms: CG   and  CD  
REMARK    4  A    between atoms: CD   and  NE  
REMARK       I    between atoms: NE   and  CZ  
REMARK       I    between atoms: CZ   and  NH1 
REMARK       I    between atoms: CZ   and  NH2 
ROOT
ATOM      1  CA  ARG D 557     -26.217   2.705 -17.014  1.00 35.49     0.159 C 
ENDROOT
BRANCH   1   2
ATOM      2  CB  ARG D 557     -26.789   1.319 -17.183  1.00 35.49     0.034 C 
BRANCH   2   3
ATOM      3  CG  ARG D 557     -28.216   1.152 -16.880  1.00 35.49     0.027 C 
BRANCH   3   4
ATOM      4  CD  ARG D 557     -28.579  -0.264 -16.639  1.00 35.49     0.116 C 
BRANCH   4   5
ATOM      5  NE  ARG D 557     -27.551  -0.973 -15.924  1.00 35.49    -0.212 N 
ATOM      6  CZ  ARG D 557     -27.316  -2.264 -15.998  1.00 35.49     0.666 C 
ATOM      7  NH1 ARG D 557     -28.034  -3.074 -16.753  1.00 35.49    -0.235 N 
ATOM      8  NH2 ARG D 557     -26.327  -2.735 -15.294  1.00 35.49    -0.235 N 
ATOM      9  HH  ARG D 557     -28.688  -2.786 -17.226  1.00 35.49     0.174 HD
ATOM     10  HH  ARG D 557     -27.833  -3.907 -16.764  1.00 35.49     0.174 HD
ATOM     11  HH  ARG D 557     -25.876  -2.188 -14.821  1.00 35.49     0.174 HD
ATOM     12  HH  ARG D 557     -26.143  -3.562 -15.319  1.00 35.49     0.174 HD
ATOM     13  HE  ARG D 557     -27.087  -0.541 -15.358  1.00 35.49     0.178 HD
ENDBRANCH   4   5
ENDBRANCH   3   4
ENDBRANCH   2   3
ENDBRANCH   1   2
END_RES ARG D 557
BEGIN_RES GLU D 570
REMARK  3 active torsions:
REMARK  status: ('A' for Active; 'I' for Inactive)
REMARK    5  A    between atoms: CA   and  CB  
REMARK    6  A    between atoms: CB   and  CG  
REMARK    7  A    between atoms: CG   and  CD  
ROOT
ATOM     14  CA  GLU D 570     -18.033  -6.348 -13.375  1.00 32.92     0.160 C 
ENDROOT
BRANCH  14  15
ATOM     15  CB  GLU D 570     -19.500  -6.345 -13.794  1.00 32.92     0.043 C 
BRANCH  15  16
ATOM     16  CG  GLU D 570     -19.798  -6.195 -15.242  1.00 32.92     0.100 C 
BRANCH  16  17
ATOM     17  CD  GLU D 570     -20.697  -7.287 -15.774  1.00 32.92     0.185 C 
ATOM     18  OE1 GLU D 570     -21.510  -7.014 -16.678  1.00 32.92    -0.647 OA
ATOM     19  OE2 GLU D 570     -20.597  -8.424 -15.271  1.00 32.92    -0.647 OA
ENDBRANCH  16  17
ENDBRANCH  15  16
ENDBRANCH  14  15
END_RES GLU D 570
ENDMDL
MODEL 7
REMARK VINA RESULT:      -6.7      7.193     12.786
REMARK  22 active torsions:
REMARK  status: ('A' for Active; 'I' for Inactive)
REMARK    1  A    between atoms: C_2  and  C_3 
REMARK    2  A    between atoms: C_3  and  C_4 
REMARK    3  A    between atoms: C_4  and  C_5 
REMARK    4  A    between atoms: C_5  and  C_6 
REMARK    5  A    between atoms: C_6  and  C_7 
REMARK    6  A    between atoms: C_7  and  C_8 
REMARK    7  A    between atoms: C_8  and  C_9 
REMARK    8  A    between atoms: C_9  and  C_10 
REMARK    9  A    between atoms: C_10  and  C_11 
REMARK   10  A    between atoms: C_11  and  C_12 
REMARK   11  A    between atoms: C_12  and  C_13 
REMARK   12  A    between atoms: C_13  and  C_14 
REMARK   13  A    between atoms: C_14  and  C_15 
REMARK   14  A    between atoms: C_15  and  C_16 
REMARK   15  A    between atoms: C_16  and  C_17 
REMARK   16  A    between atoms: C_17  and  C_18 
REMARK   17  A    between atoms: C_18  and  O_20 
REMARK   18  A    between atoms: O_20  and  C_21 
REMARK   19  A    between atoms: C_21  and  C_22 
REMARK   20  A    between atoms: C_22  and  C_23 
REMARK   21  A    between atoms: C_22  and  O_25 
REMARK   22  A    between atoms: C_23  and  O_24 
ROOT
HETATM    1  C   UNL     1     -32.108  -4.695 -16.893  1.00  0.00     0.000 C 
ENDROOT
BRANCH   1   2
HETATM    2  C   UNL     1     -33.313  -4.072 -16.206  1.00  0.00     0.000 C 
BRANCH   2   3
HETATM    3  C   UNL     1     -33.812  -2.876 -16.998  1.00  0.00     0.000 C 
BRANCH   3   4
HETATM    4  C   UNL     1     -35.217  -2.508 -16.553  1.00  0.00     0.000 C 
BRANCH   4   5
HETATM    5  C   UNL     1     -35.415  -1.006 -16.649  1.00  0.00     0.000 C 
BRANCH   5   6
HETATM    6  C   UNL     1     -36.777  -0.628 -16.097  1.00  0.00     0.000 C 
BRANCH   6   7
HETATM    7  C   UNL     1     -36.619   0.409 -15.001  1.00  0.00     0.000 C 
BRANCH   7   8
HETATM    8  C   UNL     1     -35.194   0.929 -14.985  1.00  0.00     0.000 C 
BRANCH   8   9
HETATM    9  C   UNL     1     -34.667   0.944 -13.561  1.00  0.00     0.000 C 
BRANCH   9  10
HETATM   10  C   UNL     1     -35.565   0.107 -12.668  1.00  0.00     0.000 C 
BRANCH  10  11
HETATM   11  C   UNL     1     -34.753  -0.986 -11.994  1.00  0.00     0.000 C 
BRANCH  11  12
HETATM   12  C   UNL     1     -34.687  -2.213 -12.890  1.00  0.00    -0.000 C 
BRANCH  12  13
HETATM   13  C   UNL     1     -34.458  -3.467 -12.058  1.00  0.00    -0.005 C 
HETATM   14  C   UNL     1     -33.529  -3.167 -10.898  1.00  0.00     0.005 C 
ENDBRANCH  12  13
ENDBRANCH  11  12
ENDBRANCH  10  11
ENDBRANCH   9  10
ENDBRANCH   8   9
ENDBRANCH   7   8
ENDBRANCH   6   7
ENDBRANCH   5   6
ENDBRANCH   4   5
ENDBRANCH   3   4
ENDBRANCH   2   3
ENDBRANCH   1   2
BRANCH   1  15
HETATM   15  C   UNL     1     -31.264  -3.618 -17.565  1.00  0.00     0.000 C 
BRANCH  15  16
HETATM   16  C   UNL     1     -29.822  -4.082 -17.697  1.00  0.00     0.010 C 
BRANCH  16  17
HETATM   17  C   UNL     1     -29.466  -5.170 -16.684  1.00  0.00     0.111 C 
BRANCH  17  18
HETATM   18  C   UNL     1     -28.054  -4.966 -16.191  1.00  0.00     0.258 C 
HETATM   19  O   UNL     1     -27.456  -3.888 -16.244  1.00  0.00    -0.265 OA
BRANCH  18  20
HETATM   20  O   UNL     1     -27.504  -6.138 -15.774  1.00  0.00    -0.319 OA
BRANCH  20  21
HETATM   21  C   UNL     1     -26.374  -6.557 -16.557  1.00  0.00     0.212 C 
BRANCH  21  22
HETATM   22  C   UNL     1     -25.081  -6.645 -15.750  1.00  0.00     0.166 C 
BRANCH  22  23
HETATM   23  C   UNL     1     -23.951  -7.245 -16.582  1.00  0.00     0.198 C 
BRANCH  23  24
HETATM   24  O   UNL     1     -23.828  -8.626 -16.298  1.00  0.00    -0.398 OA
HETATM   25  H   UNL     1     -24.001  -8.750 -15.346  1.00  0.00     0.209 HD
ENDBRANCH  23  24
ENDBRANCH  22  23
BRANCH  22  26
HETATM   26  O   UNL     1     -24.726  -5.361 -15.243  1.00  0.00    -0.391 OA
HETATM   27  H   UNL     1     -23.766  -5.228 -15.335  1.00  0.00     0.210 HD
ENDBRANCH  22  26
ENDBRANCH  21  22
ENDBRANCH  20  21
ENDBRANCH  18  20
ENDBRANCH  17  18
ENDBRANCH  16  17
ENDBRANCH  15  16
ENDBRANCH   1  15
TORSDOF 22
BEGIN_RES ARG D 557
REMARK  4 active torsions:
REMARK  status: ('A' for Active; 'I' for Inactive)
REMARK    1  A    between atoms: CA   and  CB  
REMARK    2  A    between atoms: CB   and  CG  
REMARK    3  A    between atoms: CG   and  CD  
REMARK    4  A    between atoms: CD   and  NE  
REMARK       I    between atoms: NE   and  CZ  
REMARK       I    between atoms: CZ   and  NH1 
REMARK       I    between atoms: CZ   and  NH2 
ROOT
ATOM      1  CA  ARG D 557     -26.217   2.705 -17.014  1.00 35.49     0.159 C 
ENDROOT
BRANCH   1   2
ATOM      2  CB  ARG D 557     -26.789   1.319 -17.183  1.00 35.49     0.034 C 
BRANCH   2   3
ATOM      3  CG  ARG D 557     -25.862   0.195 -17.005  1.00 35.49     0.027 C 
BRANCH   3   4
ATOM      4  CD  ARG D 557     -26.221  -0.655 -15.847  1.00 35.49     0.116 C 
BRANCH   4   5
ATOM      5  NE  ARG D 557     -25.091  -0.918 -14.995  1.00 35.49    -0.212 N 
ATOM      6  CZ  ARG D 557     -24.938  -1.972 -14.226  1.00 35.49     0.666 C 
ATOM      7  NH1 ARG D 557     -25.846  -2.927 -14.142  1.00 35.49    -0.235 N 
ATOM      8  NH2 ARG D 557     -23.838  -2.057 -13.536  1.00 35.49    -0.235 N 
ATOM      9  HH  ARG D 557     -26.577  -2.893 -14.589  1.00 35.49     0.174 HD
ATOM     10  HH  ARG D 557     -25.690  -3.593 -13.626  1.00 35.49     0.174 HD
ATOM     11  HH  ARG D 557     -23.266  -1.430 -13.616  1.00 35.49     0.174 HD
ATOM     12  HH  ARG D 557     -23.701  -2.725 -13.031  1.00 35.49     0.174 HD
ATOM     13  HE  ARG D 557     -24.491  -0.319 -14.932  1.00 35.49     0.178 HD
ENDBRANCH   4   5
ENDBRANCH   3   4
ENDBRANCH   2   3
ENDBRANCH   1   2
END_RES ARG D 557
BEGIN_RES GLU D 570
REMARK  3 active torsions:
REMARK  status: ('A' for Active; 'I' for Inactive)
REMARK    5  A    between atoms: CA   and  CB  
REMARK    6  A    between atoms: CB   and  CG  
REMARK    7  A    between atoms: CG   and  CD  
ROOT
ATOM     14  CA  GLU D 570     -18.033  -6.348 -13.375  1.00 32.92     0.160 C 
ENDROOT
BRANCH  14  15
ATOM     15  CB  GLU D 570     -19.500  -6.345 -13.794  1.00 32.92     0.043 C 
BRANCH  15  16
ATOM     16  CG  GLU D 570     -20.444  -5.540 -12.976  1.00 32.92     0.100 C 
BRANCH  16  17
ATOM     17  CD  GLU D 570     -21.698  -5.160 -13.728  1.00 32.92     0.185 C 
ATOM     18  OE1 GLU D 570     -21.656  -5.071 -14.970  1.00 32.92    -0.647 OA
ATOM     19  OE2 GLU D 570     -22.730  -4.932 -13.066  1.00 32.92    -0.647 OA
ENDBRANCH  16  17
ENDBRANCH  15  16
ENDBRANCH  14  15
END_RES GLU D 570
ENDMDL
MODEL 8
REMARK VINA RESULT:      -6.5      7.296     12.255
REMARK  22 active torsions:
REMARK  status: ('A' for Active; 'I' for Inactive)
REMARK    1  A    between atoms: C_2  and  C_3 
REMARK    2  A    between atoms: C_3  and  C_4 
REMARK    3  A    between atoms: C_4  and  C_5 
REMARK    4  A    between atoms: C_5  and  C_6 
REMARK    5  A    between atoms: C_6  and  C_7 
REMARK    6  A    between atoms: C_7  and  C_8 
REMARK    7  A    between atoms: C_8  and  C_9 
REMARK    8  A    between atoms: C_9  and  C_10 
REMARK    9  A    between atoms: C_10  and  C_11 
REMARK   10  A    between atoms: C_11  and  C_12 
REMARK   11  A    between atoms: C_12  and  C_13 
REMARK   12  A    between atoms: C_13  and  C_14 
REMARK   13  A    between atoms: C_14  and  C_15 
REMARK   14  A    between atoms: C_15  and  C_16 
REMARK   15  A    between atoms: C_16  and  C_17 
REMARK   16  A    between atoms: C_17  and  C_18 
REMARK   17  A    between atoms: C_18  and  O_20 
REMARK   18  A    between atoms: O_20  and  C_21 
REMARK   19  A    between atoms: C_21  and  C_22 
REMARK   20  A    between atoms: C_22  and  C_23 
REMARK   21  A    between atoms: C_22  and  O_25 
REMARK   22  A    between atoms: C_23  and  O_24 
ROOT
HETATM    1  C   UNL     1     -34.301  -3.172 -16.521  1.00  0.00     0.000 C 
ENDROOT
BRANCH   1   2
HETATM    2  C   UNL     1     -34.971  -1.865 -16.912  1.00  0.00     0.000 C 
BRANCH   2   3
HETATM    3  C   UNL     1     -35.687  -1.260 -15.717  1.00  0.00     0.000 C 
BRANCH   3   4
HETATM    4  C   UNL     1     -35.643   0.257 -15.798  1.00  0.00     0.000 C 
BRANCH   4   5
HETATM    5  C   UNL     1     -34.973   0.823 -14.559  1.00  0.00     0.000 C 
BRANCH   5   6
HETATM    6  C   UNL     1     -35.644   0.278 -13.313  1.00  0.00     0.000 C 
BRANCH   6   7
HETATM    7  C   UNL     1     -34.599  -0.285 -12.368  1.00  0.00     0.000 C 
BRANCH   7   8
HETATM    8  C   UNL     1     -34.953  -1.713 -12.000  1.00  0.00     0.000 C 
BRANCH   8   9
HETATM    9  C   UNL     1     -34.025  -2.208 -10.905  1.00  0.00     0.000 C 
BRANCH   9  10
HETATM   10  C   UNL     1     -33.169  -3.348 -11.429  1.00  0.00     0.000 C 
BRANCH  10  11
HETATM   11  C   UNL     1     -33.908  -4.085 -12.534  1.00  0.00     0.000 C 
BRANCH  11  12
HETATM   12  C   UNL     1     -34.690  -5.250 -11.950  1.00  0.00    -0.000 C 
BRANCH  12  13
HETATM   13  C   UNL     1     -34.153  -5.614 -10.573  1.00  0.00    -0.005 C 
HETATM   14  C   UNL     1     -34.641  -6.990 -10.164  1.00  0.00     0.005 C 
ENDBRANCH  12  13
ENDBRANCH  11  12
ENDBRANCH  10  11
ENDBRANCH   9  10
ENDBRANCH   8   9
ENDBRANCH   7   8
ENDBRANCH   6   7
ENDBRANCH   5   6
ENDBRANCH   4   5
ENDBRANCH   3   4
ENDBRANCH   2   3
ENDBRANCH   1   2
BRANCH   1  15
HETATM   15  C   UNL     1     -33.006  -3.360 -17.304  1.00  0.00     0.000 C 
BRANCH  15  16
HETATM   16  C   UNL     1     -32.166  -4.461 -16.678  1.00  0.00     0.010 C 
BRANCH  16  17
HETATM   17  C   UNL     1     -30.834  -4.660 -17.401  1.00  0.00     0.111 C 
BRANCH  17  18
HETATM   18  C   UNL     1     -29.790  -5.143 -16.424  1.00  0.00     0.258 C 
HETATM   19  O   UNL     1     -30.044  -5.519 -15.276  1.00  0.00    -0.265 OA
BRANCH  18  20
HETATM   20  O   UNL     1     -28.538  -5.020 -16.941  1.00  0.00    -0.319 OA
BRANCH  20  21
HETATM   21  C   UNL     1     -27.492  -5.255 -15.984  1.00  0.00     0.212 C 
BRANCH  21  22
HETATM   22  C   UNL     1     -26.987  -6.696 -15.984  1.00  0.00     0.166 C 
BRANCH  22  23
HETATM   23  C   UNL     1     -25.491  -6.755 -15.687  1.00  0.00     0.198 C 
BRANCH  23  24
HETATM   24  O   UNL     1     -24.964  -7.991 -16.132  1.00  0.00    -0.398 OA
HETATM   25  H   UNL     1     -24.006  -7.991 -15.946  1.00  0.00     0.209 HD
ENDBRANCH  23  24
ENDBRANCH  22  23
BRANCH  22  26
HETATM   26  O   UNL     1     -27.731  -7.481 -15.056  1.00  0.00    -0.391 OA
HETATM   27  H   UNL     1     -27.774  -8.401 -15.367  1.00  0.00     0.210 HD
ENDBRANCH  22  26
ENDBRANCH  21  22
ENDBRANCH  20  21
ENDBRANCH  18  20
ENDBRANCH  17  18
ENDBRANCH  16  17
ENDBRANCH  15  16
ENDBRANCH   1  15
TORSDOF 22
BEGIN_RES ARG D 557
REMARK  4 active torsions:
REMARK  status: ('A' for Active; 'I' for Inactive)
REMARK    1  A    between atoms: CA   and  CB  
REMARK    2  A    between atoms: CB   and  CG  
REMARK    3  A    between atoms: CG   and  CD  
REMARK    4  A    between atoms: CD   and  NE  
REMARK       I    between atoms: NE   and  CZ  
REMARK       I    between atoms: CZ   and  NH1 
REMARK       I    between atoms: CZ   and  NH2 
ROOT
ATOM      1  CA  ARG D 557     -26.217   2.705 -17.014  1.00 35.49     0.159 C 
ENDROOT
BRANCH   1   2
ATOM      2  CB  ARG D 557     -26.789   1.319 -17.183  1.00 35.49     0.034 C 
BRANCH   2   3
ATOM      3  CG  ARG D 557     -25.837   0.202 -17.142  1.00 35.49     0.027 C 
BRANCH   3   4
ATOM      4  CD  ARG D 557     -24.758   0.416 -16.151  1.00 35.49     0.116 C 
BRANCH   4   5
ATOM      5  NE  ARG D 557     -24.897  -0.442 -15.004  1.00 35.49    -0.212 N 
ATOM      6  CZ  ARG D 557     -24.070  -1.403 -14.659  1.00 35.49     0.666 C 
ATOM      7  NH1 ARG D 557     -22.994  -1.700 -15.364  1.00 35.49    -0.235 N 
ATOM      8  NH2 ARG D 557     -24.342  -2.068 -13.574  1.00 35.49    -0.235 N 
ATOM      9  HH  ARG D 557     -22.795  -1.274 -16.080  1.00 35.49     0.174 HD
ATOM     10  HH  ARG D 557     -22.490  -2.336 -15.089  1.00 35.49     0.174 HD
ATOM     11  HH  ARG D 557     -25.039  -1.850 -13.135  1.00 35.49     0.174 HD
ATOM     12  HH  ARG D 557     -23.829  -2.693 -13.317  1.00 35.49     0.174 HD
ATOM     13  HE  ARG D 557     -25.602  -0.369 -14.533  1.00 35.49     0.178 HD
ENDBRANCH   4   5
ENDBRANCH   3   4
ENDBRANCH   2   3
ENDBRANCH   1   2
END_RES ARG D 557
BEGIN_RES GLU D 570
REMARK  3 active torsions:
REMARK  status: ('A' for Active; 'I' for Inactive)
REMARK    5  A    between atoms: CA   and  CB  
REMARK    6  A    between atoms: CB   and  CG  
REMARK    7  A    between atoms: CG   and  CD  
ROOT
ATOM     14  CA  GLU D 570     -18.033  -6.348 -13.375  1.00 32.92     0.160 C 
ENDROOT
BRANCH  14  15
ATOM     15  CB  GLU D 570     -19.500  -6.345 -13.794  1.00 32.92     0.043 C 
BRANCH  15  16
ATOM     16  CG  GLU D 570     -20.439  -5.517 -12.994  1.00 32.92     0.100 C 
BRANCH  16  17
ATOM     17  CD  GLU D 570     -21.716  -5.193 -13.733  1.00 32.92     0.185 C 
ATOM     18  OE1 GLU D 570     -22.131  -5.985 -14.601  1.00 32.92    -0.647 OA
ATOM     19  OE2 GLU D 570     -22.299  -4.127 -13.454  1.00 32.92    -0.647 OA
ENDBRANCH  16  17
ENDBRANCH  15  16
ENDBRANCH  14  15
END_RES GLU D 570
ENDMDL
MODEL 9
REMARK VINA RESULT:      -6.5      2.337      4.081
REMARK  22 active torsions:
REMARK  status: ('A' for Active; 'I' for Inactive)
REMARK    1  A    between atoms: C_2  and  C_3 
REMARK    2  A    between atoms: C_3  and  C_4 
REMARK    3  A    between atoms: C_4  and  C_5 
REMARK    4  A    between atoms: C_5  and  C_6 
REMARK    5  A    between atoms: C_6  and  C_7 
REMARK    6  A    between atoms: C_7  and  C_8 
REMARK    7  A    between atoms: C_8  and  C_9 
REMARK    8  A    between atoms: C_9  and  C_10 
REMARK    9  A    between atoms: C_10  and  C_11 
REMARK   10  A    between atoms: C_11  and  C_12 
REMARK   11  A    between atoms: C_12  and  C_13 
REMARK   12  A    between atoms: C_13  and  C_14 
REMARK   13  A    between atoms: C_14  and  C_15 
REMARK   14  A    between atoms: C_15  and  C_16 
REMARK   15  A    between atoms: C_16  and  C_17 
REMARK   16  A    between atoms: C_17  and  C_18 
REMARK   17  A    between atoms: C_18  and  O_20 
REMARK   18  A    between atoms: O_20  and  C_21 
REMARK   19  A    between atoms: C_21  and  C_22 
REMARK   20  A    between atoms: C_22  and  C_23 
REMARK   21  A    between atoms: C_22  and  O_25 
REMARK   22  A    between atoms: C_23  and  O_24 
ROOT
HETATM    1  C   UNL     1     -21.267  -5.989  -4.335  1.00  0.00     0.000 C 
ENDROOT
BRANCH   1   2
HETATM    2  C   UNL     1     -21.483  -7.361  -3.716  1.00  0.00     0.000 C 
BRANCH   2   3
HETATM    3  C   UNL     1     -21.110  -7.341  -2.244  1.00  0.00     0.000 C 
BRANCH   3   4
HETATM    4  C   UNL     1     -22.094  -6.478  -1.472  1.00  0.00     0.000 C 
BRANCH   4   5
HETATM    5  C   UNL     1     -22.699  -7.275  -0.331  1.00  0.00     0.000 C 
BRANCH   5   6
HETATM    6  C   UNL     1     -21.759  -8.395   0.073  1.00  0.00     0.000 C 
BRANCH   6   7
HETATM    7  C   UNL     1     -22.488  -9.725   0.021  1.00  0.00     0.000 C 
BRANCH   7   8
HETATM    8  C   UNL     1     -21.493 -10.863   0.144  1.00  0.00     0.000 C 
BRANCH   8   9
HETATM    9  C   UNL     1     -20.184 -10.478  -0.522  1.00  0.00     0.000 C 
BRANCH   9  10
HETATM   10  C   UNL     1     -19.933 -11.371  -1.724  1.00  0.00     0.000 C 
BRANCH  10  11
HETATM   11  C   UNL     1     -18.688 -10.907  -2.463  1.00  0.00     0.000 C 
BRANCH  11  12
HETATM   12  C   UNL     1     -17.483 -11.716  -2.012  1.00  0.00    -0.000 C 
BRANCH  12  13
HETATM   13  C   UNL     1     -16.217 -10.875  -2.094  1.00  0.00    -0.005 C 
HETATM   14  C   UNL     1     -16.492  -9.581  -2.833  1.00  0.00     0.005 C 
ENDBRANCH  12  13
ENDBRANCH  11  12
ENDBRANCH  10  11
ENDBRANCH   9  10
ENDBRANCH   8   9
ENDBRANCH   7   8
ENDBRANCH   6   7
ENDBRANCH   5   6
ENDBRANCH   4   5
ENDBRANCH   3   4
ENDBRANCH   2   3
ENDBRANCH   1   2
BRANCH   1  15
HETATM   15  C   UNL     1     -20.226  -6.066  -5.447  1.00  0.00     0.000 C 
BRANCH  15  16
HETATM   16  C   UNL     1     -20.341  -4.858  -6.363  1.00  0.00     0.010 C 
BRANCH  16  17
HETATM   17  C   UNL     1     -21.162  -5.155  -7.618  1.00  0.00     0.111 C 
BRANCH  17  18
HETATM   18  C   UNL     1     -22.435  -4.345  -7.599  1.00  0.00     0.258 C 
HETATM   19  O   UNL     1     -23.374  -4.559  -6.826  1.00  0.00    -0.265 OA
BRANCH  18  20
HETATM   20  O   UNL     1     -22.447  -3.422  -8.597  1.00  0.00    -0.319 OA
BRANCH  20  21
HETATM   21  C   UNL     1     -22.257  -3.985  -9.906  1.00  0.00     0.212 C 
BRANCH  21  22
HETATM   22  C   UNL     1     -23.402  -3.673 -10.868  1.00  0.00     0.166 C 
BRANCH  22  23
HETATM   23  C   UNL     1     -24.702  -3.414 -10.112  1.00  0.00     0.198 C 
BRANCH  23  24
HETATM   24  O   UNL     1     -25.153  -4.614  -9.512  1.00  0.00    -0.398 OA
HETATM   25  H   UNL     1     -25.706  -5.083 -10.165  1.00  0.00     0.209 HD
ENDBRANCH  23  24
ENDBRANCH  22  23
BRANCH  22  26
HETATM   26  O   UNL     1     -23.059  -2.569 -11.703  1.00  0.00    -0.391 OA
HETATM   27  H   UNL     1     -22.595  -2.891 -12.495  1.00  0.00     0.210 HD
ENDBRANCH  22  26
ENDBRANCH  21  22
ENDBRANCH  20  21
ENDBRANCH  18  20
ENDBRANCH  17  18
ENDBRANCH  16  17
ENDBRANCH  15  16
ENDBRANCH   1  15
TORSDOF 22
BEGIN_RES ARG D 557
REMARK  4 active torsions:
REMARK  status: ('A' for Active; 'I' for Inactive)
REMARK    1  A    between atoms: CA   and  CB  
REMARK    2  A    between atoms: CB   and  CG  
REMARK    3  A    between atoms: CG   and  CD  
REMARK    4  A    between atoms: CD   and  NE  
REMARK       I    between atoms: NE   and  CZ  
REMARK       I    between atoms: CZ   and  NH1 
REMARK       I    between atoms: CZ   and  NH2 
ROOT
ATOM      1  CA  ARG D 557     -26.217   2.705 -17.014  1.00 35.49     0.159 C 
ENDROOT
BRANCH   1   2
ATOM      2  CB  ARG D 557     -26.789   1.319 -17.183  1.00 35.49     0.034 C 
BRANCH   2   3
ATOM      3  CG  ARG D 557     -25.927   0.196 -16.794  1.00 35.49     0.027 C 
BRANCH   3   4
ATOM      4  CD  ARG D 557     -26.674  -0.872 -16.091  1.00 35.49     0.116 C 
BRANCH   4   5
ATOM      5  NE  ARG D 557     -25.851  -1.575 -15.143  1.00 35.49    -0.212 N 
ATOM      6  CZ  ARG D 557     -25.941  -2.852 -14.846  1.00 35.49     0.666 C 
ATOM      7  NH1 ARG D 557     -26.838  -3.647 -15.399  1.00 35.49    -0.235 N 
ATOM      8  NH2 ARG D 557     -25.097  -3.327 -13.976  1.00 35.49    -0.235 N 
ATOM      9  HH  ARG D 557     -27.402  -3.356 -15.975  1.00 35.49     0.174 HD
ATOM     10  HH  ARG D 557     -26.848  -4.472 -15.168  1.00 35.49     0.174 HD
ATOM     11  HH  ARG D 557     -24.524  -2.792 -13.641  1.00 35.49     0.174 HD
ATOM     12  HH  ARG D 557     -25.122  -4.147 -13.763  1.00 35.49     0.174 HD
ATOM     13  HE  ARG D 557     -25.293  -1.124 -14.686  1.00 35.49     0.178 HD
ENDBRANCH   4   5
ENDBRANCH   3   4
ENDBRANCH   2   3
ENDBRANCH   1   2
END_RES ARG D 557
BEGIN_RES GLU D 570
REMARK  3 active torsions:
REMARK  status: ('A' for Active; 'I' for Inactive)
REMARK    5  A    between atoms: CA   and  CB  
REMARK    6  A    between atoms: CB   and  CG  
REMARK    7  A    between atoms: CG   and  CD  
ROOT
ATOM     14  CA  GLU D 570     -18.033  -6.348 -13.375  1.00 32.92     0.160 C 
ENDROOT
BRANCH  14  15
ATOM     15  CB  GLU D 570     -19.500  -6.345 -13.794  1.00 32.92     0.043 C 
BRANCH  15  16
ATOM     16  CG  GLU D 570     -20.416  -5.422 -13.075  1.00 32.92     0.100 C 
BRANCH  16  17
ATOM     17  CD  GLU D 570     -21.724  -5.207 -13.798  1.00 32.92     0.185 C 
ATOM     18  OE1 GLU D 570     -22.314  -6.191 -14.286  1.00 32.92    -0.647 OA
ATOM     19  OE2 GLU D 570     -22.156  -4.042 -13.893  1.00 32.92    -0.647 OA
ENDBRANCH  16  17
ENDBRANCH  15  16
ENDBRANCH  14  15
END_RES GLU D 570
ENDMDL
