MODEL 1
REMARK VINA RESULT:      -7.3      0.000      0.000
REMARK  29 active torsions:
REMARK  status: ('A' for Active; 'I' for Inactive)
REMARK    1  A    between atoms: C_3  and  C_5 
REMARK    2  A    between atoms: C_5  and  O_7 
REMARK    3  A    between atoms: O_7  and  C_8 
REMARK    4  A    between atoms: C_9  and  O_76 
REMARK    5  A    between atoms: C_10  and  C_74 
REMARK    6  A    between atoms: C_23  and  O_38 
REMARK    7  A    between atoms: C_24  and  C_36 
REMARK    8  A    between atoms: C_31  and  O_32 
REMARK    9  A    between atoms: C_36  and  O_37 
REMARK   10  A    between atoms: O_38  and  C_39 
REMARK   11  A    between atoms: C_40  and  O_61 
REMARK   12  A    between atoms: C_41  and  O_60 
REMARK   13  A    between atoms: C_42  and  O_48 
REMARK   14  A    between atoms: C_43  and  C_45 
REMARK   15  A    between atoms: C_45  and  O_47 
REMARK   16  A    between atoms: O_48  and  C_49 
REMARK   17  A    between atoms: C_50  and  O_59 
REMARK   18  A    between atoms: C_51  and  O_58 
REMARK   19  A    between atoms: C_52  and  O_57 
REMARK   20  A    between atoms: C_53  and  C_55 
REMARK   21  A    between atoms: C_55  and  O_56 
REMARK   22  A    between atoms: O_61  and  C_62 
REMARK   23  A    between atoms: C_63  and  O_72 
REMARK   24  A    between atoms: C_64  and  O_71 
REMARK   25  A    between atoms: C_65  and  O_70 
REMARK   26  A    between atoms: C_66  and  C_68 
REMARK   27  A    between atoms: C_68  and  O_69 
REMARK   28  A    between atoms: C_74  and  O_75 
REMARK   29  A    between atoms: O_76  and  C_77 
ROOT
HETATM    1  C   UNL     1     -14.257 -14.781  -2.581  1.00  0.00     0.170 C 
HETATM    2  C   UNL     1     -14.340 -13.623  -1.442  1.00  0.00     0.176 C 
HETATM    3  C   UNL     1     -15.629 -12.946  -1.909  1.00  0.00     0.043 C 
HETATM    4  C   UNL     1     -16.735 -14.381  -1.626  1.00  0.00     0.032 C 
HETATM    5  C   UNL     1     -16.436 -15.783  -2.337  1.00  0.00     0.021 C 
HETATM    6  C   UNL     1     -14.934 -16.099  -2.113  1.00  0.00    -0.018 C 
HETATM    7  C   UNL     1     -14.820 -16.634  -0.653  1.00  0.00     0.018 C 
HETATM    8  C   UNL     1     -14.258 -17.182  -2.945  1.00  0.00     0.018 C 
HETATM    9  C   UNL     1     -18.082 -14.347  -0.878  1.00  0.00    -0.069 C 
HETATM   10  C   UNL     1     -18.932 -15.432  -0.716  1.00  0.00    -0.022 C 
HETATM   11  C   UNL     1     -20.536 -15.450  -0.628  1.00  0.00     0.033 C 
HETATM   12  C   UNL     1     -21.067 -14.045  -0.364  1.00  0.00     0.007 C 
HETATM   13  C   UNL     1     -22.719 -13.121  -0.477  1.00  0.00    -0.035 C 
HETATM   14  C   UNL     1     -23.420 -12.764  -1.786  1.00  0.00     0.012 C 
HETATM   15  C   UNL     1     -22.913 -11.550  -2.583  1.00  0.00     0.034 C 
HETATM   16  C   UNL     1     -22.036 -10.346  -2.009  1.00  0.00     0.135 C 
HETATM   17  C   UNL     1     -21.848  -9.870  -0.293  1.00  0.00     0.008 C 
HETATM   18  C   UNL     1     -22.564 -11.490   0.217  1.00  0.00     0.007 C 
HETATM   19  C   UNL     1     -21.498 -12.040   1.034  1.00  0.00     0.007 C 
HETATM   20  C   UNL     1     -20.504 -11.975  -0.312  1.00  0.00     0.011 C 
HETATM   21  C   UNL     1     -19.981 -13.141  -0.961  1.00  0.00    -0.028 C 
HETATM   22  C   UNL     1     -18.487 -12.944  -0.556  1.00  0.00    -0.011 C 
HETATM   23  C   UNL     1     -17.737 -11.867  -1.462  1.00  0.00     0.047 C 
HETATM   24  C   UNL     1     -16.242 -11.812  -1.101  1.00  0.00     0.133 C 
HETATM   25  C   UNL     1     -18.134 -12.306   0.876  1.00  0.00     0.021 C 
HETATM   26  C   UNL     1     -20.073 -13.396  -2.538  1.00  0.00     0.016 C 
HETATM   27  C   UNL     1     -20.636  -9.784   1.118  1.00  0.00     0.020 C 
HETATM   28  C   UNL     1     -23.787 -13.843   0.429  1.00  0.00     0.016 C 
ENDROOT
BRANCH  16  29
HETATM   29  O   UNL     1     -22.102  -9.278  -2.944  1.00  0.00    -0.352 OA
BRANCH  29  30
HETATM   30  C   UNL     1     -21.120  -9.093  -3.947  1.00  0.00     0.293 C 
HETATM   31  C   UNL     1     -21.614  -9.284  -5.370  1.00  0.00     0.211 C 
HETATM   32  C   UNL     1     -21.344 -10.694  -5.833  1.00  0.00     0.184 C 
HETATM   33  C   UNL     1     -19.904 -11.220  -5.689  1.00  0.00     0.195 C 
HETATM   34  C   UNL     1     -19.118 -10.453  -4.586  1.00  0.00     0.253 C 
HETATM   35  O   UNL     1     -19.921  -9.771  -3.608  1.00  0.00    -0.340 OA
BRANCH  31  36
HETATM   36  O   UNL     1     -21.354  -8.224  -6.301  1.00  0.00    -0.346 OA
BRANCH  36  37
HETATM   37  C   UNL     1     -20.828  -6.997  -5.831  1.00  0.00     0.292 C 
HETATM   38  C   UNL     1     -21.895  -6.019  -5.323  1.00  0.00     0.204 C 
HETATM   39  C   UNL     1     -22.848  -5.734  -6.484  1.00  0.00     0.183 C 
HETATM   40  C   UNL     1     -22.070  -4.954  -7.542  1.00  0.00     0.180 C 
HETATM   41  C   UNL     1     -20.785  -5.732  -7.938  1.00  0.00     0.179 C 
HETATM   42  O   UNL     1     -20.068  -6.360  -6.860  1.00  0.00    -0.348 OA
BRANCH  38  43
HETATM   43  O   UNL     1     -21.275  -4.822  -4.842  1.00  0.00    -0.388 OA
HETATM   44  H   UNL     1     -21.187  -4.255  -5.634  1.00  0.00     0.210 HD
ENDBRANCH  38  43
BRANCH  39  45
HETATM   45  O   UNL     1     -23.983  -5.019  -5.981  1.00  0.00    -0.390 OA
HETATM   46  H   UNL     1     -24.392  -4.550  -6.729  1.00  0.00     0.210 HD
ENDBRANCH  39  45
BRANCH  40  47
HETATM   47  O   UNL     1     -21.777  -3.637  -7.049  1.00  0.00    -0.390 OA
HETATM   48  H   UNL     1     -20.801  -3.537  -7.173  1.00  0.00     0.210 HD
ENDBRANCH  40  47
BRANCH  41  49
HETATM   49  C   UNL     1     -19.760  -4.814  -8.635  1.00  0.00     0.198 C 
BRANCH  49  50
HETATM   50  O   UNL     1     -20.359  -3.887  -9.550  1.00  0.00    -0.398 OA
HETATM   51  H   UNL     1     -20.990  -3.348  -9.036  1.00  0.00     0.209 HD
ENDBRANCH  49  50
ENDBRANCH  41  49
ENDBRANCH  36  37
ENDBRANCH  31  36
BRANCH  32  52
HETATM   52  O   UNL     1     -21.979 -10.854  -7.095  1.00  0.00    -0.390 OA
HETATM   53  H   UNL     1     -21.396 -10.474  -7.779  1.00  0.00     0.210 HD
ENDBRANCH  32  52
BRANCH  33  54
HETATM   54  O   UNL     1     -19.223 -11.537  -6.943  1.00  0.00    -0.347 OA
BRANCH  54  55
HETATM   55  C   UNL     1     -18.433 -12.767  -6.806  1.00  0.00     0.292 C 
HETATM   56  C   UNL     1     -17.866 -13.298  -8.136  1.00  0.00     0.204 C 
HETATM   57  C   UNL     1     -18.875 -14.230  -8.800  1.00  0.00     0.183 C 
HETATM   58  C   UNL     1     -19.291 -15.341  -7.843  1.00  0.00     0.180 C 
HETATM   59  C   UNL     1     -19.881 -14.739  -6.555  1.00  0.00     0.179 C 
HETATM   60  O   UNL     1     -19.028 -13.761  -5.960  1.00  0.00    -0.348 OA
BRANCH  56  61
HETATM   61  O   UNL     1     -16.612 -13.965  -7.866  1.00  0.00    -0.388 OA
HETATM   62  H   UNL     1     -16.397 -14.493  -8.665  1.00  0.00     0.210 HD
ENDBRANCH  56  61
BRANCH  57  63
HETATM   63  O   UNL     1     -18.306 -14.821  -9.974  1.00  0.00    -0.390 OA
HETATM   64  H   UNL     1     -18.066 -14.062 -10.547  1.00  0.00     0.210 HD
ENDBRANCH  57  63
BRANCH  58  65
HETATM   65  O   UNL     1     -18.110 -16.141  -7.619  1.00  0.00    -0.390 OA
HETATM   66  H   UNL     1     -17.633 -16.198  -8.480  1.00  0.00     0.210 HD
ENDBRANCH  58  65
BRANCH  59  67
HETATM   67  C   UNL     1     -20.157 -15.854  -5.513  1.00  0.00     0.198 C 
BRANCH  67  68
HETATM   68  O   UNL     1     -18.949 -16.256  -4.844  1.00  0.00    -0.398 OA
HETATM   69  H   UNL     1     -18.202 -15.857  -5.329  1.00  0.00     0.209 HD
ENDBRANCH  67  68
ENDBRANCH  59  67
ENDBRANCH  54  55
ENDBRANCH  33  54
BRANCH  34  70
HETATM   70  C   UNL     1     -17.809  -9.712  -4.893  1.00  0.00     0.172 C 
HETATM   71  O   UNL     1     -17.504  -9.369  -6.029  1.00  0.00    -0.648 OA
BRANCH  70  72
HETATM   72  O   UNL     1     -17.054  -9.373  -3.830  1.00  0.00    -0.774 OA
HETATM   73  H   UNL     1     -17.442  -8.694  -3.237  1.00  0.00     0.167 HD
ENDBRANCH  70  72
ENDBRANCH  34  70
ENDBRANCH  29  30
ENDBRANCH  16  29
BRANCH  17  74
HETATM   74  C   UNL     1     -20.512  -8.873  -0.846  1.00  0.00     0.176 C 
BRANCH  74  75
HETATM   75  O   UNL     1     -20.845  -7.522  -1.120  1.00  0.00    -0.400 OA
HETATM   76  H   UNL     1     -21.605  -7.564  -1.724  1.00  0.00     0.209 HD
ENDBRANCH  74  75
ENDBRANCH  17  74
BRANCH  24  77
HETATM   77  O   UNL     1     -15.754 -10.476  -1.295  1.00  0.00    -0.395 OA
HETATM   78  H   UNL     1     -16.241 -10.065  -2.042  1.00  0.00     0.210 HD
ENDBRANCH  24  77
BRANCH   3  79
HETATM   79  C   UNL     1     -15.038 -12.103  -3.164  1.00  0.00     0.179 C 
BRANCH  79  80
HETATM   80  O   UNL     1     -15.945 -11.863  -4.232  1.00  0.00    -0.400 OA
HETATM   81  H   UNL     1     -15.672 -12.427  -4.976  1.00  0.00     0.209 HD
ENDBRANCH  79  80
ENDBRANCH   3  79
BRANCH   2  82
HETATM   82  O   UNL     1     -14.578 -14.137  -0.077  1.00  0.00    -0.313 OA
BRANCH  82  83
HETATM   83  C   UNL     1     -14.037 -13.782   1.108  1.00  0.00     0.255 C 
HETATM   84  O   UNL     1     -12.851 -13.576   1.294  1.00  0.00    -0.266 OA
HETATM   85  C   UNL     1     -15.114 -13.672   2.192  1.00  0.00     0.126 C 
ENDBRANCH  82  83
ENDBRANCH   2  82
BRANCH   1  86
HETATM   86  O   UNL     1     -15.229 -14.438  -3.868  1.00  0.00    -0.309 OA
BRANCH  86  87
HETATM   87  C   UNL     1     -15.335 -14.985  -5.043  1.00  0.00     0.289 C 
HETATM   88  O   UNL     1     -16.319 -15.394  -5.569  1.00  0.00    -0.260 OA
BRANCH  87  89
HETATM   89  C   UNL     1     -13.939 -15.155  -5.843  1.00  0.00     0.009 C 
HETATM   90  C   UNL     1     -13.421 -16.335  -6.211  1.00  0.00    -0.018 C 
HETATM   91  C   UNL     1     -12.001 -16.562  -6.739  1.00  0.00     0.036 C 
HETATM   92  C   UNL     1     -13.207 -13.874  -6.140  1.00  0.00     0.054 C 
ENDBRANCH  87  89
ENDBRANCH  86  87
ENDBRANCH   1  86
TORSDOF 29
BEGIN_RES ARG D 557
REMARK  4 active torsions:
REMARK  status: ('A' for Active; 'I' for Inactive)
REMARK    1  A    between atoms: CA   and  CB  
REMARK    2  A    between atoms: CB   and  CG  
REMARK    3  A    between atoms: CG   and  CD  
REMARK    4  A    between atoms: CD   and  NE  
REMARK       I    between atoms: NE   and  CZ  
REMARK       I    between atoms: CZ   and  NH1 
REMARK       I    between atoms: CZ   and  NH2 
ROOT
ATOM      1  CA  ARG D 557     -26.217   2.705 -17.014  1.00 35.49     0.159 C 
ENDROOT
BRANCH   1   2
ATOM      2  CB  ARG D 557     -26.789   1.319 -17.183  1.00 35.49     0.034 C 
BRANCH   2   3
ATOM      3  CG  ARG D 557     -25.836   0.203 -17.154  1.00 35.49     0.027 C 
BRANCH   3   4
ATOM      4  CD  ARG D 557     -24.766   0.401 -16.150  1.00 35.49     0.116 C 
BRANCH   4   5
ATOM      5  NE  ARG D 557     -24.930  -0.455 -15.005  1.00 35.49    -0.212 N 
ATOM      6  CZ  ARG D 557     -24.125  -1.434 -14.656  1.00 35.49     0.666 C 
ATOM      7  NH1 ARG D 557     -23.051  -1.752 -15.354  1.00 35.49    -0.235 N 
ATOM      8  NH2 ARG D 557     -24.418  -2.095 -13.573  1.00 35.49    -0.235 N 
ATOM      9  HH  ARG D 557     -22.838  -1.329 -16.068  1.00 35.49     0.174 HD
ATOM     10  HH  ARG D 557     -22.562  -2.398 -15.076  1.00 35.49     0.174 HD
ATOM     11  HH  ARG D 557     -25.114  -1.862 -13.139  1.00 35.49     0.174 HD
ATOM     12  HH  ARG D 557     -23.920  -2.730 -13.314  1.00 35.49     0.174 HD
ATOM     13  HE  ARG D 557     -25.636  -0.368 -14.539  1.00 35.49     0.178 HD
ENDBRANCH   4   5
ENDBRANCH   3   4
ENDBRANCH   2   3
ENDBRANCH   1   2
END_RES ARG D 557
BEGIN_RES GLU D 570
REMARK  3 active torsions:
REMARK  status: ('A' for Active; 'I' for Inactive)
REMARK    5  A    between atoms: CA   and  CB  
REMARK    6  A    between atoms: CB   and  CG  
REMARK    7  A    between atoms: CG   and  CD  
ROOT
ATOM     14  CA  GLU D 570     -18.033  -6.348 -13.375  1.00 32.92     0.160 C 
ENDROOT
BRANCH  14  15
ATOM     15  CB  GLU D 570     -19.500  -6.345 -13.794  1.00 32.92     0.043 C 
BRANCH  15  16
ATOM     16  CG  GLU D 570     -20.441  -5.527 -12.986  1.00 32.92     0.100 C 
BRANCH  16  17
ATOM     17  CD  GLU D 570     -21.662  -5.094 -13.763  1.00 32.92     0.185 C 
ATOM     18  OE1 GLU D 570     -21.908  -5.638 -14.857  1.00 32.92    -0.647 OA
ATOM     19  OE2 GLU D 570     -22.372  -4.189 -13.281  1.00 32.92    -0.647 OA
ENDBRANCH  16  17
ENDBRANCH  15  16
ENDBRANCH  14  15
END_RES GLU D 570
ENDMDL
MODEL 2
REMARK VINA RESULT:      -4.9      1.801      2.352
REMARK  29 active torsions:
REMARK  status: ('A' for Active; 'I' for Inactive)
REMARK    1  A    between atoms: C_3  and  C_5 
REMARK    2  A    between atoms: C_5  and  O_7 
REMARK    3  A    between atoms: O_7  and  C_8 
REMARK    4  A    between atoms: C_9  and  O_76 
REMARK    5  A    between atoms: C_10  and  C_74 
REMARK    6  A    between atoms: C_23  and  O_38 
REMARK    7  A    between atoms: C_24  and  C_36 
REMARK    8  A    between atoms: C_31  and  O_32 
REMARK    9  A    between atoms: C_36  and  O_37 
REMARK   10  A    between atoms: O_38  and  C_39 
REMARK   11  A    between atoms: C_40  and  O_61 
REMARK   12  A    between atoms: C_41  and  O_60 
REMARK   13  A    between atoms: C_42  and  O_48 
REMARK   14  A    between atoms: C_43  and  C_45 
REMARK   15  A    between atoms: C_45  and  O_47 
REMARK   16  A    between atoms: O_48  and  C_49 
REMARK   17  A    between atoms: C_50  and  O_59 
REMARK   18  A    between atoms: C_51  and  O_58 
REMARK   19  A    between atoms: C_52  and  O_57 
REMARK   20  A    between atoms: C_53  and  C_55 
REMARK   21  A    between atoms: C_55  and  O_56 
REMARK   22  A    between atoms: O_61  and  C_62 
REMARK   23  A    between atoms: C_63  and  O_72 
REMARK   24  A    between atoms: C_64  and  O_71 
REMARK   25  A    between atoms: C_65  and  O_70 
REMARK   26  A    between atoms: C_66  and  C_68 
REMARK   27  A    between atoms: C_68  and  O_69 
REMARK   28  A    between atoms: C_74  and  O_75 
REMARK   29  A    between atoms: O_76  and  C_77 
ROOT
HETATM    1  C   UNL     1     -13.668 -14.675  -0.442  1.00  0.00     0.170 C 
HETATM    2  C   UNL     1     -14.546 -14.062   0.781  1.00  0.00     0.176 C 
HETATM    3  C   UNL     1     -15.710 -13.505  -0.039  1.00  0.00     0.043 C 
HETATM    4  C   UNL     1     -16.306 -15.117  -0.679  1.00  0.00     0.032 C 
HETATM    5  C   UNL     1     -15.321 -16.072  -1.502  1.00  0.00     0.021 C 
HETATM    6  C   UNL     1     -14.000 -16.171  -0.697  1.00  0.00    -0.018 C 
HETATM    7  C   UNL     1     -14.275 -17.183   0.458  1.00  0.00     0.018 C 
HETATM    8  C   UNL     1     -12.747 -16.724  -1.366  1.00  0.00     0.018 C 
HETATM    9  C   UNL     1     -17.766 -15.609  -0.660  1.00  0.00    -0.069 C 
HETATM   10  C   UNL     1     -18.210 -16.810  -1.195  1.00  0.00    -0.022 C 
HETATM   11  C   UNL     1     -19.628 -17.150  -1.868  1.00  0.00     0.033 C 
HETATM   12  C   UNL     1     -20.647 -16.067  -1.531  1.00  0.00     0.007 C 
HETATM   13  C   UNL     1     -22.339 -15.483  -2.157  1.00  0.00    -0.035 C 
HETATM   14  C   UNL     1     -22.572 -14.796  -3.501  1.00  0.00     0.012 C 
HETATM   15  C   UNL     1     -22.230 -13.302  -3.630  1.00  0.00     0.034 C 
HETATM   16  C   UNL     1     -22.078 -12.262  -2.429  1.00  0.00     0.135 C 
HETATM   17  C   UNL     1     -22.716 -12.436  -0.764  1.00  0.00     0.008 C 
HETATM   18  C   UNL     1     -22.999 -14.231  -1.079  1.00  0.00     0.007 C 
HETATM   19  C   UNL     1     -22.202 -14.843  -0.032  1.00  0.00     0.007 C 
HETATM   20  C   UNL     1     -20.855 -14.101  -0.696  1.00  0.00     0.011 C 
HETATM   21  C   UNL     1     -19.776 -14.824  -1.302  1.00  0.00    -0.028 C 
HETATM   22  C   UNL     1     -18.697 -14.527  -0.216  1.00  0.00    -0.011 C 
HETATM   23  C   UNL     1     -18.058 -13.072  -0.361  1.00  0.00     0.047 C 
HETATM   24  C   UNL     1     -16.915 -12.886   0.652  1.00  0.00     0.133 C 
HETATM   25  C   UNL     1     -19.137 -14.417   1.326  1.00  0.00     0.021 C 
HETATM   26  C   UNL     1     -19.180 -14.484  -2.748  1.00  0.00     0.016 C 
HETATM   27  C   UNL     1     -22.223 -12.666   1.016  1.00  0.00     0.020 C 
HETATM   28  C   UNL     1     -23.370 -16.671  -2.068  1.00  0.00     0.016 C 
ENDROOT
BRANCH  16  29
HETATM   29  O   UNL     1     -22.134 -10.953  -2.979  1.00  0.00    -0.352 OA
BRANCH  29  30
HETATM   30  C   UNL     1     -21.102 -10.436  -3.800  1.00  0.00     0.293 C 
HETATM   31  C   UNL     1     -21.465 -10.283  -5.265  1.00  0.00     0.211 C 
HETATM   32  C   UNL     1     -21.022 -11.497  -6.045  1.00  0.00     0.184 C 
HETATM   33  C   UNL     1     -19.552 -11.931  -5.898  1.00  0.00     0.195 C 
HETATM   34  C   UNL     1     -18.932 -11.425  -4.564  1.00  0.00     0.253 C 
HETATM   35  O   UNL     1     -19.870 -11.087  -3.529  1.00  0.00    -0.340 OA
BRANCH  31  36
HETATM   36  O   UNL     1     -21.242  -8.998  -5.865  1.00  0.00    -0.346 OA
BRANCH  36  37
HETATM   37  C   UNL     1     -20.820  -7.916  -5.055  1.00  0.00     0.292 C 
HETATM   38  C   UNL     1     -21.968  -7.029  -4.559  1.00  0.00     0.204 C 
HETATM   39  C   UNL     1     -22.685  -6.473  -5.790  1.00  0.00     0.183 C 
HETATM   40  C   UNL     1     -21.723  -5.518  -6.495  1.00  0.00     0.180 C 
HETATM   41  C   UNL     1     -20.384  -6.242  -6.800  1.00  0.00     0.179 C 
HETATM   42  O   UNL     1     -19.882  -7.107  -5.766  1.00  0.00    -0.348 OA
BRANCH  38  43
HETATM   43  O   UNL     1     -21.456  -5.981  -3.728  1.00  0.00    -0.388 OA
HETATM   44  H   UNL     1     -21.893  -6.117  -2.864  1.00  0.00     0.210 HD
ENDBRANCH  38  43
BRANCH  39  45
HETATM   45  O   UNL     1     -23.898  -5.839  -5.368  1.00  0.00    -0.390 OA
HETATM   46  H   UNL     1     -23.714  -5.371  -4.536  1.00  0.00     0.210 HD
ENDBRANCH  39  45
BRANCH  40  47
HETATM   47  O   UNL     1     -21.536  -4.345  -5.688  1.00  0.00    -0.390 OA
HETATM   48  H   UNL     1     -21.549  -4.678  -4.757  1.00  0.00     0.210 HD
ENDBRANCH  40  47
BRANCH  41  49
HETATM   49  C   UNL     1     -19.249  -5.235  -7.084  1.00  0.00     0.198 C 
BRANCH  49  50
HETATM   50  O   UNL     1     -19.652  -4.149  -7.926  1.00  0.00    -0.398 OA
HETATM   51  H   UNL     1     -19.475  -4.420  -8.846  1.00  0.00     0.209 HD
ENDBRANCH  49  50
ENDBRANCH  41  49
ENDBRANCH  36  37
ENDBRANCH  31  36
BRANCH  32  52
HETATM   52  O   UNL     1     -21.540 -11.366  -7.363  1.00  0.00    -0.390 OA
HETATM   53  H   UNL     1     -22.507 -11.245  -7.299  1.00  0.00     0.210 HD
ENDBRANCH  32  52
BRANCH  33  54
HETATM   54  O   UNL     1     -18.751 -11.853  -7.118  1.00  0.00    -0.347 OA
BRANCH  54  55
HETATM   55  C   UNL     1     -18.369 -13.197  -7.571  1.00  0.00     0.292 C 
HETATM   56  C   UNL     1     -19.560 -14.074  -8.001  1.00  0.00     0.204 C 
HETATM   57  C   UNL     1     -20.115 -14.830  -6.797  1.00  0.00     0.183 C 
HETATM   58  C   UNL     1     -19.012 -15.620  -6.104  1.00  0.00     0.180 C 
HETATM   59  C   UNL     1     -17.875 -14.677  -5.671  1.00  0.00     0.179 C 
HETATM   60  O   UNL     1     -17.404 -13.852  -6.736  1.00  0.00    -0.348 OA
BRANCH  56  61
HETATM   61  O   UNL     1     -19.117 -14.973  -9.043  1.00  0.00    -0.388 OA
HETATM   62  H   UNL     1     -18.677 -15.727  -8.596  1.00  0.00     0.210 HD
ENDBRANCH  56  61
BRANCH  57  63
HETATM   63  O   UNL     1     -21.143 -15.737  -7.211  1.00  0.00    -0.390 OA
HETATM   64  H   UNL     1     -21.418 -16.198  -6.390  1.00  0.00     0.210 HD
ENDBRANCH  57  63
BRANCH  58  65
HETATM   65  O   UNL     1     -18.595 -16.635  -7.043  1.00  0.00    -0.390 OA
HETATM   66  H   UNL     1     -17.765 -16.312  -7.467  1.00  0.00     0.210 HD
ENDBRANCH  58  65
BRANCH  59  67
HETATM   67  C   UNL     1     -16.679 -15.492  -5.112  1.00  0.00     0.198 C 
BRANCH  67  68
HETATM   68  O   UNL     1     -16.031 -16.248  -6.149  1.00  0.00    -0.398 OA
HETATM   69  H   UNL     1     -16.399 -17.151  -6.123  1.00  0.00     0.209 HD
ENDBRANCH  67  68
ENDBRANCH  59  67
ENDBRANCH  54  55
ENDBRANCH  33  54
BRANCH  34  70
HETATM   70  C   UNL     1     -17.684 -10.532  -4.540  1.00  0.00     0.172 C 
HETATM   71  O   UNL     1     -17.752  -9.311  -4.624  1.00  0.00    -0.648 OA
BRANCH  70  72
HETATM   72  O   UNL     1     -16.509 -11.156  -4.325  1.00  0.00    -0.774 OA
HETATM   73  H   UNL     1     -16.362 -11.473  -3.408  1.00  0.00     0.167 HD
ENDBRANCH  70  72
ENDBRANCH  34  70
ENDBRANCH  29  30
ENDBRANCH  16  29
BRANCH  17  74
HETATM   74  C   UNL     1     -21.674 -11.081  -0.359  1.00  0.00     0.176 C 
BRANCH  74  75
HETATM   75  O   UNL     1     -22.303  -9.810  -0.397  1.00  0.00    -0.400 OA
HETATM   76  H   UNL     1     -22.422  -9.611  -1.340  1.00  0.00     0.209 HD
ENDBRANCH  74  75
ENDBRANCH  17  74
BRANCH  24  77
HETATM   77  O   UNL     1     -16.856 -11.510   1.057  1.00  0.00    -0.395 OA
HETATM   78  H   UNL     1     -17.645 -11.306   1.604  1.00  0.00     0.210 HD
ENDBRANCH  24  77
BRANCH   3  79
HETATM   79  C   UNL     1     -15.001 -12.163  -0.613  1.00  0.00     0.179 C 
BRANCH  79  80
HETATM   80  O   UNL     1     -15.707 -11.479  -1.641  1.00  0.00    -0.400 OA
HETATM   81  H   UNL     1     -15.646 -10.527  -1.452  1.00  0.00     0.209 HD
ENDBRANCH  79  80
ENDBRANCH   3  79
BRANCH   2  82
HETATM   82  O   UNL     1     -15.097 -15.083   1.698  1.00  0.00    -0.313 OA
BRANCH  82  83
HETATM   83  C   UNL     1     -15.567 -14.977   2.959  1.00  0.00     0.255 C 
HETATM   84  O   UNL     1     -15.251 -14.101   3.744  1.00  0.00    -0.266 OA
HETATM   85  C   UNL     1     -16.552 -16.107   3.275  1.00  0.00     0.126 C 
ENDBRANCH  82  83
ENDBRANCH   2  82
BRANCH   1  86
HETATM   86  O   UNL     1     -14.139 -14.058  -1.897  1.00  0.00    -0.309 OA
BRANCH  86  87
HETATM   87  C   UNL     1     -13.464 -13.515  -2.867  1.00  0.00     0.289 C 
HETATM   88  O   UNL     1     -12.948 -12.445  -2.885  1.00  0.00    -0.260 OA
BRANCH  87  89
HETATM   89  C   UNL     1     -13.371 -14.409  -4.213  1.00  0.00     0.009 C 
HETATM   90  C   UNL     1     -13.019 -15.702  -4.235  1.00  0.00    -0.018 C 
HETATM   91  C   UNL     1     -12.677 -16.513  -5.489  1.00  0.00     0.036 C 
HETATM   92  C   UNL     1     -13.685 -13.680  -5.492  1.00  0.00     0.054 C 
ENDBRANCH  87  89
ENDBRANCH  86  87
ENDBRANCH   1  86
TORSDOF 29
BEGIN_RES ARG D 557
REMARK  4 active torsions:
REMARK  status: ('A' for Active; 'I' for Inactive)
REMARK    1  A    between atoms: CA   and  CB  
REMARK    2  A    between atoms: CB   and  CG  
REMARK    3  A    between atoms: CG   and  CD  
REMARK    4  A    between atoms: CD   and  NE  
REMARK       I    between atoms: NE   and  CZ  
REMARK       I    between atoms: CZ   and  NH1 
REMARK       I    between atoms: CZ   and  NH2 
ROOT
ATOM      1  CA  ARG D 557     -26.217   2.705 -17.014  1.00 35.49     0.159 C 
ENDROOT
BRANCH   1   2
ATOM      2  CB  ARG D 557     -26.789   1.319 -17.183  1.00 35.49     0.034 C 
BRANCH   2   3
ATOM      3  CG  ARG D 557     -25.960   0.201 -16.716  1.00 35.49     0.027 C 
BRANCH   3   4
ATOM      4  CD  ARG D 557     -26.759  -0.857 -16.057  1.00 35.49     0.116 C 
BRANCH   4   5
ATOM      5  NE  ARG D 557     -27.989  -1.123 -16.755  1.00 35.49    -0.212 N 
ATOM      6  CZ  ARG D 557     -28.518  -2.309 -16.956  1.00 35.49     0.666 C 
ATOM      7  NH1 ARG D 557     -27.945  -3.421 -16.534  1.00 35.49    -0.235 N 
ATOM      8  NH2 ARG D 557     -29.652  -2.361 -17.593  1.00 35.49    -0.235 N 
ATOM      9  HH  ARG D 557     -27.200  -3.410 -16.111  1.00 35.49     0.174 HD
ATOM     10  HH  ARG D 557     -28.337  -4.166 -16.691  1.00 35.49     0.174 HD
ATOM     11  HH  ARG D 557     -30.002  -1.627 -17.847  1.00 35.49     0.174 HD
ATOM     12  HH  ARG D 557     -30.025  -3.109 -17.738  1.00 35.49     0.174 HD
ATOM     13  HE  ARG D 557     -28.388  -0.469 -17.125  1.00 35.49     0.178 HD
ENDBRANCH   4   5
ENDBRANCH   3   4
ENDBRANCH   2   3
ENDBRANCH   1   2
END_RES ARG D 557
BEGIN_RES GLU D 570
REMARK  3 active torsions:
REMARK  status: ('A' for Active; 'I' for Inactive)
REMARK    5  A    between atoms: CA   and  CB  
REMARK    6  A    between atoms: CB   and  CG  
REMARK    7  A    between atoms: CG   and  CD  
ROOT
ATOM     14  CA  GLU D 570     -18.033  -6.348 -13.375  1.00 32.92     0.160 C 
ENDROOT
BRANCH  14  15
ATOM     15  CB  GLU D 570     -19.500  -6.345 -13.794  1.00 32.92     0.043 C 
BRANCH  15  16
ATOM     16  CG  GLU D 570     -20.444  -5.541 -12.975  1.00 32.92     0.100 C 
BRANCH  16  17
ATOM     17  CD  GLU D 570     -21.707  -5.176 -13.721  1.00 32.92     0.185 C 
ATOM     18  OE1 GLU D 570     -21.703  -5.202 -14.966  1.00 32.92    -0.647 OA
ATOM     19  OE2 GLU D 570     -22.705  -4.844 -13.051  1.00 32.92    -0.647 OA
ENDBRANCH  16  17
ENDBRANCH  15  16
ENDBRANCH  14  15
END_RES GLU D 570
ENDMDL
