MODEL 1
REMARK VINA RESULT:      -6.8      0.000      0.000
REMARK  5 active torsions:
REMARK  status: ('A' for Active; 'I' for Inactive)
REMARK    1  A    between atoms: O_2  and  C_3 
REMARK    2  A    between atoms: C_4  and  O_22 
REMARK    3  A    between atoms: C_6  and  C_9 
REMARK    4  A    between atoms: C_14  and  O_21 
REMARK    5  A    between atoms: C_16  and  O_20 
ROOT
HETATM    1  C   UNL     1     -21.134  -9.553  -0.116  1.00  0.00     0.169 C 
HETATM    2  C   UNL     1     -21.702  -8.163   0.159  1.00  0.00     0.121 C 
HETATM    3  C   UNL     1     -21.938  -7.385  -1.105  1.00  0.00     0.167 C 
HETATM    4  O   UNL     1     -22.697  -6.426  -1.162  1.00  0.00    -0.292 OA
HETATM    5  C   UNL     1     -21.161  -7.786  -2.287  1.00  0.00     0.076 A 
HETATM    6  C   UNL     1     -21.303  -7.131  -3.520  1.00  0.00     0.085 A 
HETATM    7  C   UNL     1     -20.698  -7.659  -4.654  1.00  0.00     0.074 A 
HETATM    8  C   UNL     1     -19.911  -8.801  -4.535  1.00  0.00     0.071 A 
HETATM    9  C   UNL     1     -19.642  -9.368  -3.299  1.00  0.00     0.074 A 
HETATM   10  C   UNL     1     -20.291  -8.872  -2.179  1.00  0.00     0.089 A 
HETATM   11  O   UNL     1     -20.002  -9.487  -0.991  1.00  0.00    -0.340 OA
ENDROOT
BRANCH   1  12
HETATM   12  C   UNL     1     -22.011 -10.734  -0.509  1.00  0.00    -0.026 C 
HETATM   13  C   UNL     1     -21.402 -12.005  -0.507  1.00  0.00     0.049 C 
HETATM   14  C   UNL     1     -22.151 -13.178  -0.608  1.00  0.00     0.099 C 
HETATM   15  C   UNL     1     -23.528 -13.125  -0.787  1.00  0.00     0.101 C 
HETATM   16  C   UNL     1     -24.119 -11.859  -0.927  1.00  0.00     0.040 C 
HETATM   17  C   UNL     1     -23.377 -10.672  -0.786  1.00  0.00     0.012 C 
BRANCH  14  18
HETATM   18  O   UNL     1     -21.457 -14.335  -0.410  1.00  0.00    -0.358 OA
HETATM   19  H   UNL     1     -21.490 -14.481   0.552  1.00  0.00     0.217 HD
ENDBRANCH  14  18
BRANCH  15  20
HETATM   20  O   UNL     1     -24.427 -14.155  -0.776  1.00  0.00    -0.353 OA
HETATM   21  C   UNL     1     -24.439 -15.084  -1.851  1.00  0.00     0.210 C 
ENDBRANCH  15  20
ENDBRANCH   1  12
BRANCH   6  22
HETATM   22  O   UNL     1     -22.000  -5.965  -3.669  1.00  0.00    -0.360 OA
HETATM   23  H   UNL     1     -22.947  -6.143  -3.475  1.00  0.00     0.217 HD
ENDBRANCH   6  22
BRANCH   8  24
HETATM   24  O   UNL     1     -19.395  -9.415  -5.637  1.00  0.00    -0.361 OA
HETATM   25  H   UNL     1     -20.001  -9.243  -6.378  1.00  0.00     0.217 HD
ENDBRANCH   8  24
TORSDOF 5
BEGIN_RES ARG D 557
REMARK  4 active torsions:
REMARK  status: ('A' for Active; 'I' for Inactive)
REMARK    1  A    between atoms: CA   and  CB  
REMARK    2  A    between atoms: CB   and  CG  
REMARK    3  A    between atoms: CG   and  CD  
REMARK    4  A    between atoms: CD   and  NE  
REMARK       I    between atoms: NE   and  CZ  
REMARK       I    between atoms: CZ   and  NH1 
REMARK       I    between atoms: CZ   and  NH2 
ROOT
ATOM      1  CA  ARG D 557     -26.217   2.705 -17.014  1.00 35.49     0.159 C 
ENDROOT
BRANCH   1   2
ATOM      2  CB  ARG D 557     -26.789   1.319 -17.183  1.00 35.49     0.034 C 
BRANCH   2   3
ATOM      3  CG  ARG D 557     -25.837   0.202 -17.149  1.00 35.49     0.027 C 
BRANCH   3   4
ATOM      4  CD  ARG D 557     -24.757   0.412 -16.157  1.00 35.49     0.116 C 
BRANCH   4   5
ATOM      5  NE  ARG D 557     -24.902  -0.442 -15.008  1.00 35.49    -0.212 N 
ATOM      6  CZ  ARG D 557     -24.087  -1.414 -14.665  1.00 35.49     0.666 C 
ATOM      7  NH1 ARG D 557     -23.018  -1.726 -15.375  1.00 35.49    -0.235 N 
ATOM      8  NH2 ARG D 557     -24.362  -2.073 -13.578  1.00 35.49    -0.235 N 
ATOM      9  HH  ARG D 557     -22.816  -1.304 -16.093  1.00 35.49     0.174 HD
ATOM     10  HH  ARG D 557     -22.521  -2.368 -15.101  1.00 35.49     0.174 HD
ATOM     11  HH  ARG D 557     -25.055  -1.845 -13.136  1.00 35.49     0.174 HD
ATOM     12  HH  ARG D 557     -23.857  -2.705 -13.322  1.00 35.49     0.174 HD
ATOM     13  HE  ARG D 557     -25.604  -0.359 -14.535  1.00 35.49     0.178 HD
ENDBRANCH   4   5
ENDBRANCH   3   4
ENDBRANCH   2   3
ENDBRANCH   1   2
END_RES ARG D 557
BEGIN_RES GLU D 570
REMARK  3 active torsions:
REMARK  status: ('A' for Active; 'I' for Inactive)
REMARK    5  A    between atoms: CA   and  CB  
REMARK    6  A    between atoms: CB   and  CG  
REMARK    7  A    between atoms: CG   and  CD  
ROOT
ATOM     14  CA  GLU D 570     -18.033  -6.348 -13.375  1.00 32.92     0.160 C 
ENDROOT
BRANCH  14  15
ATOM     15  CB  GLU D 570     -19.500  -6.345 -13.794  1.00 32.92     0.043 C 
BRANCH  15  16
ATOM     16  CG  GLU D 570     -20.443  -5.538 -12.978  1.00 32.92     0.100 C 
BRANCH  16  17
ATOM     17  CD  GLU D 570     -21.742  -5.247 -13.693  1.00 32.92     0.185 C 
ATOM     18  OE1 GLU D 570     -22.232  -6.119 -14.436  1.00 32.92    -0.647 OA
ATOM     19  OE2 GLU D 570     -22.266  -4.129 -13.522  1.00 32.92    -0.647 OA
ENDBRANCH  16  17
ENDBRANCH  15  16
ENDBRANCH  14  15
END_RES GLU D 570
ENDMDL
MODEL 2
REMARK VINA RESULT:      -6.6      1.576      1.782
REMARK  5 active torsions:
REMARK  status: ('A' for Active; 'I' for Inactive)
REMARK    1  A    between atoms: O_2  and  C_3 
REMARK    2  A    between atoms: C_4  and  O_22 
REMARK    3  A    between atoms: C_6  and  C_9 
REMARK    4  A    between atoms: C_14  and  O_21 
REMARK    5  A    between atoms: C_16  and  O_20 
ROOT
HETATM    1  C   UNL     1     -21.152  -8.644  -0.397  1.00  0.00     0.169 C 
HETATM    2  C   UNL     1     -21.807  -7.266  -0.462  1.00  0.00     0.121 C 
HETATM    3  C   UNL     1     -22.035  -6.812  -1.877  1.00  0.00     0.167 C 
HETATM    4  O   UNL     1     -22.842  -5.941  -2.171  1.00  0.00    -0.292 OA
HETATM    5  C   UNL     1     -21.191  -7.422  -2.915  1.00  0.00     0.076 A 
HETATM    6  C   UNL     1     -21.320  -7.075  -4.268  1.00  0.00     0.085 A 
HETATM    7  C   UNL     1     -20.643  -7.807  -5.235  1.00  0.00     0.074 A 
HETATM    8  C   UNL     1     -19.799  -8.841  -4.838  1.00  0.00     0.071 A 
HETATM    9  C   UNL     1     -19.549  -9.094  -3.498  1.00  0.00     0.074 A 
HETATM   10  C   UNL     1     -20.268  -8.398  -2.538  1.00  0.00     0.089 A 
HETATM   11  O   UNL     1     -19.993  -8.707  -1.234  1.00  0.00    -0.340 OA
ENDROOT
BRANCH   1  12
HETATM   12  C   UNL     1     -21.948  -9.936  -0.531  1.00  0.00    -0.026 C 
HETATM   13  C   UNL     1     -21.206 -11.120  -0.719  1.00  0.00     0.049 C 
HETATM   14  C   UNL     1     -21.797 -12.380  -0.611  1.00  0.00     0.099 C 
HETATM   15  C   UNL     1     -23.162 -12.505  -0.382  1.00  0.00     0.101 C 
HETATM   16  C   UNL     1     -23.924 -11.327  -0.332  1.00  0.00     0.040 C 
HETATM   17  C   UNL     1     -23.331 -10.053  -0.399  1.00  0.00     0.012 C 
BRANCH  14  18
HETATM   18  O   UNL     1     -20.933 -13.435  -0.635  1.00  0.00    -0.358 OA
HETATM   19  H   UNL     1     -21.122 -13.928   0.183  1.00  0.00     0.217 HD
ENDBRANCH  14  18
BRANCH  15  20
HETATM   20  O   UNL     1     -23.879 -13.638  -0.123  1.00  0.00    -0.353 OA
HETATM   21  C   UNL     1     -24.459 -14.362  -1.199  1.00  0.00     0.210 C 
ENDBRANCH  15  20
ENDBRANCH   1  12
BRANCH   6  22
HETATM   22  O   UNL     1     -22.074  -6.019  -4.699  1.00  0.00    -0.360 OA
HETATM   23  H   UNL     1     -22.241  -5.425  -3.932  1.00  0.00     0.217 HD
ENDBRANCH   6  22
BRANCH   8  24
HETATM   24  O   UNL     1     -19.208  -9.656  -5.755  1.00  0.00    -0.361 OA
HETATM   25  H   UNL     1     -18.901 -10.450  -5.286  1.00  0.00     0.217 HD
ENDBRANCH   8  24
TORSDOF 5
BEGIN_RES ARG D 557
REMARK  4 active torsions:
REMARK  status: ('A' for Active; 'I' for Inactive)
REMARK    1  A    between atoms: CA   and  CB  
REMARK    2  A    between atoms: CB   and  CG  
REMARK    3  A    between atoms: CG   and  CD  
REMARK    4  A    between atoms: CD   and  NE  
REMARK       I    between atoms: NE   and  CZ  
REMARK       I    between atoms: CZ   and  NH1 
REMARK       I    between atoms: CZ   and  NH2 
ROOT
ATOM      1  CA  ARG D 557     -26.217   2.705 -17.014  1.00 35.49     0.159 C 
ENDROOT
BRANCH   1   2
ATOM      2  CB  ARG D 557     -26.789   1.319 -17.183  1.00 35.49     0.034 C 
BRANCH   2   3
ATOM      3  CG  ARG D 557     -28.219   1.155 -16.896  1.00 35.49     0.027 C 
BRANCH   3   4
ATOM      4  CD  ARG D 557     -28.601  -0.266 -16.726  1.00 35.49     0.116 C 
BRANCH   4   5
ATOM      5  NE  ARG D 557     -27.598  -1.017 -16.019  1.00 35.49    -0.212 N 
ATOM      6  CZ  ARG D 557     -27.418  -2.317 -16.091  1.00 35.49     0.666 C 
ATOM      7  NH1 ARG D 557     -28.179  -3.097 -16.837  1.00 35.49    -0.235 N 
ATOM      8  NH2 ARG D 557     -26.444  -2.827 -15.396  1.00 35.49    -0.235 N 
ATOM      9  HH  ARG D 557     -28.824  -2.782 -17.304  1.00 35.49     0.174 HD
ATOM     10  HH  ARG D 557     -28.013  -3.938 -16.846  1.00 35.49     0.174 HD
ATOM     11  HH  ARG D 557     -25.964  -2.298 -14.930  1.00 35.49     0.174 HD
ATOM     12  HH  ARG D 557     -26.295  -3.662 -15.420  1.00 35.49     0.174 HD
ATOM     13  HE  ARG D 557     -27.110  -0.602 -15.459  1.00 35.49     0.178 HD
ENDBRANCH   4   5
ENDBRANCH   3   4
ENDBRANCH   2   3
ENDBRANCH   1   2
END_RES ARG D 557
BEGIN_RES GLU D 570
REMARK  3 active torsions:
REMARK  status: ('A' for Active; 'I' for Inactive)
REMARK    5  A    between atoms: CA   and  CB  
REMARK    6  A    between atoms: CB   and  CG  
REMARK    7  A    between atoms: CG   and  CD  
ROOT
ATOM     14  CA  GLU D 570     -18.033  -6.348 -13.375  1.00 32.92     0.160 C 
ENDROOT
BRANCH  14  15
ATOM     15  CB  GLU D 570     -19.500  -6.345 -13.794  1.00 32.92     0.043 C 
BRANCH  15  16
ATOM     16  CG  GLU D 570     -20.450  -5.568 -12.956  1.00 32.92     0.100 C 
BRANCH  16  17
ATOM     17  CD  GLU D 570     -21.697  -5.160 -13.704  1.00 32.92     0.185 C 
ATOM     18  OE1 GLU D 570     -21.675  -5.134 -14.950  1.00 32.92    -0.647 OA
ATOM     19  OE2 GLU D 570     -22.703  -4.846 -13.037  1.00 32.92    -0.647 OA
ENDBRANCH  16  17
ENDBRANCH  15  16
ENDBRANCH  14  15
END_RES GLU D 570
ENDMDL
MODEL 3
REMARK VINA RESULT:      -6.0      2.406      4.505
REMARK  5 active torsions:
REMARK  status: ('A' for Active; 'I' for Inactive)
REMARK    1  A    between atoms: O_2  and  C_3 
REMARK    2  A    between atoms: C_4  and  O_22 
REMARK    3  A    between atoms: C_6  and  C_9 
REMARK    4  A    between atoms: C_14  and  O_21 
REMARK    5  A    between atoms: C_16  and  O_20 
ROOT
HETATM    1  C   UNL     1     -20.636 -10.126  -3.908  1.00  0.00     0.169 C 
HETATM    2  C   UNL     1     -21.105  -8.996  -4.821  1.00  0.00     0.121 C 
HETATM    3  C   UNL     1     -21.435  -7.745  -4.054  1.00  0.00     0.167 C 
HETATM    4  O   UNL     1     -21.481  -6.640  -4.578  1.00  0.00    -0.292 OA
HETATM    5  C   UNL     1     -21.769  -7.907  -2.632  1.00  0.00     0.076 A 
HETATM    6  C   UNL     1     -22.090  -6.808  -1.821  1.00  0.00     0.085 A 
HETATM    7  C   UNL     1     -22.211  -6.978  -0.447  1.00  0.00     0.074 A 
HETATM    8  C   UNL     1     -22.067  -8.252   0.096  1.00  0.00     0.071 A 
HETATM    9  C   UNL     1     -21.900  -9.366  -0.712  1.00  0.00     0.074 A 
HETATM   10  C   UNL     1     -21.725  -9.186  -2.075  1.00  0.00     0.089 A 
HETATM   11  O   UNL     1     -21.542 -10.322  -2.817  1.00  0.00    -0.340 OA
ENDROOT
BRANCH   1  12
HETATM   12  C   UNL     1     -19.203 -10.230  -3.403  1.00  0.00    -0.026 C 
HETATM   13  C   UNL     1     -18.914 -11.297  -2.529  1.00  0.00     0.049 C 
HETATM   14  C   UNL     1     -17.603 -11.639  -2.197  1.00  0.00     0.099 C 
HETATM   15  C   UNL     1     -16.534 -10.886  -2.668  1.00  0.00     0.101 C 
HETATM   16  C   UNL     1     -16.827  -9.742  -3.426  1.00  0.00     0.040 C 
HETATM   17  C   UNL     1     -18.143  -9.413  -3.799  1.00  0.00     0.012 C 
BRANCH  14  18
HETATM   18  O   UNL     1     -17.461 -12.798  -1.492  1.00  0.00    -0.358 OA
HETATM   19  H   UNL     1     -18.348 -13.202  -1.501  1.00  0.00     0.217 HD
ENDBRANCH  14  18
BRANCH  15  20
HETATM   20  O   UNL     1     -15.197 -11.145  -2.554  1.00  0.00    -0.353 OA
HETATM   21  C   UNL     1     -14.594 -12.106  -3.410  1.00  0.00     0.210 C 
ENDBRANCH  15  20
ENDBRANCH   1  12
BRANCH   6  22
HETATM   22  O   UNL     1     -22.318  -5.556  -2.317  1.00  0.00    -0.360 OA
HETATM   23  H   UNL     1     -23.273  -5.481  -2.543  1.00  0.00     0.217 HD
ENDBRANCH   6  22
BRANCH   8  24
HETATM   24  O   UNL     1     -22.064  -8.444   1.444  1.00  0.00    -0.361 OA
HETATM   25  H   UNL     1     -22.704  -7.822   1.830  1.00  0.00     0.217 HD
ENDBRANCH   8  24
TORSDOF 5
BEGIN_RES ARG D 557
REMARK  4 active torsions:
REMARK  status: ('A' for Active; 'I' for Inactive)
REMARK    1  A    between atoms: CA   and  CB  
REMARK    2  A    between atoms: CB   and  CG  
REMARK    3  A    between atoms: CG   and  CD  
REMARK    4  A    between atoms: CD   and  NE  
REMARK       I    between atoms: NE   and  CZ  
REMARK       I    between atoms: CZ   and  NH1 
REMARK       I    between atoms: CZ   and  NH2 
ROOT
ATOM      1  CA  ARG D 557     -26.217   2.705 -17.014  1.00 35.49     0.159 C 
ENDROOT
BRANCH   1   2
ATOM      2  CB  ARG D 557     -26.789   1.319 -17.183  1.00 35.49     0.034 C 
BRANCH   2   3
ATOM      3  CG  ARG D 557     -25.866   0.195 -16.987  1.00 35.49     0.027 C 
BRANCH   3   4
ATOM      4  CD  ARG D 557     -26.277  -0.686 -15.871  1.00 35.49     0.116 C 
BRANCH   4   5
ATOM      5  NE  ARG D 557     -25.211  -0.903 -14.929  1.00 35.49    -0.212 N 
ATOM      6  CZ  ARG D 557     -24.906  -2.050 -14.364  1.00 35.49     0.666 C 
ATOM      7  NH1 ARG D 557     -25.583  -3.159 -14.601  1.00 35.49    -0.235 N 
ATOM      8  NH2 ARG D 557     -23.892  -2.067 -13.549  1.00 35.49    -0.235 N 
ATOM      9  HH  ARG D 557     -26.253  -3.171 -15.135  1.00 35.49     0.174 HD
ATOM     10  HH  ARG D 557     -25.337  -3.878 -14.205  1.00 35.49     0.174 HD
ATOM     11  HH  ARG D 557     -23.469  -1.338 -13.421  1.00 35.49     0.174 HD
ATOM     12  HH  ARG D 557     -23.663  -2.789 -13.169  1.00 35.49     0.174 HD
ATOM     13  HE  ARG D 557     -24.768  -0.227 -14.664  1.00 35.49     0.178 HD
ENDBRANCH   4   5
ENDBRANCH   3   4
ENDBRANCH   2   3
ENDBRANCH   1   2
END_RES ARG D 557
BEGIN_RES GLU D 570
REMARK  3 active torsions:
REMARK  status: ('A' for Active; 'I' for Inactive)
REMARK    5  A    between atoms: CA   and  CB  
REMARK    6  A    between atoms: CB   and  CG  
REMARK    7  A    between atoms: CG   and  CD  
ROOT
ATOM     14  CA  GLU D 570     -18.033  -6.348 -13.375  1.00 32.92     0.160 C 
ENDROOT
BRANCH  14  15
ATOM     15  CB  GLU D 570     -19.500  -6.345 -13.794  1.00 32.92     0.043 C 
BRANCH  15  16
ATOM     16  CG  GLU D 570     -20.447  -5.553 -12.967  1.00 32.92     0.100 C 
BRANCH  16  17
ATOM     17  CD  GLU D 570     -21.685  -5.135 -13.725  1.00 32.92     0.185 C 
ATOM     18  OE1 GLU D 570     -21.642  -5.077 -14.969  1.00 32.92    -0.647 OA
ATOM     19  OE2 GLU D 570     -22.704  -4.847 -13.067  1.00 32.92    -0.647 OA
ENDBRANCH  16  17
ENDBRANCH  15  16
ENDBRANCH  14  15
END_RES GLU D 570
ENDMDL
MODEL 4
REMARK VINA RESULT:      -5.9     12.997     16.808
REMARK  5 active torsions:
REMARK  status: ('A' for Active; 'I' for Inactive)
REMARK    1  A    between atoms: O_2  and  C_3 
REMARK    2  A    between atoms: C_4  and  O_22 
REMARK    3  A    between atoms: C_6  and  C_9 
REMARK    4  A    between atoms: C_14  and  O_21 
REMARK    5  A    between atoms: C_16  and  O_20 
ROOT
HETATM    1  C   UNL     1     -23.358   7.614  -3.353  1.00  0.00     0.169 C 
HETATM    2  C   UNL     1     -24.804   7.182  -3.584  1.00  0.00     0.121 C 
HETATM    3  C   UNL     1     -25.717   7.639  -2.479  1.00  0.00     0.167 C 
HETATM    4  O   UNL     1     -26.929   7.726  -2.615  1.00  0.00    -0.292 OA
HETATM    5  C   UNL     1     -25.093   7.926  -1.179  1.00  0.00     0.076 A 
HETATM    6  C   UNL     1     -25.848   8.361  -0.080  1.00  0.00     0.085 A 
HETATM    7  C   UNL     1     -25.203   8.804   1.068  1.00  0.00     0.074 A 
HETATM    8  C   UNL     1     -23.812   8.754   1.128  1.00  0.00     0.071 A 
HETATM    9  C   UNL     1     -23.066   8.186   0.108  1.00  0.00     0.074 A 
HETATM   10  C   UNL     1     -23.709   7.796  -1.057  1.00  0.00     0.089 A 
HETATM   11  O   UNL     1     -22.916   7.264  -2.037  1.00  0.00    -0.340 OA
ENDROOT
BRANCH   1  12
HETATM   12  C   UNL     1     -22.852   9.007  -3.706  1.00  0.00    -0.026 C 
HETATM   13  C   UNL     1     -21.454   9.183  -3.744  1.00  0.00     0.049 C 
HETATM   14  C   UNL     1     -20.874  10.330  -4.287  1.00  0.00     0.099 C 
HETATM   15  C   UNL     1     -21.667  11.375  -4.746  1.00  0.00     0.101 C 
HETATM   16  C   UNL     1     -23.056  11.259  -4.583  1.00  0.00     0.040 C 
HETATM   17  C   UNL     1     -23.651  10.089  -4.075  1.00  0.00     0.012 C 
BRANCH  14  18
HETATM   18  O   UNL     1     -19.518  10.290  -4.426  1.00  0.00    -0.358 OA
HETATM   19  H   UNL     1     -19.205  11.125  -4.033  1.00  0.00     0.217 HD
ENDBRANCH  14  18
BRANCH  15  20
HETATM   20  O   UNL     1     -21.283  12.502  -5.417  1.00  0.00    -0.353 OA
HETATM   21  C   UNL     1     -21.758  12.729  -6.737  1.00  0.00     0.210 C 
ENDBRANCH  15  20
ENDBRANCH   1  12
BRANCH   6  22
HETATM   22  O   UNL     1     -27.215   8.353  -0.063  1.00  0.00    -0.360 OA
HETATM   23  H   UNL     1     -27.523   7.470  -0.368  1.00  0.00     0.217 HD
ENDBRANCH   6  22
BRANCH   8  24
HETATM   24  O   UNL     1     -23.137   9.283   2.186  1.00  0.00    -0.361 OA
HETATM   25  H   UNL     1     -22.200   9.349   1.932  1.00  0.00     0.217 HD
ENDBRANCH   8  24
TORSDOF 5
BEGIN_RES ARG D 557
REMARK  4 active torsions:
REMARK  status: ('A' for Active; 'I' for Inactive)
REMARK    1  A    between atoms: CA   and  CB  
REMARK    2  A    between atoms: CB   and  CG  
REMARK    3  A    between atoms: CG   and  CD  
REMARK    4  A    between atoms: CD   and  NE  
REMARK       I    between atoms: NE   and  CZ  
REMARK       I    between atoms: CZ   and  NH1 
REMARK       I    between atoms: CZ   and  NH2 
ROOT
ATOM      1  CA  ARG D 557     -26.217   2.705 -17.014  1.00 35.49     0.159 C 
ENDROOT
BRANCH   1   2
ATOM      2  CB  ARG D 557     -26.789   1.319 -17.183  1.00 35.49     0.034 C 
BRANCH   2   3
ATOM      3  CG  ARG D 557     -25.836   0.203 -17.151  1.00 35.49     0.027 C 
BRANCH   3   4
ATOM      4  CD  ARG D 557     -24.759   0.409 -16.156  1.00 35.49     0.116 C 
BRANCH   4   5
ATOM      5  NE  ARG D 557     -24.909  -0.448 -15.009  1.00 35.49    -0.212 N 
ATOM      6  CZ  ARG D 557     -24.092  -1.417 -14.663  1.00 35.49     0.666 C 
ATOM      7  NH1 ARG D 557     -23.018  -1.726 -15.366  1.00 35.49    -0.235 N 
ATOM      8  NH2 ARG D 557     -24.373  -2.079 -13.578  1.00 35.49    -0.235 N 
ATOM      9  HH  ARG D 557     -22.814  -1.302 -16.082  1.00 35.49     0.174 HD
ATOM     10  HH  ARG D 557     -22.521  -2.366 -15.090  1.00 35.49     0.174 HD
ATOM     11  HH  ARG D 557     -25.069  -1.853 -13.140  1.00 35.49     0.174 HD
ATOM     12  HH  ARG D 557     -23.867  -2.709 -13.320  1.00 35.49     0.174 HD
ATOM     13  HE  ARG D 557     -25.613  -0.367 -14.540  1.00 35.49     0.178 HD
ENDBRANCH   4   5
ENDBRANCH   3   4
ENDBRANCH   2   3
ENDBRANCH   1   2
END_RES ARG D 557
BEGIN_RES GLU D 570
REMARK  3 active torsions:
REMARK  status: ('A' for Active; 'I' for Inactive)
REMARK    5  A    between atoms: CA   and  CB  
REMARK    6  A    between atoms: CB   and  CG  
REMARK    7  A    between atoms: CG   and  CD  
ROOT
ATOM     14  CA  GLU D 570     -18.033  -6.348 -13.375  1.00 32.92     0.160 C 
ENDROOT
BRANCH  14  15
ATOM     15  CB  GLU D 570     -19.500  -6.345 -13.794  1.00 32.92     0.043 C 
BRANCH  15  16
ATOM     16  CG  GLU D 570     -20.442  -5.529 -12.984  1.00 32.92     0.100 C 
BRANCH  16  17
ATOM     17  CD  GLU D 570     -21.737  -5.236 -13.705  1.00 32.92     0.185 C 
ATOM     18  OE1 GLU D 570     -22.203  -6.089 -14.484  1.00 32.92    -0.647 OA
ATOM     19  OE2 GLU D 570     -22.283  -4.133 -13.500  1.00 32.92    -0.647 OA
ENDBRANCH  16  17
ENDBRANCH  15  16
ENDBRANCH  14  15
END_RES GLU D 570
ENDMDL
MODEL 5
REMARK VINA RESULT:      -5.8      2.886      4.120
REMARK  5 active torsions:
REMARK  status: ('A' for Active; 'I' for Inactive)
REMARK    1  A    between atoms: O_2  and  C_3 
REMARK    2  A    between atoms: C_4  and  O_22 
REMARK    3  A    between atoms: C_6  and  C_9 
REMARK    4  A    between atoms: C_14  and  O_21 
REMARK    5  A    between atoms: C_16  and  O_20 
ROOT
HETATM    1  C   UNL     1     -19.707 -10.881  -2.270  1.00  0.00     0.169 C 
HETATM    2  C   UNL     1     -19.664 -11.162  -0.770  1.00  0.00     0.121 C 
HETATM    3  C   UNL     1     -20.602 -10.276   0.002  1.00  0.00     0.167 C 
HETATM    4  O   UNL     1     -20.997 -10.550   1.127  1.00  0.00    -0.292 OA
HETATM    5  C   UNL     1     -20.991  -9.009  -0.633  1.00  0.00     0.076 A 
HETATM    6  C   UNL     1     -21.864  -8.108  -0.005  1.00  0.00     0.085 A 
HETATM    7  C   UNL     1     -22.356  -7.018  -0.713  1.00  0.00     0.074 A 
HETATM    8  C   UNL     1     -21.928  -6.807  -2.021  1.00  0.00     0.071 A 
HETATM    9  C   UNL     1     -20.953  -7.605  -2.598  1.00  0.00     0.074 A 
HETATM   10  C   UNL     1     -20.505  -8.722  -1.909  1.00  0.00     0.089 A 
HETATM   11  O   UNL     1     -19.559  -9.483  -2.540  1.00  0.00    -0.340 OA
ENDROOT
BRANCH   1  12
HETATM   12  C   UNL     1     -20.778 -11.464  -3.183  1.00  0.00    -0.026 C 
HETATM   13  C   UNL     1     -20.796 -11.003  -4.515  1.00  0.00     0.049 C 
HETATM   14  C   UNL     1     -21.560 -11.632  -5.498  1.00  0.00     0.099 C 
HETATM   15  C   UNL     1     -22.388 -12.701  -5.176  1.00  0.00     0.101 C 
HETATM   16  C   UNL     1     -22.475 -13.073  -3.826  1.00  0.00     0.040 C 
HETATM   17  C   UNL     1     -21.679 -12.471  -2.834  1.00  0.00     0.012 C 
BRANCH  14  18
HETATM   18  O   UNL     1     -21.344 -11.199  -6.773  1.00  0.00    -0.358 OA
HETATM   19  H   UNL     1     -20.887 -10.344  -6.669  1.00  0.00     0.217 HD
ENDBRANCH  14  18
BRANCH  15  20
HETATM   20  O   UNL     1     -23.098 -13.509  -6.018  1.00  0.00    -0.353 OA
HETATM   21  C   UNL     1     -23.569 -14.766  -5.551  1.00  0.00     0.210 C 
ENDBRANCH  15  20
ENDBRANCH   1  12
BRANCH   6  22
HETATM   22  O   UNL     1     -22.250  -8.229   1.301  1.00  0.00    -0.360 OA
HETATM   23  H   UNL     1     -22.005  -7.402   1.774  1.00  0.00     0.217 HD
ENDBRANCH   6  22
BRANCH   8  24
HETATM   24  O   UNL     1     -22.471  -5.821  -2.787  1.00  0.00    -0.361 OA
HETATM   25  H   UNL     1     -21.932  -5.745  -3.592  1.00  0.00     0.217 HD
ENDBRANCH   8  24
TORSDOF 5
BEGIN_RES ARG D 557
REMARK  4 active torsions:
REMARK  status: ('A' for Active; 'I' for Inactive)
REMARK    1  A    between atoms: CA   and  CB  
REMARK    2  A    between atoms: CB   and  CG  
REMARK    3  A    between atoms: CG   and  CD  
REMARK    4  A    between atoms: CD   and  NE  
REMARK       I    between atoms: NE   and  CZ  
REMARK       I    between atoms: CZ   and  NH1 
REMARK       I    between atoms: CZ   and  NH2 
ROOT
ATOM      1  CA  ARG D 557     -26.217   2.705 -17.014  1.00 35.49     0.159 C 
ENDROOT
BRANCH   1   2
ATOM      2  CB  ARG D 557     -26.789   1.319 -17.183  1.00 35.49     0.034 C 
BRANCH   2   3
ATOM      3  CG  ARG D 557     -28.229   1.227 -17.451  1.00 35.49     0.027 C 
BRANCH   3   4
ATOM      4  CD  ARG D 557     -28.922   0.320 -16.508  1.00 35.49     0.116 C 
BRANCH   4   5
ATOM      5  NE  ARG D 557     -29.275  -0.933 -17.121  1.00 35.49    -0.212 N 
ATOM      6  CZ  ARG D 557     -28.612  -2.062 -17.001  1.00 35.49     0.666 C 
ATOM      7  NH1 ARG D 557     -27.504  -2.160 -16.289  1.00 35.49    -0.235 N 
ATOM      8  NH2 ARG D 557     -29.090  -3.107 -17.611  1.00 35.49    -0.235 N 
ATOM      9  HH  ARG D 557     -27.173  -1.485 -15.878  1.00 35.49     0.174 HD
ATOM     10  HH  ARG D 557     -27.116  -2.923 -16.245  1.00 35.49     0.174 HD
ATOM     11  HH  ARG D 557     -29.811  -3.015 -18.057  1.00 35.49     0.174 HD
ATOM     12  HH  ARG D 557     -28.692  -3.853 -17.553  1.00 35.49     0.174 HD
ATOM     13  HE  ARG D 557     -29.936  -0.944 -17.657  1.00 35.49     0.178 HD
ENDBRANCH   4   5
ENDBRANCH   3   4
ENDBRANCH   2   3
ENDBRANCH   1   2
END_RES ARG D 557
BEGIN_RES GLU D 570
REMARK  3 active torsions:
REMARK  status: ('A' for Active; 'I' for Inactive)
REMARK    5  A    between atoms: CA   and  CB  
REMARK    6  A    between atoms: CB   and  CG  
REMARK    7  A    between atoms: CG   and  CD  
ROOT
ATOM     14  CA  GLU D 570     -18.033  -6.348 -13.375  1.00 32.92     0.160 C 
ENDROOT
BRANCH  14  15
ATOM     15  CB  GLU D 570     -19.500  -6.345 -13.794  1.00 32.92     0.043 C 
BRANCH  15  16
ATOM     16  CG  GLU D 570     -19.797  -6.430 -15.247  1.00 32.92     0.100 C 
BRANCH  16  17
ATOM     17  CD  GLU D 570     -20.911  -7.400 -15.565  1.00 32.92     0.185 C 
ATOM     18  OE1 GLU D 570     -20.633  -8.599 -15.760  1.00 32.92    -0.647 OA
ATOM     19  OE2 GLU D 570     -22.073  -6.953 -15.637  1.00 32.92    -0.647 OA
ENDBRANCH  16  17
ENDBRANCH  15  16
ENDBRANCH  14  15
END_RES GLU D 570
ENDMDL
MODEL 6
REMARK VINA RESULT:      -5.8      2.322      5.808
REMARK  5 active torsions:
REMARK  status: ('A' for Active; 'I' for Inactive)
REMARK    1  A    between atoms: O_2  and  C_3 
REMARK    2  A    between atoms: C_4  and  O_22 
REMARK    3  A    between atoms: C_6  and  C_9 
REMARK    4  A    between atoms: C_14  and  O_21 
REMARK    5  A    between atoms: C_16  and  O_20 
ROOT
HETATM    1  C   UNL     1     -20.101  -9.443  -3.945  1.00  0.00     0.169 C 
HETATM    2  C   UNL     1     -20.789 -10.775  -4.232  1.00  0.00     0.121 C 
HETATM    3  C   UNL     1     -21.975 -11.007  -3.336  1.00  0.00     0.167 C 
HETATM    4  O   UNL     1     -22.866 -11.800  -3.609  1.00  0.00    -0.292 OA
HETATM    5  C   UNL     1     -21.996 -10.275  -2.061  1.00  0.00     0.076 A 
HETATM    6  C   UNL     1     -23.055 -10.413  -1.151  1.00  0.00     0.085 A 
HETATM    7  C   UNL     1     -23.134  -9.565  -0.053  1.00  0.00     0.074 A 
HETATM    8  C   UNL     1     -22.125  -8.628   0.156  1.00  0.00     0.071 A 
HETATM    9  C   UNL     1     -21.001  -8.585  -0.652  1.00  0.00     0.074 A 
HETATM   10  C   UNL     1     -20.952  -9.395  -1.777  1.00  0.00     0.089 A 
HETATM   11  O   UNL     1     -19.826  -9.291  -2.549  1.00  0.00    -0.340 OA
ENDROOT
BRANCH   1  12
HETATM   12  C   UNL     1     -20.604  -8.122  -4.511  1.00  0.00    -0.026 C 
HETATM   13  C   UNL     1     -19.861  -7.561  -5.570  1.00  0.00     0.049 C 
HETATM   14  C   UNL     1     -20.350  -6.495  -6.325  1.00  0.00     0.099 C 
HETATM   15  C   UNL     1     -21.567  -5.903  -6.009  1.00  0.00     0.101 C 
HETATM   16  C   UNL     1     -22.244  -6.371  -4.872  1.00  0.00     0.040 C 
HETATM   17  C   UNL     1     -21.777  -7.471  -4.129  1.00  0.00     0.012 C 
BRANCH  14  18
HETATM   18  O   UNL     1     -19.614  -6.172  -7.427  1.00  0.00    -0.358 OA
HETATM   19  H   UNL     1     -19.039  -5.442  -7.134  1.00  0.00     0.217 HD
ENDBRANCH  14  18
BRANCH  15  20
HETATM   20  O   UNL     1     -22.254  -4.949  -6.706  1.00  0.00    -0.353 OA
HETATM   21  C   UNL     1     -21.587  -3.764  -7.116  1.00  0.00     0.210 C 
ENDBRANCH  15  20
ENDBRANCH   1  12
BRANCH   6  22
HETATM   22  O   UNL     1     -24.024 -11.369  -1.272  1.00  0.00    -0.360 OA
HETATM   23  H   UNL     1     -24.286 -11.426  -2.218  1.00  0.00     0.217 HD
ENDBRANCH   6  22
BRANCH   8  24
HETATM   24  O   UNL     1     -22.222  -7.704   1.153  1.00  0.00    -0.361 OA
HETATM   25  H   UNL     1     -21.641  -6.960   0.920  1.00  0.00     0.217 HD
ENDBRANCH   8  24
TORSDOF 5
BEGIN_RES ARG D 557
REMARK  4 active torsions:
REMARK  status: ('A' for Active; 'I' for Inactive)
REMARK    1  A    between atoms: CA   and  CB  
REMARK    2  A    between atoms: CB   and  CG  
REMARK    3  A    between atoms: CG   and  CD  
REMARK    4  A    between atoms: CD   and  NE  
REMARK       I    between atoms: NE   and  CZ  
REMARK       I    between atoms: CZ   and  NH1 
REMARK       I    between atoms: CZ   and  NH2 
ROOT
ATOM      1  CA  ARG D 557     -26.217   2.705 -17.014  1.00 35.49     0.159 C 
ENDROOT
BRANCH   1   2
ATOM      2  CB  ARG D 557     -26.789   1.319 -17.183  1.00 35.49     0.034 C 
BRANCH   2   3
ATOM      3  CG  ARG D 557     -25.939   0.198 -16.764  1.00 35.49     0.027 C 
BRANCH   3   4
ATOM      4  CD  ARG D 557     -26.706  -0.864 -16.073  1.00 35.49     0.116 C 
BRANCH   4   5
ATOM      5  NE  ARG D 557     -25.976  -1.429 -14.969  1.00 35.49    -0.212 N 
ATOM      6  CZ  ARG D 557     -25.939  -2.702 -14.643  1.00 35.49     0.666 C 
ATOM      7  NH1 ARG D 557     -26.604  -3.625 -15.313  1.00 35.49    -0.235 N 
ATOM      8  NH2 ARG D 557     -25.206  -3.039 -13.622  1.00 35.49    -0.235 N 
ATOM      9  HH  ARG D 557     -27.090  -3.426 -15.990  1.00 35.49     0.174 HD
ATOM     10  HH  ARG D 557     -26.540  -4.439 -15.056  1.00 35.49     0.174 HD
ATOM     11  HH  ARG D 557     -24.782  -2.422 -13.213  1.00 35.49     0.174 HD
ATOM     12  HH  ARG D 557     -25.154  -3.851 -13.384  1.00 35.49     0.174 HD
ATOM     13  HE  ARG D 557     -25.577  -0.896 -14.440  1.00 35.49     0.178 HD
ENDBRANCH   4   5
ENDBRANCH   3   4
ENDBRANCH   2   3
ENDBRANCH   1   2
END_RES ARG D 557
BEGIN_RES GLU D 570
REMARK  3 active torsions:
REMARK  status: ('A' for Active; 'I' for Inactive)
REMARK    5  A    between atoms: CA   and  CB  
REMARK    6  A    between atoms: CB   and  CG  
REMARK    7  A    between atoms: CG   and  CD  
ROOT
ATOM     14  CA  GLU D 570     -18.033  -6.348 -13.375  1.00 32.92     0.160 C 
ENDROOT
BRANCH  14  15
ATOM     15  CB  GLU D 570     -19.500  -6.345 -13.794  1.00 32.92     0.043 C 
BRANCH  15  16
ATOM     16  CG  GLU D 570     -20.087  -7.635 -14.240  1.00 32.92     0.100 C 
BRANCH  16  17
ATOM     17  CD  GLU D 570     -20.651  -7.573 -15.640  1.00 32.92     0.185 C 
ATOM     18  OE1 GLU D 570     -21.133  -8.605 -16.145  1.00 32.92    -0.647 OA
ATOM     19  OE2 GLU D 570     -20.595  -6.484 -16.245  1.00 32.92    -0.647 OA
ENDBRANCH  16  17
ENDBRANCH  15  16
ENDBRANCH  14  15
END_RES GLU D 570
ENDMDL
MODEL 7
REMARK VINA RESULT:      -5.8     12.628     16.330
REMARK  5 active torsions:
REMARK  status: ('A' for Active; 'I' for Inactive)
REMARK    1  A    between atoms: O_2  and  C_3 
REMARK    2  A    between atoms: C_4  and  O_22 
REMARK    3  A    between atoms: C_6  and  C_9 
REMARK    4  A    between atoms: C_14  and  O_21 
REMARK    5  A    between atoms: C_16  and  O_20 
ROOT
HETATM    1  C   UNL     1     -25.501   6.475  -3.951  1.00  0.00     0.169 C 
HETATM    2  C   UNL     1     -25.408   6.838  -5.431  1.00  0.00     0.121 C 
HETATM    3  C   UNL     1     -26.140   8.112  -5.750  1.00  0.00     0.167 C 
HETATM    4  O   UNL     1     -25.913   8.772  -6.755  1.00  0.00    -0.292 OA
HETATM    5  C   UNL     1     -27.206   8.516  -4.823  1.00  0.00     0.076 A 
HETATM    6  C   UNL     1     -27.952   9.688  -5.022  1.00  0.00     0.085 A 
HETATM    7  C   UNL     1     -28.814  10.133  -4.028  1.00  0.00     0.074 A 
HETATM    8  C   UNL     1     -28.967   9.375  -2.870  1.00  0.00     0.071 A 
HETATM    9  C   UNL     1     -28.351   8.141  -2.729  1.00  0.00     0.074 A 
HETATM   10  C   UNL     1     -27.450   7.726  -3.698  1.00  0.00     0.089 A 
HETATM   11  O   UNL     1     -26.856   6.511  -3.492  1.00  0.00    -0.340 OA
ENDROOT
BRANCH   1  12
HETATM   12  C   UNL     1     -24.591   7.092  -2.897  1.00  0.00    -0.026 C 
HETATM   13  C   UNL     1     -23.761   8.151  -3.318  1.00  0.00     0.049 C 
HETATM   14  C   UNL     1     -23.071   8.950  -2.404  1.00  0.00     0.099 C 
HETATM   15  C   UNL     1     -23.128   8.678  -1.043  1.00  0.00     0.101 C 
HETATM   16  C   UNL     1     -23.843   7.541  -0.634  1.00  0.00     0.040 C 
HETATM   17  C   UNL     1     -24.573   6.755  -1.544  1.00  0.00     0.012 C 
BRANCH  14  18
HETATM   18  O   UNL     1     -22.455  10.045  -2.934  1.00  0.00    -0.358 OA
HETATM   19  H   UNL     1     -23.112  10.760  -2.855  1.00  0.00     0.217 HD
ENDBRANCH  14  18
BRANCH  15  20
HETATM   20  O   UNL     1     -22.631   9.418  -0.007  1.00  0.00    -0.353 OA
HETATM   21  C   UNL     1     -22.795   8.957   1.327  1.00  0.00     0.210 C 
ENDBRANCH  15  20
ENDBRANCH   1  12
BRANCH   6  22
HETATM   22  O   UNL     1     -27.894  10.422  -6.173  1.00  0.00    -0.360 OA
HETATM   23  H   UNL     1     -27.071  10.179  -6.655  1.00  0.00     0.217 HD
ENDBRANCH   6  22
BRANCH   8  24
HETATM   24  O   UNL     1     -29.711   9.831  -1.825  1.00  0.00    -0.361 OA
HETATM   25  H   UNL     1     -29.964   9.062  -1.287  1.00  0.00     0.217 HD
ENDBRANCH   8  24
TORSDOF 5
BEGIN_RES ARG D 557
REMARK  4 active torsions:
REMARK  status: ('A' for Active; 'I' for Inactive)
REMARK    1  A    between atoms: CA   and  CB  
REMARK    2  A    between atoms: CB   and  CG  
REMARK    3  A    between atoms: CG   and  CD  
REMARK    4  A    between atoms: CD   and  NE  
REMARK       I    between atoms: NE   and  CZ  
REMARK       I    between atoms: CZ   and  NH1 
REMARK       I    between atoms: CZ   and  NH2 
ROOT
ATOM      1  CA  ARG D 557     -26.217   2.705 -17.014  1.00 35.49     0.159 C 
ENDROOT
BRANCH   1   2
ATOM      2  CB  ARG D 557     -26.789   1.319 -17.183  1.00 35.49     0.034 C 
BRANCH   2   3
ATOM      3  CG  ARG D 557     -25.835   0.203 -17.161  1.00 35.49     0.027 C 
BRANCH   3   4
ATOM      4  CD  ARG D 557     -24.748   0.410 -16.177  1.00 35.49     0.116 C 
BRANCH   4   5
ATOM      5  NE  ARG D 557     -24.896  -0.434 -15.021  1.00 35.49    -0.212 N 
ATOM      6  CZ  ARG D 557     -24.083  -1.405 -14.670  1.00 35.49     0.666 C 
ATOM      7  NH1 ARG D 557     -23.016  -1.728 -15.377  1.00 35.49    -0.235 N 
ATOM      8  NH2 ARG D 557     -24.360  -2.054 -13.576  1.00 35.49    -0.235 N 
ATOM      9  HH  ARG D 557     -22.813  -1.313 -16.099  1.00 35.49     0.174 HD
ATOM     10  HH  ARG D 557     -22.521  -2.369 -15.098  1.00 35.49     0.174 HD
ATOM     11  HH  ARG D 557     -25.052  -1.819 -13.136  1.00 35.49     0.174 HD
ATOM     12  HH  ARG D 557     -23.857  -2.685 -13.315  1.00 35.49     0.174 HD
ATOM     13  HE  ARG D 557     -25.596  -0.343 -14.547  1.00 35.49     0.178 HD
ENDBRANCH   4   5
ENDBRANCH   3   4
ENDBRANCH   2   3
ENDBRANCH   1   2
END_RES ARG D 557
BEGIN_RES GLU D 570
REMARK  3 active torsions:
REMARK  status: ('A' for Active; 'I' for Inactive)
REMARK    5  A    between atoms: CA   and  CB  
REMARK    6  A    between atoms: CB   and  CG  
REMARK    7  A    between atoms: CG   and  CD  
ROOT
ATOM     14  CA  GLU D 570     -18.033  -6.348 -13.375  1.00 32.92     0.160 C 
ENDROOT
BRANCH  14  15
ATOM     15  CB  GLU D 570     -19.500  -6.345 -13.794  1.00 32.92     0.043 C 
BRANCH  15  16
ATOM     16  CG  GLU D 570     -20.441  -5.529 -12.985  1.00 32.92     0.100 C 
BRANCH  16  17
ATOM     17  CD  GLU D 570     -21.737  -5.237 -13.704  1.00 32.92     0.185 C 
ATOM     18  OE1 GLU D 570     -22.309  -4.148 -13.503  1.00 32.92    -0.647 OA
ATOM     19  OE2 GLU D 570     -22.194  -6.113 -14.465  1.00 32.92    -0.647 OA
ENDBRANCH  16  17
ENDBRANCH  15  16
ENDBRANCH  14  15
END_RES GLU D 570
ENDMDL
MODEL 8
REMARK VINA RESULT:      -5.7      3.353      6.057
REMARK  5 active torsions:
REMARK  status: ('A' for Active; 'I' for Inactive)
REMARK    1  A    between atoms: O_2  and  C_3 
REMARK    2  A    between atoms: C_4  and  O_22 
REMARK    3  A    between atoms: C_6  and  C_9 
REMARK    4  A    between atoms: C_14  and  O_21 
REMARK    5  A    between atoms: C_16  and  O_20 
ROOT
HETATM    1  C   UNL     1     -21.348  -8.125  -3.749  1.00  0.00     0.169 C 
HETATM    2  C   UNL     1     -20.208  -8.272  -2.745  1.00  0.00     0.121 C 
HETATM    3  C   UNL     1     -19.148  -9.225  -3.224  1.00  0.00     0.167 C 
HETATM    4  O   UNL     1     -18.008  -9.227  -2.778  1.00  0.00    -0.292 OA
HETATM    5  C   UNL     1     -19.553 -10.219  -4.228  1.00  0.00     0.076 A 
HETATM    6  C   UNL     1     -18.645 -11.154  -4.747  1.00  0.00     0.085 A 
HETATM    7  C   UNL     1     -19.015 -11.946  -5.828  1.00  0.00     0.074 A 
HETATM    8  C   UNL     1     -20.304 -11.837  -6.341  1.00  0.00     0.071 A 
HETATM    9  C   UNL     1     -21.254 -11.026  -5.741  1.00  0.00     0.074 A 
HETATM   10  C   UNL     1     -20.867 -10.198  -4.699  1.00  0.00     0.089 A 
HETATM   11  O   UNL     1     -21.844  -9.404  -4.162  1.00  0.00    -0.340 OA
ENDROOT
BRANCH   1  12
HETATM   12  C   UNL     1     -21.264  -7.199  -4.955  1.00  0.00    -0.026 C 
HETATM   13  C   UNL     1     -22.452  -6.540  -5.333  1.00  0.00     0.049 C 
HETATM   14  C   UNL     1     -22.448  -5.493  -6.255  1.00  0.00     0.099 C 
HETATM   15  C   UNL     1     -21.272  -5.111  -6.888  1.00  0.00     0.101 C 
HETATM   16  C   UNL     1     -20.114  -5.856  -6.616  1.00  0.00     0.040 C 
HETATM   17  C   UNL     1     -20.100  -6.887  -5.657  1.00  0.00     0.012 C 
BRANCH  14  18
HETATM   18  O   UNL     1     -23.632  -4.829  -6.391  1.00  0.00    -0.358 OA
HETATM   19  H   UNL     1     -23.785  -4.417  -5.521  1.00  0.00     0.217 HD
ENDBRANCH  14  18
BRANCH  15  20
HETATM   20  O   UNL     1     -21.058  -4.040  -7.709  1.00  0.00    -0.353 OA
HETATM   21  C   UNL     1     -21.298  -4.167  -9.104  1.00  0.00     0.210 C 
ENDBRANCH  15  20
ENDBRANCH   1  12
BRANCH   6  22
HETATM   22  O   UNL     1     -17.398 -11.352  -4.226  1.00  0.00    -0.360 OA
HETATM   23  H   UNL     1     -17.131 -12.282  -4.407  1.00  0.00     0.217 HD
ENDBRANCH   6  22
BRANCH   8  24
HETATM   24  O   UNL     1     -20.669 -12.510  -7.468  1.00  0.00    -0.361 OA
HETATM   25  H   UNL     1     -21.153 -11.887  -8.037  1.00  0.00     0.217 HD
ENDBRANCH   8  24
TORSDOF 5
BEGIN_RES ARG D 557
REMARK  4 active torsions:
REMARK  status: ('A' for Active; 'I' for Inactive)
REMARK    1  A    between atoms: CA   and  CB  
REMARK    2  A    between atoms: CB   and  CG  
REMARK    3  A    between atoms: CG   and  CD  
REMARK    4  A    between atoms: CD   and  NE  
REMARK       I    between atoms: NE   and  CZ  
REMARK       I    between atoms: CZ   and  NH1 
REMARK       I    between atoms: CZ   and  NH2 
ROOT
ATOM      1  CA  ARG D 557     -26.217   2.705 -17.014  1.00 35.49     0.159 C 
ENDROOT
BRANCH   1   2
ATOM      2  CB  ARG D 557     -26.789   1.319 -17.183  1.00 35.49     0.034 C 
BRANCH   2   3
ATOM      3  CG  ARG D 557     -25.864   0.195 -16.994  1.00 35.49     0.027 C 
BRANCH   3   4
ATOM      4  CD  ARG D 557     -26.291  -0.709 -15.902  1.00 35.49     0.116 C 
BRANCH   4   5
ATOM      5  NE  ARG D 557     -25.248  -0.918 -14.932  1.00 35.49    -0.212 N 
ATOM      6  CZ  ARG D 557     -24.967  -2.057 -14.339  1.00 35.49     0.666 C 
ATOM      7  NH1 ARG D 557     -25.648  -3.164 -14.572  1.00 35.49    -0.235 N 
ATOM      8  NH2 ARG D 557     -23.972  -2.068 -13.501  1.00 35.49    -0.235 N 
ATOM      9  HH  ARG D 557     -26.305  -3.181 -15.121  1.00 35.49     0.174 HD
ATOM     10  HH  ARG D 557     -25.417  -3.878 -14.158  1.00 35.49     0.174 HD
ATOM     11  HH  ARG D 557     -23.546  -1.340 -13.376  1.00 35.49     0.174 HD
ATOM     12  HH  ARG D 557     -23.758  -2.785 -13.102  1.00 35.49     0.174 HD
ATOM     13  HE  ARG D 557     -24.807  -0.241 -14.668  1.00 35.49     0.178 HD
ENDBRANCH   4   5
ENDBRANCH   3   4
ENDBRANCH   2   3
ENDBRANCH   1   2
END_RES ARG D 557
BEGIN_RES GLU D 570
REMARK  3 active torsions:
REMARK  status: ('A' for Active; 'I' for Inactive)
REMARK    5  A    between atoms: CA   and  CB  
REMARK    6  A    between atoms: CB   and  CG  
REMARK    7  A    between atoms: CG   and  CD  
ROOT
ATOM     14  CA  GLU D 570     -18.033  -6.348 -13.375  1.00 32.92     0.160 C 
ENDROOT
BRANCH  14  15
ATOM     15  CB  GLU D 570     -19.500  -6.345 -13.794  1.00 32.92     0.043 C 
BRANCH  15  16
ATOM     16  CG  GLU D 570     -19.802  -6.105 -15.229  1.00 32.92     0.100 C 
BRANCH  16  17
ATOM     17  CD  GLU D 570     -21.095  -5.354 -15.442  1.00 32.92     0.185 C 
ATOM     18  OE1 GLU D 570     -21.743  -4.971 -14.449  1.00 32.92    -0.647 OA
ATOM     19  OE2 GLU D 570     -21.472  -5.160 -16.614  1.00 32.92    -0.647 OA
ENDBRANCH  16  17
ENDBRANCH  15  16
ENDBRANCH  14  15
END_RES GLU D 570
ENDMDL
MODEL 9
REMARK VINA RESULT:      -5.6      4.121      5.110
REMARK  5 active torsions:
REMARK  status: ('A' for Active; 'I' for Inactive)
REMARK    1  A    between atoms: O_2  and  C_3 
REMARK    2  A    between atoms: C_4  and  O_22 
REMARK    3  A    between atoms: C_6  and  C_9 
REMARK    4  A    between atoms: C_14  and  O_21 
REMARK    5  A    between atoms: C_16  and  O_20 
ROOT
HETATM    1  C   UNL     1     -20.609  -7.306  -4.302  1.00  0.00     0.169 C 
HETATM    2  C   UNL     1     -21.988  -6.811  -3.870  1.00  0.00     0.121 C 
HETATM    3  C   UNL     1     -22.728  -6.139  -4.993  1.00  0.00     0.167 C 
HETATM    4  O   UNL     1     -23.942  -5.992  -4.992  1.00  0.00    -0.292 OA
HETATM    5  C   UNL     1     -21.916  -5.597  -6.092  1.00  0.00     0.076 A 
HETATM    6  C   UNL     1     -22.502  -4.953  -7.193  1.00  0.00     0.085 A 
HETATM    7  C   UNL     1     -21.722  -4.627  -8.295  1.00  0.00     0.074 A 
HETATM    8  C   UNL     1     -20.356  -4.896  -8.266  1.00  0.00     0.071 A 
HETATM    9  C   UNL     1     -19.743  -5.393  -7.127  1.00  0.00     0.074 A 
HETATM   10  C   UNL     1     -20.532  -5.767  -6.049  1.00  0.00     0.089 A 
HETATM   11  O   UNL     1     -19.871  -6.273  -4.963  1.00  0.00    -0.340 OA
ENDROOT
BRANCH   1  12
HETATM   12  C   UNL     1     -20.404  -8.626  -5.034  1.00  0.00    -0.026 C 
HETATM   13  C   UNL     1     -19.071  -9.013  -5.281  1.00  0.00     0.049 C 
HETATM   14  C   UNL     1     -18.751 -10.299  -5.718  1.00  0.00     0.099 C 
HETATM   15  C   UNL     1     -19.752 -11.223  -5.994  1.00  0.00     0.101 C 
HETATM   16  C   UNL     1     -21.083 -10.794  -5.880  1.00  0.00     0.040 C 
HETATM   17  C   UNL     1     -21.415  -9.514  -5.401  1.00  0.00     0.012 C 
BRANCH  14  18
HETATM   18  O   UNL     1     -17.420 -10.594  -5.742  1.00  0.00    -0.358 OA
HETATM   19  H   UNL     1     -17.174 -10.701  -4.805  1.00  0.00     0.217 HD
ENDBRANCH  14  18
BRANCH  15  20
HETATM   20  O   UNL     1     -19.623 -12.548  -6.302  1.00  0.00    -0.353 OA
HETATM   21  C   UNL     1     -19.511 -12.944  -7.662  1.00  0.00     0.210 C 
ENDBRANCH  15  20
ENDBRANCH   1  12
BRANCH   6  22
HETATM   22  O   UNL     1     -23.821  -4.598  -7.234  1.00  0.00    -0.360 OA
HETATM   23  H   UNL     1     -24.023  -4.065  -6.433  1.00  0.00     0.217 HD
ENDBRANCH   6  22
BRANCH   8  24
HETATM   24  O   UNL     1     -19.578  -4.698  -9.366  1.00  0.00    -0.361 OA
HETATM   25  H   UNL     1     -19.208  -3.801  -9.306  1.00  0.00     0.217 HD
ENDBRANCH   8  24
TORSDOF 5
BEGIN_RES ARG D 557
REMARK  4 active torsions:
REMARK  status: ('A' for Active; 'I' for Inactive)
REMARK    1  A    between atoms: CA   and  CB  
REMARK    2  A    between atoms: CB   and  CG  
REMARK    3  A    between atoms: CG   and  CD  
REMARK    4  A    between atoms: CD   and  NE  
REMARK       I    between atoms: NE   and  CZ  
REMARK       I    between atoms: CZ   and  NH1 
REMARK       I    between atoms: CZ   and  NH2 
ROOT
ATOM      1  CA  ARG D 557     -26.217   2.705 -17.014  1.00 35.49     0.159 C 
ENDROOT
BRANCH   1   2
ATOM      2  CB  ARG D 557     -26.789   1.319 -17.183  1.00 35.49     0.034 C 
BRANCH   2   3
ATOM      3  CG  ARG D 557     -28.233   1.226 -17.432  1.00 35.49     0.027 C 
BRANCH   3   4
ATOM      4  CD  ARG D 557     -28.908   0.299 -16.495  1.00 35.49     0.116 C 
BRANCH   4   5
ATOM      5  NE  ARG D 557     -29.305  -0.926 -17.136  1.00 35.49    -0.212 N 
ATOM      6  CZ  ARG D 557     -28.683  -2.080 -17.040  1.00 35.49     0.666 C 
ATOM      7  NH1 ARG D 557     -27.580  -2.234 -16.331  1.00 35.49    -0.235 N 
ATOM      8  NH2 ARG D 557     -29.197  -3.094 -17.673  1.00 35.49    -0.235 N 
ATOM      9  HH  ARG D 557     -27.225  -1.581 -15.904  1.00 35.49     0.174 HD
ATOM     10  HH  ARG D 557     -27.219  -3.010 -16.303  1.00 35.49     0.174 HD
ATOM     11  HH  ARG D 557     -29.914  -2.967 -18.117  1.00 35.49     0.174 HD
ATOM     12  HH  ARG D 557     -28.826  -3.855 -17.632  1.00 35.49     0.174 HD
ATOM     13  HE  ARG D 557     -29.965  -0.901 -17.671  1.00 35.49     0.178 HD
ENDBRANCH   4   5
ENDBRANCH   3   4
ENDBRANCH   2   3
ENDBRANCH   1   2
END_RES ARG D 557
BEGIN_RES GLU D 570
REMARK  3 active torsions:
REMARK  status: ('A' for Active; 'I' for Inactive)
REMARK    5  A    between atoms: CA   and  CB  
REMARK    6  A    between atoms: CB   and  CG  
REMARK    7  A    between atoms: CG   and  CD  
ROOT
ATOM     14  CA  GLU D 570     -18.033  -6.348 -13.375  1.00 32.92     0.160 C 
ENDROOT
BRANCH  14  15
ATOM     15  CB  GLU D 570     -19.500  -6.345 -13.794  1.00 32.92     0.043 C 
BRANCH  15  16
ATOM     16  CG  GLU D 570     -20.446  -5.548 -12.970  1.00 32.92     0.100 C 
BRANCH  16  17
ATOM     17  CD  GLU D 570     -21.745  -5.254 -13.683  1.00 32.92     0.185 C 
ATOM     18  OE1 GLU D 570     -22.254  -6.135 -14.402  1.00 32.92    -0.647 OA
ATOM     19  OE2 GLU D 570     -22.250  -4.123 -13.535  1.00 32.92    -0.647 OA
ENDBRANCH  16  17
ENDBRANCH  15  16
ENDBRANCH  14  15
END_RES GLU D 570
ENDMDL
