MODEL 1
REMARK VINA RESULT:      -4.3      0.000      0.000
REMARK WARNING: 32 MAX_TORS EXCEEDED!!!
REMARK  55 active torsions:
REMARK  status: ('A' for Active; 'I' for Inactive)
REMARK    1  A    between atoms: O_2  and  C_3 
REMARK       I    between atoms: C_3  and  N_5 
REMARK    2  A    between atoms: N_5  and  C_6 
REMARK    3  A    between atoms: C_7  and  O_104 
REMARK    4  A    between atoms: C_8  and  O_37 
REMARK    5  A    between atoms: C_9  and  C_35 
REMARK    6  A    between atoms: C_11  and  O_12 
REMARK    7  A    between atoms: O_12  and  C_13 
REMARK    8  A    between atoms: C_14  and  C_33 
REMARK    9  A    between atoms: C_16  and  O_21 
REMARK   10  A    between atoms: C_17  and  N_20 
REMARK   11  A    between atoms: C_18  and  O_19 
REMARK   12  A    between atoms: O_21  and  C_22 
REMARK   13  A    between atoms: C_23  and  C_31 
REMARK   14  A    between atoms: C_25  and  O_30 
REMARK   15  A    between atoms: C_26  and  N_29 
REMARK   16  A    between atoms: C_27  and  O_28 
REMARK   17  A    between atoms: C_31  and  O_32 
REMARK   18  A    between atoms: C_33  and  O_34 
REMARK   19  A    between atoms: C_35  and  O_36 
REMARK   20  A    between atoms: O_37  and  C_38 
REMARK   21  A    between atoms: C_39  and  N_103 
REMARK   22  A    between atoms: C_40  and  O_102 
REMARK   23  A    between atoms: C_41  and  O_46 
REMARK   24  A    between atoms: C_42  and  C_44 
REMARK   25  A    between atoms: C_44  and  O_45 
REMARK   26  A    between atoms: O_46  and  C_47 
REMARK   27  A    between atoms: C_48  and  N_101 
REMARK   28  A    between atoms: C_49  and  O_100 
REMARK   29  A    between atoms: C_50  and  O_55 
REMARK   30  A    between atoms: C_51  and  C_53 
REMARK   31  A    between atoms: C_53  and  O_54 
REMARK   32  A    between atoms: O_55  and  C_56 
REMARK   33  A    between atoms: C_57  and  N_99 
REMARK   34  A    between atoms: C_58  and  O_98 
REMARK   35  A    between atoms: C_59  and  O_64 
REMARK   36  A    between atoms: C_60  and  C_62 
REMARK   37  A    between atoms: C_62  and  O_63 
REMARK   38  A    between atoms: O_64  and  C_65 
REMARK   39  A    between atoms: C_66  and  N_97 
REMARK   40  A    between atoms: C_67  and  O_96 
REMARK   41  A    between atoms: C_68  and  O_73 
REMARK   42  A    between atoms: C_69  and  C_71 
REMARK   43  A    between atoms: C_71  and  O_72 
REMARK   44  A    between atoms: O_73  and  C_74 
REMARK   45  A    between atoms: C_75  and  N_95 
REMARK   46  A    between atoms: C_76  and  O_94 
REMARK   47  A    between atoms: C_77  and  O_82 
REMARK   48  A    between atoms: C_78  and  C_80 
REMARK   49  A    between atoms: C_80  and  O_81 
REMARK   50  A    between atoms: O_82  and  C_83 
REMARK   51  A    between atoms: C_84  and  N_93 
REMARK   52  A    between atoms: C_85  and  O_92 
REMARK   53  A    between atoms: C_86  and  O_91 
REMARK   54  A    between atoms: C_87  and  C_89 
REMARK   55  A    between atoms: C_89  and  O_90 
ROOT
HETATM    1  C   UNL     1     -21.693  -7.003  -4.207  1.00  0.00     0.296 C 
HETATM    2  C   UNL     1     -21.938  -6.897  -2.595  1.00  0.00     0.303 C 
HETATM    3  C   UNL     1     -21.037  -7.889  -1.713  1.00  0.00     0.187 C 
HETATM    4  C   UNL     1     -20.993  -9.402  -2.246  1.00  0.00     0.186 C 
HETATM    5  C   UNL     1     -20.765  -9.242  -3.798  1.00  0.00     0.179 C 
HETATM    6  O   UNL     1     -21.719  -8.404  -4.486  1.00  0.00    -0.349 OA
ENDROOT
BRANCH   1   7
HETATM    7  O   UNL     1     -20.498  -6.427  -4.770  1.00  0.00    -0.348 OA
BRANCH   7   8
HETATM    8  C   UNL     1     -20.498  -5.347  -5.876  1.00  0.00     0.186 C 
HETATM    9  C   UNL     1     -21.828  -4.554  -6.183  1.00  0.00     0.187 C 
HETATM   10  C   UNL     1     -22.580  -5.012  -7.465  1.00  0.00     0.303 C 
HETATM   11  C   UNL     1     -21.838  -5.198  -8.812  1.00  0.00     0.296 C 
HETATM   12  O   UNL     1     -20.606  -5.912  -8.448  1.00  0.00    -0.349 OA
HETATM   13  C   UNL     1     -19.748  -5.648  -7.272  1.00  0.00     0.179 C 
BRANCH   9  14
HETATM   14  O   UNL     1     -21.513  -3.156  -6.311  1.00  0.00    -0.391 OA
HETATM   15  H   UNL     1     -20.660  -3.025  -6.799  1.00  0.00     0.210 HD
ENDBRANCH   9  14
BRANCH  10  16
HETATM   16  N   UNL     1     -23.768  -4.188  -7.645  1.00  0.00     0.090 N 
HETATM   17  H   UNL     1     -24.285  -4.550  -8.445  1.00  0.00     0.313 HD
HETATM   18  H   UNL     1     -23.427  -3.297  -8.016  1.00  0.00     0.313 HD
ENDBRANCH  10  16
BRANCH  11  19
HETATM   19  O   UNL     1     -21.749  -4.029  -9.974  1.00  0.00    -0.348 OA
BRANCH  19  20
HETATM   20  C   UNL     1     -22.993  -3.790 -11.001  1.00  0.00     0.186 C 
HETATM   21  C   UNL     1     -22.936  -2.627 -12.094  1.00  0.00     0.177 C 
HETATM   22  C   UNL     1     -24.207  -2.452 -13.057  1.00  0.00     0.173 C 
HETATM   23  C   UNL     1     -24.833  -3.789 -13.667  1.00  0.00     0.286 C 
HETATM   24  O   UNL     1     -24.899  -4.709 -12.541  1.00  0.00    -0.349 OA
HETATM   25  C   UNL     1     -23.653  -5.077 -11.841  1.00  0.00     0.180 C 
BRANCH  21  26
HETATM   26  O   UNL     1     -21.779  -2.653 -12.943  1.00  0.00    -0.391 OA
HETATM   27  H   UNL     1     -21.878  -2.086 -13.716  1.00  0.00     0.210 HD
ENDBRANCH  21  26
BRANCH  22  28
HETATM   28  N   UNL     1     -24.037  -1.365 -14.051  1.00  0.00    -0.325 N 
HETATM   29  C   UNL     1     -25.004  -0.925 -14.918  1.00  0.00     0.360 C 
HETATM   30  O   UNL     1     -26.138  -1.393 -14.953  1.00  0.00    -0.239 OA
HETATM   31  H   UNL     1     -23.205  -0.774 -13.948  1.00  0.00     0.165 HD
BRANCH  29  32
HETATM   32  O   UNL     1     -24.530   0.065 -15.716  1.00  0.00    -0.309 OA
HETATM   33  C   UNL     1     -23.124   0.069 -16.020  1.00  0.00     0.215 C 
ENDBRANCH  29  32
ENDBRANCH  22  28
BRANCH  23  34
HETATM   34  O   UNL     1     -24.294  -4.376 -14.952  1.00  0.00    -0.348 OA
BRANCH  34  35
HETATM   35  C   UNL     1     -24.622  -5.809 -15.228  1.00  0.00     0.186 C 
HETATM   36  C   UNL     1     -26.136  -6.139 -15.522  1.00  0.00     0.179 C 
HETATM   37  O   UNL     1     -26.718  -5.734 -16.804  1.00  0.00    -0.349 OA
HETATM   38  C   UNL     1     -26.051  -6.086 -18.025  1.00  0.00     0.296 C 
HETATM   39  C   UNL     1     -24.499  -6.452 -17.849  1.00  0.00     0.303 C 
HETATM   40  C   UNL     1     -23.859  -6.530 -16.374  1.00  0.00     0.187 C 
BRANCH  36  41
HETATM   41  C   UNL     1     -26.467  -7.650 -15.398  1.00  0.00     0.198 C 
BRANCH  41  42
HETATM   42  O   UNL     1     -27.699  -7.738 -14.684  1.00  0.00    -0.398 OA
HETATM   43  H   UNL     1     -27.777  -6.880 -14.233  1.00  0.00     0.209 HD
ENDBRANCH  41  42
ENDBRANCH  36  41
BRANCH  38  44
HETATM   44  O   UNL     1     -26.730  -7.047 -18.898  1.00  0.00    -0.348 OA
BRANCH  44  45
HETATM   45  C   UNL     1     -28.074  -6.708 -19.355  1.00  0.00     0.186 C 
HETATM   46  C   UNL     1     -29.180  -7.895 -19.254  1.00  0.00     0.179 C 
HETATM   47  O   UNL     1     -29.339  -8.607 -18.005  1.00  0.00    -0.349 OA
HETATM   48  C   UNL     1     -29.522  -7.707 -16.912  1.00  0.00     0.292 C 
HETATM   49  C   UNL     1     -29.172  -6.169 -17.082  1.00  0.00     0.303 C 
HETATM   50  C   UNL     1     -28.560  -5.524 -18.478  1.00  0.00     0.187 C 
BRANCH  46  51
HETATM   51  C   UNL     1     -30.534  -7.261 -19.680  1.00  0.00     0.198 C 
BRANCH  51  52
HETATM   52  O   UNL     1     -31.663  -7.868 -19.141  1.00  0.00    -0.398 OA
HETATM   53  H   UNL     1     -31.835  -8.721 -19.587  1.00  0.00     0.209 HD
ENDBRANCH  51  52
ENDBRANCH  46  51
BRANCH  48  54
HETATM   54  O   UNL     1     -30.700  -8.339 -16.149  1.00  0.00    -0.369 OA
HETATM   55  H   UNL     1     -30.563  -9.287 -15.964  1.00  0.00     0.212 HD
ENDBRANCH  48  54
BRANCH  49  56
HETATM   56  N   UNL     1     -30.026  -5.450 -16.173  1.00  0.00     0.090 NA
HETATM   57  H   UNL     1     -30.796  -4.960 -16.619  1.00  0.00     0.313 HD
HETATM   58  H   UNL     1     -30.412  -6.129 -15.476  1.00  0.00     0.313 HD
ENDBRANCH  49  56
BRANCH  50  59
HETATM   59  O   UNL     1     -29.180  -4.533 -19.308  1.00  0.00    -0.391 OA
HETATM   60  H   UNL     1     -28.636  -3.746 -19.459  1.00  0.00     0.210 HD
ENDBRANCH  50  59
ENDBRANCH  44  45
ENDBRANCH  38  44
BRANCH  39  61
HETATM   61  N   UNL     1     -24.068  -7.545 -18.808  1.00  0.00     0.090 N 
HETATM   62  H   UNL     1     -23.322  -8.069 -18.368  1.00  0.00     0.313 HD
HETATM   63  H   UNL     1     -24.859  -8.175 -18.894  1.00  0.00     0.313 HD
ENDBRANCH  39  61
BRANCH  40  64
HETATM   64  O   UNL     1     -23.776  -7.899 -15.890  1.00  0.00    -0.391 OA
HETATM   65  H   UNL     1     -23.845  -8.570 -16.586  1.00  0.00     0.210 HD
ENDBRANCH  40  64
ENDBRANCH  34  35
ENDBRANCH  23  34
BRANCH  25  66
HETATM   66  C   UNL     1     -22.830  -5.904 -12.872  1.00  0.00     0.198 C 
BRANCH  66  67
HETATM   67  O   UNL     1     -21.912  -5.094 -13.648  1.00  0.00    -0.398 OA
HETATM   68  H   UNL     1     -21.748  -4.294 -13.122  1.00  0.00     0.209 HD
ENDBRANCH  66  67
ENDBRANCH  25  66
ENDBRANCH  19  20
ENDBRANCH  11  19
BRANCH  13  69
HETATM   69  C   UNL     1     -18.736  -4.545  -7.732  1.00  0.00     0.198 C 
BRANCH  69  70
HETATM   70  O   UNL     1     -19.466  -3.450  -8.319  1.00  0.00    -0.398 OA
HETATM   71  H   UNL     1     -19.284  -3.547  -9.286  1.00  0.00     0.209 HD
ENDBRANCH  69  70
ENDBRANCH  13  69
ENDBRANCH   7   8
ENDBRANCH   1   7
BRANCH   2  72
HETATM   72  N   UNL     1     -22.026  -5.490  -2.135  1.00  0.00     0.090 N 
HETATM   73  H   UNL     1     -21.187  -5.127  -1.659  1.00  0.00     0.313 HD
HETATM   74  H   UNL     1     -22.823  -5.293  -1.528  1.00  0.00     0.313 HD
ENDBRANCH   2  72
BRANCH   3  75
HETATM   75  O   UNL     1     -21.246  -7.820  -0.275  1.00  0.00    -0.391 OA
HETATM   76  H   UNL     1     -22.089  -8.268  -0.078  1.00  0.00     0.210 HD
ENDBRANCH   3  75
BRANCH   5  77
HETATM   77  C   UNL     1     -19.323  -8.879  -4.134  1.00  0.00     0.198 C 
BRANCH  77  78
HETATM   78  O   UNL     1     -18.523  -9.552  -3.164  1.00  0.00    -0.398 OA
HETATM   79  H   UNL     1     -18.151 -10.344  -3.581  1.00  0.00     0.209 HD
ENDBRANCH  77  78
ENDBRANCH   5  77
BRANCH   4  80
HETATM   80  O   UNL     1     -22.023 -10.407  -1.731  1.00  0.00    -0.348 OA
BRANCH  80  81
HETATM   81  C   UNL     1     -21.851 -11.866  -2.097  1.00  0.00     0.296 C 
HETATM   82  C   UNL     1     -23.072 -12.654  -1.509  1.00  0.00     0.303 C 
HETATM   83  C   UNL     1     -22.798 -13.346   0.022  1.00  0.00     0.187 C 
HETATM   84  C   UNL     1     -21.403 -13.972   0.463  1.00  0.00     0.186 C 
HETATM   85  C   UNL     1     -20.331 -13.183  -0.465  1.00  0.00     0.179 C 
HETATM   86  O   UNL     1     -20.698 -12.739  -1.849  1.00  0.00    -0.349 OA
BRANCH  82  87
HETATM   87  N   UNL     1     -24.350 -11.791  -1.486  1.00  0.00     0.090 N 
HETATM   88  H   UNL     1     -24.883 -12.061  -2.318  1.00  0.00     0.313 HD
HETATM   89  H   UNL     1     -24.933 -11.874  -0.646  1.00  0.00     0.313 HD
ENDBRANCH  82  87
BRANCH  83  90
HETATM   90  O   UNL     1     -23.100 -12.415   1.108  1.00  0.00    -0.391 OA
HETATM   91  H   UNL     1     -23.018 -11.552   0.676  1.00  0.00     0.210 HD
ENDBRANCH  83  90
BRANCH  84  92
HETATM   92  O   UNL     1     -21.565 -15.489   0.534  1.00  0.00    -0.348 OA
BRANCH  92  93
HETATM   93  C   UNL     1     -20.566 -16.590   0.129  1.00  0.00     0.296 C 
HETATM   94  C   UNL     1     -19.106 -16.500   0.824  1.00  0.00     0.303 C 
HETATM   95  C   UNL     1     -17.789 -16.190  -0.014  1.00  0.00     0.187 C 
HETATM   96  C   UNL     1     -17.732 -16.634  -1.475  1.00  0.00     0.186 C 
HETATM   97  C   UNL     1     -19.208 -16.903  -2.043  1.00  0.00     0.179 C 
HETATM   98  O   UNL     1     -20.387 -17.167  -1.182  1.00  0.00    -0.349 OA
BRANCH  94  99
HETATM   99  N   UNL     1     -19.061 -15.777   2.107  1.00  0.00     0.090 NA
HETATM  100  H   UNL     1     -18.294 -15.093   2.037  1.00  0.00     0.313 HD
HETATM  101  H   UNL     1     -19.913 -15.221   2.188  1.00  0.00     0.313 HD
ENDBRANCH  94  99
BRANCH  95 102
HETATM  102  O   UNL     1     -17.408 -14.803  -0.048  1.00  0.00    -0.391 OA
HETATM  103  H   UNL     1     -18.083 -14.325   0.486  1.00  0.00     0.210 HD
ENDBRANCH  95 102
BRANCH  96 104
HETATM  104  O   UNL     1     -16.352 -17.118  -1.783  1.00  0.00    -0.348 OA
BRANCH 104 105
HETATM  105  C   UNL     1     -15.274 -16.600  -2.578  1.00  0.00     0.296 C 
HETATM  106  C   UNL     1     -15.148 -14.979  -2.561  1.00  0.00     0.303 C 
HETATM  107  C   UNL     1     -16.044 -14.243  -3.617  1.00  0.00     0.187 C 
HETATM  108  C   UNL     1     -16.330 -14.926  -4.973  1.00  0.00     0.186 C 
HETATM  109  C   UNL     1     -16.184 -16.471  -4.932  1.00  0.00     0.179 C 
HETATM  110  O   UNL     1     -15.228 -17.003  -3.969  1.00  0.00    -0.349 OA
BRANCH 106 111
HETATM  111  N   UNL     1     -15.199 -14.204  -1.238  1.00  0.00     0.090 N 
HETATM  112  H   UNL     1     -16.132 -14.408  -0.870  1.00  0.00     0.313 HD
HETATM  113  H   UNL     1     -15.293 -13.219  -1.542  1.00  0.00     0.313 HD
ENDBRANCH 106 111
BRANCH 107 114
HETATM  114  O   UNL     1     -17.191 -13.697  -2.978  1.00  0.00    -0.391 OA
HETATM  115  H   UNL     1     -16.924 -12.972  -2.372  1.00  0.00     0.210 HD
ENDBRANCH 107 114
BRANCH 108 116
HETATM  116  O   UNL     1     -15.426 -14.228  -5.845  1.00  0.00    -0.348 OA
BRANCH 116 117
HETATM  117  C   UNL     1     -15.827 -13.188  -6.751  1.00  0.00     0.296 C 
HETATM  118  C   UNL     1     -15.387 -11.747  -6.293  1.00  0.00     0.303 C 
HETATM  119  C   UNL     1     -16.456 -10.994  -5.486  1.00  0.00     0.187 C 
HETATM  120  C   UNL     1     -17.880 -11.227  -6.041  1.00  0.00     0.180 C 
HETATM  121  C   UNL     1     -18.185 -12.626  -6.629  1.00  0.00     0.179 C 
HETATM  122  O   UNL     1     -17.118 -13.284  -7.315  1.00  0.00    -0.349 OA
BRANCH 118 123
HETATM  123  N   UNL     1     -14.106 -11.762  -5.427  1.00  0.00     0.090 N 
HETATM  124  H   UNL     1     -13.366 -11.708  -6.125  1.00  0.00     0.313 HD
HETATM  125  H   UNL     1     -14.057 -12.785  -5.288  1.00  0.00     0.313 HD
ENDBRANCH 118 123
BRANCH 119 126
HETATM  126  O   UNL     1     -16.112 -11.221  -4.090  1.00  0.00    -0.391 OA
HETATM  127  H   UNL     1     -15.198 -10.896  -3.973  1.00  0.00     0.210 HD
ENDBRANCH 119 126
BRANCH 120 128
HETATM  128  O   UNL     1     -17.904 -10.338  -7.203  1.00  0.00    -0.390 OA
HETATM  129  H   UNL     1     -17.874 -10.930  -7.996  1.00  0.00     0.210 HD
ENDBRANCH 120 128
BRANCH 121 130
HETATM  130  C   UNL     1     -18.922 -13.563  -5.680  1.00  0.00     0.198 C 
BRANCH 130 131
HETATM  131  O   UNL     1     -19.554 -12.751  -4.716  1.00  0.00    -0.398 OA
HETATM  132  H   UNL     1     -19.053 -12.840  -3.881  1.00  0.00     0.209 HD
ENDBRANCH 130 131
ENDBRANCH 121 130
ENDBRANCH 116 117
ENDBRANCH 108 116
BRANCH 109 133
HETATM  133  C   UNL     1     -17.548 -17.183  -4.742  1.00  0.00     0.198 C 
BRANCH 133 134
HETATM  134  O   UNL     1     -18.387 -16.918  -5.863  1.00  0.00    -0.398 OA
HETATM  135  H   UNL     1     -18.207 -16.002  -6.136  1.00  0.00     0.209 HD
ENDBRANCH 133 134
ENDBRANCH 109 133
ENDBRANCH 104 105
ENDBRANCH  96 104
BRANCH  97 136
HETATM  136  C   UNL     1     -19.724 -15.712  -2.905  1.00  0.00     0.198 C 
BRANCH 136 137
HETATM  137  O   UNL     1     -21.150 -15.643  -2.786  1.00  0.00    -0.398 OA
HETATM  138  H   UNL     1     -21.387 -14.800  -2.371  1.00  0.00     0.209 HD
ENDBRANCH 136 137
ENDBRANCH  97 136
ENDBRANCH  92  93
ENDBRANCH  84  92
BRANCH  85 139
HETATM  139  C   UNL     1     -19.790 -11.880   0.201  1.00  0.00     0.198 C 
BRANCH 139 140
HETATM  140  O   UNL     1     -18.345 -11.795   0.062  1.00  0.00    -0.398 OA
HETATM  141  H   UNL     1     -17.990 -12.696   0.176  1.00  0.00     0.209 HD
ENDBRANCH 139 140
ENDBRANCH  85 139
ENDBRANCH  80  81
ENDBRANCH   4  80
TORSDOF 55
BEGIN_RES ARG D 557
REMARK  4 active torsions:
REMARK  status: ('A' for Active; 'I' for Inactive)
REMARK    1  A    between atoms: CA   and  CB  
REMARK    2  A    between atoms: CB   and  CG  
REMARK    3  A    between atoms: CG   and  CD  
REMARK    4  A    between atoms: CD   and  NE  
REMARK       I    between atoms: NE   and  CZ  
REMARK       I    between atoms: CZ   and  NH1 
REMARK       I    between atoms: CZ   and  NH2 
ROOT
ATOM      1  CA  ARG D 557     -26.217   2.705 -17.014  1.00 35.49     0.159 C 
ENDROOT
BRANCH   1   2
ATOM      2  CB  ARG D 557     -26.789   1.319 -17.183  1.00 35.49     0.034 C 
BRANCH   2   3
ATOM      3  CG  ARG D 557     -28.134   1.226 -17.765  1.00 35.49     0.027 C 
BRANCH   3   4
ATOM      4  CD  ARG D 557     -29.001   0.276 -17.030  1.00 35.49     0.116 C 
BRANCH   4   5
ATOM      5  NE  ARG D 557     -28.305  -0.933 -16.679  1.00 35.49    -0.212 N 
ATOM      6  CZ  ARG D 557     -28.718  -2.156 -16.927  1.00 35.49     0.666 C 
ATOM      7  NH1 ARG D 557     -29.862  -2.410 -17.535  1.00 35.49    -0.235 N 
ATOM      8  NH2 ARG D 557     -27.947  -3.137 -16.555  1.00 35.49    -0.235 N 
ATOM      9  HH  ARG D 557     -30.384  -1.780 -17.790  1.00 35.49     0.174 HD
ATOM     10  HH  ARG D 557     -30.077  -3.227 -17.673  1.00 35.49     0.174 HD
ATOM     11  HH  ARG D 557     -27.210  -2.943 -16.171  1.00 35.49     0.174 HD
ATOM     12  HH  ARG D 557     -28.177  -3.940 -16.701  1.00 35.49     0.174 HD
ATOM     13  HE  ARG D 557     -27.593  -0.865 -16.219  1.00 35.49     0.178 HD
ENDBRANCH   4   5
ENDBRANCH   3   4
ENDBRANCH   2   3
ENDBRANCH   1   2
END_RES ARG D 557
BEGIN_RES GLU D 570
REMARK  3 active torsions:
REMARK  status: ('A' for Active; 'I' for Inactive)
REMARK    5  A    between atoms: CA   and  CB  
REMARK    6  A    between atoms: CB   and  CG  
REMARK    7  A    between atoms: CG   and  CD  
ROOT
ATOM     14  CA  GLU D 570     -18.033  -6.348 -13.375  1.00 32.92     0.160 C 
ENDROOT
BRANCH  14  15
ATOM     15  CB  GLU D 570     -19.500  -6.345 -13.794  1.00 32.92     0.043 C 
BRANCH  15  16
ATOM     16  CG  GLU D 570     -20.066  -7.617 -14.313  1.00 32.92     0.100 C 
BRANCH  16  17
ATOM     17  CD  GLU D 570     -20.506  -7.521 -15.756  1.00 32.92     0.185 C 
ATOM     18  OE1 GLU D 570     -20.860  -8.556 -16.351  1.00 32.92    -0.647 OA
ATOM     19  OE2 GLU D 570     -20.481  -6.400 -16.301  1.00 32.92    -0.647 OA
ENDBRANCH  16  17
ENDBRANCH  15  16
ENDBRANCH  14  15
END_RES GLU D 570
ENDMDL
MODEL 2
REMARK VINA RESULT:      -3.9      1.495      2.478
REMARK WARNING: 32 MAX_TORS EXCEEDED!!!
REMARK  55 active torsions:
REMARK  status: ('A' for Active; 'I' for Inactive)
REMARK    1  A    between atoms: O_2  and  C_3 
REMARK       I    between atoms: C_3  and  N_5 
REMARK    2  A    between atoms: N_5  and  C_6 
REMARK    3  A    between atoms: C_7  and  O_104 
REMARK    4  A    between atoms: C_8  and  O_37 
REMARK    5  A    between atoms: C_9  and  C_35 
REMARK    6  A    between atoms: C_11  and  O_12 
REMARK    7  A    between atoms: O_12  and  C_13 
REMARK    8  A    between atoms: C_14  and  C_33 
REMARK    9  A    between atoms: C_16  and  O_21 
REMARK   10  A    between atoms: C_17  and  N_20 
REMARK   11  A    between atoms: C_18  and  O_19 
REMARK   12  A    between atoms: O_21  and  C_22 
REMARK   13  A    between atoms: C_23  and  C_31 
REMARK   14  A    between atoms: C_25  and  O_30 
REMARK   15  A    between atoms: C_26  and  N_29 
REMARK   16  A    between atoms: C_27  and  O_28 
REMARK   17  A    between atoms: C_31  and  O_32 
REMARK   18  A    between atoms: C_33  and  O_34 
REMARK   19  A    between atoms: C_35  and  O_36 
REMARK   20  A    between atoms: O_37  and  C_38 
REMARK   21  A    between atoms: C_39  and  N_103 
REMARK   22  A    between atoms: C_40  and  O_102 
REMARK   23  A    between atoms: C_41  and  O_46 
REMARK   24  A    between atoms: C_42  and  C_44 
REMARK   25  A    between atoms: C_44  and  O_45 
REMARK   26  A    between atoms: O_46  and  C_47 
REMARK   27  A    between atoms: C_48  and  N_101 
REMARK   28  A    between atoms: C_49  and  O_100 
REMARK   29  A    between atoms: C_50  and  O_55 
REMARK   30  A    between atoms: C_51  and  C_53 
REMARK   31  A    between atoms: C_53  and  O_54 
REMARK   32  A    between atoms: O_55  and  C_56 
REMARK   33  A    between atoms: C_57  and  N_99 
REMARK   34  A    between atoms: C_58  and  O_98 
REMARK   35  A    between atoms: C_59  and  O_64 
REMARK   36  A    between atoms: C_60  and  C_62 
REMARK   37  A    between atoms: C_62  and  O_63 
REMARK   38  A    between atoms: O_64  and  C_65 
REMARK   39  A    between atoms: C_66  and  N_97 
REMARK   40  A    between atoms: C_67  and  O_96 
REMARK   41  A    between atoms: C_68  and  O_73 
REMARK   42  A    between atoms: C_69  and  C_71 
REMARK   43  A    between atoms: C_71  and  O_72 
REMARK   44  A    between atoms: O_73  and  C_74 
REMARK   45  A    between atoms: C_75  and  N_95 
REMARK   46  A    between atoms: C_76  and  O_94 
REMARK   47  A    between atoms: C_77  and  O_82 
REMARK   48  A    between atoms: C_78  and  C_80 
REMARK   49  A    between atoms: C_80  and  O_81 
REMARK   50  A    between atoms: O_82  and  C_83 
REMARK   51  A    between atoms: C_84  and  N_93 
REMARK   52  A    between atoms: C_85  and  O_92 
REMARK   53  A    between atoms: C_86  and  O_91 
REMARK   54  A    between atoms: C_87  and  C_89 
REMARK   55  A    between atoms: C_89  and  O_90 
ROOT
HETATM    1  C   UNL     1     -21.748  -6.839  -4.376  1.00  0.00     0.296 C 
HETATM    2  C   UNL     1     -22.022  -7.217  -2.810  1.00  0.00     0.303 C 
HETATM    3  C   UNL     1     -21.035  -8.328  -2.206  1.00  0.00     0.187 C 
HETATM    4  C   UNL     1     -20.831  -9.618  -3.140  1.00  0.00     0.186 C 
HETATM    5  C   UNL     1     -20.602  -9.004  -4.575  1.00  0.00     0.179 C 
HETATM    6  O   UNL     1     -21.628  -8.100  -5.038  1.00  0.00    -0.349 OA
ENDROOT
BRANCH   1   7
HETATM    7  O   UNL     1     -20.612  -6.017  -4.706  1.00  0.00    -0.348 OA
BRANCH   7   8
HETATM    8  C   UNL     1     -20.572  -5.040  -5.903  1.00  0.00     0.186 C 
HETATM    9  C   UNL     1     -21.890  -4.284  -6.330  1.00  0.00     0.187 C 
HETATM   10  C   UNL     1     -22.593  -4.858  -7.593  1.00  0.00     0.303 C 
HETATM   11  C   UNL     1     -21.800  -5.160  -8.889  1.00  0.00     0.296 C 
HETATM   12  O   UNL     1     -20.582  -5.833  -8.417  1.00  0.00    -0.349 OA
HETATM   13  C   UNL     1     -19.769  -5.461  -7.238  1.00  0.00     0.179 C 
BRANCH   9  14
HETATM   14  O   UNL     1     -21.571  -2.901  -6.571  1.00  0.00    -0.391 OA
HETATM   15  H   UNL     1     -20.760  -2.629  -6.071  1.00  0.00     0.210 HD
ENDBRANCH   9  14
BRANCH  10  16
HETATM   16  N   UNL     1     -23.773  -4.059  -7.891  1.00  0.00     0.090 N 
HETATM   17  H   UNL     1     -23.820  -3.927  -8.900  1.00  0.00     0.313 HD
HETATM   18  H   UNL     1     -23.547  -3.111  -7.578  1.00  0.00     0.313 HD
ENDBRANCH  10  16
BRANCH  11  19
HETATM   19  O   UNL     1     -21.669  -4.099 -10.147  1.00  0.00    -0.348 OA
BRANCH  19  20
HETATM   20  C   UNL     1     -22.946  -3.810 -11.119  1.00  0.00     0.186 C 
HETATM   21  C   UNL     1     -22.894  -2.641 -12.206  1.00  0.00     0.177 C 
HETATM   22  C   UNL     1     -24.197  -2.415 -13.114  1.00  0.00     0.173 C 
HETATM   23  C   UNL     1     -24.894  -3.725 -13.706  1.00  0.00     0.286 C 
HETATM   24  O   UNL     1     -24.945  -4.651 -12.584  1.00  0.00    -0.349 OA
HETATM   25  C   UNL     1     -23.684  -5.067 -11.939  1.00  0.00     0.180 C 
BRANCH  21  26
HETATM   26  O   UNL     1     -21.776  -2.700 -13.103  1.00  0.00    -0.391 OA
HETATM   27  H   UNL     1     -21.504  -1.827 -13.410  1.00  0.00     0.210 HD
ENDBRANCH  21  26
BRANCH  22  28
HETATM   28  N   UNL     1     -24.032  -1.326 -14.107  1.00  0.00    -0.325 N 
HETATM   29  C   UNL     1     -24.996  -0.901 -14.985  1.00  0.00     0.360 C 
HETATM   30  O   UNL     1     -26.123  -1.384 -15.031  1.00  0.00    -0.239 OA
HETATM   31  H   UNL     1     -23.209  -0.724 -13.995  1.00  0.00     0.165 HD
BRANCH  29  32
HETATM   32  O   UNL     1     -24.527   0.095 -15.779  1.00  0.00    -0.309 OA
HETATM   33  C   UNL     1     -23.123   0.099 -16.095  1.00  0.00     0.215 C 
ENDBRANCH  29  32
ENDBRANCH  22  28
BRANCH  23  34
HETATM   34  O   UNL     1     -24.430  -4.320 -15.015  1.00  0.00    -0.348 OA
BRANCH  34  35
HETATM   35  C   UNL     1     -24.782  -5.751 -15.269  1.00  0.00     0.186 C 
HETATM   36  C   UNL     1     -26.292  -6.052 -15.613  1.00  0.00     0.179 C 
HETATM   37  O   UNL     1     -26.814  -5.667 -16.927  1.00  0.00    -0.349 OA
HETATM   38  C   UNL     1     -26.109  -6.066 -18.111  1.00  0.00     0.296 C 
HETATM   39  C   UNL     1     -24.575  -6.464 -17.866  1.00  0.00     0.303 C 
HETATM   40  C   UNL     1     -23.994  -6.520 -16.366  1.00  0.00     0.187 C 
BRANCH  36  41
HETATM   41  C   UNL     1     -26.666  -7.551 -15.465  1.00  0.00     0.198 C 
BRANCH  41  42
HETATM   42  O   UNL     1     -27.864  -7.596 -14.693  1.00  0.00    -0.398 OA
HETATM   43  H   UNL     1     -28.221  -6.693 -14.750  1.00  0.00     0.209 HD
ENDBRANCH  41  42
ENDBRANCH  36  41
BRANCH  38  44
HETATM   44  O   UNL     1     -26.778  -7.032 -18.986  1.00  0.00    -0.348 OA
BRANCH  44  45
HETATM   45  C   UNL     1     -28.138  -6.722 -19.418  1.00  0.00     0.186 C 
HETATM   46  C   UNL     1     -29.219  -7.929 -19.291  1.00  0.00     0.179 C 
HETATM   47  O   UNL     1     -29.339  -8.637 -18.036  1.00  0.00    -0.349 OA
HETATM   48  C   UNL     1     -29.517  -7.737 -16.943  1.00  0.00     0.292 C 
HETATM   49  C   UNL     1     -29.200  -6.193 -17.127  1.00  0.00     0.303 C 
HETATM   50  C   UNL     1     -28.629  -5.543 -18.537  1.00  0.00     0.187 C 
BRANCH  46  51
HETATM   51  C   UNL     1     -30.592  -7.323 -19.692  1.00  0.00     0.198 C 
BRANCH  51  52
HETATM   52  O   UNL     1     -31.693  -7.894 -19.065  1.00  0.00    -0.398 OA
HETATM   53  H   UNL     1     -31.501  -8.822 -18.820  1.00  0.00     0.209 HD
ENDBRANCH  51  52
ENDBRANCH  46  51
BRANCH  48  54
HETATM   54  O   UNL     1     -30.668  -8.387 -16.154  1.00  0.00    -0.369 OA
HETATM   55  H   UNL     1     -30.376  -9.154 -15.627  1.00  0.00     0.212 HD
ENDBRANCH  48  54
BRANCH  49  56
HETATM   56  N   UNL     1     -30.050  -5.486 -16.203  1.00  0.00     0.090 NA
HETATM   57  H   UNL     1     -30.202  -5.967 -15.321  1.00  0.00     0.313 HD
HETATM   58  H   UNL     1     -29.623  -4.550 -16.011  1.00  0.00     0.313 HD
ENDBRANCH  49  56
BRANCH  50  59
HETATM   59  O   UNL     1     -29.284  -4.568 -19.359  1.00  0.00    -0.391 OA
HETATM   60  H   UNL     1     -29.226  -4.747 -20.309  1.00  0.00     0.210 HD
ENDBRANCH  50  59
ENDBRANCH  44  45
ENDBRANCH  38  44
BRANCH  39  61
HETATM   61  N   UNL     1     -24.135  -7.592 -18.780  1.00  0.00     0.090 N 
HETATM   62  H   UNL     1     -24.918  -7.833 -19.375  1.00  0.00     0.313 HD
HETATM   63  H   UNL     1     -23.415  -7.205 -19.381  1.00  0.00     0.313 HD
ENDBRANCH  39  61
BRANCH  40  64
HETATM   64  O   UNL     1     -23.964  -7.877 -15.845  1.00  0.00    -0.391 OA
HETATM   65  H   UNL     1     -23.228  -8.051 -15.237  1.00  0.00     0.210 HD
ENDBRANCH  40  64
ENDBRANCH  34  35
ENDBRANCH  23  34
BRANCH  25  66
HETATM   66  C   UNL     1     -22.933  -5.913 -13.009  1.00  0.00     0.198 C 
BRANCH  66  67
HETATM   67  O   UNL     1     -21.935  -5.155 -13.737  1.00  0.00    -0.398 OA
HETATM   68  H   UNL     1     -21.075  -5.517 -13.469  1.00  0.00     0.209 HD
ENDBRANCH  66  67
ENDBRANCH  25  66
ENDBRANCH  19  20
ENDBRANCH  11  19
BRANCH  13  69
HETATM   69  C   UNL     1     -18.742  -4.399  -7.756  1.00  0.00     0.198 C 
BRANCH  69  70
HETATM   70  O   UNL     1     -19.454  -3.340  -8.425  1.00  0.00    -0.398 OA
HETATM   71  H   UNL     1     -19.153  -2.526  -7.951  1.00  0.00     0.209 HD
ENDBRANCH  69  70
ENDBRANCH  13  69
ENDBRANCH   7   8
ENDBRANCH   1   7
BRANCH   2  72
HETATM   72  N   UNL     1     -22.258  -6.012  -1.977  1.00  0.00     0.090 N 
HETATM   73  H   UNL     1     -21.434  -5.657  -1.470  1.00  0.00     0.313 HD
HETATM   74  H   UNL     1     -23.010  -6.112  -1.294  1.00  0.00     0.313 HD
ENDBRANCH   2  72
BRANCH   3  75
HETATM   75  O   UNL     1     -21.267  -8.689  -0.816  1.00  0.00    -0.391 OA
HETATM   76  H   UNL     1     -22.170  -8.406  -0.585  1.00  0.00     0.210 HD
ENDBRANCH   3  75
BRANCH   5  77
HETATM   77  C   UNL     1     -19.201  -8.426  -4.737  1.00  0.00     0.198 C 
BRANCH  77  78
HETATM   78  O   UNL     1     -18.308  -9.486  -4.400  1.00  0.00    -0.398 OA
HETATM   79  H   UNL     1     -18.292 -10.111  -5.141  1.00  0.00     0.209 HD
ENDBRANCH  77  78
ENDBRANCH   5  77
BRANCH   4  80
HETATM   80  O   UNL     1     -21.759 -10.820  -2.969  1.00  0.00    -0.348 OA
BRANCH  80  81
HETATM   81  C   UNL     1     -21.233 -12.038  -2.242  1.00  0.00     0.296 C 
HETATM   82  C   UNL     1     -21.258 -13.243  -3.245  1.00  0.00     0.303 C 
HETATM   83  C   UNL     1     -22.660 -14.206  -3.162  1.00  0.00     0.187 C 
HETATM   84  C   UNL     1     -23.416 -14.535  -1.802  1.00  0.00     0.186 C 
HETATM   85  C   UNL     1     -23.026 -13.282  -0.847  1.00  0.00     0.179 C 
HETATM   86  O   UNL     1     -21.692 -12.612  -0.972  1.00  0.00    -0.349 OA
BRANCH  82  87
HETATM   87  N   UNL     1     -21.010 -12.781  -4.697  1.00  0.00     0.090 N 
HETATM   88  H   UNL     1     -21.903 -12.399  -5.023  1.00  0.00     0.313 HD
HETATM   89  H   UNL     1     -20.259 -12.095  -4.828  1.00  0.00     0.313 HD
ENDBRANCH  82  87
BRANCH  83  90
HETATM   90  O   UNL     1     -23.728 -13.696  -4.020  1.00  0.00    -0.391 OA
HETATM   91  H   UNL     1     -24.523 -13.865  -3.492  1.00  0.00     0.210 HD
ENDBRANCH  83  90
BRANCH  84  92
HETATM   92  O   UNL     1     -23.180 -16.007  -1.472  1.00  0.00    -0.348 OA
BRANCH  92  93
HETATM   93  C   UNL     1     -21.954 -16.667  -0.813  1.00  0.00     0.296 C 
HETATM   94  C   UNL     1     -21.614 -16.169   0.691  1.00  0.00     0.303 C 
HETATM   95  C   UNL     1     -20.289 -15.357   1.032  1.00  0.00     0.187 C 
HETATM   96  C   UNL     1     -19.041 -15.607   0.187  1.00  0.00     0.186 C 
HETATM   97  C   UNL     1     -19.432 -16.291  -1.211  1.00  0.00     0.179 C 
HETATM   98  O   UNL     1     -20.704 -17.016  -1.446  1.00  0.00    -0.349 OA
BRANCH  94  99
HETATM   99  N   UNL     1     -22.750 -15.606   1.441  1.00  0.00     0.090 NA
HETATM  100  H   UNL     1     -22.357 -14.938   2.119  1.00  0.00     0.313 HD
HETATM  101  H   UNL     1     -23.308 -15.043   0.797  1.00  0.00     0.313 HD
ENDBRANCH  94  99
BRANCH  95 102
HETATM  102  O   UNL     1     -20.441 -13.926   1.030  1.00  0.00    -0.391 OA
HETATM  103  H   UNL     1     -20.608 -13.674   0.093  1.00  0.00     0.210 HD
ENDBRANCH  95 102
BRANCH  96 104
HETATM  104  O   UNL     1     -17.837 -15.572   1.072  1.00  0.00    -0.348 OA
BRANCH 104 105
HETATM  105  C   UNL     1     -16.706 -14.693   1.174  1.00  0.00     0.296 C 
HETATM  106  C   UNL     1     -16.856 -13.309   0.332  1.00  0.00     0.303 C 
HETATM  107  C   UNL     1     -16.417 -13.409  -1.170  1.00  0.00     0.187 C 
HETATM  108  C   UNL     1     -15.270 -14.366  -1.562  1.00  0.00     0.186 C 
HETATM  109  C   UNL     1     -15.059 -15.525  -0.551  1.00  0.00     0.179 C 
HETATM  110  O   UNL     1     -15.411 -15.245   0.835  1.00  0.00    -0.349 OA
BRANCH 106 111
HETATM  111  N   UNL     1     -18.137 -12.472   0.424  1.00  0.00     0.090 N 
HETATM  112  H   UNL     1     -18.457 -12.618   1.385  1.00  0.00     0.313 HD
HETATM  113  H   UNL     1     -18.822 -13.023  -0.122  1.00  0.00     0.313 HD
ENDBRANCH 106 111
BRANCH 107 114
HETATM  114  O   UNL     1     -17.568 -13.494  -2.002  1.00  0.00    -0.391 OA
HETATM  115  H   UNL     1     -17.449 -14.206  -2.667  1.00  0.00     0.210 HD
ENDBRANCH 107 114
BRANCH 108 116
HETATM  116  O   UNL     1     -14.172 -13.454  -1.718  1.00  0.00    -0.348 OA
BRANCH 116 117
HETATM  117  C   UNL     1     -13.490 -13.223  -2.961  1.00  0.00     0.296 C 
HETATM  118  C   UNL     1     -14.445 -12.771  -4.130  1.00  0.00     0.303 C 
HETATM  119  C   UNL     1     -14.950 -13.926  -5.006  1.00  0.00     0.187 C 
HETATM  120  C   UNL     1     -13.852 -14.983  -5.271  1.00  0.00     0.180 C 
HETATM  121  C   UNL     1     -12.845 -15.251  -4.126  1.00  0.00     0.179 C 
HETATM  122  O   UNL     1     -12.472 -14.132  -3.320  1.00  0.00    -0.349 OA
BRANCH 118 123
HETATM  123  N   UNL     1     -15.698 -12.021  -3.620  1.00  0.00     0.090 N 
HETATM  124  H   UNL     1     -16.195 -11.808  -4.482  1.00  0.00     0.313 HD
HETATM  125  H   UNL     1     -15.256 -11.092  -3.511  1.00  0.00     0.313 HD
ENDBRANCH 118 123
BRANCH 119 126
HETATM  126  O   UNL     1     -16.258 -14.272  -4.469  1.00  0.00    -0.391 OA
HETATM  127  H   UNL     1     -16.554 -15.067  -4.954  1.00  0.00     0.210 HD
ENDBRANCH 119 126
BRANCH 120 128
HETATM  128  O   UNL     1     -13.048 -14.335  -6.308  1.00  0.00    -0.390 OA
HETATM  129  H   UNL     1     -13.635 -13.651  -6.718  1.00  0.00     0.210 HD
ENDBRANCH 120 128
BRANCH 121 130
HETATM  130  C   UNL     1     -13.157 -16.486  -3.289  1.00  0.00     0.198 C 
BRANCH 130 131
HETATM  131  O   UNL     1     -14.187 -17.180  -3.954  1.00  0.00    -0.398 OA
HETATM  132  H   UNL     1     -13.779 -17.931  -4.430  1.00  0.00     0.209 HD
ENDBRANCH 130 131
ENDBRANCH 121 130
ENDBRANCH 116 117
ENDBRANCH 108 116
BRANCH 109 133
HETATM  133  C   UNL     1     -15.763 -16.831  -1.001  1.00  0.00     0.198 C 
BRANCH 133 134
HETATM  134  O   UNL     1     -16.355 -16.640  -2.283  1.00  0.00    -0.398 OA
HETATM  135  H   UNL     1     -16.505 -17.526  -2.656  1.00  0.00     0.209 HD
ENDBRANCH 133 134
ENDBRANCH 109 133
ENDBRANCH 104 105
ENDBRANCH  96 104
BRANCH  97 136
HETATM  136  C   UNL     1     -19.454 -15.257  -2.377  1.00  0.00     0.198 C 
BRANCH 136 137
HETATM  137  O   UNL     1     -18.721 -15.797  -3.483  1.00  0.00    -0.398 OA
HETATM  138  H   UNL     1     -18.183 -16.539  -3.167  1.00  0.00     0.209 HD
ENDBRANCH 136 137
ENDBRANCH  97 136
ENDBRANCH  92  93
ENDBRANCH  84  92
BRANCH  85 139
HETATM  139  C   UNL     1     -24.036 -12.097  -0.951  1.00  0.00     0.198 C 
BRANCH 139 140
HETATM  140  O   UNL     1     -23.515 -10.918  -0.279  1.00  0.00    -0.398 OA
HETATM  141  H   UNL     1     -23.485 -10.200  -0.938  1.00  0.00     0.209 HD
ENDBRANCH 139 140
ENDBRANCH  85 139
ENDBRANCH  80  81
ENDBRANCH   4  80
TORSDOF 55
BEGIN_RES ARG D 557
REMARK  4 active torsions:
REMARK  status: ('A' for Active; 'I' for Inactive)
REMARK    1  A    between atoms: CA   and  CB  
REMARK    2  A    between atoms: CB   and  CG  
REMARK    3  A    between atoms: CG   and  CD  
REMARK    4  A    between atoms: CD   and  NE  
REMARK       I    between atoms: NE   and  CZ  
REMARK       I    between atoms: CZ   and  NH1 
REMARK       I    between atoms: CZ   and  NH2 
ROOT
ATOM      1  CA  ARG D 557     -26.217   2.705 -17.014  1.00 35.49     0.159 C 
ENDROOT
BRANCH   1   2
ATOM      2  CB  ARG D 557     -26.789   1.319 -17.183  1.00 35.49     0.034 C 
BRANCH   2   3
ATOM      3  CG  ARG D 557     -28.124   1.224 -17.786  1.00 35.49     0.027 C 
BRANCH   3   4
ATOM      4  CD  ARG D 557     -29.004   0.277 -17.064  1.00 35.49     0.116 C 
BRANCH   4   5
ATOM      5  NE  ARG D 557     -28.317  -0.937 -16.708  1.00 35.49    -0.212 N 
ATOM      6  CZ  ARG D 557     -28.760  -2.158 -16.910  1.00 35.49     0.666 C 
ATOM      7  NH1 ARG D 557     -29.930  -2.404 -17.468  1.00 35.49    -0.235 N 
ATOM      8  NH2 ARG D 557     -27.993  -3.143 -16.542  1.00 35.49    -0.235 N 
ATOM      9  HH  ARG D 557     -30.450  -1.771 -17.720  1.00 35.49     0.174 HD
ATOM     10  HH  ARG D 557     -30.166  -3.220 -17.577  1.00 35.49     0.174 HD
ATOM     11  HH  ARG D 557     -27.239  -2.954 -16.191  1.00 35.49     0.174 HD
ATOM     12  HH  ARG D 557     -28.243  -3.944 -16.660  1.00 35.49     0.174 HD
ATOM     13  HE  ARG D 557     -27.587  -0.871 -16.277  1.00 35.49     0.178 HD
ENDBRANCH   4   5
ENDBRANCH   3   4
ENDBRANCH   2   3
ENDBRANCH   1   2
END_RES ARG D 557
BEGIN_RES GLU D 570
REMARK  3 active torsions:
REMARK  status: ('A' for Active; 'I' for Inactive)
REMARK    5  A    between atoms: CA   and  CB  
REMARK    6  A    between atoms: CB   and  CG  
REMARK    7  A    between atoms: CG   and  CD  
ROOT
ATOM     14  CA  GLU D 570     -18.033  -6.348 -13.375  1.00 32.92     0.160 C 
ENDROOT
BRANCH  14  15
ATOM     15  CB  GLU D 570     -19.500  -6.345 -13.794  1.00 32.92     0.043 C 
BRANCH  15  16
ATOM     16  CG  GLU D 570     -20.126  -7.656 -14.105  1.00 32.92     0.100 C 
BRANCH  16  17
ATOM     17  CD  GLU D 570     -20.496  -7.801 -15.563  1.00 32.92     0.185 C 
ATOM     18  OE1 GLU D 570     -21.113  -6.877 -16.126  1.00 32.92    -0.647 OA
ATOM     19  OE2 GLU D 570     -20.180  -8.858 -16.144  1.00 32.92    -0.647 OA
ENDBRANCH  16  17
ENDBRANCH  15  16
ENDBRANCH  14  15
END_RES GLU D 570
ENDMDL
MODEL 3
REMARK VINA RESULT:      -2.7      1.574      2.367
REMARK WARNING: 32 MAX_TORS EXCEEDED!!!
REMARK  55 active torsions:
REMARK  status: ('A' for Active; 'I' for Inactive)
REMARK    1  A    between atoms: O_2  and  C_3 
REMARK       I    between atoms: C_3  and  N_5 
REMARK    2  A    between atoms: N_5  and  C_6 
REMARK    3  A    between atoms: C_7  and  O_104 
REMARK    4  A    between atoms: C_8  and  O_37 
REMARK    5  A    between atoms: C_9  and  C_35 
REMARK    6  A    between atoms: C_11  and  O_12 
REMARK    7  A    between atoms: O_12  and  C_13 
REMARK    8  A    between atoms: C_14  and  C_33 
REMARK    9  A    between atoms: C_16  and  O_21 
REMARK   10  A    between atoms: C_17  and  N_20 
REMARK   11  A    between atoms: C_18  and  O_19 
REMARK   12  A    between atoms: O_21  and  C_22 
REMARK   13  A    between atoms: C_23  and  C_31 
REMARK   14  A    between atoms: C_25  and  O_30 
REMARK   15  A    between atoms: C_26  and  N_29 
REMARK   16  A    between atoms: C_27  and  O_28 
REMARK   17  A    between atoms: C_31  and  O_32 
REMARK   18  A    between atoms: C_33  and  O_34 
REMARK   19  A    between atoms: C_35  and  O_36 
REMARK   20  A    between atoms: O_37  and  C_38 
REMARK   21  A    between atoms: C_39  and  N_103 
REMARK   22  A    between atoms: C_40  and  O_102 
REMARK   23  A    between atoms: C_41  and  O_46 
REMARK   24  A    between atoms: C_42  and  C_44 
REMARK   25  A    between atoms: C_44  and  O_45 
REMARK   26  A    between atoms: O_46  and  C_47 
REMARK   27  A    between atoms: C_48  and  N_101 
REMARK   28  A    between atoms: C_49  and  O_100 
REMARK   29  A    between atoms: C_50  and  O_55 
REMARK   30  A    between atoms: C_51  and  C_53 
REMARK   31  A    between atoms: C_53  and  O_54 
REMARK   32  A    between atoms: O_55  and  C_56 
REMARK   33  A    between atoms: C_57  and  N_99 
REMARK   34  A    between atoms: C_58  and  O_98 
REMARK   35  A    between atoms: C_59  and  O_64 
REMARK   36  A    between atoms: C_60  and  C_62 
REMARK   37  A    between atoms: C_62  and  O_63 
REMARK   38  A    between atoms: O_64  and  C_65 
REMARK   39  A    between atoms: C_66  and  N_97 
REMARK   40  A    between atoms: C_67  and  O_96 
REMARK   41  A    between atoms: C_68  and  O_73 
REMARK   42  A    between atoms: C_69  and  C_71 
REMARK   43  A    between atoms: C_71  and  O_72 
REMARK   44  A    between atoms: O_73  and  C_74 
REMARK   45  A    between atoms: C_75  and  N_95 
REMARK   46  A    between atoms: C_76  and  O_94 
REMARK   47  A    between atoms: C_77  and  O_82 
REMARK   48  A    between atoms: C_78  and  C_80 
REMARK   49  A    between atoms: C_80  and  O_81 
REMARK   50  A    between atoms: O_82  and  C_83 
REMARK   51  A    between atoms: C_84  and  N_93 
REMARK   52  A    between atoms: C_85  and  O_92 
REMARK   53  A    between atoms: C_86  and  O_91 
REMARK   54  A    between atoms: C_87  and  C_89 
REMARK   55  A    between atoms: C_89  and  O_90 
ROOT
HETATM    1  C   UNL     1     -22.392  -6.542  -4.280  1.00  0.00     0.296 C 
HETATM    2  C   UNL     1     -22.196  -6.675  -2.663  1.00  0.00     0.303 C 
HETATM    3  C   UNL     1     -21.071  -7.724  -2.207  1.00  0.00     0.187 C 
HETATM    4  C   UNL     1     -21.141  -9.144  -2.953  1.00  0.00     0.186 C 
HETATM    5  C   UNL     1     -21.343  -8.757  -4.469  1.00  0.00     0.179 C 
HETATM    6  O   UNL     1     -22.463  -7.890  -4.748  1.00  0.00    -0.349 OA
ENDROOT
BRANCH   1   7
HETATM    7  O   UNL     1     -21.405  -5.824  -5.044  1.00  0.00    -0.348 OA
BRANCH   7   8
HETATM    8  C   UNL     1     -21.421  -5.710  -6.586  1.00  0.00     0.186 C 
HETATM    9  C   UNL     1     -20.069  -5.443  -7.357  1.00  0.00     0.187 C 
HETATM   10  C   UNL     1     -19.876  -3.981  -7.849  1.00  0.00     0.303 C 
HETATM   11  C   UNL     1     -20.995  -3.234  -8.618  1.00  0.00     0.296 C 
HETATM   12  O   UNL     1     -22.218  -3.549  -7.867  1.00  0.00    -0.349 OA
HETATM   13  C   UNL     1     -22.593  -4.864  -7.301  1.00  0.00     0.179 C 
BRANCH   9  14
HETATM   14  O   UNL     1     -20.006  -6.323  -8.494  1.00  0.00    -0.391 OA
HETATM   15  H   UNL     1     -19.278  -6.987  -8.393  1.00  0.00     0.210 HD
ENDBRANCH   9  14
BRANCH  10  16
HETATM   16  N   UNL     1     -18.610  -3.878  -8.562  1.00  0.00     0.090 N 
HETATM   17  H   UNL     1     -18.760  -4.192  -9.519  1.00  0.00     0.313 HD
HETATM   18  H   UNL     1     -18.028  -4.635  -8.194  1.00  0.00     0.313 HD
ENDBRANCH  10  16
BRANCH  11  19
HETATM   19  O   UNL     1     -21.084  -3.171 -10.265  1.00  0.00    -0.348 OA
BRANCH  19  20
HETATM   20  C   UNL     1     -22.511  -3.388 -11.022  1.00  0.00     0.186 C 
HETATM   21  C   UNL     1     -23.030  -2.332 -12.102  1.00  0.00     0.177 C 
HETATM   22  C   UNL     1     -24.451  -2.614 -12.792  1.00  0.00     0.173 C 
HETATM   23  C   UNL     1     -24.731  -4.113 -13.268  1.00  0.00     0.286 C 
HETATM   24  O   UNL     1     -24.291  -4.939 -12.153  1.00  0.00    -0.349 OA
HETATM   25  C   UNL     1     -22.882  -4.863 -11.717  1.00  0.00     0.180 C 
BRANCH  21  26
HETATM   26  O   UNL     1     -22.107  -2.052 -13.165  1.00  0.00    -0.391 OA
HETATM   27  H   UNL     1     -21.389  -2.694 -13.207  1.00  0.00     0.210 HD
ENDBRANCH  21  26
BRANCH  22  28
HETATM   28  N   UNL     1     -24.822  -1.589 -13.798  1.00  0.00    -0.325 N 
HETATM   29  C   UNL     1     -24.156  -1.354 -14.974  1.00  0.00     0.360 C 
HETATM   30  O   UNL     1     -23.168  -1.991 -15.325  1.00  0.00    -0.239 OA
HETATM   31  H   UNL     1     -25.749  -1.162 -13.698  1.00  0.00     0.165 HD
BRANCH  29  32
HETATM   32  O   UNL     1     -24.729  -0.335 -15.663  1.00  0.00    -0.309 OA
HETATM   33  C   UNL     1     -23.864   0.546 -16.402  1.00  0.00     0.215 C 
ENDBRANCH  29  32
ENDBRANCH  22  28
BRANCH  23  34
HETATM   34  O   UNL     1     -24.290  -4.582 -14.636  1.00  0.00    -0.348 OA
BRANCH  34  35
HETATM   35  C   UNL     1     -24.621  -5.994 -15.004  1.00  0.00     0.186 C 
HETATM   36  C   UNL     1     -26.123  -6.286 -15.387  1.00  0.00     0.179 C 
HETATM   37  O   UNL     1     -26.637  -5.806 -16.672  1.00  0.00    -0.349 OA
HETATM   38  C   UNL     1     -25.915  -6.103 -17.876  1.00  0.00     0.296 C 
HETATM   39  C   UNL     1     -24.378  -6.500 -17.645  1.00  0.00     0.303 C 
HETATM   40  C   UNL     1     -23.811  -6.665 -16.148  1.00  0.00     0.187 C 
BRANCH  36  41
HETATM   41  C   UNL     1     -26.478  -7.797 -15.359  1.00  0.00     0.198 C 
BRANCH  41  42
HETATM   42  O   UNL     1     -27.733  -7.906 -14.691  1.00  0.00    -0.398 OA
HETATM   43  H   UNL     1     -27.539  -7.660 -13.771  1.00  0.00     0.209 HD
ENDBRANCH  41  42
ENDBRANCH  36  41
BRANCH  38  44
HETATM   44  O   UNL     1     -26.562  -7.007 -18.831  1.00  0.00    -0.348 OA
BRANCH  44  45
HETATM   45  C   UNL     1     -27.904  -6.657 -19.285  1.00  0.00     0.186 C 
HETATM   46  C   UNL     1     -29.026  -7.826 -19.156  1.00  0.00     0.179 C 
HETATM   47  O   UNL     1     -29.187  -8.512 -17.893  1.00  0.00    -0.349 OA
HETATM   48  C   UNL     1     -29.350  -7.591 -16.816  1.00  0.00     0.292 C 
HETATM   49  C   UNL     1     -28.979  -6.061 -17.016  1.00  0.00     0.303 C 
HETATM   50  C   UNL     1     -28.367  -5.450 -18.427  1.00  0.00     0.187 C 
BRANCH  46  51
HETATM   51  C   UNL     1     -30.373  -7.181 -19.584  1.00  0.00     0.198 C 
BRANCH  51  52
HETATM   52  O   UNL     1     -31.509  -7.781 -19.053  1.00  0.00    -0.398 OA
HETATM   53  H   UNL     1     -31.386  -8.750 -18.996  1.00  0.00     0.209 HD
ENDBRANCH  51  52
ENDBRANCH  46  51
BRANCH  48  54
HETATM   54  O   UNL     1     -30.531  -8.192 -16.034  1.00  0.00    -0.369 OA
HETATM   55  H   UNL     1     -31.017  -8.866 -16.545  1.00  0.00     0.212 HD
ENDBRANCH  48  54
BRANCH  49  56
HETATM   56  N   UNL     1     -29.816  -5.314 -16.114  1.00  0.00     0.090 NA
HETATM   57  H   UNL     1     -29.414  -5.167 -15.192  1.00  0.00     0.313 HD
HETATM   58  H   UNL     1     -30.022  -4.384 -16.548  1.00  0.00     0.313 HD
ENDBRANCH  49  56
BRANCH  50  59
HETATM   59  O   UNL     1     -28.979  -4.466 -19.271  1.00  0.00    -0.391 OA
HETATM   60  H   UNL     1     -29.788  -4.078 -18.906  1.00  0.00     0.210 HD
ENDBRANCH  50  59
ENDBRANCH  44  45
ENDBRANCH  38  44
BRANCH  39  61
HETATM   61  N   UNL     1     -23.914  -7.548 -18.640  1.00  0.00     0.090 N 
HETATM   62  H   UNL     1     -23.612  -8.360 -18.117  1.00  0.00     0.313 HD
HETATM   63  H   UNL     1     -24.736  -7.823 -19.166  1.00  0.00     0.313 HD
ENDBRANCH  39  61
BRANCH  40  64
HETATM   64  O   UNL     1     -23.768  -8.058 -15.734  1.00  0.00    -0.391 OA
HETATM   65  H   UNL     1     -23.359  -8.651 -16.382  1.00  0.00     0.210 HD
ENDBRANCH  40  64
ENDBRANCH  34  35
ENDBRANCH  23  34
BRANCH  25  66
HETATM   66  C   UNL     1     -22.053  -5.458 -12.893  1.00  0.00     0.198 C 
BRANCH  66  67
HETATM   67  O   UNL     1     -21.300  -4.457 -13.622  1.00  0.00    -0.398 OA
HETATM   68  H   UNL     1     -20.422  -4.428 -13.209  1.00  0.00     0.209 HD
ENDBRANCH  66  67
ENDBRANCH  25  66
ENDBRANCH  19  20
ENDBRANCH  11  19
BRANCH  13  69
HETATM   69  C   UNL     1     -23.345  -5.614  -8.452  1.00  0.00     0.198 C 
BRANCH  69  70
HETATM   70  O   UNL     1     -24.461  -4.814  -8.888  1.00  0.00    -0.398 OA
HETATM   71  H   UNL     1     -24.827  -4.453  -8.044  1.00  0.00     0.209 HD
ENDBRANCH  69  70
ENDBRANCH  13  69
ENDBRANCH   7   8
ENDBRANCH   1   7
BRANCH   2  72
HETATM   72  N   UNL     1     -22.186  -5.353  -1.991  1.00  0.00     0.090 N 
HETATM   73  H   UNL     1     -21.367  -5.167  -1.394  1.00  0.00     0.313 HD
HETATM   74  H   UNL     1     -23.016  -5.158  -1.430  1.00  0.00     0.313 HD
ENDBRANCH   2  72
BRANCH   3  75
HETATM   75  O   UNL     1     -20.887  -7.867  -0.771  1.00  0.00    -0.391 OA
HETATM   76  H   UNL     1     -20.964  -6.981  -0.375  1.00  0.00     0.210 HD
ENDBRANCH   3  75
BRANCH   5  77
HETATM   77  C   UNL     1     -20.052  -8.266  -5.114  1.00  0.00     0.198 C 
BRANCH  77  78
HETATM   78  O   UNL     1     -19.391  -9.437  -5.588  1.00  0.00    -0.398 OA
HETATM   79  H   UNL     1     -18.439  -9.321  -5.448  1.00  0.00     0.209 HD
ENDBRANCH  77  78
ENDBRANCH   5  77
BRANCH   4  80
HETATM   80  O   UNL     1     -21.974 -10.270  -2.342  1.00  0.00    -0.348 OA
BRANCH  80  81
HETATM   81  C   UNL     1     -21.302 -11.599  -2.074  1.00  0.00     0.296 C 
HETATM   82  C   UNL     1     -21.561 -11.972  -0.573  1.00  0.00     0.303 C 
HETATM   83  C   UNL     1     -20.323 -11.504   0.498  1.00  0.00     0.187 C 
HETATM   84  C   UNL     1     -18.778 -11.544   0.121  1.00  0.00     0.186 C 
HETATM   85  C   UNL     1     -18.785 -11.402  -1.495  1.00  0.00     0.179 C 
HETATM   86  O   UNL     1     -19.904 -11.978  -2.308  1.00  0.00    -0.349 OA
BRANCH  82  87
HETATM   87  N   UNL     1     -22.924 -11.444  -0.081  1.00  0.00     0.090 N 
HETATM   88  H   UNL     1     -23.582 -12.219  -0.199  1.00  0.00     0.313 HD
HETATM   89  H   UNL     1     -22.949 -11.098   0.885  1.00  0.00     0.313 HD
ENDBRANCH  82  87
BRANCH  83  90
HETATM   90  O   UNL     1     -20.508 -10.139   0.989  1.00  0.00    -0.391 OA
HETATM   91  H   UNL     1     -20.104 -10.173   1.868  1.00  0.00     0.210 HD
ENDBRANCH  83  90
BRANCH  84  92
HETATM   92  O   UNL     1     -18.127 -12.680   0.907  1.00  0.00    -0.348 OA
BRANCH  92  93
HETATM   93  C   UNL     1     -17.014 -13.649   0.467  1.00  0.00     0.296 C 
HETATM   94  C   UNL     1     -15.657 -12.954  -0.082  1.00  0.00     0.303 C 
HETATM   95  C   UNL     1     -15.194 -13.087  -1.598  1.00  0.00     0.187 C 
HETATM   96  C   UNL     1     -15.575 -14.349  -2.371  1.00  0.00     0.186 C 
HETATM   97  C   UNL     1     -16.799 -15.102  -1.656  1.00  0.00     0.179 C 
HETATM   98  O   UNL     1     -17.172 -14.901  -0.234  1.00  0.00    -0.349 OA
BRANCH  94  99
HETATM   99  N   UNL     1     -15.415 -11.581   0.394  1.00  0.00     0.090 NA
HETATM  100  H   UNL     1     -16.312 -11.230   0.761  1.00  0.00     0.313 HD
HETATM  101  H   UNL     1     -14.793 -11.629   1.202  1.00  0.00     0.313 HD
ENDBRANCH  94  99
BRANCH  95 102
HETATM  102  O   UNL     1     -15.608 -12.006  -2.453  1.00  0.00    -0.391 OA
HETATM  103  H   UNL     1     -14.838 -11.812  -3.034  1.00  0.00     0.210 HD
ENDBRANCH  95 102
BRANCH  96 104
HETATM  104  O   UNL     1     -14.438 -14.739  -3.258  1.00  0.00    -0.348 OA
BRANCH 104 105
HETATM  105  C   UNL     1     -14.251 -14.752  -4.682  1.00  0.00     0.296 C 
HETATM  106  C   UNL     1     -14.918 -13.487  -5.457  1.00  0.00     0.303 C 
HETATM  107  C   UNL     1     -16.429 -13.675  -5.833  1.00  0.00     0.187 C 
HETATM  108  C   UNL     1     -16.952 -15.087  -6.181  1.00  0.00     0.186 C 
HETATM  109  C   UNL     1     -16.091 -16.231  -5.583  1.00  0.00     0.179 C 
HETATM  110  O   UNL     1     -14.676 -15.942  -5.391  1.00  0.00    -0.349 OA
BRANCH 106 111
HETATM  111  N   UNL     1     -14.705 -12.057  -4.947  1.00  0.00     0.090 N 
HETATM  112  H   UNL     1     -14.477 -11.526  -5.793  1.00  0.00     0.313 HD
HETATM  113  H   UNL     1     -13.790 -12.108  -4.466  1.00  0.00     0.313 HD
ENDBRANCH 106 111
BRANCH 107 114
HETATM  114  O   UNL     1     -17.245 -12.952  -4.921  1.00  0.00    -0.391 OA
HETATM  115  H   UNL     1     -17.932 -12.449  -5.410  1.00  0.00     0.210 HD
ENDBRANCH 107 114
BRANCH 108 116
HETATM  116  O   UNL     1     -17.016 -15.026  -7.615  1.00  0.00    -0.348 OA
BRANCH 116 117
HETATM  117  C   UNL     1     -18.232 -14.839  -8.357  1.00  0.00     0.296 C 
HETATM  118  C   UNL     1     -18.398 -13.385  -8.940  1.00  0.00     0.303 C 
HETATM  119  C   UNL     1     -19.199 -12.437  -8.035  1.00  0.00     0.187 C 
HETATM  120  C   UNL     1     -20.401 -13.143  -7.366  1.00  0.00     0.180 C 
HETATM  121  C   UNL     1     -20.213 -14.628  -6.971  1.00  0.00     0.179 C 
HETATM  122  O   UNL     1     -19.404 -15.428  -7.837  1.00  0.00    -0.349 OA
BRANCH 118 123
HETATM  123  N   UNL     1     -17.042 -12.695  -9.215  1.00  0.00     0.090 N 
HETATM  124  H   UNL     1     -17.167 -12.329 -10.158  1.00  0.00     0.313 HD
HETATM  125  H   UNL     1     -16.519 -13.543  -9.491  1.00  0.00     0.313 HD
ENDBRANCH 118 123
BRANCH 119 126
HETATM  126  O   UNL     1     -18.201 -11.699  -7.274  1.00  0.00    -0.391 OA
HETATM  127  H   UNL     1     -17.393 -12.248  -7.271  1.00  0.00     0.210 HD
ENDBRANCH 119 126
BRANCH 120 128
HETATM  128  O   UNL     1     -21.376 -13.184  -8.456  1.00  0.00    -0.390 OA
HETATM  129  H   UNL     1     -21.260 -14.066  -8.889  1.00  0.00     0.210 HD
ENDBRANCH 120 128
BRANCH 121 130
HETATM  130  C   UNL     1     -19.879 -14.854  -5.501  1.00  0.00     0.198 C 
BRANCH 130 131
HETATM  131  O   UNL     1     -20.254 -13.681  -4.815  1.00  0.00    -0.398 OA
HETATM  132  H   UNL     1     -19.556 -13.014  -4.967  1.00  0.00     0.209 HD
ENDBRANCH 130 131
ENDBRANCH 121 130
ENDBRANCH 116 117
ENDBRANCH 108 116
BRANCH 109 133
HETATM  133  C   UNL     1     -16.682 -16.778  -4.257  1.00  0.00     0.198 C 
BRANCH 133 134
HETATM  134  O   UNL     1     -18.036 -17.173  -4.463  1.00  0.00    -0.398 OA
HETATM  135  H   UNL     1     -18.588 -16.535  -3.979  1.00  0.00     0.209 HD
ENDBRANCH 133 134
ENDBRANCH 109 133
ENDBRANCH 104 105
ENDBRANCH  96 104
BRANCH  97 136
HETATM  136  C   UNL     1     -18.155 -14.811  -2.368  1.00  0.00     0.198 C 
BRANCH 136 137
HETATM  137  O   UNL     1     -19.216 -15.339  -1.565  1.00  0.00    -0.398 OA
HETATM  138  H   UNL     1     -19.816 -15.845  -2.135  1.00  0.00     0.209 HD
ENDBRANCH 136 137
ENDBRANCH  97 136
ENDBRANCH  92  93
ENDBRANCH  84  92
BRANCH  85 139
HETATM  139  C   UNL     1     -18.713  -9.920  -1.978  1.00  0.00     0.198 C 
BRANCH 139 140
HETATM  140  O   UNL     1     -17.682  -9.760  -2.991  1.00  0.00    -0.398 OA
HETATM  141  H   UNL     1     -17.643  -8.812  -3.216  1.00  0.00     0.209 HD
ENDBRANCH 139 140
ENDBRANCH  85 139
ENDBRANCH  80  81
ENDBRANCH   4  80
TORSDOF 55
BEGIN_RES ARG D 557
REMARK  4 active torsions:
REMARK  status: ('A' for Active; 'I' for Inactive)
REMARK    1  A    between atoms: CA   and  CB  
REMARK    2  A    between atoms: CB   and  CG  
REMARK    3  A    between atoms: CG   and  CD  
REMARK    4  A    between atoms: CD   and  NE  
REMARK       I    between atoms: NE   and  CZ  
REMARK       I    between atoms: CZ   and  NH1 
REMARK       I    between atoms: CZ   and  NH2 
ROOT
ATOM      1  CA  ARG D 557     -26.217   2.705 -17.014  1.00 35.49     0.159 C 
ENDROOT
BRANCH   1   2
ATOM      2  CB  ARG D 557     -26.789   1.319 -17.183  1.00 35.49     0.034 C 
BRANCH   2   3
ATOM      3  CG  ARG D 557     -28.235   1.225 -17.417  1.00 35.49     0.027 C 
BRANCH   3   4
ATOM      4  CD  ARG D 557     -28.898   0.288 -16.483  1.00 35.49     0.116 C 
BRANCH   4   5
ATOM      5  NE  ARG D 557     -28.066  -0.843 -16.166  1.00 35.49    -0.212 N 
ATOM      6  CZ  ARG D 557     -28.246  -2.073 -16.592  1.00 35.49     0.666 C 
ATOM      7  NH1 ARG D 557     -29.256  -2.413 -17.371  1.00 35.49    -0.235 N 
ATOM      8  NH2 ARG D 557     -27.378  -2.969 -16.221  1.00 35.49    -0.235 N 
ATOM      9  HH  ARG D 557     -29.837  -1.839 -17.629  1.00 35.49     0.174 HD
ATOM     10  HH  ARG D 557     -29.321  -3.230 -17.620  1.00 35.49     0.174 HD
ATOM     11  HH  ARG D 557     -26.732  -2.720 -15.724  1.00 35.49     0.174 HD
ATOM     12  HH  ARG D 557     -27.459  -3.773 -16.479  1.00 35.49     0.174 HD
ATOM     13  HE  ARG D 557     -27.432  -0.729 -15.610  1.00 35.49     0.178 HD
ENDBRANCH   4   5
ENDBRANCH   3   4
ENDBRANCH   2   3
ENDBRANCH   1   2
END_RES ARG D 557
BEGIN_RES GLU D 570
REMARK  3 active torsions:
REMARK  status: ('A' for Active; 'I' for Inactive)
REMARK    5  A    between atoms: CA   and  CB  
REMARK    6  A    between atoms: CB   and  CG  
REMARK    7  A    between atoms: CG   and  CD  
ROOT
ATOM     14  CA  GLU D 570     -18.033  -6.348 -13.375  1.00 32.92     0.160 C 
ENDROOT
BRANCH  14  15
ATOM     15  CB  GLU D 570     -19.500  -6.345 -13.794  1.00 32.92     0.043 C 
BRANCH  15  16
ATOM     16  CG  GLU D 570     -19.974  -7.474 -14.636  1.00 32.92     0.100 C 
BRANCH  16  17
ATOM     17  CD  GLU D 570     -20.484  -7.027 -15.986  1.00 32.92     0.185 C 
ATOM     18  OE1 GLU D 570     -20.901  -7.884 -16.789  1.00 32.92    -0.647 OA
ATOM     19  OE2 GLU D 570     -20.452  -5.809 -16.251  1.00 32.92    -0.647 OA
ENDBRANCH  16  17
ENDBRANCH  15  16
ENDBRANCH  14  15
END_RES GLU D 570
ENDMDL
MODEL 4
REMARK VINA RESULT:      -2.3      2.227     16.874
REMARK WARNING: 32 MAX_TORS EXCEEDED!!!
REMARK  55 active torsions:
REMARK  status: ('A' for Active; 'I' for Inactive)
REMARK    1  A    between atoms: O_2  and  C_3 
REMARK       I    between atoms: C_3  and  N_5 
REMARK    2  A    between atoms: N_5  and  C_6 
REMARK    3  A    between atoms: C_7  and  O_104 
REMARK    4  A    between atoms: C_8  and  O_37 
REMARK    5  A    between atoms: C_9  and  C_35 
REMARK    6  A    between atoms: C_11  and  O_12 
REMARK    7  A    between atoms: O_12  and  C_13 
REMARK    8  A    between atoms: C_14  and  C_33 
REMARK    9  A    between atoms: C_16  and  O_21 
REMARK   10  A    between atoms: C_17  and  N_20 
REMARK   11  A    between atoms: C_18  and  O_19 
REMARK   12  A    between atoms: O_21  and  C_22 
REMARK   13  A    between atoms: C_23  and  C_31 
REMARK   14  A    between atoms: C_25  and  O_30 
REMARK   15  A    between atoms: C_26  and  N_29 
REMARK   16  A    between atoms: C_27  and  O_28 
REMARK   17  A    between atoms: C_31  and  O_32 
REMARK   18  A    between atoms: C_33  and  O_34 
REMARK   19  A    between atoms: C_35  and  O_36 
REMARK   20  A    between atoms: O_37  and  C_38 
REMARK   21  A    between atoms: C_39  and  N_103 
REMARK   22  A    between atoms: C_40  and  O_102 
REMARK   23  A    between atoms: C_41  and  O_46 
REMARK   24  A    between atoms: C_42  and  C_44 
REMARK   25  A    between atoms: C_44  and  O_45 
REMARK   26  A    between atoms: O_46  and  C_47 
REMARK   27  A    between atoms: C_48  and  N_101 
REMARK   28  A    between atoms: C_49  and  O_100 
REMARK   29  A    between atoms: C_50  and  O_55 
REMARK   30  A    between atoms: C_51  and  C_53 
REMARK   31  A    between atoms: C_53  and  O_54 
REMARK   32  A    between atoms: O_55  and  C_56 
REMARK   33  A    between atoms: C_57  and  N_99 
REMARK   34  A    between atoms: C_58  and  O_98 
REMARK   35  A    between atoms: C_59  and  O_64 
REMARK   36  A    between atoms: C_60  and  C_62 
REMARK   37  A    between atoms: C_62  and  O_63 
REMARK   38  A    between atoms: O_64  and  C_65 
REMARK   39  A    between atoms: C_66  and  N_97 
REMARK   40  A    between atoms: C_67  and  O_96 
REMARK   41  A    between atoms: C_68  and  O_73 
REMARK   42  A    between atoms: C_69  and  C_71 
REMARK   43  A    between atoms: C_71  and  O_72 
REMARK   44  A    between atoms: O_73  and  C_74 
REMARK   45  A    between atoms: C_75  and  N_95 
REMARK   46  A    between atoms: C_76  and  O_94 
REMARK   47  A    between atoms: C_77  and  O_82 
REMARK   48  A    between atoms: C_78  and  C_80 
REMARK   49  A    between atoms: C_80  and  O_81 
REMARK   50  A    between atoms: O_82  and  C_83 
REMARK   51  A    between atoms: C_84  and  N_93 
REMARK   52  A    between atoms: C_85  and  O_92 
REMARK   53  A    between atoms: C_86  and  O_91 
REMARK   54  A    between atoms: C_87  and  C_89 
REMARK   55  A    between atoms: C_89  and  O_90 
ROOT
HETATM    1  C   UNL     1     -20.491  -7.491  -3.553  1.00  0.00     0.296 C 
HETATM    2  C   UNL     1     -21.982  -6.825  -3.579  1.00  0.00     0.303 C 
HETATM    3  C   UNL     1     -22.495  -6.385  -5.035  1.00  0.00     0.187 C 
HETATM    4  C   UNL     1     -21.422  -5.564  -5.900  1.00  0.00     0.186 C 
HETATM    5  C   UNL     1     -20.087  -6.381  -5.708  1.00  0.00     0.179 C 
HETATM    6  O   UNL     1     -19.686  -6.611  -4.340  1.00  0.00    -0.349 OA
ENDROOT
BRANCH   1   7
HETATM    7  O   UNL     1     -20.322  -8.841  -4.026  1.00  0.00    -0.348 OA
BRANCH   7   8
HETATM    8  C   UNL     1     -20.515 -10.096  -3.145  1.00  0.00     0.186 C 
HETATM    9  C   UNL     1     -20.047 -11.503  -3.687  1.00  0.00     0.187 C 
HETATM   10  C   UNL     1     -21.194 -12.420  -4.197  1.00  0.00     0.303 C 
HETATM   11  C   UNL     1     -22.472 -12.659  -3.354  1.00  0.00     0.296 C 
HETATM   12  O   UNL     1     -22.831 -11.321  -2.861  1.00  0.00    -0.349 OA
HETATM   13  C   UNL     1     -21.902 -10.292  -2.345  1.00  0.00     0.179 C 
BRANCH   9  14
HETATM   14  O   UNL     1     -19.342 -12.191  -2.638  1.00  0.00    -0.391 OA
HETATM   15  H   UNL     1     -19.322 -13.168  -2.801  1.00  0.00     0.210 HD
ENDBRANCH   9  14
BRANCH  10  16
HETATM   16  N   UNL     1     -20.633 -13.688  -4.643  1.00  0.00     0.090 N 
HETATM   17  H   UNL     1     -20.529 -14.292  -3.829  1.00  0.00     0.313 HD
HETATM   18  H   UNL     1     -19.654 -13.489  -4.868  1.00  0.00     0.313 HD
ENDBRANCH  10  16
BRANCH  11  19
HETATM   19  O   UNL     1     -22.668 -13.945  -2.339  1.00  0.00    -0.348 OA
BRANCH  19  20
HETATM   20  C   UNL     1     -21.946 -13.959  -0.877  1.00  0.00     0.186 C 
HETATM   21  C   UNL     1     -22.447 -14.950   0.270  1.00  0.00     0.177 C 
HETATM   22  C   UNL     1     -21.689 -14.893   1.683  1.00  0.00     0.173 C 
HETATM   23  C   UNL     1     -20.094 -14.818   1.639  1.00  0.00     0.286 C 
HETATM   24  O   UNL     1     -19.803 -13.821   0.619  1.00  0.00    -0.349 OA
HETATM   25  C   UNL     1     -20.280 -14.044  -0.760  1.00  0.00     0.180 C 
BRANCH  21  26
HETATM   26  O   UNL     1     -22.501 -16.334  -0.108  1.00  0.00    -0.391 OA
HETATM   27  H   UNL     1     -21.917 -16.535  -0.849  1.00  0.00     0.210 HD
ENDBRANCH  21  26
BRANCH  22  28
HETATM   28  N   UNL     1     -22.214 -15.873   2.665  1.00  0.00    -0.325 N 
HETATM   29  C   UNL     1     -23.317 -15.686   3.459  1.00  0.00     0.360 C 
HETATM   30  O   UNL     1     -24.002 -14.668   3.429  1.00  0.00    -0.239 OA
HETATM   31  H   UNL     1     -21.844 -16.827   2.604  1.00  0.00     0.165 HD
BRANCH  29  32
HETATM   32  O   UNL     1     -23.523 -16.757   4.266  1.00  0.00    -0.309 OA
HETATM   33  C   UNL     1     -24.397 -16.589   5.397  1.00  0.00     0.215 C 
ENDBRANCH  29  32
ENDBRANCH  22  28
BRANCH  23  34
HETATM   34  O   UNL     1     -19.266 -16.081   1.565  1.00  0.00    -0.348 OA
BRANCH  34  35
HETATM   35  C   UNL     1     -17.825 -15.965   1.947  1.00  0.00     0.186 C 
HETATM   36  C   UNL     1     -16.852 -17.059   1.360  1.00  0.00     0.179 C 
HETATM   37  O   UNL     1     -16.503 -17.013  -0.062  1.00  0.00    -0.349 OA
HETATM   38  C   UNL     1     -16.018 -15.787  -0.630  1.00  0.00     0.296 C 
HETATM   39  C   UNL     1     -16.373 -14.477   0.224  1.00  0.00     0.303 C 
HETATM   40  C   UNL     1     -17.092 -14.626   1.656  1.00  0.00     0.187 C 
BRANCH  36  41
HETATM   41  C   UNL     1     -15.489 -17.126   2.099  1.00  0.00     0.198 C 
BRANCH  41  42
HETATM   42  O   UNL     1     -15.786 -17.181   3.493  1.00  0.00    -0.398 OA
HETATM   43  H   UNL     1     -14.938 -17.406   3.911  1.00  0.00     0.209 HD
ENDBRANCH  41  42
ENDBRANCH  36  41
BRANCH  38  44
HETATM   44  O   UNL     1     -14.623 -15.771  -1.079  1.00  0.00    -0.348 OA
BRANCH  44  45
HETATM   45  C   UNL     1     -14.367 -16.030  -2.492  1.00  0.00     0.186 C 
HETATM   46  C   UNL     1     -15.632 -15.828  -3.493  1.00  0.00     0.179 C 
HETATM   47  O   UNL     1     -16.388 -14.597  -3.433  1.00  0.00    -0.349 OA
HETATM   48  C   UNL     1     -15.536 -13.456  -3.524  1.00  0.00     0.292 C 
HETATM   49  C   UNL     1     -13.972 -13.613  -3.303  1.00  0.00     0.303 C 
HETATM   50  C   UNL     1     -13.246 -15.052  -2.931  1.00  0.00     0.187 C 
BRANCH  46  51
HETATM   51  C   UNL     1     -15.083 -16.044  -4.931  1.00  0.00     0.198 C 
BRANCH  51  52
HETATM   52  O   UNL     1     -14.284 -17.170  -5.093  1.00  0.00    -0.398 OA
HETATM   53  H   UNL     1     -14.772 -17.866  -5.577  1.00  0.00     0.209 HD
ENDBRANCH  51  52
ENDBRANCH  46  51
BRANCH  48  54
HETATM   54  O   UNL     1     -16.271 -12.567  -4.543  1.00  0.00    -0.369 OA
HETATM   55  H   UNL     1     -16.663 -11.773  -4.136  1.00  0.00     0.212 HD
ENDBRANCH  48  54
BRANCH  49  56
HETATM   56  N   UNL     1     -13.342 -12.570  -4.071  1.00  0.00     0.090 NA
HETATM   57  H   UNL     1     -13.221 -12.789  -5.056  1.00  0.00     0.313 HD
HETATM   58  H   UNL     1     -13.918 -11.701  -3.984  1.00  0.00     0.313 HD
ENDBRANCH  49  56
BRANCH  50  59
HETATM   59  O   UNL     1     -12.278 -15.753  -3.722  1.00  0.00    -0.391 OA
HETATM   60  H   UNL     1     -11.386 -15.761  -3.343  1.00  0.00     0.210 HD
ENDBRANCH  50  59
ENDBRANCH  44  45
ENDBRANCH  38  44
BRANCH  39  61
HETATM   61  N   UNL     1     -15.264 -13.444   0.153  1.00  0.00     0.090 N 
HETATM   62  H   UNL     1     -15.462 -12.828  -0.625  1.00  0.00     0.313 HD
HETATM   63  H   UNL     1     -15.342 -12.887   0.998  1.00  0.00     0.313 HD
ENDBRANCH  39  61
BRANCH  40  64
HETATM   64  O   UNL     1     -16.141 -14.538   2.753  1.00  0.00    -0.391 OA
HETATM   65  H   UNL     1     -16.047 -15.359   3.261  1.00  0.00     0.210 HD
ENDBRANCH  40  64
ENDBRANCH  34  35
ENDBRANCH  23  34
BRANCH  25  66
HETATM   66  C   UNL     1     -19.473 -15.269  -1.282  1.00  0.00     0.198 C 
BRANCH  66  67
HETATM   67  O   UNL     1     -20.161 -15.999  -2.329  1.00  0.00    -0.398 OA
HETATM   68  H   UNL     1     -20.505 -16.805  -1.913  1.00  0.00     0.209 HD
ENDBRANCH  66  67
ENDBRANCH  25  66
ENDBRANCH  19  20
ENDBRANCH  11  19
BRANCH  13  69
HETATM   69  C   UNL     1     -21.748 -10.597  -0.816  1.00  0.00     0.198 C 
BRANCH  69  70
HETATM   70  O   UNL     1     -20.368 -10.433  -0.438  1.00  0.00    -0.398 OA
HETATM   71  H   UNL     1     -20.221  -9.459  -0.523  1.00  0.00     0.209 HD
ENDBRANCH  69  70
ENDBRANCH  13  69
ENDBRANCH   7   8
ENDBRANCH   1   7
BRANCH   2  72
HETATM   72  N   UNL     1     -22.943  -7.573  -2.732  1.00  0.00     0.090 N 
HETATM   73  H   UNL     1     -22.521  -8.149  -1.989  1.00  0.00     0.313 HD
HETATM   74  H   UNL     1     -23.584  -8.175  -3.251  1.00  0.00     0.313 HD
ENDBRANCH   2  72
BRANCH   3  75
HETATM   75  O   UNL     1     -23.817  -5.779  -5.080  1.00  0.00    -0.391 OA
HETATM   76  H   UNL     1     -23.731  -4.917  -5.527  1.00  0.00     0.210 HD
ENDBRANCH   3  75
BRANCH   5  77
HETATM   77  C   UNL     1     -20.068  -7.657  -6.542  1.00  0.00     0.198 C 
BRANCH  77  78
HETATM   78  O   UNL     1     -18.753  -8.189  -6.398  1.00  0.00    -0.398 OA
HETATM   79  H   UNL     1     -18.687  -8.979  -6.954  1.00  0.00     0.209 HD
ENDBRANCH  77  78
ENDBRANCH   5  77
BRANCH   4  80
HETATM   80  O   UNL     1     -21.396  -4.038  -5.807  1.00  0.00    -0.348 OA
BRANCH  80  81
HETATM   81  C   UNL     1     -21.470  -3.238  -7.089  1.00  0.00     0.296 C 
HETATM   82  C   UNL     1     -22.621  -3.841  -7.965  1.00  0.00     0.303 C 
HETATM   83  C   UNL     1     -22.113  -5.000  -9.105  1.00  0.00     0.187 C 
HETATM   84  C   UNL     1     -20.737  -4.903  -9.897  1.00  0.00     0.186 C 
HETATM   85  C   UNL     1     -19.801  -4.018  -8.910  1.00  0.00     0.179 C 
HETATM   86  O   UNL     1     -20.396  -2.947  -8.047  1.00  0.00    -0.349 OA
BRANCH  82  87
HETATM   87  N   UNL     1     -23.761  -4.411  -7.095  1.00  0.00     0.090 N 
HETATM   88  H   UNL     1     -24.070  -3.637  -6.500  1.00  0.00     0.313 HD
HETATM   89  H   UNL     1     -24.558  -4.810  -7.603  1.00  0.00     0.313 HD
ENDBRANCH  82  87
BRANCH  83  90
HETATM   90  O   UNL     1     -22.074  -6.348  -8.539  1.00  0.00    -0.391 OA
HETATM   91  H   UNL     1     -22.767  -6.313  -7.862  1.00  0.00     0.210 HD
ENDBRANCH  83  90
BRANCH  84  92
HETATM   92  O   UNL     1     -21.050  -4.570 -11.354  1.00  0.00    -0.348 OA
BRANCH  92  93
HETATM   93  C   UNL     1     -22.302  -3.895 -11.945  1.00  0.00     0.296 C 
HETATM   94  C   UNL     1     -23.639  -4.810 -11.982  1.00  0.00     0.303 C 
HETATM   95  C   UNL     1     -24.298  -5.287 -13.350  1.00  0.00     0.187 C 
HETATM   96  C   UNL     1     -24.146  -4.398 -14.583  1.00  0.00     0.186 C 
HETATM   97  C   UNL     1     -22.925  -3.373 -14.395  1.00  0.00     0.179 C 
HETATM   98  O   UNL     1     -22.361  -2.999 -13.076  1.00  0.00    -0.349 OA
BRANCH  94  99
HETATM   99  N   UNL     1     -23.679  -5.908 -11.001  1.00  0.00     0.090 NA
HETATM  100  H   UNL     1     -23.514  -5.487 -10.076  1.00  0.00     0.313 HD
HETATM  101  H   UNL     1     -24.633  -6.270 -10.967  1.00  0.00     0.313 HD
ENDBRANCH  94  99
BRANCH  95 102
HETATM  102  O   UNL     1     -23.885  -6.591 -13.796  1.00  0.00    -0.391 OA
HETATM  103  H   UNL     1     -23.081  -6.446 -14.346  1.00  0.00     0.210 HD
ENDBRANCH  95 102
BRANCH  96 104
HETATM  104  O   UNL     1     -25.418  -4.430 -15.367  1.00  0.00    -0.348 OA
BRANCH 104 105
HETATM  105  C   UNL     1     -26.586  -5.263 -15.328  1.00  0.00     0.296 C 
HETATM  106  C   UNL     1     -26.638  -6.399 -16.490  1.00  0.00     0.303 C 
HETATM  107  C   UNL     1     -27.248  -5.914 -17.851  1.00  0.00     0.187 C 
HETATM  108  C   UNL     1     -28.365  -4.846 -17.841  1.00  0.00     0.186 C 
HETATM  109  C   UNL     1     -28.371  -3.968 -16.561  1.00  0.00     0.179 C 
HETATM  110  O   UNL     1     -27.872  -4.596 -15.345  1.00  0.00    -0.349 OA
BRANCH 106 111
HETATM  111  N   UNL     1     -25.416  -7.280 -16.778  1.00  0.00     0.090 N 
HETATM  112  H   UNL     1     -25.279  -7.187 -17.788  1.00  0.00     0.313 HD
HETATM  113  H   UNL     1     -25.791  -8.242 -16.695  1.00  0.00     0.313 HD
ENDBRANCH 106 111
BRANCH 107 114
HETATM  114  O   UNL     1     -26.205  -5.668 -18.785  1.00  0.00    -0.391 OA
HETATM  115  H   UNL     1     -26.530  -5.816 -19.699  1.00  0.00     0.210 HD
ENDBRANCH 107 114
BRANCH 108 116
HETATM  116  O   UNL     1     -29.535  -5.650 -18.062  1.00  0.00    -0.348 OA
BRANCH 116 117
HETATM  117  C   UNL     1     -30.424  -6.078 -17.017  1.00  0.00     0.296 C 
HETATM  118  C   UNL     1     -31.185  -7.418 -17.346  1.00  0.00     0.303 C 
HETATM  119  C   UNL     1     -32.568  -7.211 -17.980  1.00  0.00     0.187 C 
HETATM  120  C   UNL     1     -33.331  -6.026 -17.346  1.00  0.00     0.180 C 
HETATM  121  C   UNL     1     -32.488  -4.808 -16.895  1.00  0.00     0.179 C 
HETATM  122  O   UNL     1     -31.188  -5.083 -16.370  1.00  0.00    -0.349 OA
BRANCH 118 123
HETATM  123  N   UNL     1     -30.390  -8.335 -18.304  1.00  0.00     0.090 N 
HETATM  124  H   UNL     1     -31.129  -8.814 -18.816  1.00  0.00     0.313 HD
HETATM  125  H   UNL     1     -30.207  -9.097 -17.630  1.00  0.00     0.313 HD
ENDBRANCH 118 123
BRANCH 119 126
HETATM  126  O   UNL     1     -32.354  -7.328 -19.415  1.00  0.00    -0.391 OA
HETATM  127  H   UNL     1     -32.233  -6.419 -19.752  1.00  0.00     0.210 HD
ENDBRANCH 119 126
BRANCH 120 128
HETATM  128  O   UNL     1     -33.816  -6.608 -16.094  1.00  0.00    -0.390 OA
HETATM  129  H   UNL     1     -34.492  -5.975 -15.745  1.00  0.00     0.210 HD
ENDBRANCH 120 128
BRANCH 121 130
HETATM  130  C   UNL     1     -32.476  -3.648 -17.882  1.00  0.00     0.198 C 
BRANCH 130 131
HETATM  131  O   UNL     1     -31.299  -2.914 -17.635  1.00  0.00    -0.398 OA
HETATM  132  H   UNL     1     -30.709  -3.476 -17.095  1.00  0.00     0.209 HD
ENDBRANCH 130 131
ENDBRANCH 121 130
ENDBRANCH 116 117
ENDBRANCH 108 116
BRANCH 109 133
HETATM  133  C   UNL     1     -27.637  -2.618 -16.775  1.00  0.00     0.198 C 
BRANCH 133 134
HETATM  134  O   UNL     1     -28.590  -1.591 -17.034  1.00  0.00    -0.398 OA
HETATM  135  H   UNL     1     -28.382  -0.859 -16.428  1.00  0.00     0.209 HD
ENDBRANCH 133 134
ENDBRANCH 109 133
ENDBRANCH 104 105
ENDBRANCH  96 104
BRANCH  97 136
HETATM  136  C   UNL     1     -21.646  -3.849 -15.148  1.00  0.00     0.198 C 
BRANCH 136 137
HETATM  137  O   UNL     1     -22.041  -4.703 -16.227  1.00  0.00    -0.398 OA
HETATM  138  H   UNL     1     -22.711  -5.325 -15.903  1.00  0.00     0.209 HD
ENDBRANCH 136 137
ENDBRANCH  97 136
ENDBRANCH  92  93
ENDBRANCH  84  92
BRANCH  85 139
HETATM  139  C   UNL     1     -18.988  -4.886  -7.899  1.00  0.00     0.198 C 
BRANCH 139 140
HETATM  140  O   UNL     1     -17.843  -4.146  -7.392  1.00  0.00    -0.398 OA
HETATM  141  H   UNL     1     -17.072  -4.740  -7.440  1.00  0.00     0.209 HD
ENDBRANCH 139 140
ENDBRANCH  85 139
ENDBRANCH  80  81
ENDBRANCH   4  80
TORSDOF 55
BEGIN_RES ARG D 557
REMARK  4 active torsions:
REMARK  status: ('A' for Active; 'I' for Inactive)
REMARK    1  A    between atoms: CA   and  CB  
REMARK    2  A    between atoms: CB   and  CG  
REMARK    3  A    between atoms: CG   and  CD  
REMARK    4  A    between atoms: CD   and  NE  
REMARK       I    between atoms: NE   and  CZ  
REMARK       I    between atoms: CZ   and  NH1 
REMARK       I    between atoms: CZ   and  NH2 
ROOT
ATOM      1  CA  ARG D 557     -26.217   2.705 -17.014  1.00 35.49     0.159 C 
ENDROOT
BRANCH   1   2
ATOM      2  CB  ARG D 557     -26.789   1.319 -17.183  1.00 35.49     0.034 C 
BRANCH   2   3
ATOM      3  CG  ARG D 557     -25.828   0.227 -17.378  1.00 35.49     0.027 C 
BRANCH   3   4
ATOM      4  CD  ARG D 557     -24.441   0.631 -17.055  1.00 35.49     0.116 C 
BRANCH   4   5
ATOM      5  NE  ARG D 557     -24.038   0.189 -15.746  1.00 35.49    -0.212 N 
ATOM      6  CZ  ARG D 557     -24.688  -0.669 -14.991  1.00 35.49     0.666 C 
ATOM      7  NH1 ARG D 557     -25.827  -1.222 -15.366  1.00 35.49    -0.235 N 
ATOM      8  NH2 ARG D 557     -24.164  -0.972 -13.839  1.00 35.49    -0.235 N 
ATOM      9  HH  ARG D 557     -26.188  -1.039 -16.121  1.00 35.49     0.174 HD
ATOM     10  HH  ARG D 557     -26.204  -1.777 -14.833  1.00 35.49     0.174 HD
ATOM     11  HH  ARG D 557     -23.424  -0.604 -13.627  1.00 35.49     0.174 HD
ATOM     12  HH  ARG D 557     -24.553  -1.524 -13.326  1.00 35.49     0.174 HD
ATOM     13  HE  ARG D 557     -23.352   0.550 -15.395  1.00 35.49     0.178 HD
ENDBRANCH   4   5
ENDBRANCH   3   4
ENDBRANCH   2   3
ENDBRANCH   1   2
END_RES ARG D 557
BEGIN_RES GLU D 570
REMARK  3 active torsions:
REMARK  status: ('A' for Active; 'I' for Inactive)
REMARK    5  A    between atoms: CA   and  CB  
REMARK    6  A    between atoms: CB   and  CG  
REMARK    7  A    between atoms: CG   and  CD  
ROOT
ATOM     14  CA  GLU D 570     -18.033  -6.348 -13.375  1.00 32.92     0.160 C 
ENDROOT
BRANCH  14  15
ATOM     15  CB  GLU D 570     -19.500  -6.345 -13.794  1.00 32.92     0.043 C 
BRANCH  15  16
ATOM     16  CG  GLU D 570     -20.184  -7.659 -13.900  1.00 32.92     0.100 C 
BRANCH  16  17
ATOM     17  CD  GLU D 570     -20.807  -7.893 -15.257  1.00 32.92     0.185 C 
ATOM     18  OE1 GLU D 570     -20.254  -8.680 -16.049  1.00 32.92    -0.647 OA
ATOM     19  OE2 GLU D 570     -21.849  -7.269 -15.537  1.00 32.92    -0.647 OA
ENDBRANCH  16  17
ENDBRANCH  15  16
ENDBRANCH  14  15
END_RES GLU D 570
ENDMDL
MODEL 5
REMARK VINA RESULT:      -2.3      3.729     17.346
REMARK WARNING: 32 MAX_TORS EXCEEDED!!!
REMARK  55 active torsions:
REMARK  status: ('A' for Active; 'I' for Inactive)
REMARK    1  A    between atoms: O_2  and  C_3 
REMARK       I    between atoms: C_3  and  N_5 
REMARK    2  A    between atoms: N_5  and  C_6 
REMARK    3  A    between atoms: C_7  and  O_104 
REMARK    4  A    between atoms: C_8  and  O_37 
REMARK    5  A    between atoms: C_9  and  C_35 
REMARK    6  A    between atoms: C_11  and  O_12 
REMARK    7  A    between atoms: O_12  and  C_13 
REMARK    8  A    between atoms: C_14  and  C_33 
REMARK    9  A    between atoms: C_16  and  O_21 
REMARK   10  A    between atoms: C_17  and  N_20 
REMARK   11  A    between atoms: C_18  and  O_19 
REMARK   12  A    between atoms: O_21  and  C_22 
REMARK   13  A    between atoms: C_23  and  C_31 
REMARK   14  A    between atoms: C_25  and  O_30 
REMARK   15  A    between atoms: C_26  and  N_29 
REMARK   16  A    between atoms: C_27  and  O_28 
REMARK   17  A    between atoms: C_31  and  O_32 
REMARK   18  A    between atoms: C_33  and  O_34 
REMARK   19  A    between atoms: C_35  and  O_36 
REMARK   20  A    between atoms: O_37  and  C_38 
REMARK   21  A    between atoms: C_39  and  N_103 
REMARK   22  A    between atoms: C_40  and  O_102 
REMARK   23  A    between atoms: C_41  and  O_46 
REMARK   24  A    between atoms: C_42  and  C_44 
REMARK   25  A    between atoms: C_44  and  O_45 
REMARK   26  A    between atoms: O_46  and  C_47 
REMARK   27  A    between atoms: C_48  and  N_101 
REMARK   28  A    between atoms: C_49  and  O_100 
REMARK   29  A    between atoms: C_50  and  O_55 
REMARK   30  A    between atoms: C_51  and  C_53 
REMARK   31  A    between atoms: C_53  and  O_54 
REMARK   32  A    between atoms: O_55  and  C_56 
REMARK   33  A    between atoms: C_57  and  N_99 
REMARK   34  A    between atoms: C_58  and  O_98 
REMARK   35  A    between atoms: C_59  and  O_64 
REMARK   36  A    between atoms: C_60  and  C_62 
REMARK   37  A    between atoms: C_62  and  O_63 
REMARK   38  A    between atoms: O_64  and  C_65 
REMARK   39  A    between atoms: C_66  and  N_97 
REMARK   40  A    between atoms: C_67  and  O_96 
REMARK   41  A    between atoms: C_68  and  O_73 
REMARK   42  A    between atoms: C_69  and  C_71 
REMARK   43  A    between atoms: C_71  and  O_72 
REMARK   44  A    between atoms: O_73  and  C_74 
REMARK   45  A    between atoms: C_75  and  N_95 
REMARK   46  A    between atoms: C_76  and  O_94 
REMARK   47  A    between atoms: C_77  and  O_82 
REMARK   48  A    between atoms: C_78  and  C_80 
REMARK   49  A    between atoms: C_80  and  O_81 
REMARK   50  A    between atoms: O_82  and  C_83 
REMARK   51  A    between atoms: C_84  and  N_93 
REMARK   52  A    between atoms: C_85  and  O_92 
REMARK   53  A    between atoms: C_86  and  O_91 
REMARK   54  A    between atoms: C_87  and  C_89 
REMARK   55  A    between atoms: C_89  and  O_90 
ROOT
HETATM    1  C   UNL     1     -21.953  -4.816 -10.254  1.00  0.00     0.296 C 
HETATM    2  C   UNL     1     -21.440  -4.372 -11.740  1.00  0.00     0.303 C 
HETATM    3  C   UNL     1     -22.521  -3.565 -12.609  1.00  0.00     0.187 C 
HETATM    4  C   UNL     1     -23.989  -4.212 -12.616  1.00  0.00     0.186 C 
HETATM    5  C   UNL     1     -24.247  -4.563 -11.100  1.00  0.00     0.179 C 
HETATM    6  O   UNL     1     -23.243  -5.390 -10.471  1.00  0.00    -0.349 OA
ENDROOT
BRANCH   1   7
HETATM    7  O   UNL     1     -22.044  -3.816  -9.221  1.00  0.00    -0.348 OA
BRANCH   7   8
HETATM    8  C   UNL     1     -21.904  -4.117  -7.711  1.00  0.00     0.186 C 
HETATM    9  C   UNL     1     -20.517  -3.868  -6.998  1.00  0.00     0.187 C 
HETATM   10  C   UNL     1     -19.685  -5.151  -6.721  1.00  0.00     0.303 C 
HETATM   11  C   UNL     1     -20.322  -6.398  -6.057  1.00  0.00     0.296 C 
HETATM   12  O   UNL     1     -21.612  -6.552  -6.745  1.00  0.00    -0.349 OA
HETATM   13  C   UNL     1     -22.551  -5.469  -7.113  1.00  0.00     0.179 C 
BRANCH   9  14
HETATM   14  O   UNL     1     -20.756  -3.197  -5.748  1.00  0.00    -0.391 OA
HETATM   15  H   UNL     1     -21.568  -2.630  -5.795  1.00  0.00     0.210 HD
ENDBRANCH   9  14
BRANCH  10  16
HETATM   16  N   UNL     1     -18.450  -4.786  -6.042  1.00  0.00     0.090 N 
HETATM   17  H   UNL     1     -18.269  -3.800  -6.224  1.00  0.00     0.313 HD
HETATM   18  H   UNL     1     -17.701  -5.228  -6.582  1.00  0.00     0.313 HD
ENDBRANCH  10  16
BRANCH  11  19
HETATM   19  O   UNL     1     -20.261  -6.699  -4.435  1.00  0.00    -0.348 OA
BRANCH  19  20
HETATM   20  C   UNL     1     -19.793  -8.161  -3.885  1.00  0.00     0.186 C 
HETATM   21  C   UNL     1     -20.468  -8.796  -2.584  1.00  0.00     0.177 C 
HETATM   22  C   UNL     1     -19.941 -10.233  -2.103  1.00  0.00     0.173 C 
HETATM   23  C   UNL     1     -19.725 -11.334  -3.239  1.00  0.00     0.286 C 
HETATM   24  O   UNL     1     -19.030 -10.629  -4.305  1.00  0.00    -0.349 OA
HETATM   25  C   UNL     1     -19.677  -9.459  -4.932  1.00  0.00     0.180 C 
BRANCH  21  26
HETATM   26  O   UNL     1     -21.900  -8.878  -2.626  1.00  0.00    -0.391 OA
HETATM   27  H   UNL     1     -22.317  -8.011  -2.691  1.00  0.00     0.210 HD
ENDBRANCH  21  26
BRANCH  22  28
HETATM   28  N   UNL     1     -20.654 -10.742  -0.906  1.00  0.00    -0.325 N 
HETATM   29  C   UNL     1     -20.106 -11.547   0.060  1.00  0.00     0.360 C 
HETATM   30  O   UNL     1     -18.940 -11.929   0.035  1.00  0.00    -0.239 OA
HETATM   31  H   UNL     1     -21.555 -10.303  -0.686  1.00  0.00     0.165 HD
BRANCH  29  32
HETATM   32  O   UNL     1     -21.022 -11.859   1.012  1.00  0.00    -0.309 OA
HETATM   33  C   UNL     1     -21.653 -13.150   0.941  1.00  0.00     0.215 C 
ENDBRANCH  29  32
ENDBRANCH  22  28
BRANCH  23  34
HETATM   34  O   UNL     1     -20.869 -12.216  -3.685  1.00  0.00    -0.348 OA
BRANCH  34  35
HETATM   35  C   UNL     1     -20.602 -13.687  -3.750  1.00  0.00     0.186 C 
HETATM   36  C   UNL     1     -20.168 -14.261  -5.154  1.00  0.00     0.179 C 
HETATM   37  O   UNL     1     -18.824 -13.970  -5.658  1.00  0.00    -0.349 OA
HETATM   38  C   UNL     1     -17.686 -14.224  -4.822  1.00  0.00     0.296 C 
HETATM   39  C   UNL     1     -18.026 -14.332  -3.258  1.00  0.00     0.303 C 
HETATM   40  C   UNL     1     -19.558 -14.288  -2.768  1.00  0.00     0.187 C 
BRANCH  36  41
HETATM   41  C   UNL     1     -20.301 -15.804  -5.251  1.00  0.00     0.198 C 
BRANCH  41  42
HETATM   42  O   UNL     1     -20.643 -16.096  -6.605  1.00  0.00    -0.398 OA
HETATM   43  H   UNL     1     -21.348 -16.762  -6.536  1.00  0.00     0.209 HD
ENDBRANCH  41  42
ENDBRANCH  36  41
BRANCH  38  44
HETATM   44  O   UNL     1     -16.777 -15.292  -5.246  1.00  0.00    -0.348 OA
BRANCH  44  45
HETATM   45  C   UNL     1     -15.517 -14.896  -5.868  1.00  0.00     0.186 C 
HETATM   46  C   UNL     1     -14.775 -13.606  -5.215  1.00  0.00     0.179 C 
HETATM   47  O   UNL     1     -14.557 -13.567  -3.786  1.00  0.00    -0.349 OA
HETATM   48  C   UNL     1     -13.915 -14.754  -3.324  1.00  0.00     0.292 C 
HETATM   49  C   UNL     1     -13.866 -16.042  -4.249  1.00  0.00     0.303 C 
HETATM   50  C   UNL     1     -14.559 -16.111  -5.750  1.00  0.00     0.187 C 
BRANCH  46  51
HETATM   51  C   UNL     1     -13.421 -13.462  -5.963  1.00  0.00     0.198 C 
BRANCH  51  52
HETATM   52  O   UNL     1     -13.410 -12.521  -6.987  1.00  0.00    -0.398 OA
HETATM   53  H   UNL     1     -13.348 -11.618  -6.617  1.00  0.00     0.209 HD
ENDBRANCH  51  52
ENDBRANCH  46  51
BRANCH  48  54
HETATM   54  O   UNL     1     -12.819 -14.205  -2.394  1.00  0.00    -0.369 OA
HETATM   55  H   UNL     1     -12.395 -14.901  -1.859  1.00  0.00     0.212 HD
ENDBRANCH  48  54
BRANCH  49  56
HETATM   56  N   UNL     1     -12.680 -16.770  -3.878  1.00  0.00     0.090 NA
HETATM   57  H   UNL     1     -11.829 -16.215  -3.882  1.00  0.00     0.313 HD
HETATM   58  H   UNL     1     -12.822 -17.168  -2.921  1.00  0.00     0.313 HD
ENDBRANCH  49  56
BRANCH  50  59
HETATM   59  O   UNL     1     -13.883 -16.313  -6.998  1.00  0.00    -0.391 OA
HETATM   60  H   UNL     1     -14.388 -16.829  -7.644  1.00  0.00     0.210 HD
ENDBRANCH  50  59
ENDBRANCH  44  45
ENDBRANCH  38  44
BRANCH  39  61
HETATM   61  N   UNL     1     -17.145 -15.353  -2.562  1.00  0.00     0.090 N 
HETATM   62  H   UNL     1     -16.523 -15.750  -3.255  1.00  0.00     0.313 HD
HETATM   63  H   UNL     1     -16.567 -14.831  -1.911  1.00  0.00     0.313 HD
ENDBRANCH  39  61
BRANCH  40  64
HETATM   64  O   UNL     1     -20.087 -15.620  -2.518  1.00  0.00    -0.391 OA
HETATM   65  H   UNL     1     -20.134 -16.181  -3.308  1.00  0.00     0.210 HD
ENDBRANCH  40  64
ENDBRANCH  34  35
ENDBRANCH  23  34
BRANCH  25  66
HETATM   66  C   UNL     1     -20.913 -10.028  -5.688  1.00  0.00     0.198 C 
BRANCH  66  67
HETATM   67  O   UNL     1     -20.602 -11.195  -6.491  1.00  0.00    -0.398 OA
HETATM   68  H   UNL     1     -20.843 -10.966  -7.403  1.00  0.00     0.209 HD
ENDBRANCH  66  67
ENDBRANCH  25  66
ENDBRANCH  19  20
ENDBRANCH  11  19
BRANCH  13  69
HETATM   69  C   UNL     1     -23.469  -5.266  -5.861  1.00  0.00     0.198 C 
BRANCH  69  70
HETATM   70  O   UNL     1     -23.160  -6.276  -4.881  1.00  0.00    -0.398 OA
HETATM   71  H   UNL     1     -24.012  -6.768  -4.783  1.00  0.00     0.209 HD
ENDBRANCH  69  70
ENDBRANCH  13  69
ENDBRANCH   7   8
ENDBRANCH   1   7
BRANCH   2  72
HETATM   72  N   UNL     1     -20.061  -3.825 -11.715  1.00  0.00     0.090 N 
HETATM   73  H   UNL     1     -19.570  -3.908 -10.813  1.00  0.00     0.313 HD
HETATM   74  H   UNL     1     -19.990  -2.849 -12.007  1.00  0.00     0.313 HD
ENDBRANCH   2  72
BRANCH   3  75
HETATM   75  O   UNL     1     -22.089  -3.170 -13.942  1.00  0.00    -0.391 OA
HETATM   76  H   UNL     1     -22.067  -3.972 -14.494  1.00  0.00     0.210 HD
ENDBRANCH   3  75
BRANCH   5  77
HETATM   77  C   UNL     1     -24.585  -3.328 -10.272  1.00  0.00     0.198 C 
BRANCH  77  78
HETATM   78  O   UNL     1     -25.021  -3.823  -9.008  1.00  0.00    -0.398 OA
HETATM   79  H   UNL     1     -24.321  -4.391  -8.651  1.00  0.00     0.209 HD
ENDBRANCH  77  78
ENDBRANCH   5  77
BRANCH   4  80
HETATM   80  O   UNL     1     -24.357  -5.224 -13.700  1.00  0.00    -0.348 OA
BRANCH  80  81
HETATM   81  C   UNL     1     -24.435  -4.746 -15.134  1.00  0.00     0.296 C 
HETATM   82  C   UNL     1     -25.893  -4.228 -15.387  1.00  0.00     0.303 C 
HETATM   83  C   UNL     1     -26.949  -5.382 -16.061  1.00  0.00     0.187 C 
HETATM   84  C   UNL     1     -26.493  -6.462 -17.137  1.00  0.00     0.186 C 
HETATM   85  C   UNL     1     -24.907  -6.633 -16.844  1.00  0.00     0.179 C 
HETATM   86  O   UNL     1     -24.089  -5.475 -16.360  1.00  0.00    -0.349 OA
BRANCH  82  87
HETATM   87  N   UNL     1     -26.511  -3.617 -14.112  1.00  0.00     0.090 N 
HETATM   88  H   UNL     1     -26.859  -4.409 -13.565  1.00  0.00     0.313 HD
HETATM   89  H   UNL     1     -25.884  -3.038 -13.543  1.00  0.00     0.313 HD
ENDBRANCH  82  87
BRANCH  83  90
HETATM   90  O   UNL     1     -27.603  -6.194 -15.035  1.00  0.00    -0.391 OA
HETATM   91  H   UNL     1     -28.541  -6.095 -15.254  1.00  0.00     0.210 HD
ENDBRANCH  83  90
BRANCH  84  92
HETATM   92  O   UNL     1     -27.109  -6.080 -18.481  1.00  0.00    -0.348 OA
BRANCH  92  93
HETATM   93  C   UNL     1     -28.596  -5.937 -18.860  1.00  0.00     0.296 C 
HETATM   94  C   UNL     1     -29.444  -4.876 -17.978  1.00  0.00     0.303 C 
HETATM   95  C   UNL     1     -30.619  -5.334 -17.007  1.00  0.00     0.187 C 
HETATM   96  C   UNL     1     -31.415  -6.589 -17.364  1.00  0.00     0.186 C 
HETATM   97  C   UNL     1     -30.599  -7.499 -18.404  1.00  0.00     0.179 C 
HETATM   98  O   UNL     1     -29.500  -6.989 -19.260  1.00  0.00    -0.349 OA
BRANCH  94  99
HETATM   99  N   UNL     1     -28.651  -3.815 -17.334  1.00  0.00     0.090 NA
HETATM  100  H   UNL     1     -28.562  -3.052 -18.020  1.00  0.00     0.313 HD
HETATM  101  H   UNL     1     -29.203  -3.426 -16.567  1.00  0.00     0.313 HD
ENDBRANCH  94  99
BRANCH  95 102
HETATM  102  O   UNL     1     -30.226  -5.538 -15.638  1.00  0.00    -0.391 OA
HETATM  103  H   UNL     1     -29.346  -5.107 -15.543  1.00  0.00     0.210 HD
ENDBRANCH  95 102
BRANCH  96 104
HETATM  104  O   UNL     1     -32.851  -6.370 -17.017  1.00  0.00    -0.348 OA
BRANCH 104 105
HETATM  105  C   UNL     1     -33.693  -5.207 -16.962  1.00  0.00     0.296 C 
HETATM  106  C   UNL     1     -33.046  -3.951 -16.156  1.00  0.00     0.303 C 
HETATM  107  C   UNL     1     -33.285  -3.977 -14.606  1.00  0.00     0.187 C 
HETATM  108  C   UNL     1     -34.590  -4.590 -14.052  1.00  0.00     0.186 C 
HETATM  109  C   UNL     1     -35.255  -5.607 -15.018  1.00  0.00     0.179 C 
HETATM  110  O   UNL     1     -35.032  -5.388 -16.441  1.00  0.00    -0.349 OA
BRANCH 106 111
HETATM  111  N   UNL     1     -31.606  -3.502 -16.432  1.00  0.00     0.090 N 
HETATM  112  H   UNL     1     -31.364  -3.977 -17.306  1.00  0.00     0.313 HD
HETATM  113  H   UNL     1     -31.054  -4.030 -15.734  1.00  0.00     0.313 HD
ENDBRANCH 106 111
BRANCH 107 114
HETATM  114  O   UNL     1     -32.102  -4.410 -13.946  1.00  0.00    -0.391 OA
HETATM  115  H   UNL     1     -32.231  -5.313 -13.584  1.00  0.00     0.210 HD
ENDBRANCH 107 114
BRANCH 108 116
HETATM  116  O   UNL     1     -35.355  -3.413 -13.747  1.00  0.00    -0.348 OA
BRANCH 116 117
HETATM  117  C   UNL     1     -34.783  -2.187 -13.261  1.00  0.00     0.296 C 
HETATM  118  C   UNL     1     -34.768  -2.077 -11.690  1.00  0.00     0.303 C 
HETATM  119  C   UNL     1     -35.986  -1.350 -11.103  1.00  0.00     0.187 C 
HETATM  120  C   UNL     1     -36.410  -0.134 -11.958  1.00  0.00     0.180 C 
HETATM  121  C   UNL     1     -36.238  -0.259 -13.492  1.00  0.00     0.179 C 
HETATM  122  O   UNL     1     -35.109  -1.002 -13.955  1.00  0.00    -0.349 OA
BRANCH 118 123
HETATM  123  N   UNL     1     -34.698  -3.457 -10.996  1.00  0.00     0.090 N 
HETATM  124  H   UNL     1     -33.809  -3.827 -11.327  1.00  0.00     0.313 HD
HETATM  125  H   UNL     1     -35.292  -3.970 -11.670  1.00  0.00     0.313 HD
ENDBRANCH 118 123
BRANCH 119 126
HETATM  126  O   UNL     1     -36.916  -2.404 -10.724  1.00  0.00    -0.391 OA
HETATM  127  H   UNL     1     -37.793  -2.133 -11.060  1.00  0.00     0.210 HD
ENDBRANCH 119 126
BRANCH 120 128
HETATM  128  O   UNL     1     -35.421   0.873 -11.570  1.00  0.00    -0.390 OA
HETATM  129  H   UNL     1     -34.537   0.459 -11.730  1.00  0.00     0.210 HD
ENDBRANCH 120 128
BRANCH 121 130
HETATM  130  C   UNL     1     -37.513  -0.622 -14.243  1.00  0.00     0.198 C 
BRANCH 130 131
HETATM  131  O   UNL     1     -38.016   0.574 -14.793  1.00  0.00    -0.398 OA
HETATM  132  H   UNL     1     -37.753   1.306 -14.200  1.00  0.00     0.209 HD
ENDBRANCH 130 131
ENDBRANCH 121 130
ENDBRANCH 116 117
ENDBRANCH 108 116
BRANCH 109 133
HETATM  133  C   UNL     1     -34.892  -7.073 -14.665  1.00  0.00     0.198 C 
BRANCH 133 134
HETATM  134  O   UNL     1     -36.002  -7.704 -14.033  1.00  0.00    -0.398 OA
HETATM  135  H   UNL     1     -36.797  -7.420 -14.518  1.00  0.00     0.209 HD
ENDBRANCH 133 134
ENDBRANCH 109 133
ENDBRANCH 104 105
ENDBRANCH  96 104
BRANCH  97 136
HETATM  136  C   UNL     1     -29.900  -8.701 -17.699  1.00  0.00     0.198 C 
BRANCH 136 137
HETATM  137  O   UNL     1     -29.197  -8.212 -16.551  1.00  0.00    -0.398 OA
HETATM  138  H   UNL     1     -29.598  -8.594 -15.755  1.00  0.00     0.209 HD
ENDBRANCH 136 137
ENDBRANCH  97 136
ENDBRANCH  92  93
ENDBRANCH  84  92
BRANCH  85 139
HETATM  139  C   UNL     1     -24.596  -7.755 -15.804  1.00  0.00     0.198 C 
BRANCH 139 140
HETATM  140  O   UNL     1     -23.809  -8.816 -16.414  1.00  0.00    -0.398 OA
HETATM  141  H   UNL     1     -23.058  -8.995 -15.819  1.00  0.00     0.209 HD
ENDBRANCH 139 140
ENDBRANCH  85 139
ENDBRANCH  80  81
ENDBRANCH   4  80
TORSDOF 55
BEGIN_RES ARG D 557
REMARK  4 active torsions:
REMARK  status: ('A' for Active; 'I' for Inactive)
REMARK    1  A    between atoms: CA   and  CB  
REMARK    2  A    between atoms: CB   and  CG  
REMARK    3  A    between atoms: CG   and  CD  
REMARK    4  A    between atoms: CD   and  NE  
REMARK       I    between atoms: NE   and  CZ  
REMARK       I    between atoms: CZ   and  NH1 
REMARK       I    between atoms: CZ   and  NH2 
ROOT
ATOM      1  CA  ARG D 557     -26.217   2.705 -17.014  1.00 35.49     0.159 C 
ENDROOT
BRANCH   1   2
ATOM      2  CB  ARG D 557     -26.789   1.319 -17.183  1.00 35.49     0.034 C 
BRANCH   2   3
ATOM      3  CG  ARG D 557     -27.304   0.665 -15.974  1.00 35.49     0.027 C 
BRANCH   3   4
ATOM      4  CD  ARG D 557     -26.630  -0.625 -15.700  1.00 35.49     0.116 C 
BRANCH   4   5
ATOM      5  NE  ARG D 557     -25.248  -0.611 -16.101  1.00 35.49    -0.212 N 
ATOM      6  CZ  ARG D 557     -24.218  -0.830 -15.316  1.00 35.49     0.666 C 
ATOM      7  NH1 ARG D 557     -24.350  -1.081 -14.026  1.00 35.49    -0.235 N 
ATOM      8  NH2 ARG D 557     -23.034  -0.800 -15.856  1.00 35.49    -0.235 N 
ATOM      9  HH  ARG D 557     -25.119  -1.108 -13.650  1.00 35.49     0.174 HD
ATOM     10  HH  ARG D 557     -23.642  -1.219 -13.564  1.00 35.49     0.174 HD
ATOM     11  HH  ARG D 557     -22.980  -0.643 -16.692  1.00 35.49     0.174 HD
ATOM     12  HH  ARG D 557     -22.345  -0.940 -15.382  1.00 35.49     0.174 HD
ATOM     13  HE  ARG D 557     -25.067  -0.386 -16.901  1.00 35.49     0.178 HD
ENDBRANCH   4   5
ENDBRANCH   3   4
ENDBRANCH   2   3
ENDBRANCH   1   2
END_RES ARG D 557
BEGIN_RES GLU D 570
REMARK  3 active torsions:
REMARK  status: ('A' for Active; 'I' for Inactive)
REMARK    5  A    between atoms: CA   and  CB  
REMARK    6  A    between atoms: CB   and  CG  
REMARK    7  A    between atoms: CG   and  CD  
ROOT
ATOM     14  CA  GLU D 570     -18.033  -6.348 -13.375  1.00 32.92     0.160 C 
ENDROOT
BRANCH  14  15
ATOM     15  CB  GLU D 570     -19.500  -6.345 -13.794  1.00 32.92     0.043 C 
BRANCH  15  16
ATOM     16  CG  GLU D 570     -19.799  -6.154 -15.237  1.00 32.92     0.100 C 
BRANCH  16  17
ATOM     17  CD  GLU D 570     -20.700  -7.229 -15.799  1.00 32.92     0.185 C 
ATOM     18  OE1 GLU D 570     -21.246  -7.044 -16.904  1.00 32.92    -0.647 OA
ATOM     19  OE2 GLU D 570     -20.874  -8.260 -15.120  1.00 32.92    -0.647 OA
ENDBRANCH  16  17
ENDBRANCH  15  16
ENDBRANCH  14  15
END_RES GLU D 570
ENDMDL
MODEL 6
REMARK VINA RESULT:      -2.3      3.802     17.752
REMARK WARNING: 32 MAX_TORS EXCEEDED!!!
REMARK  55 active torsions:
REMARK  status: ('A' for Active; 'I' for Inactive)
REMARK    1  A    between atoms: O_2  and  C_3 
REMARK       I    between atoms: C_3  and  N_5 
REMARK    2  A    between atoms: N_5  and  C_6 
REMARK    3  A    between atoms: C_7  and  O_104 
REMARK    4  A    between atoms: C_8  and  O_37 
REMARK    5  A    between atoms: C_9  and  C_35 
REMARK    6  A    between atoms: C_11  and  O_12 
REMARK    7  A    between atoms: O_12  and  C_13 
REMARK    8  A    between atoms: C_14  and  C_33 
REMARK    9  A    between atoms: C_16  and  O_21 
REMARK   10  A    between atoms: C_17  and  N_20 
REMARK   11  A    between atoms: C_18  and  O_19 
REMARK   12  A    between atoms: O_21  and  C_22 
REMARK   13  A    between atoms: C_23  and  C_31 
REMARK   14  A    between atoms: C_25  and  O_30 
REMARK   15  A    between atoms: C_26  and  N_29 
REMARK   16  A    between atoms: C_27  and  O_28 
REMARK   17  A    between atoms: C_31  and  O_32 
REMARK   18  A    between atoms: C_33  and  O_34 
REMARK   19  A    between atoms: C_35  and  O_36 
REMARK   20  A    between atoms: O_37  and  C_38 
REMARK   21  A    between atoms: C_39  and  N_103 
REMARK   22  A    between atoms: C_40  and  O_102 
REMARK   23  A    between atoms: C_41  and  O_46 
REMARK   24  A    between atoms: C_42  and  C_44 
REMARK   25  A    between atoms: C_44  and  O_45 
REMARK   26  A    between atoms: O_46  and  C_47 
REMARK   27  A    between atoms: C_48  and  N_101 
REMARK   28  A    between atoms: C_49  and  O_100 
REMARK   29  A    between atoms: C_50  and  O_55 
REMARK   30  A    between atoms: C_51  and  C_53 
REMARK   31  A    between atoms: C_53  and  O_54 
REMARK   32  A    between atoms: O_55  and  C_56 
REMARK   33  A    between atoms: C_57  and  N_99 
REMARK   34  A    between atoms: C_58  and  O_98 
REMARK   35  A    between atoms: C_59  and  O_64 
REMARK   36  A    between atoms: C_60  and  C_62 
REMARK   37  A    between atoms: C_62  and  O_63 
REMARK   38  A    between atoms: O_64  and  C_65 
REMARK   39  A    between atoms: C_66  and  N_97 
REMARK   40  A    between atoms: C_67  and  O_96 
REMARK   41  A    between atoms: C_68  and  O_73 
REMARK   42  A    between atoms: C_69  and  C_71 
REMARK   43  A    between atoms: C_71  and  O_72 
REMARK   44  A    between atoms: O_73  and  C_74 
REMARK   45  A    between atoms: C_75  and  N_95 
REMARK   46  A    between atoms: C_76  and  O_94 
REMARK   47  A    between atoms: C_77  and  O_82 
REMARK   48  A    between atoms: C_78  and  C_80 
REMARK   49  A    between atoms: C_80  and  O_81 
REMARK   50  A    between atoms: O_82  and  C_83 
REMARK   51  A    between atoms: C_84  and  N_93 
REMARK   52  A    between atoms: C_85  and  O_92 
REMARK   53  A    between atoms: C_86  and  O_91 
REMARK   54  A    between atoms: C_87  and  C_89 
REMARK   55  A    between atoms: C_89  and  O_90 
ROOT
HETATM    1  C   UNL     1     -21.753  -4.884 -10.244  1.00  0.00     0.296 C 
HETATM    2  C   UNL     1     -21.411  -4.228 -11.701  1.00  0.00     0.303 C 
HETATM    3  C   UNL     1     -22.671  -3.583 -12.458  1.00  0.00     0.187 C 
HETATM    4  C   UNL     1     -23.983  -4.506 -12.475  1.00  0.00     0.186 C 
HETATM    5  C   UNL     1     -24.091  -5.024 -10.989  1.00  0.00     0.179 C 
HETATM    6  O   UNL     1     -22.916  -5.684 -10.471  1.00  0.00    -0.349 OA
ENDROOT
BRANCH   1   7
HETATM    7  O   UNL     1     -21.987  -4.010  -9.123  1.00  0.00    -0.348 OA
BRANCH   7   8
HETATM    8  C   UNL     1     -21.788  -4.426  -7.648  1.00  0.00     0.186 C 
HETATM    9  C   UNL     1     -20.413  -4.117  -6.935  1.00  0.00     0.187 C 
HETATM   10  C   UNL     1     -19.468  -5.342  -6.783  1.00  0.00     0.303 C 
HETATM   11  C   UNL     1     -19.980  -6.691  -6.220  1.00  0.00     0.296 C 
HETATM   12  O   UNL     1     -21.266  -6.899  -6.900  1.00  0.00    -0.349 OA
HETATM   13  C   UNL     1     -22.303  -5.875  -7.160  1.00  0.00     0.179 C 
BRANCH   9  14
HETATM   14  O   UNL     1     -20.681  -3.579  -5.629  1.00  0.00    -0.391 OA
HETATM   15  H   UNL     1     -19.852  -3.242  -5.203  1.00  0.00     0.210 HD
ENDBRANCH   9  14
BRANCH  10  16
HETATM   16  N   UNL     1     -18.254  -4.929  -6.092  1.00  0.00     0.090 N 
HETATM   17  H   UNL     1     -18.501  -4.193  -5.432  1.00  0.00     0.313 HD
HETATM   18  H   UNL     1     -17.713  -4.402  -6.783  1.00  0.00     0.313 HD
ENDBRANCH  10  16
BRANCH  11  19
HETATM   19  O   UNL     1     -19.858  -7.123  -4.632  1.00  0.00    -0.348 OA
BRANCH  19  20
HETATM   20  C   UNL     1     -19.766  -8.695  -4.209  1.00  0.00     0.186 C 
HETATM   21  C   UNL     1     -20.872  -9.737  -4.700  1.00  0.00     0.177 C 
HETATM   22  C   UNL     1     -20.713 -11.263  -4.230  1.00  0.00     0.173 C 
HETATM   23  C   UNL     1     -19.247 -11.891  -4.316  1.00  0.00     0.286 C 
HETATM   24  O   UNL     1     -18.377 -10.867  -3.757  1.00  0.00    -0.349 OA
HETATM   25  C   UNL     1     -18.333  -9.537  -4.396  1.00  0.00     0.180 C 
BRANCH  21  26
HETATM   26  O   UNL     1     -21.085  -9.767  -6.119  1.00  0.00    -0.391 OA
HETATM   27  H   UNL     1     -20.895  -8.919  -6.538  1.00  0.00     0.210 HD
ENDBRANCH  21  26
BRANCH  22  28
HETATM   28  N   UNL     1     -21.775 -12.149  -4.765  1.00  0.00    -0.325 N 
HETATM   29  C   UNL     1     -22.175 -13.335  -4.205  1.00  0.00     0.360 C 
HETATM   30  O   UNL     1     -21.689 -13.789  -3.173  1.00  0.00    -0.239 OA
HETATM   31  H   UNL     1     -22.382 -11.753  -5.491  1.00  0.00     0.165 HD
BRANCH  29  32
HETATM   32  O   UNL     1     -23.150 -13.921  -4.945  1.00  0.00    -0.309 OA
HETATM   33  C   UNL     1     -23.530 -15.268  -4.613  1.00  0.00     0.215 C 
ENDBRANCH  29  32
ENDBRANCH  22  28
BRANCH  23  34
HETATM   34  O   UNL     1     -18.757 -12.529  -5.596  1.00  0.00    -0.348 OA
BRANCH  34  35
HETATM   35  C   UNL     1     -17.994 -13.809  -5.462  1.00  0.00     0.186 C 
HETATM   36  C   UNL     1     -16.431 -13.680  -5.291  1.00  0.00     0.179 C 
HETATM   37  O   UNL     1     -15.891 -13.197  -4.017  1.00  0.00    -0.349 OA
HETATM   38  C   UNL     1     -16.318 -13.811  -2.792  1.00  0.00     0.296 C 
HETATM   39  C   UNL     1     -17.698 -14.620  -2.903  1.00  0.00     0.303 C 
HETATM   40  C   UNL     1     -18.407 -14.798  -4.336  1.00  0.00     0.187 C 
BRANCH  36  41
HETATM   41  C   UNL     1     -15.674 -15.008  -5.562  1.00  0.00     0.198 C 
BRANCH  41  42
HETATM   42  O   UNL     1     -14.411 -14.895  -4.911  1.00  0.00    -0.398 OA
HETATM   43  H   UNL     1     -14.202 -13.947  -4.952  1.00  0.00     0.209 HD
ENDBRANCH  41  42
ENDBRANCH  36  41
BRANCH  38  44
HETATM   44  O   UNL     1     -15.311 -14.571  -2.046  1.00  0.00    -0.348 OA
BRANCH  44  45
HETATM   45  C   UNL     1     -14.761 -13.959  -0.841  1.00  0.00     0.186 C 
HETATM   46  C   UNL     1     -15.844 -13.346   0.204  1.00  0.00     0.179 C 
HETATM   47  O   UNL     1     -16.954 -14.169   0.632  1.00  0.00    -0.349 OA
HETATM   48  C   UNL     1     -16.508 -15.436   1.115  1.00  0.00     0.292 C 
HETATM   49  C   UNL     1     -15.033 -15.932   0.800  1.00  0.00     0.303 C 
HETATM   50  C   UNL     1     -13.956 -15.063  -0.106  1.00  0.00     0.187 C 
BRANCH  46  51
HETATM   51  C   UNL     1     -15.031 -12.868   1.439  1.00  0.00     0.198 C 
BRANCH  51  52
HETATM   52  O   UNL     1     -15.745 -12.815   2.630  1.00  0.00    -0.398 OA
HETATM   53  H   UNL     1     -16.413 -13.529   2.658  1.00  0.00     0.209 HD
ENDBRANCH  51  52
ENDBRANCH  46  51
BRANCH  48  54
HETATM   54  O   UNL     1     -17.313 -15.605   2.415  1.00  0.00    -0.369 OA
HETATM   55  H   UNL     1     -17.944 -14.876   2.565  1.00  0.00     0.212 HD
ENDBRANCH  48  54
BRANCH  49  56
HETATM   56  N   UNL     1     -14.654 -16.805   1.880  1.00  0.00     0.090 NA
HETATM   57  H   UNL     1     -13.870 -17.418   1.669  1.00  0.00     0.313 HD
HETATM   58  H   UNL     1     -14.412 -16.217   2.711  1.00  0.00     0.313 HD
ENDBRANCH  49  56
BRANCH  50  59
HETATM   59  O   UNL     1     -12.700 -14.529   0.334  1.00  0.00    -0.391 OA
HETATM   60  H   UNL     1     -12.044 -15.202   0.570  1.00  0.00     0.210 HD
ENDBRANCH  50  59
ENDBRANCH  44  45
ENDBRANCH  38  44
BRANCH  39  61
HETATM   61  N   UNL     1     -17.700 -15.850  -2.015  1.00  0.00     0.090 N 
HETATM   62  H   UNL     1     -18.664 -16.087  -1.814  1.00  0.00     0.313 HD
HETATM   63  H   UNL     1     -17.321 -16.605  -2.576  1.00  0.00     0.313 HD
ENDBRANCH  39  61
BRANCH  40  64
HETATM   64  O   UNL     1     -18.118 -16.094  -4.929  1.00  0.00    -0.391 OA
HETATM   65  H   UNL     1     -17.188 -16.362  -4.858  1.00  0.00     0.210 HD
ENDBRANCH  40  64
ENDBRANCH  34  35
ENDBRANCH  23  34
BRANCH  25  66
HETATM   66  C   UNL     1     -17.684  -9.770  -5.792  1.00  0.00     0.198 C 
BRANCH  66  67
HETATM   67  O   UNL     1     -18.153  -8.840  -6.800  1.00  0.00    -0.398 OA
HETATM   68  H   UNL     1     -18.991  -8.482  -6.465  1.00  0.00     0.209 HD
ENDBRANCH  66  67
ENDBRANCH  25  66
ENDBRANCH  19  20
ENDBRANCH  11  19
BRANCH  13  69
HETATM   69  C   UNL     1     -23.207  -5.861  -5.882  1.00  0.00     0.198 C 
BRANCH  69  70
HETATM   70  O   UNL     1     -22.380  -6.043  -4.716  1.00  0.00    -0.398 OA
HETATM   71  H   UNL     1     -21.669  -5.367  -4.833  1.00  0.00     0.209 HD
ENDBRANCH  69  70
ENDBRANCH  13  69
ENDBRANCH   7   8
ENDBRANCH   1   7
BRANCH   2  72
HETATM   72  N   UNL     1     -20.167  -3.421 -11.672  1.00  0.00     0.090 N 
HETATM   73  H   UNL     1     -19.289  -3.961 -11.707  1.00  0.00     0.313 HD
HETATM   74  H   UNL     1     -20.095  -2.784 -10.877  1.00  0.00     0.313 HD
ENDBRANCH   2  72
BRANCH   3  75
HETATM   75  O   UNL     1     -22.392  -3.002 -13.763  1.00  0.00    -0.391 OA
HETATM   76  H   UNL     1     -23.129  -3.238 -14.354  1.00  0.00     0.210 HD
ENDBRANCH   3  75
BRANCH   5  77
HETATM   77  C   UNL     1     -24.622  -3.954 -10.043  1.00  0.00     0.198 C 
BRANCH  77  78
HETATM   78  O   UNL     1     -25.416  -3.088 -10.852  1.00  0.00    -0.398 OA
HETATM   79  H   UNL     1     -26.220  -3.567 -11.103  1.00  0.00     0.209 HD
ENDBRANCH  77  78
ENDBRANCH   5  77
BRANCH   4  80
HETATM   80  O   UNL     1     -24.199  -5.479 -13.634  1.00  0.00    -0.348 OA
BRANCH  80  81
HETATM   81  C   UNL     1     -24.258  -4.922 -15.040  1.00  0.00     0.296 C 
HETATM   82  C   UNL     1     -25.662  -4.249 -15.229  1.00  0.00     0.303 C 
HETATM   83  C   UNL     1     -26.842  -5.256 -15.932  1.00  0.00     0.187 C 
HETATM   84  C   UNL     1     -26.519  -6.318 -17.072  1.00  0.00     0.186 C 
HETATM   85  C   UNL     1     -24.953  -6.662 -16.828  1.00  0.00     0.179 C 
HETATM   86  O   UNL     1     -24.012  -5.618 -16.308  1.00  0.00    -0.349 OA
BRANCH  82  87
HETATM   87  N   UNL     1     -26.188  -3.647 -13.911  1.00  0.00     0.090 N 
HETATM   88  H   UNL     1     -26.726  -4.392 -13.459  1.00  0.00     0.313 HD
HETATM   89  H   UNL     1     -25.477  -3.281 -13.268  1.00  0.00     0.313 HD
ENDBRANCH  82  87
BRANCH  83  90
HETATM   90  O   UNL     1     -27.553  -6.051 -14.931  1.00  0.00    -0.391 OA
HETATM   91  H   UNL     1     -27.816  -6.837 -15.433  1.00  0.00     0.210 HD
ENDBRANCH  83  90
BRANCH  84  92
HETATM   92  O   UNL     1     -27.121  -5.808 -18.380  1.00  0.00    -0.348 OA
BRANCH  92  93
HETATM   93  C   UNL     1     -28.603  -5.612 -18.753  1.00  0.00     0.296 C 
HETATM   94  C   UNL     1     -29.455  -4.661 -17.756  1.00  0.00     0.303 C 
HETATM   95  C   UNL     1     -30.642  -5.226 -16.859  1.00  0.00     0.187 C 
HETATM   96  C   UNL     1     -31.440  -6.424 -17.373  1.00  0.00     0.186 C 
HETATM   97  C   UNL     1     -30.618  -7.206 -18.508  1.00  0.00     0.179 C 
HETATM   98  O   UNL     1     -29.508  -6.602 -19.285  1.00  0.00    -0.349 OA
BRANCH  94  99
HETATM   99  N   UNL     1     -28.665  -3.690 -16.981  1.00  0.00     0.090 NA
HETATM  100  H   UNL     1     -29.114  -2.771 -17.106  1.00  0.00     0.313 HD
HETATM  101  H   UNL     1     -28.772  -3.911 -15.990  1.00  0.00     0.313 HD
ENDBRANCH  94  99
BRANCH  95 102
HETATM  102  O   UNL     1     -30.264  -5.597 -15.521  1.00  0.00    -0.391 OA
HETATM  103  H   UNL     1     -30.768  -4.998 -14.923  1.00  0.00     0.210 HD
ENDBRANCH  95 102
BRANCH  96 104
HETATM  104  O   UNL     1     -32.879  -6.240 -17.016  1.00  0.00    -0.348 OA
BRANCH 104 105
HETATM  105  C   UNL     1     -33.735  -5.092 -16.904  1.00  0.00     0.296 C 
HETATM  106  C   UNL     1     -33.088  -3.854 -16.071  1.00  0.00     0.303 C 
HETATM  107  C   UNL     1     -33.291  -3.934 -14.518  1.00  0.00     0.187 C 
HETATM  108  C   UNL     1     -34.575  -4.584 -13.956  1.00  0.00     0.186 C 
HETATM  109  C   UNL     1     -35.248  -5.578 -14.940  1.00  0.00     0.179 C 
HETATM  110  O   UNL     1     -35.059  -5.309 -16.359  1.00  0.00    -0.349 OA
BRANCH 106 111
HETATM  111  N   UNL     1     -31.661  -3.375 -16.364  1.00  0.00     0.090 N 
HETATM  112  H   UNL     1     -31.744  -2.355 -16.388  1.00  0.00     0.313 HD
HETATM  113  H   UNL     1     -31.530  -3.609 -17.364  1.00  0.00     0.313 HD
ENDBRANCH 106 111
BRANCH 107 114
HETATM  114  O   UNL     1     -32.088  -4.371 -13.898  1.00  0.00    -0.391 OA
HETATM  115  H   UNL     1     -31.357  -3.750 -14.108  1.00  0.00     0.210 HD
ENDBRANCH 107 114
BRANCH 108 116
HETATM  116  O   UNL     1     -35.349  -3.429 -13.595  1.00  0.00    -0.348 OA
BRANCH 116 117
HETATM  117  C   UNL     1     -34.779  -2.195 -13.128  1.00  0.00     0.296 C 
HETATM  118  C   UNL     1     -34.825  -2.031 -11.562  1.00  0.00     0.303 C 
HETATM  119  C   UNL     1     -36.056  -1.269 -11.050  1.00  0.00     0.187 C 
HETATM  120  C   UNL     1     -36.428  -0.077 -11.962  1.00  0.00     0.180 C 
HETATM  121  C   UNL     1     -36.196  -0.257 -13.482  1.00  0.00     0.179 C 
HETATM  122  O   UNL     1     -35.060  -1.030 -13.874  1.00  0.00    -0.349 OA
BRANCH 118 123
HETATM  123  N   UNL     1     -34.803  -3.387 -10.820  1.00  0.00     0.090 N 
HETATM  124  H   UNL     1     -35.775  -3.501 -10.537  1.00  0.00     0.313 HD
HETATM  125  H   UNL     1     -34.461  -3.032  -9.912  1.00  0.00     0.313 HD
ENDBRANCH 118 123
BRANCH 119 126
HETATM  126  O   UNL     1     -37.015  -2.297 -10.673  1.00  0.00    -0.391 OA
HETATM  127  H   UNL     1     -37.901  -1.894 -10.758  1.00  0.00     0.210 HD
ENDBRANCH 119 126
BRANCH 120 128
HETATM  128  O   UNL     1     -35.441   0.930 -11.568  1.00  0.00    -0.390 OA
HETATM  129  H   UNL     1     -35.308   0.811 -10.594  1.00  0.00     0.210 HD
ENDBRANCH 120 128
BRANCH 121 130
HETATM  130  C   UNL     1     -37.446  -0.629 -14.271  1.00  0.00     0.198 C 
BRANCH 130 131
HETATM  131  O   UNL     1     -38.005   0.576 -14.740  1.00  0.00    -0.398 OA
HETATM  132  H   UNL     1     -37.628   1.304 -14.208  1.00  0.00     0.209 HD
ENDBRANCH 130 131
ENDBRANCH 121 130
ENDBRANCH 116 117
ENDBRANCH 108 116
BRANCH 109 133
HETATM  133  C   UNL     1     -34.856  -7.049 -14.644  1.00  0.00     0.198 C 
BRANCH 133 134
HETATM  134  O   UNL     1     -36.023  -7.800 -14.319  1.00  0.00    -0.398 OA
HETATM  135  H   UNL     1     -35.736  -8.722 -14.198  1.00  0.00     0.209 HD
ENDBRANCH 133 134
ENDBRANCH 109 133
ENDBRANCH 104 105
ENDBRANCH  96 104
BRANCH  97 136
HETATM  136  C   UNL     1     -29.931  -8.488 -17.947  1.00  0.00     0.198 C 
BRANCH 136 137
HETATM  137  O   UNL     1     -29.354  -9.214 -19.039  1.00  0.00    -0.398 OA
HETATM  138  H   UNL     1     -29.812 -10.064 -19.124  1.00  0.00     0.209 HD
ENDBRANCH 136 137
ENDBRANCH  97 136
ENDBRANCH  92  93
ENDBRANCH  84  92
BRANCH  85 139
HETATM  139  C   UNL     1     -24.735  -7.861 -15.854  1.00  0.00     0.198 C 
BRANCH 139 140
HETATM  140  O   UNL     1     -23.559  -8.627 -16.237  1.00  0.00    -0.398 OA
HETATM  141  H   UNL     1     -22.968  -8.655 -15.462  1.00  0.00     0.209 HD
ENDBRANCH 139 140
ENDBRANCH  85 139
ENDBRANCH  80  81
ENDBRANCH   4  80
TORSDOF 55
BEGIN_RES ARG D 557
REMARK  4 active torsions:
REMARK  status: ('A' for Active; 'I' for Inactive)
REMARK    1  A    between atoms: CA   and  CB  
REMARK    2  A    between atoms: CB   and  CG  
REMARK    3  A    between atoms: CG   and  CD  
REMARK    4  A    between atoms: CD   and  NE  
REMARK       I    between atoms: NE   and  CZ  
REMARK       I    between atoms: CZ   and  NH1 
REMARK       I    between atoms: CZ   and  NH2 
ROOT
ATOM      1  CA  ARG D 557     -26.217   2.705 -17.014  1.00 35.49     0.159 C 
ENDROOT
BRANCH   1   2
ATOM      2  CB  ARG D 557     -26.789   1.319 -17.183  1.00 35.49     0.034 C 
BRANCH   2   3
ATOM      3  CG  ARG D 557     -27.345   0.683 -15.983  1.00 35.49     0.027 C 
BRANCH   3   4
ATOM      4  CD  ARG D 557     -26.630  -0.563 -15.621  1.00 35.49     0.116 C 
BRANCH   4   5
ATOM      5  NE  ARG D 557     -25.255  -0.542 -16.048  1.00 35.49    -0.212 N 
ATOM      6  CZ  ARG D 557     -24.209  -0.741 -15.278  1.00 35.49     0.666 C 
ATOM      7  NH1 ARG D 557     -24.316  -0.976 -13.983  1.00 35.49    -0.235 N 
ATOM      8  NH2 ARG D 557     -23.035  -0.707 -15.839  1.00 35.49    -0.235 N 
ATOM      9  HH  ARG D 557     -25.078  -1.005 -13.593  1.00 35.49     0.174 HD
ATOM     10  HH  ARG D 557     -23.599  -1.102 -13.531  1.00 35.49     0.174 HD
ATOM     11  HH  ARG D 557     -22.997  -0.561 -16.678  1.00 35.49     0.174 HD
ATOM     12  HH  ARG D 557     -22.337  -0.835 -15.375  1.00 35.49     0.174 HD
ATOM     13  HE  ARG D 557     -25.090  -0.326 -16.853  1.00 35.49     0.178 HD
ENDBRANCH   4   5
ENDBRANCH   3   4
ENDBRANCH   2   3
ENDBRANCH   1   2
END_RES ARG D 557
BEGIN_RES GLU D 570
REMARK  3 active torsions:
REMARK  status: ('A' for Active; 'I' for Inactive)
REMARK    5  A    between atoms: CA   and  CB  
REMARK    6  A    between atoms: CB   and  CG  
REMARK    7  A    between atoms: CG   and  CD  
ROOT
ATOM     14  CA  GLU D 570     -18.033  -6.348 -13.375  1.00 32.92     0.160 C 
ENDROOT
BRANCH  14  15
ATOM     15  CB  GLU D 570     -19.500  -6.345 -13.794  1.00 32.92     0.043 C 
BRANCH  15  16
ATOM     16  CG  GLU D 570     -19.809  -5.980 -15.201  1.00 32.92     0.100 C 
BRANCH  16  17
ATOM     17  CD  GLU D 570     -20.622  -7.033 -15.918  1.00 32.92     0.185 C 
ATOM     18  OE1 GLU D 570     -20.769  -8.150 -15.386  1.00 32.92    -0.647 OA
ATOM     19  OE2 GLU D 570     -21.103  -6.742 -17.031  1.00 32.92    -0.647 OA
ENDBRANCH  16  17
ENDBRANCH  15  16
ENDBRANCH  14  15
END_RES GLU D 570
ENDMDL
MODEL 7
REMARK VINA RESULT:      -2.2      1.474      2.094
REMARK WARNING: 32 MAX_TORS EXCEEDED!!!
REMARK  55 active torsions:
REMARK  status: ('A' for Active; 'I' for Inactive)
REMARK    1  A    between atoms: O_2  and  C_3 
REMARK       I    between atoms: C_3  and  N_5 
REMARK    2  A    between atoms: N_5  and  C_6 
REMARK    3  A    between atoms: C_7  and  O_104 
REMARK    4  A    between atoms: C_8  and  O_37 
REMARK    5  A    between atoms: C_9  and  C_35 
REMARK    6  A    between atoms: C_11  and  O_12 
REMARK    7  A    between atoms: O_12  and  C_13 
REMARK    8  A    between atoms: C_14  and  C_33 
REMARK    9  A    between atoms: C_16  and  O_21 
REMARK   10  A    between atoms: C_17  and  N_20 
REMARK   11  A    between atoms: C_18  and  O_19 
REMARK   12  A    between atoms: O_21  and  C_22 
REMARK   13  A    between atoms: C_23  and  C_31 
REMARK   14  A    between atoms: C_25  and  O_30 
REMARK   15  A    between atoms: C_26  and  N_29 
REMARK   16  A    between atoms: C_27  and  O_28 
REMARK   17  A    between atoms: C_31  and  O_32 
REMARK   18  A    between atoms: C_33  and  O_34 
REMARK   19  A    between atoms: C_35  and  O_36 
REMARK   20  A    between atoms: O_37  and  C_38 
REMARK   21  A    between atoms: C_39  and  N_103 
REMARK   22  A    between atoms: C_40  and  O_102 
REMARK   23  A    between atoms: C_41  and  O_46 
REMARK   24  A    between atoms: C_42  and  C_44 
REMARK   25  A    between atoms: C_44  and  O_45 
REMARK   26  A    between atoms: O_46  and  C_47 
REMARK   27  A    between atoms: C_48  and  N_101 
REMARK   28  A    between atoms: C_49  and  O_100 
REMARK   29  A    between atoms: C_50  and  O_55 
REMARK   30  A    between atoms: C_51  and  C_53 
REMARK   31  A    between atoms: C_53  and  O_54 
REMARK   32  A    between atoms: O_55  and  C_56 
REMARK   33  A    between atoms: C_57  and  N_99 
REMARK   34  A    between atoms: C_58  and  O_98 
REMARK   35  A    between atoms: C_59  and  O_64 
REMARK   36  A    between atoms: C_60  and  C_62 
REMARK   37  A    between atoms: C_62  and  O_63 
REMARK   38  A    between atoms: O_64  and  C_65 
REMARK   39  A    between atoms: C_66  and  N_97 
REMARK   40  A    between atoms: C_67  and  O_96 
REMARK   41  A    between atoms: C_68  and  O_73 
REMARK   42  A    between atoms: C_69  and  C_71 
REMARK   43  A    between atoms: C_71  and  O_72 
REMARK   44  A    between atoms: O_73  and  C_74 
REMARK   45  A    between atoms: C_75  and  N_95 
REMARK   46  A    between atoms: C_76  and  O_94 
REMARK   47  A    between atoms: C_77  and  O_82 
REMARK   48  A    between atoms: C_78  and  C_80 
REMARK   49  A    between atoms: C_80  and  O_81 
REMARK   50  A    between atoms: O_82  and  C_83 
REMARK   51  A    between atoms: C_84  and  N_93 
REMARK   52  A    between atoms: C_85  and  O_92 
REMARK   53  A    between atoms: C_86  and  O_91 
REMARK   54  A    between atoms: C_87  and  C_89 
REMARK   55  A    between atoms: C_89  and  O_90 
ROOT
HETATM    1  C   UNL     1     -22.109  -7.270  -4.210  1.00  0.00     0.296 C 
HETATM    2  C   UNL     1     -22.087  -7.191  -2.578  1.00  0.00     0.303 C 
HETATM    3  C   UNL     1     -21.011  -8.154  -1.875  1.00  0.00     0.187 C 
HETATM    4  C   UNL     1     -20.996  -9.658  -2.435  1.00  0.00     0.186 C 
HETATM    5  C   UNL     1     -21.036  -9.472  -4.001  1.00  0.00     0.179 C 
HETATM    6  O   UNL     1     -22.125  -8.668  -4.506  1.00  0.00    -0.349 OA
ENDROOT
BRANCH   1   7
HETATM    7  O   UNL     1     -21.049  -6.638  -4.953  1.00  0.00    -0.348 OA
BRANCH   7   8
HETATM    8  C   UNL     1     -21.200  -6.117  -6.400  1.00  0.00     0.186 C 
HETATM    9  C   UNL     1     -19.907  -5.775  -7.239  1.00  0.00     0.187 C 
HETATM   10  C   UNL     1     -19.592  -4.258  -7.364  1.00  0.00     0.303 C 
HETATM   11  C   UNL     1     -20.684  -3.238  -7.773  1.00  0.00     0.296 C 
HETATM   12  O   UNL     1     -21.858  -3.632  -6.981  1.00  0.00    -0.349 OA
HETATM   13  C   UNL     1     -22.329  -5.011  -6.727  1.00  0.00     0.179 C 
BRANCH   9  14
HETATM   14  O   UNL     1     -20.057  -6.322  -8.562  1.00  0.00    -0.391 OA
HETATM   15  H   UNL     1     -19.582  -7.188  -8.647  1.00  0.00     0.210 HD
ENDBRANCH   9  14
BRANCH  10  16
HETATM   16  N   UNL     1     -18.397  -4.080  -8.177  1.00  0.00     0.090 N 
HETATM   17  H   UNL     1     -17.683  -3.641  -7.599  1.00  0.00     0.313 HD
HETATM   18  H   UNL     1     -18.620  -3.321  -8.827  1.00  0.00     0.313 HD
ENDBRANCH  10  16
BRANCH  11  19
HETATM   19  O   UNL     1     -20.924  -2.731  -9.325  1.00  0.00    -0.348 OA
BRANCH  19  20
HETATM   20  C   UNL     1     -22.223  -3.240 -10.168  1.00  0.00     0.186 C 
HETATM   21  C   UNL     1     -22.831  -2.349 -11.346  1.00  0.00     0.177 C 
HETATM   22  C   UNL     1     -24.118  -2.918 -12.117  1.00  0.00     0.173 C 
HETATM   23  C   UNL     1     -24.088  -4.464 -12.517  1.00  0.00     0.286 C 
HETATM   24  O   UNL     1     -23.601  -5.141 -11.324  1.00  0.00    -0.349 OA
HETATM   25  C   UNL     1     -22.269  -4.790 -10.794  1.00  0.00     0.180 C 
BRANCH  21  26
HETATM   26  O   UNL     1     -21.888  -1.959 -12.356  1.00  0.00    -0.391 OA
HETATM   27  H   UNL     1     -21.196  -2.617 -12.486  1.00  0.00     0.210 HD
ENDBRANCH  21  26
BRANCH  22  28
HETATM   28  N   UNL     1     -24.581  -2.027 -13.209  1.00  0.00    -0.325 N 
HETATM   29  C   UNL     1     -23.981  -1.898 -14.436  1.00  0.00     0.360 C 
HETATM   30  O   UNL     1     -22.982  -2.530 -14.764  1.00  0.00    -0.239 OA
HETATM   31  H   UNL     1     -25.521  -1.630 -13.110  1.00  0.00     0.165 HD
BRANCH  29  32
HETATM   32  O   UNL     1     -24.631  -0.987 -15.203  1.00  0.00    -0.309 OA
HETATM   33  C   UNL     1     -23.859   0.088 -15.770  1.00  0.00     0.215 C 
ENDBRANCH  29  32
ENDBRANCH  22  28
BRANCH  23  34
HETATM   34  O   UNL     1     -23.461  -4.911 -13.818  1.00  0.00    -0.348 OA
BRANCH  34  35
HETATM   35  C   UNL     1     -23.936  -6.212 -14.384  1.00  0.00     0.186 C 
HETATM   36  C   UNL     1     -25.410  -6.237 -14.945  1.00  0.00     0.179 C 
HETATM   37  O   UNL     1     -25.704  -5.554 -16.207  1.00  0.00    -0.349 OA
HETATM   38  C   UNL     1     -24.897  -5.826 -17.361  1.00  0.00     0.296 C 
HETATM   39  C   UNL     1     -23.465  -6.467 -17.030  1.00  0.00     0.303 C 
HETATM   40  C   UNL     1     -23.100  -6.871 -15.516  1.00  0.00     0.187 C 
BRANCH  36  41
HETATM   41  C   UNL     1     -25.968  -7.673 -15.134  1.00  0.00     0.198 C 
BRANCH  41  42
HETATM   42  O   UNL     1     -27.386  -7.576 -15.014  1.00  0.00    -0.398 OA
HETATM   43  H   UNL     1     -27.665  -8.463 -14.730  1.00  0.00     0.209 HD
ENDBRANCH  41  42
ENDBRANCH  36  41
BRANCH  38  44
HETATM   44  O   UNL     1     -25.547  -6.518 -18.477  1.00  0.00    -0.348 OA
BRANCH  44  45
HETATM   45  C   UNL     1     -26.787  -5.946 -18.993  1.00  0.00     0.186 C 
HETATM   46  C   UNL     1     -27.020  -6.081 -20.596  1.00  0.00     0.179 C 
HETATM   47  O   UNL     1     -26.873  -7.376 -21.222  1.00  0.00    -0.349 OA
HETATM   48  C   UNL     1     -27.651  -8.370 -20.555  1.00  0.00     0.292 C 
HETATM   49  C   UNL     1     -28.227  -8.085 -19.104  1.00  0.00     0.303 C 
HETATM   50  C   UNL     1     -27.951  -6.680 -18.275  1.00  0.00     0.187 C 
BRANCH  46  51
HETATM   51  C   UNL     1     -28.439  -5.514 -20.876  1.00  0.00     0.198 C 
BRANCH  51  52
HETATM   52  O   UNL     1     -28.793  -4.409 -20.110  1.00  0.00    -0.398 OA
HETATM   53  H   UNL     1     -28.229  -4.354 -19.312  1.00  0.00     0.209 HD
ENDBRANCH  51  52
ENDBRANCH  46  51
BRANCH  48  54
HETATM   54  O   UNL     1     -28.329  -9.109 -21.722  1.00  0.00    -0.369 OA
HETATM   55  H   UNL     1     -27.918  -8.908 -22.584  1.00  0.00     0.212 HD
ENDBRANCH  48  54
BRANCH  49  56
HETATM   56  N   UNL     1     -29.428  -8.869 -18.978  1.00  0.00     0.090 NA
HETATM   57  H   UNL     1     -30.154  -8.437 -18.412  1.00  0.00     0.313 HD
HETATM   58  H   UNL     1     -29.807  -9.051 -19.936  1.00  0.00     0.313 HD
ENDBRANCH  49  56
BRANCH  50  59
HETATM   59  O   UNL     1     -28.935  -5.725 -17.855  1.00  0.00    -0.391 OA
HETATM   60  H   UNL     1     -29.420  -5.981 -17.056  1.00  0.00     0.210 HD
ENDBRANCH  50  59
ENDBRANCH  44  45
ENDBRANCH  38  44
BRANCH  39  61
HETATM   61  N   UNL     1     -23.036  -7.462 -18.093  1.00  0.00     0.090 N 
HETATM   62  H   UNL     1     -23.846  -8.015 -18.346  1.00  0.00     0.313 HD
HETATM   63  H   UNL     1     -22.787  -6.914 -18.910  1.00  0.00     0.313 HD
ENDBRANCH  39  61
BRANCH  40  64
HETATM   64  O   UNL     1     -23.295  -8.291 -15.270  1.00  0.00    -0.391 OA
HETATM   65  H   UNL     1     -22.940  -8.865 -15.966  1.00  0.00     0.210 HD
ENDBRANCH  40  64
ENDBRANCH  34  35
ENDBRANCH  23  34
BRANCH  25  66
HETATM   66  C   UNL     1     -21.255  -5.281 -11.868  1.00  0.00     0.198 C 
BRANCH  66  67
HETATM   67  O   UNL     1     -20.159  -4.357 -12.081  1.00  0.00    -0.398 OA
HETATM   68  H   UNL     1     -20.265  -4.017 -12.984  1.00  0.00     0.209 HD
ENDBRANCH  66  67
ENDBRANCH  25  66
ENDBRANCH  19  20
ENDBRANCH  11  19
BRANCH  13  69
HETATM   69  C   UNL     1     -23.271  -5.360  -7.929  1.00  0.00     0.198 C 
BRANCH  69  70
HETATM   70  O   UNL     1     -24.170  -4.257  -8.159  1.00  0.00    -0.398 OA
HETATM   71  H   UNL     1     -24.852  -4.367  -7.452  1.00  0.00     0.209 HD
ENDBRANCH  69  70
ENDBRANCH  13  69
ENDBRANCH   7   8
ENDBRANCH   1   7
BRANCH   2  72
HETATM   72  N   UNL     1     -22.153  -5.794  -2.085  1.00  0.00     0.090 N 
HETATM   73  H   UNL     1     -23.062  -5.325  -2.209  1.00  0.00     0.313 HD
HETATM   74  H   UNL     1     -21.441  -5.175  -2.475  1.00  0.00     0.313 HD
ENDBRANCH   2  72
BRANCH   3  75
HETATM   75  O   UNL     1     -20.981  -8.109  -0.421  1.00  0.00    -0.391 OA
HETATM   76  H   UNL     1     -20.964  -7.171  -0.156  1.00  0.00     0.210 HD
ENDBRANCH   3  75
BRANCH   5  77
HETATM   77  C   UNL     1     -19.687  -9.043  -4.565  1.00  0.00     0.198 C 
BRANCH  77  78
HETATM   78  O   UNL     1     -19.823  -9.120  -5.982  1.00  0.00    -0.398 OA
HETATM   79  H   UNL     1     -20.054 -10.033  -6.212  1.00  0.00     0.209 HD
ENDBRANCH  77  78
ENDBRANCH   5  77
BRANCH   4  80
HETATM   80  O   UNL     1     -21.885 -10.711  -1.775  1.00  0.00    -0.348 OA
BRANCH  80  81
HETATM   81  C   UNL     1     -21.459 -12.161  -1.849  1.00  0.00     0.296 C 
HETATM   82  C   UNL     1     -22.668 -13.040  -1.377  1.00  0.00     0.303 C 
HETATM   83  C   UNL     1     -22.638 -13.459   0.274  1.00  0.00     0.187 C 
HETATM   84  C   UNL     1     -21.301 -13.791   1.068  1.00  0.00     0.186 C 
HETATM   85  C   UNL     1     -20.165 -12.983   0.238  1.00  0.00     0.179 C 
HETATM   86  O   UNL     1     -20.285 -12.800  -1.244  1.00  0.00    -0.349 OA
BRANCH  82  87
HETATM   87  N   UNL     1     -24.020 -12.393  -1.741  1.00  0.00     0.090 N 
HETATM   88  H   UNL     1     -23.884 -11.960  -2.659  1.00  0.00     0.313 HD
HETATM   89  H   UNL     1     -24.829 -13.024  -1.761  1.00  0.00     0.313 HD
ENDBRANCH  82  87
BRANCH  83  90
HETATM   90  O   UNL     1     -23.276 -12.443   1.110  1.00  0.00    -0.391 OA
HETATM   91  H   UNL     1     -23.248 -12.846   1.991  1.00  0.00     0.210 HD
ENDBRANCH  83  90
BRANCH  84  92
HETATM   92  O   UNL     1     -21.283 -15.289   1.363  1.00  0.00    -0.348 OA
BRANCH  92  93
HETATM   93  C   UNL     1     -20.392 -16.387   0.751  1.00  0.00     0.296 C 
HETATM   94  C   UNL     1     -18.797 -16.178   0.937  1.00  0.00     0.303 C 
HETATM   95  C   UNL     1     -17.832 -15.902  -0.298  1.00  0.00     0.187 C 
HETATM   96  C   UNL     1     -18.205 -16.482  -1.661  1.00  0.00     0.186 C 
HETATM   97  C   UNL     1     -19.765 -16.858  -1.708  1.00  0.00     0.179 C 
HETATM   98  O   UNL     1     -20.595 -17.081  -0.498  1.00  0.00    -0.349 OA
BRANCH  94  99
HETATM   99  N   UNL     1     -18.400 -15.334   2.077  1.00  0.00     0.090 NA
HETATM  100  H   UNL     1     -19.104 -15.479   2.815  1.00  0.00     0.313 HD
HETATM  101  H   UNL     1     -17.528 -15.704   2.459  1.00  0.00     0.313 HD
ENDBRANCH  94  99
BRANCH  95 102
HETATM  102  O   UNL     1     -17.571 -14.512  -0.561  1.00  0.00    -0.391 OA
HETATM  103  H   UNL     1     -16.592 -14.432  -0.641  1.00  0.00     0.210 HD
ENDBRANCH  95 102
BRANCH  96 104
HETATM  104  O   UNL     1     -16.963 -16.943  -2.351  1.00  0.00    -0.348 OA
BRANCH 104 105
HETATM  105  C   UNL     1     -16.526 -16.932  -3.720  1.00  0.00     0.296 C 
HETATM  106  C   UNL     1     -14.963 -16.530  -3.921  1.00  0.00     0.303 C 
HETATM  107  C   UNL     1     -14.692 -14.987  -4.007  1.00  0.00     0.187 C 
HETATM  108  C   UNL     1     -15.757 -14.066  -4.643  1.00  0.00     0.186 C 
HETATM  109  C   UNL     1     -17.190 -14.662  -4.611  1.00  0.00     0.179 C 
HETATM  110  O   UNL     1     -17.286 -16.116  -4.645  1.00  0.00    -0.349 OA
BRANCH 106 111
HETATM  111  N   UNL     1     -13.872 -17.181  -3.063  1.00  0.00     0.090 N 
HETATM  112  H   UNL     1     -13.165 -16.446  -2.967  1.00  0.00     0.313 HD
HETATM  113  H   UNL     1     -13.415 -17.840  -3.718  1.00  0.00     0.313 HD
ENDBRANCH 106 111
BRANCH 107 114
HETATM  114  O   UNL     1     -14.171 -14.521  -2.769  1.00  0.00    -0.391 OA
HETATM  115  H   UNL     1     -14.775 -13.852  -2.381  1.00  0.00     0.210 HD
ENDBRANCH 107 114
BRANCH 108 116
HETATM  116  O   UNL     1     -15.198 -13.833  -5.945  1.00  0.00    -0.348 OA
BRANCH 116 117
HETATM  117  C   UNL     1     -14.956 -12.526  -6.493  1.00  0.00     0.296 C 
HETATM  118  C   UNL     1     -14.288 -11.529  -5.472  1.00  0.00     0.303 C 
HETATM  119  C   UNL     1     -15.292 -10.655  -4.706  1.00  0.00     0.187 C 
HETATM  120  C   UNL     1     -16.457 -10.177  -5.603  1.00  0.00     0.180 C 
HETATM  121  C   UNL     1     -16.948 -11.157  -6.697  1.00  0.00     0.179 C 
HETATM  122  O   UNL     1     -15.958 -11.977  -7.321  1.00  0.00    -0.349 OA
BRANCH 118 123
HETATM  123  N   UNL     1     -13.426 -12.250  -4.411  1.00  0.00     0.090 N 
HETATM  124  H   UNL     1     -12.646 -12.604  -4.962  1.00  0.00     0.313 HD
HETATM  125  H   UNL     1     -13.961 -13.135  -4.390  1.00  0.00     0.313 HD
ENDBRANCH 118 123
BRANCH 119 126
HETATM  126  O   UNL     1     -15.508 -11.339  -3.440  1.00  0.00    -0.391 OA
HETATM  127  H   UNL     1     -14.756 -11.099  -2.864  1.00  0.00     0.210 HD
ENDBRANCH 119 126
BRANCH 120 128
HETATM  128  O   UNL     1     -15.837  -9.086  -6.355  1.00  0.00    -0.390 OA
HETATM  129  H   UNL     1     -16.493  -8.829  -7.050  1.00  0.00     0.210 HD
ENDBRANCH 120 128
BRANCH 121 130
HETATM  130  C   UNL     1     -18.197 -11.947  -6.323  1.00  0.00     0.198 C 
BRANCH 130 131
HETATM  131  O   UNL     1     -19.155 -11.694  -7.325  1.00  0.00    -0.398 OA
HETATM  132  H   UNL     1     -18.674 -11.417  -8.130  1.00  0.00     0.209 HD
ENDBRANCH 130 131
ENDBRANCH 121 130
ENDBRANCH 116 117
ENDBRANCH 108 116
BRANCH 109 133
HETATM  133  C   UNL     1     -18.021 -14.126  -3.416  1.00  0.00     0.198 C 
BRANCH 133 134
HETATM  134  O   UNL     1     -17.971 -12.702  -3.398  1.00  0.00    -0.398 OA
HETATM  135  H   UNL     1     -18.712 -12.405  -2.842  1.00  0.00     0.209 HD
ENDBRANCH 133 134
ENDBRANCH 109 133
ENDBRANCH 104 105
ENDBRANCH  96 104
BRANCH  97 136
HETATM  136  C   UNL     1     -20.600 -15.775  -2.453  1.00  0.00     0.198 C 
BRANCH 136 137
HETATM  137  O   UNL     1     -21.229 -16.381  -3.588  1.00  0.00    -0.398 OA
HETATM  138  H   UNL     1     -20.904 -17.290  -3.675  1.00  0.00     0.209 HD
ENDBRANCH 136 137
ENDBRANCH  97 136
ENDBRANCH  92  93
ENDBRANCH  84  92
BRANCH  85 139
HETATM  139  C   UNL     1     -19.942 -11.530   0.764  1.00  0.00     0.198 C 
BRANCH 139 140
HETATM  140  O   UNL     1     -21.215 -10.860   0.975  1.00  0.00    -0.398 OA
HETATM  141  H   UNL     1     -21.137  -9.966   0.593  1.00  0.00     0.209 HD
ENDBRANCH 139 140
ENDBRANCH  85 139
ENDBRANCH  80  81
ENDBRANCH   4  80
TORSDOF 55
BEGIN_RES ARG D 557
REMARK  4 active torsions:
REMARK  status: ('A' for Active; 'I' for Inactive)
REMARK    1  A    between atoms: CA   and  CB  
REMARK    2  A    between atoms: CB   and  CG  
REMARK    3  A    between atoms: CG   and  CD  
REMARK    4  A    between atoms: CD   and  NE  
REMARK       I    between atoms: NE   and  CZ  
REMARK       I    between atoms: CZ   and  NH1 
REMARK       I    between atoms: CZ   and  NH2 
ROOT
ATOM      1  CA  ARG D 557     -26.217   2.705 -17.014  1.00 35.49     0.159 C 
ENDROOT
BRANCH   1   2
ATOM      2  CB  ARG D 557     -26.789   1.319 -17.183  1.00 35.49     0.034 C 
BRANCH   2   3
ATOM      3  CG  ARG D 557     -28.146   1.097 -16.670  1.00 35.49     0.027 C 
BRANCH   3   4
ATOM      4  CD  ARG D 557     -28.325  -0.264 -16.115  1.00 35.49     0.116 C 
BRANCH   4   5
ATOM      5  NE  ARG D 557     -29.155  -1.087 -16.955  1.00 35.49    -0.212 N 
ATOM      6  CZ  ARG D 557     -29.022  -2.382 -17.133  1.00 35.49     0.666 C 
ATOM      7  NH1 ARG D 557     -28.068  -3.084 -16.550  1.00 35.49    -0.235 N 
ATOM      8  NH2 ARG D 557     -29.879  -2.972 -17.915  1.00 35.49    -0.235 N 
ATOM      9  HH  ARG D 557     -27.495  -2.717 -16.030  1.00 35.49     0.174 HD
ATOM     10  HH  ARG D 557     -28.032  -3.927 -16.701  1.00 35.49     0.174 HD
ATOM     11  HH  ARG D 557     -30.489  -2.494 -18.273  1.00 35.49     0.174 HD
ATOM     12  HH  ARG D 557     -29.828  -3.807 -18.051  1.00 35.49     0.174 HD
ATOM     13  HE  ARG D 557     -29.750  -0.704 -17.426  1.00 35.49     0.178 HD
ENDBRANCH   4   5
ENDBRANCH   3   4
ENDBRANCH   2   3
ENDBRANCH   1   2
END_RES ARG D 557
BEGIN_RES GLU D 570
REMARK  3 active torsions:
REMARK  status: ('A' for Active; 'I' for Inactive)
REMARK    5  A    between atoms: CA   and  CB  
REMARK    6  A    between atoms: CB   and  CG  
REMARK    7  A    between atoms: CG   and  CD  
ROOT
ATOM     14  CA  GLU D 570     -18.033  -6.348 -13.375  1.00 32.92     0.160 C 
ENDROOT
BRANCH  14  15
ATOM     15  CB  GLU D 570     -19.500  -6.345 -13.794  1.00 32.92     0.043 C 
BRANCH  15  16
ATOM     16  CG  GLU D 570     -20.077  -7.626 -14.277  1.00 32.92     0.100 C 
BRANCH  16  17
ATOM     17  CD  GLU D 570     -20.183  -7.695 -15.782  1.00 32.92     0.185 C 
ATOM     18  OE1 GLU D 570     -20.524  -8.767 -16.317  1.00 32.92    -0.647 OA
ATOM     19  OE2 GLU D 570     -19.904  -6.670 -16.435  1.00 32.92    -0.647 OA
ENDBRANCH  16  17
ENDBRANCH  15  16
ENDBRANCH  14  15
END_RES GLU D 570
ENDMDL
MODEL 8
REMARK VINA RESULT:      -2.2      2.472     15.920
REMARK WARNING: 32 MAX_TORS EXCEEDED!!!
REMARK  55 active torsions:
REMARK  status: ('A' for Active; 'I' for Inactive)
REMARK    1  A    between atoms: O_2  and  C_3 
REMARK       I    between atoms: C_3  and  N_5 
REMARK    2  A    between atoms: N_5  and  C_6 
REMARK    3  A    between atoms: C_7  and  O_104 
REMARK    4  A    between atoms: C_8  and  O_37 
REMARK    5  A    between atoms: C_9  and  C_35 
REMARK    6  A    between atoms: C_11  and  O_12 
REMARK    7  A    between atoms: O_12  and  C_13 
REMARK    8  A    between atoms: C_14  and  C_33 
REMARK    9  A    between atoms: C_16  and  O_21 
REMARK   10  A    between atoms: C_17  and  N_20 
REMARK   11  A    between atoms: C_18  and  O_19 
REMARK   12  A    between atoms: O_21  and  C_22 
REMARK   13  A    between atoms: C_23  and  C_31 
REMARK   14  A    between atoms: C_25  and  O_30 
REMARK   15  A    between atoms: C_26  and  N_29 
REMARK   16  A    between atoms: C_27  and  O_28 
REMARK   17  A    between atoms: C_31  and  O_32 
REMARK   18  A    between atoms: C_33  and  O_34 
REMARK   19  A    between atoms: C_35  and  O_36 
REMARK   20  A    between atoms: O_37  and  C_38 
REMARK   21  A    between atoms: C_39  and  N_103 
REMARK   22  A    between atoms: C_40  and  O_102 
REMARK   23  A    between atoms: C_41  and  O_46 
REMARK   24  A    between atoms: C_42  and  C_44 
REMARK   25  A    between atoms: C_44  and  O_45 
REMARK   26  A    between atoms: O_46  and  C_47 
REMARK   27  A    between atoms: C_48  and  N_101 
REMARK   28  A    between atoms: C_49  and  O_100 
REMARK   29  A    between atoms: C_50  and  O_55 
REMARK   30  A    between atoms: C_51  and  C_53 
REMARK   31  A    between atoms: C_53  and  O_54 
REMARK   32  A    between atoms: O_55  and  C_56 
REMARK   33  A    between atoms: C_57  and  N_99 
REMARK   34  A    between atoms: C_58  and  O_98 
REMARK   35  A    between atoms: C_59  and  O_64 
REMARK   36  A    between atoms: C_60  and  C_62 
REMARK   37  A    between atoms: C_62  and  O_63 
REMARK   38  A    between atoms: O_64  and  C_65 
REMARK   39  A    between atoms: C_66  and  N_97 
REMARK   40  A    between atoms: C_67  and  O_96 
REMARK   41  A    between atoms: C_68  and  O_73 
REMARK   42  A    between atoms: C_69  and  C_71 
REMARK   43  A    between atoms: C_71  and  O_72 
REMARK   44  A    between atoms: O_73  and  C_74 
REMARK   45  A    between atoms: C_75  and  N_95 
REMARK   46  A    between atoms: C_76  and  O_94 
REMARK   47  A    between atoms: C_77  and  O_82 
REMARK   48  A    between atoms: C_78  and  C_80 
REMARK   49  A    between atoms: C_80  and  O_81 
REMARK   50  A    between atoms: O_82  and  C_83 
REMARK   51  A    between atoms: C_84  and  N_93 
REMARK   52  A    between atoms: C_85  and  O_92 
REMARK   53  A    between atoms: C_86  and  O_91 
REMARK   54  A    between atoms: C_87  and  C_89 
REMARK   55  A    between atoms: C_89  and  O_90 
ROOT
HETATM    1  C   UNL     1     -20.486  -7.730  -3.702  1.00  0.00     0.296 C 
HETATM    2  C   UNL     1     -21.979  -7.066  -3.722  1.00  0.00     0.303 C 
HETATM    3  C   UNL     1     -22.457  -6.534  -5.159  1.00  0.00     0.187 C 
HETATM    4  C   UNL     1     -21.365  -5.656  -5.942  1.00  0.00     0.186 C 
HETATM    5  C   UNL     1     -20.032  -6.481  -5.770  1.00  0.00     0.179 C 
HETATM    6  O   UNL     1     -19.665  -6.799  -4.410  1.00  0.00    -0.349 OA
ENDROOT
BRANCH   1   7
HETATM    7  O   UNL     1     -20.300  -9.046  -4.258  1.00  0.00    -0.348 OA
BRANCH   7   8
HETATM    8  C   UNL     1     -19.488 -10.167  -3.570  1.00  0.00     0.186 C 
HETATM    9  C   UNL     1     -20.136 -11.596  -3.393  1.00  0.00     0.187 C 
HETATM   10  C   UNL     1     -20.646 -11.908  -1.957  1.00  0.00     0.303 C 
HETATM   11  C   UNL     1     -19.759 -11.652  -0.713  1.00  0.00     0.296 C 
HETATM   12  O   UNL     1     -19.169 -10.328  -0.959  1.00  0.00    -0.349 OA
HETATM   13  C   UNL     1     -18.636  -9.824  -2.244  1.00  0.00     0.179 C 
BRANCH   9  14
HETATM   14  O   UNL     1     -19.166 -12.592  -3.762  1.00  0.00    -0.391 OA
HETATM   15  H   UNL     1     -19.493 -13.504  -3.555  1.00  0.00     0.210 HD
ENDBRANCH   9  14
BRANCH  10  16
HETATM   16  N   UNL     1     -21.194 -13.257  -1.925  1.00  0.00     0.090 N 
HETATM   17  H   UNL     1     -20.901 -13.696  -1.054  1.00  0.00     0.313 HD
HETATM   18  H   UNL     1     -20.649 -13.789  -2.608  1.00  0.00     0.313 HD
ENDBRANCH  10  16
BRANCH  11  19
HETATM   19  O   UNL     1     -18.814 -12.810  -0.012  1.00  0.00    -0.348 OA
BRANCH  19  20
HETATM   20  C   UNL     1     -17.237 -12.938  -0.406  1.00  0.00     0.186 C 
HETATM   21  C   UNL     1     -16.241 -13.803   0.492  1.00  0.00     0.177 C 
HETATM   22  C   UNL     1     -14.702 -13.868   0.041  1.00  0.00     0.173 C 
HETATM   23  C   UNL     1     -14.421 -14.092  -1.515  1.00  0.00     0.286 C 
HETATM   24  O   UNL     1     -15.335 -13.180  -2.187  1.00  0.00    -0.349 OA
HETATM   25  C   UNL     1     -16.787 -13.330  -1.968  1.00  0.00     0.180 C 
BRANCH  21  26
HETATM   26  O   UNL     1     -16.656 -15.158   0.722  1.00  0.00    -0.391 OA
HETATM   27  H   UNL     1     -17.257 -15.479   0.040  1.00  0.00     0.210 HD
ENDBRANCH  21  26
BRANCH  22  28
HETATM   28  N   UNL     1     -13.872 -14.720   0.927  1.00  0.00    -0.325 N 
HETATM   29  C   UNL     1     -12.536 -14.538   1.178  1.00  0.00     0.360 C 
HETATM   30  O   UNL     1     -11.880 -13.623   0.691  1.00  0.00    -0.239 OA
HETATM   31  H   UNL     1     -14.374 -15.368   1.543  1.00  0.00     0.165 HD
BRANCH  29  32
HETATM   32  O   UNL     1     -12.061 -15.498   2.011  1.00  0.00    -0.309 OA
HETATM   33  C   UNL     1     -10.816 -15.246   2.687  1.00  0.00     0.215 C 
ENDBRANCH  29  32
ENDBRANCH  22  28
BRANCH  23  34
HETATM   34  O   UNL     1     -14.356 -15.487  -2.093  1.00  0.00    -0.348 OA
BRANCH  34  35
HETATM   35  C   UNL     1     -13.765 -15.624  -3.460  1.00  0.00     0.186 C 
HETATM   36  C   UNL     1     -14.207 -16.888  -4.294  1.00  0.00     0.179 C 
HETATM   37  O   UNL     1     -15.561 -16.936  -4.850  1.00  0.00    -0.349 OA
HETATM   38  C   UNL     1     -16.046 -15.831  -5.626  1.00  0.00     0.296 C 
HETATM   39  C   UNL     1     -15.248 -14.459  -5.393  1.00  0.00     0.303 C 
HETATM   40  C   UNL     1     -13.939 -14.445  -4.458  1.00  0.00     0.187 C 
BRANCH  36  41
HETATM   41  C   UNL     1     -13.275 -17.182  -5.499  1.00  0.00     0.198 C 
BRANCH  41  42
HETATM   42  O   UNL     1     -11.942 -17.183  -4.991  1.00  0.00    -0.398 OA
HETATM   43  H   UNL     1     -11.699 -18.123  -4.954  1.00  0.00     0.209 HD
ENDBRANCH  41  42
ENDBRANCH  36  41
BRANCH  38  44
HETATM   44  O   UNL     1     -16.283 -16.076  -7.051  1.00  0.00    -0.348 OA
BRANCH  44  45
HETATM   45  C   UNL     1     -17.644 -16.411  -7.459  1.00  0.00     0.186 C 
HETATM   46  C   UNL     1     -18.824 -15.973  -6.431  1.00  0.00     0.179 C 
HETATM   47  O   UNL     1     -18.865 -14.611  -5.946  1.00  0.00    -0.349 OA
HETATM   48  C   UNL     1     -18.812 -13.672  -7.020  1.00  0.00     0.292 C 
HETATM   49  C   UNL     1     -18.357 -14.144  -8.465  1.00  0.00     0.303 C 
HETATM   50  C   UNL     1     -17.895 -15.694  -8.812  1.00  0.00     0.187 C 
BRANCH  46  51
HETATM   51  C   UNL     1     -20.163 -16.326  -7.135  1.00  0.00     0.198 C 
BRANCH  51  52
HETATM   52  O   UNL     1     -21.183 -15.397  -6.962  1.00  0.00    -0.398 OA
HETATM   53  H   UNL     1     -21.575 -15.160  -7.826  1.00  0.00     0.209 HD
ENDBRANCH  51  52
ENDBRANCH  46  51
BRANCH  48  54
HETATM   54  O   UNL     1     -19.921 -12.672  -6.648  1.00  0.00    -0.369 OA
HETATM   55  H   UNL     1     -20.561 -13.038  -6.011  1.00  0.00     0.212 HD
ENDBRANCH  48  54
BRANCH  49  56
HETATM   56  N   UNL     1     -19.007 -13.270  -9.406  1.00  0.00     0.090 NA
HETATM   57  H   UNL     1     -19.245 -13.709 -10.292  1.00  0.00     0.313 HD
HETATM   58  H   UNL     1     -19.881 -12.900  -8.965  1.00  0.00     0.313 HD
ENDBRANCH  49  56
BRANCH  50  59
HETATM   59  O   UNL     1     -18.537 -16.597  -9.723  1.00  0.00    -0.391 OA
HETATM   60  H   UNL     1     -19.390 -16.934  -9.411  1.00  0.00     0.210 HD
ENDBRANCH  50  59
ENDBRANCH  44  45
ENDBRANCH  38  44
BRANCH  39  61
HETATM   61  N   UNL     1     -15.149 -13.644  -6.669  1.00  0.00     0.090 N 
HETATM   62  H   UNL     1     -14.746 -12.746  -6.434  1.00  0.00     0.313 HD
HETATM   63  H   UNL     1     -14.478 -14.124  -7.260  1.00  0.00     0.313 HD
ENDBRANCH  39  61
BRANCH  40  64
HETATM   64  O   UNL     1     -12.713 -14.505  -5.238  1.00  0.00    -0.391 OA
HETATM   65  H   UNL     1     -12.259 -15.361  -5.197  1.00  0.00     0.210 HD
ENDBRANCH  40  64
ENDBRANCH  34  35
ENDBRANCH  23  34
BRANCH  25  66
HETATM   66  C   UNL     1     -17.165 -14.690  -2.624  1.00  0.00     0.198 C 
BRANCH  66  67
HETATM   67  O   UNL     1     -18.527 -15.099  -2.342  1.00  0.00    -0.398 OA
HETATM   68  H   UNL     1     -18.496 -16.060  -2.207  1.00  0.00     0.209 HD
ENDBRANCH  66  67
ENDBRANCH  25  66
ENDBRANCH  19  20
ENDBRANCH  11  19
BRANCH  13  69
HETATM   69  C   UNL     1     -17.138 -10.279  -2.282  1.00  0.00     0.198 C 
BRANCH  69  70
HETATM   70  O   UNL     1     -16.771 -10.586  -3.642  1.00  0.00    -0.398 OA
HETATM   71  H   UNL     1     -15.790 -10.465  -3.647  1.00  0.00     0.209 HD
ENDBRANCH  69  70
ENDBRANCH  13  69
ENDBRANCH   7   8
ENDBRANCH   1   7
BRANCH   2  72
HETATM   72  N   UNL     1     -22.957  -7.870  -2.950  1.00  0.00     0.090 N 
HETATM   73  H   UNL     1     -23.810  -8.139  -3.462  1.00  0.00     0.313 HD
HETATM   74  H   UNL     1     -23.257  -7.441  -2.073  1.00  0.00     0.313 HD
ENDBRANCH   2  72
BRANCH   3  75
HETATM   75  O   UNL     1     -23.779  -5.929  -5.199  1.00  0.00    -0.391 OA
HETATM   76  H   UNL     1     -23.899  -5.428  -4.371  1.00  0.00     0.210 HD
ENDBRANCH   3  75
BRANCH   5  77
HETATM   77  C   UNL     1     -19.988  -7.700  -6.684  1.00  0.00     0.198 C 
BRANCH  77  78
HETATM   78  O   UNL     1     -18.714  -8.301  -6.458  1.00  0.00    -0.398 OA
HETATM   79  H   UNL     1     -18.613  -9.033  -7.086  1.00  0.00     0.209 HD
ENDBRANCH  77  78
ENDBRANCH   5  77
BRANCH   4  80
HETATM   80  O   UNL     1     -21.347  -4.140  -5.750  1.00  0.00    -0.348 OA
BRANCH  80  81
HETATM   81  C   UNL     1     -21.462  -3.258  -6.974  1.00  0.00     0.296 C 
HETATM   82  C   UNL     1     -22.669  -3.778  -7.828  1.00  0.00     0.303 C 
HETATM   83  C   UNL     1     -22.245  -4.873  -9.062  1.00  0.00     0.187 C 
HETATM   84  C   UNL     1     -20.907  -4.756  -9.913  1.00  0.00     0.186 C 
HETATM   85  C   UNL     1     -19.903  -3.957  -8.920  1.00  0.00     0.179 C 
HETATM   86  O   UNL     1     -20.429  -2.931  -7.964  1.00  0.00    -0.349 OA
BRANCH  82  87
HETATM   87  N   UNL     1     -23.780  -4.376  -6.939  1.00  0.00     0.090 N 
HETATM   88  H   UNL     1     -23.939  -3.692  -6.194  1.00  0.00     0.313 HD
HETATM   89  H   UNL     1     -24.662  -4.600  -7.413  1.00  0.00     0.313 HD
ENDBRANCH  82  87
BRANCH  83  90
HETATM   90  O   UNL     1     -22.214  -6.255  -8.584  1.00  0.00    -0.391 OA
HETATM   91  H   UNL     1     -22.409  -6.156  -7.640  1.00  0.00     0.210 HD
ENDBRANCH  83  90
BRANCH  84  92
HETATM   92  O   UNL     1     -21.281  -4.324 -11.329  1.00  0.00    -0.348 OA
BRANCH  92  93
HETATM   93  C   UNL     1     -22.597  -3.704 -11.836  1.00  0.00     0.296 C 
HETATM   94  C   UNL     1     -23.854  -4.720 -11.945  1.00  0.00     0.303 C 
HETATM   95  C   UNL     1     -24.499  -5.118 -13.345  1.00  0.00     0.187 C 
HETATM   96  C   UNL     1     -24.447  -4.105 -14.487  1.00  0.00     0.186 C 
HETATM   97  C   UNL     1     -23.312  -3.003 -14.216  1.00  0.00     0.179 C 
HETATM   98  O   UNL     1     -22.753  -2.711 -12.873  1.00  0.00    -0.349 OA
BRANCH  94  99
HETATM   99  N   UNL     1     -23.783  -5.907 -11.075  1.00  0.00     0.090 NA
HETATM  100  H   UNL     1     -24.110  -6.707 -11.635  1.00  0.00     0.313 HD
HETATM  101  H   UNL     1     -22.799  -6.098 -10.878  1.00  0.00     0.313 HD
ENDBRANCH  94  99
BRANCH  95 102
HETATM  102  O   UNL     1     -23.989  -6.333 -13.921  1.00  0.00    -0.391 OA
HETATM  103  H   UNL     1     -24.108  -7.028 -13.233  1.00  0.00     0.210 HD
ENDBRANCH  95 102
BRANCH  96 104
HETATM  104  O   UNL     1     -25.728  -4.168 -15.254  1.00  0.00    -0.348 OA
BRANCH 104 105
HETATM  105  C   UNL     1     -26.848  -5.067 -15.241  1.00  0.00     0.296 C 
HETATM  106  C   UNL     1     -26.772  -6.248 -16.357  1.00  0.00     0.303 C 
HETATM  107  C   UNL     1     -27.333  -5.852 -17.767  1.00  0.00     0.187 C 
HETATM  108  C   UNL     1     -28.507  -4.852 -17.859  1.00  0.00     0.186 C 
HETATM  109  C   UNL     1     -28.632  -3.927 -16.620  1.00  0.00     0.179 C 
HETATM  110  O   UNL     1     -28.166  -4.477 -15.354  1.00  0.00    -0.349 OA
BRANCH 106 111
HETATM  111  N   UNL     1     -25.489  -7.067 -16.543  1.00  0.00     0.090 N 
HETATM  112  H   UNL     1     -24.742  -6.368 -16.490  1.00  0.00     0.313 HD
HETATM  113  H   UNL     1     -25.499  -7.301 -17.551  1.00  0.00     0.313 HD
ENDBRANCH 106 111
BRANCH 107 114
HETATM  114  O   UNL     1     -26.256  -5.582 -18.654  1.00  0.00    -0.391 OA
HETATM  115  H   UNL     1     -25.697  -4.860 -18.294  1.00  0.00     0.210 HD
ENDBRANCH 107 114
BRANCH 108 116
HETATM  116  O   UNL     1     -29.616  -5.731 -18.108  1.00  0.00    -0.348 OA
BRANCH 116 117
HETATM  117  C   UNL     1     -30.489  -6.231 -17.082  1.00  0.00     0.296 C 
HETATM  118  C   UNL     1     -31.237  -7.559 -17.482  1.00  0.00     0.303 C 
HETATM  119  C   UNL     1     -32.629  -7.334 -18.089  1.00  0.00     0.187 C 
HETATM  120  C   UNL     1     -33.400  -6.197 -17.379  1.00  0.00     0.180 C 
HETATM  121  C   UNL     1     -32.568  -4.998 -16.864  1.00  0.00     0.179 C 
HETATM  122  O   UNL     1     -31.259  -5.286 -16.369  1.00  0.00    -0.349 OA
BRANCH 118 123
HETATM  123  N   UNL     1     -30.440  -8.408 -18.500  1.00  0.00     0.090 N 
HETATM  124  H   UNL     1     -29.770  -8.893 -17.907  1.00  0.00     0.313 HD
HETATM  125  H   UNL     1     -29.796  -7.662 -18.813  1.00  0.00     0.313 HD
ENDBRANCH 118 123
BRANCH 119 126
HETATM  126  O   UNL     1     -32.428  -7.363 -19.530  1.00  0.00    -0.391 OA
HETATM  127  H   UNL     1     -31.687  -7.979 -19.694  1.00  0.00     0.210 HD
ENDBRANCH 119 126
BRANCH 120 128
HETATM  128  O   UNL     1     -33.864  -6.859 -16.159  1.00  0.00    -0.390 OA
HETATM  129  H   UNL     1     -34.778  -7.182 -16.357  1.00  0.00     0.210 HD
ENDBRANCH 120 128
BRANCH 121 130
HETATM  130  C   UNL     1     -32.580  -3.781 -17.782  1.00  0.00     0.198 C 
BRANCH 130 131
HETATM  131  O   UNL     1     -31.415  -3.042 -17.495  1.00  0.00    -0.398 OA
HETATM  132  H   UNL     1     -31.688  -2.124 -17.300  1.00  0.00     0.209 HD
ENDBRANCH 130 131
ENDBRANCH 121 130
ENDBRANCH 116 117
ENDBRANCH 108 116
BRANCH 109 133
HETATM  133  C   UNL     1     -27.966  -2.546 -16.851  1.00  0.00     0.198 C 
BRANCH 133 134
HETATM  134  O   UNL     1     -28.915  -1.641 -17.408  1.00  0.00    -0.398 OA
HETATM  135  H   UNL     1     -28.738  -0.772 -17.011  1.00  0.00     0.209 HD
ENDBRANCH 133 134
ENDBRANCH 109 133
ENDBRANCH 104 105
ENDBRANCH  96 104
BRANCH  97 136
HETATM  136  C   UNL     1     -22.013  -3.295 -15.027  1.00  0.00     0.198 C 
BRANCH 136 137
HETATM  137  O   UNL     1     -22.201  -4.504 -15.772  1.00  0.00    -0.398 OA
HETATM  138  H   UNL     1     -22.832  -5.067 -15.299  1.00  0.00     0.209 HD
ENDBRANCH 136 137
ENDBRANCH  97 136
ENDBRANCH  92  93
ENDBRANCH  84  92
BRANCH  85 139
HETATM  139  C   UNL     1     -19.065  -4.906  -8.007  1.00  0.00     0.198 C 
BRANCH 139 140
HETATM  140  O   UNL     1     -18.018  -4.165  -7.321  1.00  0.00    -0.398 OA
HETATM  141  H   UNL     1     -18.213  -4.206  -6.367  1.00  0.00     0.209 HD
ENDBRANCH 139 140
ENDBRANCH  85 139
ENDBRANCH  80  81
ENDBRANCH   4  80
TORSDOF 55
BEGIN_RES ARG D 557
REMARK  4 active torsions:
REMARK  status: ('A' for Active; 'I' for Inactive)
REMARK    1  A    between atoms: CA   and  CB  
REMARK    2  A    between atoms: CB   and  CG  
REMARK    3  A    between atoms: CG   and  CD  
REMARK    4  A    between atoms: CD   and  NE  
REMARK       I    between atoms: NE   and  CZ  
REMARK       I    between atoms: CZ   and  NH1 
REMARK       I    between atoms: CZ   and  NH2 
ROOT
ATOM      1  CA  ARG D 557     -26.217   2.705 -17.014  1.00 35.49     0.159 C 
ENDROOT
BRANCH   1   2
ATOM      2  CB  ARG D 557     -26.789   1.319 -17.183  1.00 35.49     0.034 C 
BRANCH   2   3
ATOM      3  CG  ARG D 557     -27.063   0.563 -15.955  1.00 35.49     0.027 C 
BRANCH   3   4
ATOM      4  CD  ARG D 557     -26.177  -0.615 -15.808  1.00 35.49     0.116 C 
BRANCH   4   5
ATOM      5  NE  ARG D 557     -24.952  -0.290 -15.127  1.00 35.49    -0.212 N 
ATOM      6  CZ  ARG D 557     -23.826   0.070 -15.702  1.00 35.49     0.666 C 
ATOM      7  NH1 ARG D 557     -23.696   0.160 -17.013  1.00 35.49    -0.235 N 
ATOM      8  NH2 ARG D 557     -22.818   0.349 -14.927  1.00 35.49    -0.235 N 
ATOM      9  HH  ARG D 557     -24.347  -0.017 -17.542  1.00 35.49     0.174 HD
ATOM     10  HH  ARG D 557     -22.939   0.403 -17.331  1.00 35.49     0.174 HD
ATOM     11  HH  ARG D 557     -22.934   0.289 -14.084  1.00 35.49     0.174 HD
ATOM     12  HH  ARG D 557     -22.077   0.588 -15.261  1.00 35.49     0.174 HD
ATOM     13  HE  ARG D 557     -24.924  -0.392 -14.283  1.00 35.49     0.178 HD
ENDBRANCH   4   5
ENDBRANCH   3   4
ENDBRANCH   2   3
ENDBRANCH   1   2
END_RES ARG D 557
BEGIN_RES GLU D 570
REMARK  3 active torsions:
REMARK  status: ('A' for Active; 'I' for Inactive)
REMARK    5  A    between atoms: CA   and  CB  
REMARK    6  A    between atoms: CB   and  CG  
REMARK    7  A    between atoms: CG   and  CD  
ROOT
ATOM     14  CA  GLU D 570     -18.033  -6.348 -13.375  1.00 32.92     0.160 C 
ENDROOT
BRANCH  14  15
ATOM     15  CB  GLU D 570     -19.500  -6.345 -13.794  1.00 32.92     0.043 C 
BRANCH  15  16
ATOM     16  CG  GLU D 570     -19.799  -6.495 -15.242  1.00 32.92     0.100 C 
BRANCH  16  17
ATOM     17  CD  GLU D 570     -20.789  -7.600 -15.528  1.00 32.92     0.185 C 
ATOM     18  OE1 GLU D 570     -22.001  -7.393 -15.325  1.00 32.92    -0.647 OA
ATOM     19  OE2 GLU D 570     -20.346  -8.688 -15.943  1.00 32.92    -0.647 OA
ENDBRANCH  16  17
ENDBRANCH  15  16
ENDBRANCH  14  15
END_RES GLU D 570
ENDMDL
MODEL 9
REMARK VINA RESULT:      -2.0      4.032     17.612
REMARK WARNING: 32 MAX_TORS EXCEEDED!!!
REMARK  55 active torsions:
REMARK  status: ('A' for Active; 'I' for Inactive)
REMARK    1  A    between atoms: O_2  and  C_3 
REMARK       I    between atoms: C_3  and  N_5 
REMARK    2  A    between atoms: N_5  and  C_6 
REMARK    3  A    between atoms: C_7  and  O_104 
REMARK    4  A    between atoms: C_8  and  O_37 
REMARK    5  A    between atoms: C_9  and  C_35 
REMARK    6  A    between atoms: C_11  and  O_12 
REMARK    7  A    between atoms: O_12  and  C_13 
REMARK    8  A    between atoms: C_14  and  C_33 
REMARK    9  A    between atoms: C_16  and  O_21 
REMARK   10  A    between atoms: C_17  and  N_20 
REMARK   11  A    between atoms: C_18  and  O_19 
REMARK   12  A    between atoms: O_21  and  C_22 
REMARK   13  A    between atoms: C_23  and  C_31 
REMARK   14  A    between atoms: C_25  and  O_30 
REMARK   15  A    between atoms: C_26  and  N_29 
REMARK   16  A    between atoms: C_27  and  O_28 
REMARK   17  A    between atoms: C_31  and  O_32 
REMARK   18  A    between atoms: C_33  and  O_34 
REMARK   19  A    between atoms: C_35  and  O_36 
REMARK   20  A    between atoms: O_37  and  C_38 
REMARK   21  A    between atoms: C_39  and  N_103 
REMARK   22  A    between atoms: C_40  and  O_102 
REMARK   23  A    between atoms: C_41  and  O_46 
REMARK   24  A    between atoms: C_42  and  C_44 
REMARK   25  A    between atoms: C_44  and  O_45 
REMARK   26  A    between atoms: O_46  and  C_47 
REMARK   27  A    between atoms: C_48  and  N_101 
REMARK   28  A    between atoms: C_49  and  O_100 
REMARK   29  A    between atoms: C_50  and  O_55 
REMARK   30  A    between atoms: C_51  and  C_53 
REMARK   31  A    between atoms: C_53  and  O_54 
REMARK   32  A    between atoms: O_55  and  C_56 
REMARK   33  A    between atoms: C_57  and  N_99 
REMARK   34  A    between atoms: C_58  and  O_98 
REMARK   35  A    between atoms: C_59  and  O_64 
REMARK   36  A    between atoms: C_60  and  C_62 
REMARK   37  A    between atoms: C_62  and  O_63 
REMARK   38  A    between atoms: O_64  and  C_65 
REMARK   39  A    between atoms: C_66  and  N_97 
REMARK   40  A    between atoms: C_67  and  O_96 
REMARK   41  A    between atoms: C_68  and  O_73 
REMARK   42  A    between atoms: C_69  and  C_71 
REMARK   43  A    between atoms: C_71  and  O_72 
REMARK   44  A    between atoms: O_73  and  C_74 
REMARK   45  A    between atoms: C_75  and  N_95 
REMARK   46  A    between atoms: C_76  and  O_94 
REMARK   47  A    between atoms: C_77  and  O_82 
REMARK   48  A    between atoms: C_78  and  C_80 
REMARK   49  A    between atoms: C_80  and  O_81 
REMARK   50  A    between atoms: O_82  and  C_83 
REMARK   51  A    between atoms: C_84  and  N_93 
REMARK   52  A    between atoms: C_85  and  O_92 
REMARK   53  A    between atoms: C_86  and  O_91 
REMARK   54  A    between atoms: C_87  and  C_89 
REMARK   55  A    between atoms: C_89  and  O_90 
ROOT
HETATM    1  C   UNL     1     -22.115  -4.977 -10.274  1.00  0.00     0.296 C 
HETATM    2  C   UNL     1     -21.486  -4.609 -11.736  1.00  0.00     0.303 C 
HETATM    3  C   UNL     1     -22.460  -3.764 -12.692  1.00  0.00     0.187 C 
HETATM    4  C   UNL     1     -23.963  -4.321 -12.773  1.00  0.00     0.186 C 
HETATM    5  C   UNL     1     -24.333  -4.612 -11.268  1.00  0.00     0.179 C 
HETATM    6  O   UNL     1     -23.423  -5.479 -10.557  1.00  0.00    -0.349 OA
ENDROOT
BRANCH   1   7
HETATM    7  O   UNL     1     -22.207  -3.944  -9.275  1.00  0.00    -0.348 OA
BRANCH   7   8
HETATM    8  C   UNL     1     -22.040  -4.191  -7.758  1.00  0.00     0.186 C 
HETATM    9  C   UNL     1     -20.670  -3.832  -7.061  1.00  0.00     0.187 C 
HETATM   10  C   UNL     1     -19.755  -5.050  -6.753  1.00  0.00     0.303 C 
HETATM   11  C   UNL     1     -20.307  -6.315  -6.048  1.00  0.00     0.296 C 
HETATM   12  O   UNL     1     -21.587  -6.572  -6.723  1.00  0.00    -0.349 OA
HETATM   13  C   UNL     1     -22.595  -5.563  -7.117  1.00  0.00     0.179 C 
BRANCH   9  14
HETATM   14  O   UNL     1     -20.946  -3.141  -5.830  1.00  0.00    -0.391 OA
HETATM   15  H   UNL     1     -21.872  -2.788  -5.817  1.00  0.00     0.210 HD
ENDBRANCH   9  14
BRANCH  10  16
HETATM   16  N   UNL     1     -18.543  -4.586  -6.092  1.00  0.00     0.090 N 
HETATM   17  H   UNL     1     -18.712  -4.581  -5.088  1.00  0.00     0.313 HD
HETATM   18  H   UNL     1     -18.493  -3.583  -6.289  1.00  0.00     0.313 HD
ENDBRANCH  10  16
BRANCH  11  19
HETATM   19  O   UNL     1     -20.219  -6.564  -4.419  1.00  0.00    -0.348 OA
BRANCH  19  20
HETATM   20  C   UNL     1     -19.742  -8.008  -3.830  1.00  0.00     0.186 C 
HETATM   21  C   UNL     1     -20.438  -8.629  -2.534  1.00  0.00     0.177 C 
HETATM   22  C   UNL     1     -19.902 -10.049  -2.013  1.00  0.00     0.173 C 
HETATM   23  C   UNL     1     -19.641 -11.167  -3.122  1.00  0.00     0.286 C 
HETATM   24  O   UNL     1     -18.930 -10.471  -4.185  1.00  0.00    -0.349 OA
HETATM   25  C   UNL     1     -19.580  -9.324  -4.849  1.00  0.00     0.180 C 
BRANCH  21  26
HETATM   26  O   UNL     1     -21.868  -8.735  -2.609  1.00  0.00    -0.391 OA
HETATM   27  H   UNL     1     -22.255  -8.076  -3.197  1.00  0.00     0.210 HD
ENDBRANCH  21  26
BRANCH  22  28
HETATM   28  N   UNL     1     -20.635 -10.546  -0.824  1.00  0.00    -0.325 N 
HETATM   29  C   UNL     1     -20.108 -11.351   0.153  1.00  0.00     0.360 C 
HETATM   30  O   UNL     1     -18.945 -11.743   0.146  1.00  0.00    -0.239 OA
HETATM   31  H   UNL     1     -21.536 -10.099  -0.619  1.00  0.00     0.165 HD
BRANCH  29  32
HETATM   32  O   UNL     1     -21.040 -11.652   1.093  1.00  0.00    -0.309 OA
HETATM   33  C   UNL     1     -21.743 -12.901   0.968  1.00  0.00     0.215 C 
ENDBRANCH  29  32
ENDBRANCH  22  28
BRANCH  23  34
HETATM   34  O   UNL     1     -20.760 -12.075  -3.579  1.00  0.00    -0.348 OA
BRANCH  34  35
HETATM   35  C   UNL     1     -20.451 -13.537  -3.664  1.00  0.00     0.186 C 
HETATM   36  C   UNL     1     -19.503 -13.987  -4.841  1.00  0.00     0.179 C 
HETATM   37  O   UNL     1     -18.076 -13.666  -4.770  1.00  0.00    -0.349 OA
HETATM   38  C   UNL     1     -17.334 -14.004  -3.589  1.00  0.00     0.296 C 
HETATM   39  C   UNL     1     -18.238 -14.248  -2.288  1.00  0.00     0.303 C 
HETATM   40  C   UNL     1     -19.843 -14.233  -2.415  1.00  0.00     0.187 C 
BRANCH  36  41
HETATM   41  C   UNL     1     -19.551 -15.514  -5.114  1.00  0.00     0.198 C 
BRANCH  41  42
HETATM   42  O   UNL     1     -18.974 -15.714  -6.403  1.00  0.00    -0.398 OA
HETATM   43  H   UNL     1     -18.045 -15.933  -6.220  1.00  0.00     0.209 HD
ENDBRANCH  41  42
ENDBRANCH  36  41
BRANCH  38  44
HETATM   44  O   UNL     1     -16.306 -15.039  -3.727  1.00  0.00    -0.348 OA
BRANCH  44  45
HETATM   45  C   UNL     1     -14.944 -14.691  -3.333  1.00  0.00     0.186 C 
HETATM   46  C   UNL     1     -13.819 -15.841  -3.569  1.00  0.00     0.179 C 
HETATM   47  O   UNL     1     -13.722 -16.475  -4.864  1.00  0.00    -0.349 OA
HETATM   48  C   UNL     1     -13.627 -15.511  -5.912  1.00  0.00     0.292 C 
HETATM   49  C   UNL     1     -14.001 -13.994  -5.631  1.00  0.00     0.303 C 
HETATM   50  C   UNL     1     -14.540 -13.446  -4.167  1.00  0.00     0.187 C 
BRANCH  46  51
HETATM   51  C   UNL     1     -12.457 -15.197  -3.189  1.00  0.00     0.198 C 
BRANCH  51  52
HETATM   52  O   UNL     1     -12.363 -14.749  -1.877  1.00  0.00    -0.398 OA
HETATM   53  H   UNL     1     -11.851 -13.916  -1.838  1.00  0.00     0.209 HD
ENDBRANCH  51  52
ENDBRANCH  46  51
BRANCH  48  54
HETATM   54  O   UNL     1     -12.485 -16.067  -6.780  1.00  0.00    -0.369 OA
HETATM   55  H   UNL     1     -11.677 -16.250  -6.267  1.00  0.00     0.212 HD
ENDBRANCH  48  54
BRANCH  49  56
HETATM   56  N   UNL     1     -13.222 -13.203  -6.547  1.00  0.00     0.090 NA
HETATM   57  H   UNL     1     -13.477 -13.319  -7.525  1.00  0.00     0.313 HD
HETATM   58  H   UNL     1     -13.327 -12.195  -6.286  1.00  0.00     0.313 HD
ENDBRANCH  49  56
BRANCH  50  59
HETATM   59  O   UNL     1     -13.893 -12.488  -3.318  1.00  0.00    -0.391 OA
HETATM   60  H   UNL     1     -13.843 -12.752  -2.388  1.00  0.00     0.210 HD
ENDBRANCH  50  59
ENDBRANCH  44  45
ENDBRANCH  38  44
BRANCH  39  61
HETATM   61  N   UNL     1     -17.662 -15.335  -1.400  1.00  0.00     0.090 N 
HETATM   62  H   UNL     1     -18.103 -15.261  -0.491  1.00  0.00     0.313 HD
HETATM   63  H   UNL     1     -17.962 -16.217  -1.802  1.00  0.00     0.313 HD
ENDBRANCH  39  61
BRANCH  40  64
HETATM   64  O   UNL     1     -20.393 -15.577  -2.500  1.00  0.00    -0.391 OA
HETATM   65  H   UNL     1     -20.757 -15.909  -1.664  1.00  0.00     0.210 HD
ENDBRANCH  40  64
ENDBRANCH  34  35
ENDBRANCH  23  34
BRANCH  25  66
HETATM   66  C   UNL     1     -20.789  -9.926  -5.624  1.00  0.00     0.198 C 
BRANCH  66  67
HETATM   67  O   UNL     1     -20.425 -11.059  -6.453  1.00  0.00    -0.398 OA
HETATM   68  H   UNL     1     -19.846 -10.708  -7.149  1.00  0.00     0.209 HD
ENDBRANCH  66  67
ENDBRANCH  25  66
ENDBRANCH  19  20
ENDBRANCH  11  19
BRANCH  13  69
HETATM   69  C   UNL     1     -23.519  -5.385  -5.865  1.00  0.00     0.198 C 
BRANCH  69  70
HETATM   70  O   UNL     1     -23.113  -6.315  -4.842  1.00  0.00    -0.398 OA
HETATM   71  H   UNL     1     -23.453  -7.182  -5.174  1.00  0.00     0.209 HD
ENDBRANCH  69  70
ENDBRANCH  13  69
ENDBRANCH   7   8
ENDBRANCH   1   7
BRANCH   2  72
HETATM   72  N   UNL     1     -20.080  -4.145 -11.639  1.00  0.00     0.090 N 
HETATM   73  H   UNL     1     -19.720  -4.028 -10.681  1.00  0.00     0.313 HD
HETATM   74  H   UNL     1     -19.887  -3.277 -12.141  1.00  0.00     0.313 HD
ENDBRANCH   2  72
BRANCH   3  75
HETATM   75  O   UNL     1     -21.924  -3.434 -14.004  1.00  0.00    -0.391 OA
HETATM   76  H   UNL     1     -21.494  -4.234 -14.356  1.00  0.00     0.210 HD
ENDBRANCH   3  75
BRANCH   5  77
HETATM   77  C   UNL     1     -24.644  -3.336 -10.495  1.00  0.00     0.198 C 
BRANCH  77  78
HETATM   78  O   UNL     1     -25.351  -3.757  -9.330  1.00  0.00    -0.398 OA
HETATM   79  H   UNL     1     -25.881  -4.534  -9.566  1.00  0.00     0.209 HD
ENDBRANCH  77  78
ENDBRANCH   5  77
BRANCH   4  80
HETATM   80  O   UNL     1     -24.325  -5.341 -13.853  1.00  0.00    -0.348 OA
BRANCH  80  81
HETATM   81  C   UNL     1     -24.529  -4.848 -15.269  1.00  0.00     0.296 C 
HETATM   82  C   UNL     1     -25.985  -4.276 -15.372  1.00  0.00     0.303 C 
HETATM   83  C   UNL     1     -27.144  -5.385 -15.943  1.00  0.00     0.187 C 
HETATM   84  C   UNL     1     -26.838  -6.471 -17.064  1.00  0.00     0.186 C 
HETATM   85  C   UNL     1     -25.238  -6.702 -16.933  1.00  0.00     0.179 C 
HETATM   86  O   UNL     1     -24.333  -5.578 -16.527  1.00  0.00    -0.349 OA
BRANCH  82  87
HETATM   87  N   UNL     1     -26.449  -3.654 -14.039  1.00  0.00     0.090 N 
HETATM   88  H   UNL     1     -25.647  -3.724 -13.405  1.00  0.00     0.313 HD
HETATM   89  H   UNL     1     -26.782  -2.685 -14.087  1.00  0.00     0.313 HD
ENDBRANCH  82  87
BRANCH  83  90
HETATM   90  O   UNL     1     -27.721  -6.182 -14.860  1.00  0.00    -0.391 OA
HETATM   91  H   UNL     1     -27.963  -5.508 -14.207  1.00  0.00     0.210 HD
ENDBRANCH  83  90
BRANCH  84  92
HETATM   92  O   UNL     1     -27.571  -6.056 -18.338  1.00  0.00    -0.348 OA
BRANCH  92  93
HETATM   93  C   UNL     1     -28.909  -5.306 -18.486  1.00  0.00     0.296 C 
HETATM   94  C   UNL     1     -29.070  -3.976 -17.575  1.00  0.00     0.303 C 
HETATM   95  C   UNL     1     -30.131  -3.885 -16.393  1.00  0.00     0.187 C 
HETATM   96  C   UNL     1     -31.422  -4.693 -16.507  1.00  0.00     0.186 C 
HETATM   97  C   UNL     1     -31.258  -5.875 -17.580  1.00  0.00     0.179 C 
HETATM   98  O   UNL     1     -30.222  -5.884 -18.642  1.00  0.00    -0.349 OA
BRANCH  94  99
HETATM   99  N   UNL     1     -27.808  -3.338 -17.162  1.00  0.00     0.090 NA
HETATM  100  H   UNL     1     -27.653  -3.595 -16.176  1.00  0.00     0.313 HD
HETATM  101  H   UNL     1     -27.045  -3.777 -17.680  1.00  0.00     0.313 HD
ENDBRANCH  94  99
BRANCH  95 102
HETATM  102  O   UNL     1     -29.614  -4.218 -15.092  1.00  0.00    -0.391 OA
HETATM  103  H   UNL     1     -28.660  -3.978 -15.111  1.00  0.00     0.210 HD
ENDBRANCH  95 102
BRANCH  96 104
HETATM  104  O   UNL     1     -32.553  -3.886 -15.955  1.00  0.00    -0.348 OA
BRANCH 104 105
HETATM  105  C   UNL     1     -33.941  -4.162 -15.710  1.00  0.00     0.296 C 
HETATM  106  C   UNL     1     -34.937  -2.915 -16.025  1.00  0.00     0.303 C 
HETATM  107  C   UNL     1     -35.112  -1.903 -14.840  1.00  0.00     0.187 C 
HETATM  108  C   UNL     1     -35.051  -2.424 -13.386  1.00  0.00     0.186 C 
HETATM  109  C   UNL     1     -34.273  -3.758 -13.238  1.00  0.00     0.179 C 
HETATM  110  O   UNL     1     -34.292  -4.648 -14.391  1.00  0.00    -0.349 OA
BRANCH 106 111
HETATM  111  N   UNL     1     -34.817  -2.130 -17.337  1.00  0.00     0.090 N 
HETATM  112  H   UNL     1     -35.500  -1.374 -17.234  1.00  0.00     0.313 HD
HETATM  113  H   UNL     1     -35.276  -2.749 -18.028  1.00  0.00     0.313 HD
ENDBRANCH 106 111
BRANCH 107 114
HETATM  114  O   UNL     1     -34.333  -0.739 -15.083  1.00  0.00    -0.391 OA
HETATM  115  H   UNL     1     -34.825  -0.122 -15.667  1.00  0.00     0.210 HD
ENDBRANCH 107 114
BRANCH 108 116
HETATM  116  O   UNL     1     -36.444  -2.460 -13.034  1.00  0.00    -0.348 OA
BRANCH 116 117
HETATM  117  C   UNL     1     -37.017  -1.712 -11.950  1.00  0.00     0.296 C 
HETATM  118  C   UNL     1     -36.991  -0.153 -12.176  1.00  0.00     0.303 C 
HETATM  119  C   UNL     1     -35.766   0.545 -11.567  1.00  0.00     0.187 C 
HETATM  120  C   UNL     1     -35.381  -0.042 -10.190  1.00  0.00     0.180 C 
HETATM  121  C   UNL     1     -35.594  -1.563  -9.990  1.00  0.00     0.179 C 
HETATM  122  O   UNL     1     -36.726  -2.146 -10.639  1.00  0.00    -0.349 OA
BRANCH 118 123
HETATM  123  N   UNL     1     -37.024   0.233 -13.672  1.00  0.00     0.090 N 
HETATM  124  H   UNL     1     -37.841  -0.270 -14.013  1.00  0.00     0.313 HD
HETATM  125  H   UNL     1     -36.323  -0.454 -13.998  1.00  0.00     0.313 HD
ENDBRANCH 118 123
BRANCH 119 126
HETATM  126  O   UNL     1     -34.813   0.669 -12.660  1.00  0.00    -0.391 OA
HETATM  127  H   UNL     1     -33.981   0.261 -12.350  1.00  0.00     0.210 HD
ENDBRANCH 119 126
BRANCH 120 128
HETATM  128  O   UNL     1     -36.371   0.575  -9.307  1.00  0.00    -0.390 OA
HETATM  129  H   UNL     1     -36.452  -0.029  -8.527  1.00  0.00     0.210 HD
ENDBRANCH 120 128
BRANCH 121 130
HETATM  130  C   UNL     1     -34.335  -2.404 -10.163  1.00  0.00     0.198 C 
BRANCH 130 131
HETATM  131  O   UNL     1     -33.271  -1.506 -10.380  1.00  0.00    -0.398 OA
HETATM  132  H   UNL     1     -33.125  -1.014  -9.548  1.00  0.00     0.209 HD
ENDBRANCH 130 131
ENDBRANCH 121 130
ENDBRANCH 116 117
ENDBRANCH 108 116
BRANCH 109 133
HETATM  133  C   UNL     1     -32.805  -3.534 -12.792  1.00  0.00     0.198 C 
BRANCH 133 134
HETATM  134  O   UNL     1     -32.063  -4.739 -12.959  1.00  0.00    -0.398 OA
HETATM  135  H   UNL     1     -32.626  -5.460 -12.631  1.00  0.00     0.209 HD
ENDBRANCH 133 134
ENDBRANCH 109 133
ENDBRANCH 104 105
ENDBRANCH  96 104
BRANCH  97 136
HETATM  136  C   UNL     1     -30.999  -7.250 -16.893  1.00  0.00     0.198 C 
BRANCH 136 137
HETATM  137  O   UNL     1     -30.293  -8.094 -17.809  1.00  0.00    -0.398 OA
HETATM  138  H   UNL     1     -30.092  -7.585 -18.610  1.00  0.00     0.209 HD
ENDBRANCH 136 137
ENDBRANCH  97 136
ENDBRANCH  92  93
ENDBRANCH  84  92
BRANCH  85 139
HETATM  139  C   UNL     1     -24.866  -7.843 -15.935  1.00  0.00     0.198 C 
BRANCH 139 140
HETATM  140  O   UNL     1     -23.705  -8.580 -16.408  1.00  0.00    -0.398 OA
HETATM  141  H   UNL     1     -24.018  -9.210 -17.083  1.00  0.00     0.209 HD
ENDBRANCH 139 140
ENDBRANCH  85 139
ENDBRANCH  80  81
ENDBRANCH   4  80
TORSDOF 55
BEGIN_RES ARG D 557
REMARK  4 active torsions:
REMARK  status: ('A' for Active; 'I' for Inactive)
REMARK    1  A    between atoms: CA   and  CB  
REMARK    2  A    between atoms: CB   and  CG  
REMARK    3  A    between atoms: CG   and  CD  
REMARK    4  A    between atoms: CD   and  NE  
REMARK       I    between atoms: NE   and  CZ  
REMARK       I    between atoms: CZ   and  NH1 
REMARK       I    between atoms: CZ   and  NH2 
ROOT
ATOM      1  CA  ARG D 557     -26.217   2.705 -17.014  1.00 35.49     0.159 C 
ENDROOT
BRANCH   1   2
ATOM      2  CB  ARG D 557     -26.789   1.319 -17.183  1.00 35.49     0.034 C 
BRANCH   2   3
ATOM      3  CG  ARG D 557     -25.834   0.239 -17.458  1.00 35.49     0.027 C 
BRANCH   3   4
ATOM      4  CD  ARG D 557     -24.552   0.423 -16.739  1.00 35.49     0.116 C 
BRANCH   4   5
ATOM      5  NE  ARG D 557     -24.607  -0.086 -15.394  1.00 35.49    -0.212 N 
ATOM      6  CZ  ARG D 557     -23.798  -0.986 -14.879  1.00 35.49     0.666 C 
ATOM      7  NH1 ARG D 557     -22.825  -1.545 -15.574  1.00 35.49    -0.235 N 
ATOM      8  NH2 ARG D 557     -23.981  -1.315 -13.633  1.00 35.49    -0.235 N 
ATOM      9  HH  ARG D 557     -22.685  -1.341 -16.395  1.00 35.49     0.174 HD
ATOM     10  HH  ARG D 557     -22.327  -2.123 -15.185  1.00 35.49     0.174 HD
ATOM     11  HH  ARG D 557     -24.613  -0.932 -13.207  1.00 35.49     0.174 HD
ATOM     12  HH  ARG D 557     -23.477  -1.888 -13.265  1.00 35.49     0.174 HD
ATOM     13  HE  ARG D 557     -25.249   0.166 -14.897  1.00 35.49     0.178 HD
ENDBRANCH   4   5
ENDBRANCH   3   4
ENDBRANCH   2   3
ENDBRANCH   1   2
END_RES ARG D 557
BEGIN_RES GLU D 570
REMARK  3 active torsions:
REMARK  status: ('A' for Active; 'I' for Inactive)
REMARK    5  A    between atoms: CA   and  CB  
REMARK    6  A    between atoms: CB   and  CG  
REMARK    7  A    between atoms: CG   and  CD  
ROOT
ATOM     14  CA  GLU D 570     -18.033  -6.348 -13.375  1.00 32.92     0.160 C 
ENDROOT
BRANCH  14  15
ATOM     15  CB  GLU D 570     -19.500  -6.345 -13.794  1.00 32.92     0.043 C 
BRANCH  15  16
ATOM     16  CG  GLU D 570     -19.805  -6.045 -15.217  1.00 32.92     0.100 C 
BRANCH  16  17
ATOM     17  CD  GLU D 570     -20.703  -7.078 -15.857  1.00 32.92     0.185 C 
ATOM     18  OE1 GLU D 570     -21.304  -6.788 -16.909  1.00 32.92    -0.647 OA
ATOM     19  OE2 GLU D 570     -20.819  -8.183 -15.292  1.00 32.92    -0.647 OA
ENDBRANCH  16  17
ENDBRANCH  15  16
ENDBRANCH  14  15
END_RES GLU D 570
ENDMDL
