MODEL 1
REMARK VINA RESULT:      -7.4      0.000      0.000
REMARK  31 active torsions:
REMARK  status: ('A' for Active; 'I' for Inactive)
REMARK    1  A    between atoms: C_2  and  C_3 
REMARK    2  A    between atoms: C_3  and  C_4 
REMARK    3  A    between atoms: C_4  and  C_5 
REMARK    4  A    between atoms: C_5  and  C_6 
REMARK    5  A    between atoms: C_6  and  C_7 
REMARK    6  A    between atoms: C_10  and  C_34 
REMARK    7  A    between atoms: C_11  and  C_19 
REMARK    8  A    between atoms: C_12  and  C_13 
REMARK    9  A    between atoms: C_13  and  C_14 
REMARK   10  A    between atoms: C_14  and  C_15 
REMARK   11  A    between atoms: C_15  and  C_16 
REMARK   12  A    between atoms: C_16  and  C_17 
REMARK   13  A    between atoms: C_20  and  C_21 
REMARK   14  A    between atoms: C_21  and  C_22 
REMARK   15  A    between atoms: C_22  and  C_23 
REMARK   16  A    between atoms: C_23  and  C_24 
REMARK   17  A    between atoms: C_24  and  C_25 
REMARK   18  A    between atoms: C_25  and  C_26 
REMARK   19  A    between atoms: C_26  and  C_27 
REMARK   20  A    between atoms: C_27  and  C_28 
REMARK   21  A    between atoms: C_28  and  O_30 
REMARK   22  A    between atoms: O_30  and  C_31 
REMARK   23  A    between atoms: C_34  and  C_35 
REMARK   24  A    between atoms: C_35  and  C_36 
REMARK   25  A    between atoms: C_36  and  C_37 
REMARK   26  A    between atoms: C_37  and  C_38 
REMARK   27  A    between atoms: C_38  and  C_39 
REMARK   28  A    between atoms: C_39  and  C_40 
REMARK   29  A    between atoms: C_40  and  C_41 
REMARK   30  A    between atoms: C_41  and  O_43 
REMARK   31  A    between atoms: O_43  and  C_44 
ROOT
HETATM    1  C   UNL     1     -20.860 -10.698  -5.407  1.00  0.00     0.012 C 
HETATM    2  C   UNL     1     -21.667 -10.744  -4.128  1.00  0.00    -0.025 C 
HETATM    3  C   UNL     1     -21.380 -10.023  -3.035  1.00  0.00    -0.025 C 
HETATM    4  C   UNL     1     -20.235  -9.035  -2.943  1.00  0.00     0.016 C 
HETATM    5  C   UNL     1     -19.659  -8.700  -4.352  1.00  0.00     0.020 C 
HETATM    6  C   UNL     1     -19.456 -10.037  -5.159  1.00  0.00     0.001 C 
ENDROOT
BRANCH   5   7
HETATM    7  C   UNL     1     -20.533  -7.715  -5.102  1.00  0.00    -0.025 C 
HETATM    8  C   UNL     1     -20.097  -6.840  -6.017  1.00  0.00    -0.030 C 
BRANCH   8   9
HETATM    9  C   UNL     1     -21.021  -5.872  -6.690  1.00  0.00     0.027 C 
BRANCH   9  10
HETATM   10  C   UNL     1     -20.559  -4.438  -6.463  1.00  0.00     0.004 C 
BRANCH  10  11
HETATM   11  C   UNL     1     -20.603  -3.659  -7.773  1.00  0.00     0.000 C 
BRANCH  11  12
HETATM   12  C   UNL     1     -19.987  -4.470  -8.903  1.00  0.00     0.000 C 
BRANCH  12  13
HETATM   13  C   UNL     1     -20.889  -4.468 -10.134  1.00  0.00     0.000 C 
BRANCH  13  14
HETATM   14  C   UNL     1     -22.151  -3.669  -9.842  1.00  0.00     0.010 C 
BRANCH  14  15
HETATM   15  C   UNL     1     -23.416  -4.410 -10.259  1.00  0.00     0.111 C 
BRANCH  15  16
HETATM   16  C   UNL     1     -24.510  -3.414 -10.566  1.00  0.00     0.259 C 
HETATM   17  O   UNL     1     -25.559  -3.309  -9.948  1.00  0.00    -0.265 OA
BRANCH  16  18
HETATM   18  O   UNL     1     -24.153  -2.650 -11.636  1.00  0.00    -0.317 OA
BRANCH  18  19
HETATM   19  C   UNL     1     -24.188  -3.335 -12.900  1.00  0.00     0.123 C 
HETATM   20  C   UNL     1     -25.367  -2.826 -13.727  1.00  0.00     0.040 C 
HETATM   21  C   UNL     1     -22.869  -3.060 -13.612  1.00  0.00     0.040 C 
ENDBRANCH  18  19
ENDBRANCH  16  18
ENDBRANCH  15  16
ENDBRANCH  14  15
ENDBRANCH  13  14
ENDBRANCH  12  13
ENDBRANCH  11  12
ENDBRANCH  10  11
ENDBRANCH   9  10
ENDBRANCH   8   9
ENDBRANCH   5   7
BRANCH   4  22
HETATM   22  C   UNL     1     -20.589  -7.783  -2.123  1.00  0.00     0.009 C 
BRANCH  22  23
HETATM   23  C   UNL     1     -21.053  -8.165  -0.717  1.00  0.00     0.001 C 
BRANCH  23  24
HETATM   24  C   UNL     1     -22.319  -7.426  -0.321  1.00  0.00     0.000 C 
BRANCH  24  25
HETATM   25  C   UNL     1     -23.303  -8.407   0.303  1.00  0.00     0.000 C 
BRANCH  25  26
HETATM   26  C   UNL     1     -22.846  -9.842   0.084  1.00  0.00     0.000 C 
BRANCH  26  27
HETATM   27  C   UNL     1     -24.052 -10.766   0.011  1.00  0.00     0.010 C 
BRANCH  27  28
HETATM   28  C   UNL     1     -24.009 -11.654  -1.227  1.00  0.00     0.111 C 
BRANCH  28  29
HETATM   29  C   UNL     1     -23.830 -13.095  -0.818  1.00  0.00     0.259 C 
HETATM   30  O   UNL     1     -24.574 -14.009  -1.130  1.00  0.00    -0.265 OA
BRANCH  29  31
HETATM   31  O   UNL     1     -22.709 -13.224  -0.050  1.00  0.00    -0.317 OA
BRANCH  31  32
HETATM   32  C   UNL     1     -22.736 -14.333   0.865  1.00  0.00     0.123 C 
HETATM   33  C   UNL     1     -21.311 -14.801   1.147  1.00  0.00     0.040 C 
HETATM   34  C   UNL     1     -23.414 -13.855   2.141  1.00  0.00     0.040 C 
ENDBRANCH  31  32
ENDBRANCH  29  31
ENDBRANCH  28  29
ENDBRANCH  27  28
ENDBRANCH  26  27
ENDBRANCH  25  26
ENDBRANCH  24  25
ENDBRANCH  23  24
ENDBRANCH  22  23
ENDBRANCH   4  22
BRANCH   6  35
HETATM   35  C   UNL     1     -18.403 -10.890  -4.380  1.00  0.00     0.006 C 
BRANCH  35  36
HETATM   36  C   UNL     1     -16.951 -10.423  -4.332  1.00  0.00     0.000 C 
BRANCH  36  37
HETATM   37  C   UNL     1     -16.212 -10.521  -5.657  1.00  0.00     0.000 C 
BRANCH  37  38
HETATM   38  C   UNL     1     -14.988 -11.419  -5.535  1.00  0.00    -0.000 C 
BRANCH  38  39
HETATM   39  C   UNL     1     -14.719 -11.802  -4.084  1.00  0.00    -0.005 C 
HETATM   40  C   UNL     1     -13.540 -12.751  -4.004  1.00  0.00     0.005 C 
ENDBRANCH  38  39
ENDBRANCH  37  38
ENDBRANCH  36  37
ENDBRANCH  35  36
ENDBRANCH   6  35
BRANCH   1  41
HETATM   41  C   UNL     1     -20.835 -12.059  -6.122  1.00  0.00     0.009 C 
BRANCH  41  42
HETATM   42  C   UNL     1     -19.843 -12.213  -7.280  1.00  0.00     0.001 C 
BRANCH  42  43
HETATM   43  C   UNL     1     -19.245 -13.602  -7.522  1.00  0.00     0.000 C 
BRANCH  43  44
HETATM   44  C   UNL     1     -17.927 -13.682  -6.743  1.00  0.00    -0.000 C 
BRANCH  44  45
HETATM   45  C   UNL     1     -18.035 -14.413  -5.411  1.00  0.00    -0.005 C 
HETATM   46  C   UNL     1     -16.649 -14.800  -4.909  1.00  0.00     0.005 C 
ENDBRANCH  44  45
ENDBRANCH  43  44
ENDBRANCH  42  43
ENDBRANCH  41  42
ENDBRANCH   1  41
TORSDOF 31
BEGIN_RES ARG D 557
REMARK  4 active torsions:
REMARK  status: ('A' for Active; 'I' for Inactive)
REMARK    1  A    between atoms: CA   and  CB  
REMARK    2  A    between atoms: CB   and  CG  
REMARK    3  A    between atoms: CG   and  CD  
REMARK    4  A    between atoms: CD   and  NE  
REMARK       I    between atoms: NE   and  CZ  
REMARK       I    between atoms: CZ   and  NH1 
REMARK       I    between atoms: CZ   and  NH2 
ROOT
ATOM      1  CA  ARG D 557     -26.217   2.705 -17.014  1.00 35.49     0.159 C 
ENDROOT
BRANCH   1   2
ATOM      2  CB  ARG D 557     -26.789   1.319 -17.183  1.00 35.49     0.034 C 
BRANCH   2   3
ATOM      3  CG  ARG D 557     -28.232   1.226 -17.437  1.00 35.49     0.027 C 
BRANCH   3   4
ATOM      4  CD  ARG D 557     -28.912   0.302 -16.501  1.00 35.49     0.116 C 
BRANCH   4   5
ATOM      5  NE  ARG D 557     -29.321  -0.918 -17.144  1.00 35.49    -0.212 N 
ATOM      6  CZ  ARG D 557     -28.708  -2.077 -17.054  1.00 35.49     0.666 C 
ATOM      7  NH1 ARG D 557     -27.604  -2.242 -16.349  1.00 35.49    -0.235 N 
ATOM      8  NH2 ARG D 557     -29.233  -3.085 -17.689  1.00 35.49    -0.235 N 
ATOM      9  HH  ARG D 557     -27.242  -1.593 -15.922  1.00 35.49     0.174 HD
ATOM     10  HH  ARG D 557     -27.249  -3.022 -16.325  1.00 35.49     0.174 HD
ATOM     11  HH  ARG D 557     -29.950  -2.950 -18.130  1.00 35.49     0.174 HD
ATOM     12  HH  ARG D 557     -28.868  -3.849 -17.651  1.00 35.49     0.174 HD
ATOM     13  HE  ARG D 557     -29.983  -0.886 -17.677  1.00 35.49     0.178 HD
ENDBRANCH   4   5
ENDBRANCH   3   4
ENDBRANCH   2   3
ENDBRANCH   1   2
END_RES ARG D 557
BEGIN_RES GLU D 570
REMARK  3 active torsions:
REMARK  status: ('A' for Active; 'I' for Inactive)
REMARK    5  A    between atoms: CA   and  CB  
REMARK    6  A    between atoms: CB   and  CG  
REMARK    7  A    between atoms: CG   and  CD  
ROOT
ATOM     14  CA  GLU D 570     -18.033  -6.348 -13.375  1.00 32.92     0.160 C 
ENDROOT
BRANCH  14  15
ATOM     15  CB  GLU D 570     -19.500  -6.345 -13.794  1.00 32.92     0.043 C 
BRANCH  15  16
ATOM     16  CG  GLU D 570     -20.116  -7.652 -14.138  1.00 32.92     0.100 C 
BRANCH  16  17
ATOM     17  CD  GLU D 570     -20.725  -7.672 -15.521  1.00 32.92     0.185 C 
ATOM     18  OE1 GLU D 570     -20.698  -8.729 -16.179  1.00 32.92    -0.647 OA
ATOM     19  OE2 GLU D 570     -21.219  -6.613 -15.957  1.00 32.92    -0.647 OA
ENDBRANCH  16  17
ENDBRANCH  15  16
ENDBRANCH  14  15
END_RES GLU D 570
ENDMDL
MODEL 2
REMARK VINA RESULT:      -7.4      2.022      2.583
REMARK  31 active torsions:
REMARK  status: ('A' for Active; 'I' for Inactive)
REMARK    1  A    between atoms: C_2  and  C_3 
REMARK    2  A    between atoms: C_3  and  C_4 
REMARK    3  A    between atoms: C_4  and  C_5 
REMARK    4  A    between atoms: C_5  and  C_6 
REMARK    5  A    between atoms: C_6  and  C_7 
REMARK    6  A    between atoms: C_10  and  C_34 
REMARK    7  A    between atoms: C_11  and  C_19 
REMARK    8  A    between atoms: C_12  and  C_13 
REMARK    9  A    between atoms: C_13  and  C_14 
REMARK   10  A    between atoms: C_14  and  C_15 
REMARK   11  A    between atoms: C_15  and  C_16 
REMARK   12  A    between atoms: C_16  and  C_17 
REMARK   13  A    between atoms: C_20  and  C_21 
REMARK   14  A    between atoms: C_21  and  C_22 
REMARK   15  A    between atoms: C_22  and  C_23 
REMARK   16  A    between atoms: C_23  and  C_24 
REMARK   17  A    between atoms: C_24  and  C_25 
REMARK   18  A    between atoms: C_25  and  C_26 
REMARK   19  A    between atoms: C_26  and  C_27 
REMARK   20  A    between atoms: C_27  and  C_28 
REMARK   21  A    between atoms: C_28  and  O_30 
REMARK   22  A    between atoms: O_30  and  C_31 
REMARK   23  A    between atoms: C_34  and  C_35 
REMARK   24  A    between atoms: C_35  and  C_36 
REMARK   25  A    between atoms: C_36  and  C_37 
REMARK   26  A    between atoms: C_37  and  C_38 
REMARK   27  A    between atoms: C_38  and  C_39 
REMARK   28  A    between atoms: C_39  and  C_40 
REMARK   29  A    between atoms: C_40  and  C_41 
REMARK   30  A    between atoms: C_41  and  O_43 
REMARK   31  A    between atoms: O_43  and  C_44 
ROOT
HETATM    1  C   UNL     1     -19.782 -10.153  -5.473  1.00  0.00     0.012 C 
HETATM    2  C   UNL     1     -21.183 -10.364  -4.943  1.00  0.00    -0.025 C 
HETATM    3  C   UNL     1     -21.813  -9.505  -4.128  1.00  0.00    -0.025 C 
HETATM    4  C   UNL     1     -21.224  -8.191  -3.657  1.00  0.00     0.016 C 
HETATM    5  C   UNL     1     -19.974  -7.795  -4.499  1.00  0.00     0.020 C 
HETATM    6  C   UNL     1     -19.031  -9.048  -4.645  1.00  0.00     0.001 C 
ENDROOT
BRANCH   5   7
HETATM    7  C   UNL     1     -20.356  -7.216  -5.846  1.00  0.00    -0.025 C 
HETATM    8  C   UNL     1     -19.981  -6.014  -6.302  1.00  0.00    -0.030 C 
BRANCH   8   9
HETATM    9  C   UNL     1     -20.432  -5.496  -7.633  1.00  0.00     0.027 C 
BRANCH   9  10
HETATM   10  C   UNL     1     -21.678  -4.635  -7.483  1.00  0.00     0.004 C 
BRANCH  10  11
HETATM   11  C   UNL     1     -22.068  -4.036  -8.831  1.00  0.00     0.000 C 
BRANCH  11  12
HETATM   12  C   UNL     1     -20.896  -4.081  -9.799  1.00  0.00     0.000 C 
BRANCH  12  13
HETATM   13  C   UNL     1     -21.275  -3.477 -11.148  1.00  0.00     0.000 C 
BRANCH  13  14
HETATM   14  C   UNL     1     -21.853  -4.558 -12.049  1.00  0.00     0.010 C 
BRANCH  14  15
HETATM   15  C   UNL     1     -23.338  -4.354 -12.323  1.00  0.00     0.111 C 
BRANCH  15  16
HETATM   16  C   UNL     1     -23.700  -4.979 -13.649  1.00  0.00     0.259 C 
HETATM   17  O   UNL     1     -23.817  -6.179 -13.852  1.00  0.00    -0.265 OA
BRANCH  16  18
HETATM   18  O   UNL     1     -23.879  -4.007 -14.587  1.00  0.00    -0.317 OA
BRANCH  18  19
HETATM   19  C   UNL     1     -24.442  -2.784 -14.083  1.00  0.00     0.123 C 
HETATM   20  C   UNL     1     -23.774  -1.592 -14.766  1.00  0.00     0.040 C 
HETATM   21  C   UNL     1     -25.937  -2.807 -14.375  1.00  0.00     0.040 C 
ENDBRANCH  18  19
ENDBRANCH  16  18
ENDBRANCH  15  16
ENDBRANCH  14  15
ENDBRANCH  13  14
ENDBRANCH  12  13
ENDBRANCH  11  12
ENDBRANCH  10  11
ENDBRANCH   9  10
ENDBRANCH   8   9
ENDBRANCH   5   7
BRANCH   4  22
HETATM   22  C   UNL     1     -22.269  -7.066  -3.566  1.00  0.00     0.009 C 
BRANCH  22  23
HETATM   23  C   UNL     1     -22.010  -6.178  -2.348  1.00  0.00     0.001 C 
BRANCH  23  24
HETATM   24  C   UNL     1     -21.577  -6.989  -1.140  1.00  0.00     0.000 C 
BRANCH  24  25
HETATM   25  C   UNL     1     -22.811  -7.473  -0.389  1.00  0.00     0.000 C 
BRANCH  25  26
HETATM   26  C   UNL     1     -22.555  -8.829   0.254  1.00  0.00     0.000 C 
BRANCH  26  27
HETATM   27  C   UNL     1     -21.152  -9.309  -0.085  1.00  0.00     0.010 C 
BRANCH  27  28
HETATM   28  C   UNL     1     -21.175 -10.646  -0.815  1.00  0.00     0.111 C 
BRANCH  28  29
HETATM   29  C   UNL     1     -20.405 -11.675  -0.025  1.00  0.00     0.259 C 
HETATM   30  O   UNL     1     -20.888 -12.419   0.813  1.00  0.00    -0.265 OA
BRANCH  29  31
HETATM   31  O   UNL     1     -19.090 -11.652  -0.388  1.00  0.00    -0.317 OA
BRANCH  31  32
HETATM   32  C   UNL     1     -18.322 -12.775   0.078  1.00  0.00     0.123 C 
HETATM   33  C   UNL     1     -18.087 -13.749  -1.073  1.00  0.00     0.040 C 
HETATM   34  C   UNL     1     -17.002 -12.236   0.611  1.00  0.00     0.040 C 
ENDBRANCH  31  32
ENDBRANCH  29  31
ENDBRANCH  28  29
ENDBRANCH  27  28
ENDBRANCH  26  27
ENDBRANCH  25  26
ENDBRANCH  24  25
ENDBRANCH  23  24
ENDBRANCH  22  23
ENDBRANCH   4  22
BRANCH   6  35
HETATM   35  C   UNL     1     -18.561  -9.443  -3.208  1.00  0.00     0.006 C 
BRANCH  35  36
HETATM   36  C   UNL     1     -17.066  -9.545  -2.914  1.00  0.00     0.000 C 
BRANCH  36  37
HETATM   37  C   UNL     1     -16.524 -10.965  -2.886  1.00  0.00     0.000 C 
BRANCH  37  38
HETATM   38  C   UNL     1     -15.300 -11.099  -3.782  1.00  0.00    -0.000 C 
BRANCH  38  39
HETATM   39  C   UNL     1     -15.532 -10.460  -5.145  1.00  0.00    -0.005 C 
HETATM   40  C   UNL     1     -15.186 -11.440  -6.249  1.00  0.00     0.005 C 
ENDBRANCH  38  39
ENDBRANCH  37  38
ENDBRANCH  36  37
ENDBRANCH  35  36
ENDBRANCH   6  35
BRANCH   1  41
HETATM   41  C   UNL     1     -19.026 -11.481  -5.646  1.00  0.00     0.009 C 
BRANCH  41  42
HETATM   42  C   UNL     1     -18.680 -11.898  -7.081  1.00  0.00     0.001 C 
BRANCH  42  43
HETATM   43  C   UNL     1     -19.233 -13.234  -7.583  1.00  0.00     0.000 C 
BRANCH  43  44
HETATM   44  C   UNL     1     -20.749 -13.077  -7.748  1.00  0.00    -0.000 C 
BRANCH  44  45
HETATM   45  C   UNL     1     -21.570 -13.883  -6.749  1.00  0.00    -0.005 C 
HETATM   46  C   UNL     1     -20.843 -15.174  -6.390  1.00  0.00     0.005 C 
ENDBRANCH  44  45
ENDBRANCH  43  44
ENDBRANCH  42  43
ENDBRANCH  41  42
ENDBRANCH   1  41
TORSDOF 31
BEGIN_RES ARG D 557
REMARK  4 active torsions:
REMARK  status: ('A' for Active; 'I' for Inactive)
REMARK    1  A    between atoms: CA   and  CB  
REMARK    2  A    between atoms: CB   and  CG  
REMARK    3  A    between atoms: CG   and  CD  
REMARK    4  A    between atoms: CD   and  NE  
REMARK       I    between atoms: NE   and  CZ  
REMARK       I    between atoms: CZ   and  NH1 
REMARK       I    between atoms: CZ   and  NH2 
ROOT
ATOM      1  CA  ARG D 557     -26.217   2.705 -17.014  1.00 35.49     0.159 C 
ENDROOT
BRANCH   1   2
ATOM      2  CB  ARG D 557     -26.789   1.319 -17.183  1.00 35.49     0.034 C 
BRANCH   2   3
ATOM      3  CG  ARG D 557     -28.098   1.065 -16.569  1.00 35.49     0.027 C 
BRANCH   3   4
ATOM      4  CD  ARG D 557     -28.851  -0.002 -17.266  1.00 35.49     0.116 C 
BRANCH   4   5
ATOM      5  NE  ARG D 557     -28.316  -1.310 -16.994  1.00 35.49    -0.212 N 
ATOM      6  CZ  ARG D 557     -28.959  -2.448 -17.134  1.00 35.49     0.666 C 
ATOM      7  NH1 ARG D 557     -30.214  -2.507 -17.541  1.00 35.49    -0.235 N 
ATOM      8  NH2 ARG D 557     -28.310  -3.542 -16.861  1.00 35.49    -0.235 N 
ATOM      9  HH  ARG D 557     -30.659  -1.800 -17.729  1.00 35.49     0.174 HD
ATOM     10  HH  ARG D 557     -30.581  -3.278 -17.617  1.00 35.49     0.174 HD
ATOM     11  HH  ARG D 557     -27.499  -3.473 -16.607  1.00 35.49     0.174 HD
ATOM     12  HH  ARG D 557     -28.691  -4.295 -16.943  1.00 35.49     0.174 HD
ATOM     13  HE  ARG D 557     -27.537  -1.361 -16.658  1.00 35.49     0.178 HD
ENDBRANCH   4   5
ENDBRANCH   3   4
ENDBRANCH   2   3
ENDBRANCH   1   2
END_RES ARG D 557
BEGIN_RES GLU D 570
REMARK  3 active torsions:
REMARK  status: ('A' for Active; 'I' for Inactive)
REMARK    5  A    between atoms: CA   and  CB  
REMARK    6  A    between atoms: CB   and  CG  
REMARK    7  A    between atoms: CG   and  CD  
ROOT
ATOM     14  CA  GLU D 570     -18.033  -6.348 -13.375  1.00 32.92     0.160 C 
ENDROOT
BRANCH  14  15
ATOM     15  CB  GLU D 570     -19.500  -6.345 -13.794  1.00 32.92     0.043 C 
BRANCH  15  16
ATOM     16  CG  GLU D 570     -19.854  -5.623 -15.044  1.00 32.92     0.100 C 
BRANCH  16  17
ATOM     17  CD  GLU D 570     -20.970  -6.289 -15.813  1.00 32.92     0.185 C 
ATOM     18  OE1 GLU D 570     -21.209  -7.495 -15.611  1.00 32.92    -0.647 OA
ATOM     19  OE2 GLU D 570     -21.602  -5.602 -16.640  1.00 32.92    -0.647 OA
ENDBRANCH  16  17
ENDBRANCH  15  16
ENDBRANCH  14  15
END_RES GLU D 570
ENDMDL
MODEL 3
REMARK VINA RESULT:      -7.3      1.939      5.090
REMARK  31 active torsions:
REMARK  status: ('A' for Active; 'I' for Inactive)
REMARK    1  A    between atoms: C_2  and  C_3 
REMARK    2  A    between atoms: C_3  and  C_4 
REMARK    3  A    between atoms: C_4  and  C_5 
REMARK    4  A    between atoms: C_5  and  C_6 
REMARK    5  A    between atoms: C_6  and  C_7 
REMARK    6  A    between atoms: C_10  and  C_34 
REMARK    7  A    between atoms: C_11  and  C_19 
REMARK    8  A    between atoms: C_12  and  C_13 
REMARK    9  A    between atoms: C_13  and  C_14 
REMARK   10  A    between atoms: C_14  and  C_15 
REMARK   11  A    between atoms: C_15  and  C_16 
REMARK   12  A    between atoms: C_16  and  C_17 
REMARK   13  A    between atoms: C_20  and  C_21 
REMARK   14  A    between atoms: C_21  and  C_22 
REMARK   15  A    between atoms: C_22  and  C_23 
REMARK   16  A    between atoms: C_23  and  C_24 
REMARK   17  A    between atoms: C_24  and  C_25 
REMARK   18  A    between atoms: C_25  and  C_26 
REMARK   19  A    between atoms: C_26  and  C_27 
REMARK   20  A    between atoms: C_27  and  C_28 
REMARK   21  A    between atoms: C_28  and  O_30 
REMARK   22  A    between atoms: O_30  and  C_31 
REMARK   23  A    between atoms: C_34  and  C_35 
REMARK   24  A    between atoms: C_35  and  C_36 
REMARK   25  A    between atoms: C_36  and  C_37 
REMARK   26  A    between atoms: C_37  and  C_38 
REMARK   27  A    between atoms: C_38  and  C_39 
REMARK   28  A    between atoms: C_39  and  C_40 
REMARK   29  A    between atoms: C_40  and  C_41 
REMARK   30  A    between atoms: C_41  and  O_43 
REMARK   31  A    between atoms: O_43  and  C_44 
ROOT
HETATM    1  C   UNL     1     -21.995 -10.400  -2.544  1.00  0.00     0.012 C 
HETATM    2  C   UNL     1     -20.603 -10.500  -1.963  1.00  0.00    -0.025 C 
HETATM    3  C   UNL     1     -19.482 -10.501  -2.699  1.00  0.00    -0.025 C 
HETATM    4  C   UNL     1     -19.454 -10.362  -4.208  1.00  0.00     0.016 C 
HETATM    5  C   UNL     1     -20.826  -9.871  -4.758  1.00  0.00     0.020 C 
HETATM    6  C   UNL     1     -21.981 -10.704  -4.086  1.00  0.00     0.001 C 
ENDROOT
BRANCH   5   7
HETATM    7  C   UNL     1     -21.017  -8.381  -4.560  1.00  0.00    -0.025 C 
HETATM    8  C   UNL     1     -21.667  -7.569  -5.403  1.00  0.00    -0.030 C 
BRANCH   8   9
HETATM    9  C   UNL     1     -21.781  -6.096  -5.154  1.00  0.00     0.027 C 
BRANCH   9  10
HETATM   10  C   UNL     1     -20.467  -5.393  -5.465  1.00  0.00     0.004 C 
BRANCH  10  11
HETATM   11  C   UNL     1     -20.681  -4.331  -6.539  1.00  0.00     0.000 C 
BRANCH  11  12
HETATM   12  C   UNL     1     -21.065  -4.975  -7.863  1.00  0.00     0.000 C 
BRANCH  12  13
HETATM   13  C   UNL     1     -20.680  -4.081  -9.039  1.00  0.00     0.000 C 
BRANCH  13  14
HETATM   14  C   UNL     1     -21.776  -4.124 -10.094  1.00  0.00     0.010 C 
BRANCH  14  15
HETATM   15  C   UNL     1     -23.172  -4.094  -9.483  1.00  0.00     0.111 C 
BRANCH  15  16
HETATM   16  C   UNL     1     -24.126  -3.406 -10.431  1.00  0.00     0.259 C 
HETATM   17  O   UNL     1     -25.309  -3.196 -10.207  1.00  0.00    -0.265 OA
BRANCH  16  18
HETATM   18  O   UNL     1     -23.473  -3.056 -11.573  1.00  0.00    -0.317 OA
BRANCH  18  19
HETATM   19  C   UNL     1     -24.127  -3.463 -12.788  1.00  0.00     0.123 C 
HETATM   20  C   UNL     1     -23.925  -2.397 -13.862  1.00  0.00     0.040 C 
HETATM   21  C   UNL     1     -23.517  -4.791 -13.220  1.00  0.00     0.040 C 
ENDBRANCH  18  19
ENDBRANCH  16  18
ENDBRANCH  15  16
ENDBRANCH  14  15
ENDBRANCH  13  14
ENDBRANCH  12  13
ENDBRANCH  11  12
ENDBRANCH  10  11
ENDBRANCH   9  10
ENDBRANCH   8   9
ENDBRANCH   5   7
BRANCH   4  22
HETATM   22  C   UNL     1     -18.268  -9.521  -4.709  1.00  0.00     0.009 C 
BRANCH  22  23
HETATM   23  C   UNL     1     -17.815  -9.987  -6.094  1.00  0.00     0.001 C 
BRANCH  23  24
HETATM   24  C   UNL     1     -16.401 -10.539  -6.068  1.00  0.00     0.000 C 
BRANCH  24  25
HETATM   25  C   UNL     1     -16.293 -11.602  -4.982  1.00  0.00     0.000 C 
BRANCH  25  26
HETATM   26  C   UNL     1     -15.014 -11.424  -4.177  1.00  0.00     0.000 C 
BRANCH  26  27
HETATM   27  C   UNL     1     -15.145 -12.119  -2.831  1.00  0.00     0.010 C 
BRANCH  27  28
HETATM   28  C   UNL     1     -15.976 -11.300  -1.851  1.00  0.00     0.111 C 
BRANCH  28  29
HETATM   29  C   UNL     1     -16.693 -12.219  -0.893  1.00  0.00     0.259 C 
HETATM   30  O   UNL     1     -17.003 -11.933   0.251  1.00  0.00    -0.265 OA
BRANCH  29  31
HETATM   31  O   UNL     1     -16.946 -13.415  -1.498  1.00  0.00    -0.317 OA
BRANCH  31  32
HETATM   32  C   UNL     1     -18.340 -13.693  -1.716  1.00  0.00     0.123 C 
HETATM   33  C   UNL     1     -18.569 -14.048  -3.182  1.00  0.00     0.040 C 
HETATM   34  C   UNL     1     -18.722 -14.854  -0.809  1.00  0.00     0.040 C 
ENDBRANCH  31  32
ENDBRANCH  29  31
ENDBRANCH  28  29
ENDBRANCH  27  28
ENDBRANCH  26  27
ENDBRANCH  25  26
ENDBRANCH  24  25
ENDBRANCH  23  24
ENDBRANCH  22  23
ENDBRANCH   4  22
BRANCH   6  35
HETATM   35  C   UNL     1     -21.780 -12.196  -4.507  1.00  0.00     0.006 C 
BRANCH  35  36
HETATM   36  C   UNL     1     -22.338 -12.676  -5.845  1.00  0.00     0.000 C 
BRANCH  36  37
HETATM   37  C   UNL     1     -21.426 -13.625  -6.605  1.00  0.00     0.000 C 
BRANCH  37  38
HETATM   38  C   UNL     1     -20.012 -13.069  -6.696  1.00  0.00    -0.000 C 
BRANCH  38  39
HETATM   39  C   UNL     1     -19.256 -13.655  -7.882  1.00  0.00    -0.005 C 
HETATM   40  C   UNL     1     -18.612 -12.547  -8.692  1.00  0.00     0.005 C 
ENDBRANCH  38  39
ENDBRANCH  37  38
ENDBRANCH  36  37
ENDBRANCH  35  36
ENDBRANCH   6  35
BRANCH   1  41
HETATM   41  C   UNL     1     -23.022 -11.194  -1.720  1.00  0.00     0.009 C 
BRANCH  41  42
HETATM   42  C   UNL     1     -23.704 -10.452  -0.565  1.00  0.00     0.001 C 
BRANCH  42  43
HETATM   43  C   UNL     1     -22.809  -9.688   0.414  1.00  0.00     0.000 C 
BRANCH  43  44
HETATM   44  C   UNL     1     -23.050  -8.191   0.192  1.00  0.00    -0.000 C 
BRANCH  44  45
HETATM   45  C   UNL     1     -21.857  -7.449  -0.398  1.00  0.00    -0.005 C 
HETATM   46  C   UNL     1     -22.313  -6.541  -1.534  1.00  0.00     0.005 C 
ENDBRANCH  44  45
ENDBRANCH  43  44
ENDBRANCH  42  43
ENDBRANCH  41  42
ENDBRANCH   1  41
TORSDOF 31
BEGIN_RES ARG D 557
REMARK  4 active torsions:
REMARK  status: ('A' for Active; 'I' for Inactive)
REMARK    1  A    between atoms: CA   and  CB  
REMARK    2  A    between atoms: CB   and  CG  
REMARK    3  A    between atoms: CG   and  CD  
REMARK    4  A    between atoms: CD   and  NE  
REMARK       I    between atoms: NE   and  CZ  
REMARK       I    between atoms: CZ   and  NH1 
REMARK       I    between atoms: CZ   and  NH2 
ROOT
ATOM      1  CA  ARG D 557     -26.217   2.705 -17.014  1.00 35.49     0.159 C 
ENDROOT
BRANCH   1   2
ATOM      2  CB  ARG D 557     -26.789   1.319 -17.183  1.00 35.49     0.034 C 
BRANCH   2   3
ATOM      3  CG  ARG D 557     -28.235   1.225 -17.418  1.00 35.49     0.027 C 
BRANCH   3   4
ATOM      4  CD  ARG D 557     -28.899   0.291 -16.480  1.00 35.49     0.116 C 
BRANCH   4   5
ATOM      5  NE  ARG D 557     -29.269  -0.945 -17.116  1.00 35.49    -0.212 N 
ATOM      6  CZ  ARG D 557     -28.626  -2.086 -17.010  1.00 35.49     0.666 C 
ATOM      7  NH1 ARG D 557     -27.526  -2.216 -16.291  1.00 35.49    -0.235 N 
ATOM      8  NH2 ARG D 557     -29.117  -3.113 -17.640  1.00 35.49    -0.235 N 
ATOM      9  HH  ARG D 557     -27.186  -1.554 -15.866  1.00 35.49     0.174 HD
ATOM     10  HH  ARG D 557     -27.151  -2.985 -16.256  1.00 35.49     0.174 HD
ATOM     11  HH  ARG D 557     -29.833  -3.002 -18.090  1.00 35.49     0.174 HD
ATOM     12  HH  ARG D 557     -28.732  -3.867 -17.592  1.00 35.49     0.174 HD
ATOM     13  HE  ARG D 557     -29.925  -0.936 -17.657  1.00 35.49     0.178 HD
ENDBRANCH   4   5
ENDBRANCH   3   4
ENDBRANCH   2   3
ENDBRANCH   1   2
END_RES ARG D 557
BEGIN_RES GLU D 570
REMARK  3 active torsions:
REMARK  status: ('A' for Active; 'I' for Inactive)
REMARK    5  A    between atoms: CA   and  CB  
REMARK    6  A    between atoms: CB   and  CG  
REMARK    7  A    between atoms: CG   and  CD  
ROOT
ATOM     14  CA  GLU D 570     -18.033  -6.348 -13.375  1.00 32.92     0.160 C 
ENDROOT
BRANCH  14  15
ATOM     15  CB  GLU D 570     -19.500  -6.345 -13.794  1.00 32.92     0.043 C 
BRANCH  15  16
ATOM     16  CG  GLU D 570     -19.808  -6.000 -15.206  1.00 32.92     0.100 C 
BRANCH  16  17
ATOM     17  CD  GLU D 570     -20.685  -7.025 -15.885  1.00 32.92     0.185 C 
ATOM     18  OE1 GLU D 570     -21.301  -6.704 -16.920  1.00 32.92    -0.647 OA
ATOM     19  OE2 GLU D 570     -20.771  -8.156 -15.368  1.00 32.92    -0.647 OA
ENDBRANCH  16  17
ENDBRANCH  15  16
ENDBRANCH  14  15
END_RES GLU D 570
ENDMDL
MODEL 4
REMARK VINA RESULT:      -7.2      1.784      3.271
REMARK  31 active torsions:
REMARK  status: ('A' for Active; 'I' for Inactive)
REMARK    1  A    between atoms: C_2  and  C_3 
REMARK    2  A    between atoms: C_3  and  C_4 
REMARK    3  A    between atoms: C_4  and  C_5 
REMARK    4  A    between atoms: C_5  and  C_6 
REMARK    5  A    between atoms: C_6  and  C_7 
REMARK    6  A    between atoms: C_10  and  C_34 
REMARK    7  A    between atoms: C_11  and  C_19 
REMARK    8  A    between atoms: C_12  and  C_13 
REMARK    9  A    between atoms: C_13  and  C_14 
REMARK   10  A    between atoms: C_14  and  C_15 
REMARK   11  A    between atoms: C_15  and  C_16 
REMARK   12  A    between atoms: C_16  and  C_17 
REMARK   13  A    between atoms: C_20  and  C_21 
REMARK   14  A    between atoms: C_21  and  C_22 
REMARK   15  A    between atoms: C_22  and  C_23 
REMARK   16  A    between atoms: C_23  and  C_24 
REMARK   17  A    between atoms: C_24  and  C_25 
REMARK   18  A    between atoms: C_25  and  C_26 
REMARK   19  A    between atoms: C_26  and  C_27 
REMARK   20  A    between atoms: C_27  and  C_28 
REMARK   21  A    between atoms: C_28  and  O_30 
REMARK   22  A    between atoms: O_30  and  C_31 
REMARK   23  A    between atoms: C_34  and  C_35 
REMARK   24  A    between atoms: C_35  and  C_36 
REMARK   25  A    between atoms: C_36  and  C_37 
REMARK   26  A    between atoms: C_37  and  C_38 
REMARK   27  A    between atoms: C_38  and  C_39 
REMARK   28  A    between atoms: C_39  and  C_40 
REMARK   29  A    between atoms: C_40  and  C_41 
REMARK   30  A    between atoms: C_41  and  O_43 
REMARK   31  A    between atoms: O_43  and  C_44 
ROOT
HETATM    1  C   UNL     1     -19.809 -11.653  -6.824  1.00  0.00     0.012 C 
HETATM    2  C   UNL     1     -21.152 -12.346  -6.758  1.00  0.00    -0.025 C 
HETATM    3  C   UNL     1     -21.906 -12.411  -5.651  1.00  0.00    -0.025 C 
HETATM    4  C   UNL     1     -21.537 -11.769  -4.329  1.00  0.00     0.016 C 
HETATM    5  C   UNL     1     -20.376 -10.744  -4.501  1.00  0.00     0.020 C 
HETATM    6  C   UNL     1     -19.242 -11.390  -5.382  1.00  0.00     0.001 C 
ENDROOT
BRANCH   5   7
HETATM    7  C   UNL     1     -20.860  -9.429  -5.079  1.00  0.00    -0.025 C 
HETATM    8  C   UNL     1     -20.808  -8.247  -4.453  1.00  0.00    -0.030 C 
BRANCH   8   9
HETATM    9  C   UNL     1     -21.342  -6.995  -5.078  1.00  0.00     0.027 C 
BRANCH   9  10
HETATM   10  C   UNL     1     -20.314  -6.381  -6.018  1.00  0.00     0.004 C 
BRANCH  10  11
HETATM   11  C   UNL     1     -20.263  -4.868  -5.824  1.00  0.00     0.000 C 
BRANCH  11  12
HETATM   12  C   UNL     1     -21.029  -4.157  -6.928  1.00  0.00     0.000 C 
BRANCH  12  13
HETATM   13  C   UNL     1     -20.480  -4.529  -8.303  1.00  0.00     0.000 C 
BRANCH  13  14
HETATM   14  C   UNL     1     -21.556  -4.319  -9.358  1.00  0.00     0.010 C 
BRANCH  14  15
HETATM   15  C   UNL     1     -22.921  -4.030  -8.745  1.00  0.00     0.111 C 
BRANCH  15  16
HETATM   16  C   UNL     1     -23.806  -3.360  -9.770  1.00  0.00     0.259 C 
HETATM   17  O   UNL     1     -24.945  -2.966  -9.565  1.00  0.00    -0.265 OA
BRANCH  16  18
HETATM   18  O   UNL     1     -23.146  -3.259 -10.957  1.00  0.00    -0.317 OA
BRANCH  18  19
HETATM   19  C   UNL     1     -23.911  -3.668 -12.105  1.00  0.00     0.123 C 
HETATM   20  C   UNL     1     -23.796  -2.610 -13.200  1.00  0.00     0.040 C 
HETATM   21  C   UNL     1     -23.353  -5.003 -12.581  1.00  0.00     0.040 C 
ENDBRANCH  18  19
ENDBRANCH  16  18
ENDBRANCH  15  16
ENDBRANCH  14  15
ENDBRANCH  13  14
ENDBRANCH  12  13
ENDBRANCH  11  12
ENDBRANCH  10  11
ENDBRANCH   9  10
ENDBRANCH   8   9
ENDBRANCH   5   7
BRANCH   4  22
HETATM   22  C   UNL     1     -22.752 -11.184  -3.589  1.00  0.00     0.009 C 
BRANCH  22  23
HETATM   23  C   UNL     1     -23.089 -12.017  -2.351  1.00  0.00     0.001 C 
BRANCH  23  24
HETATM   24  C   UNL     1     -23.903 -11.225  -1.344  1.00  0.00     0.000 C 
BRANCH  24  25
HETATM   25  C   UNL     1     -23.742 -11.847   0.037  1.00  0.00     0.000 C 
BRANCH  25  26
HETATM   26  C   UNL     1     -22.495 -12.716   0.096  1.00  0.00     0.000 C 
BRANCH  26  27
HETATM   27  C   UNL     1     -21.463 -12.085   1.018  1.00  0.00     0.010 C 
BRANCH  27  28
HETATM   28  C   UNL     1     -20.544 -11.130   0.266  1.00  0.00     0.111 C 
BRANCH  28  29
HETATM   29  C   UNL     1     -20.833  -9.708   0.678  1.00  0.00     0.259 C 
HETATM   30  O   UNL     1     -20.613  -9.241   1.783  1.00  0.00    -0.265 OA
BRANCH  29  31
HETATM   31  O   UNL     1     -21.375  -9.021  -0.369  1.00  0.00    -0.317 OA
BRANCH  31  32
HETATM   32  C   UNL     1     -22.023  -7.790  -0.005  1.00  0.00     0.123 C 
HETATM   33  C   UNL     1     -22.147  -6.893  -1.233  1.00  0.00     0.040 C 
HETATM   34  C   UNL     1     -23.395  -8.141   0.552  1.00  0.00     0.040 C 
ENDBRANCH  31  32
ENDBRANCH  29  31
ENDBRANCH  28  29
ENDBRANCH  27  28
ENDBRANCH  26  27
ENDBRANCH  25  26
ENDBRANCH  24  25
ENDBRANCH  23  24
ENDBRANCH  22  23
ENDBRANCH   4  22
BRANCH   6  35
HETATM   35  C   UNL     1     -18.701 -12.631  -4.602  1.00  0.00     0.006 C 
BRANCH  35  36
HETATM   36  C   UNL     1     -17.212 -12.716  -4.275  1.00  0.00     0.000 C 
BRANCH  36  37
HETATM   37  C   UNL     1     -16.423 -11.455  -4.588  1.00  0.00     0.000 C 
BRANCH  37  38
HETATM   38  C   UNL     1     -15.668 -10.964  -3.361  1.00  0.00    -0.000 C 
BRANCH  38  39
HETATM   39  C   UNL     1     -16.011  -9.515  -3.037  1.00  0.00    -0.005 C 
HETATM   40  C   UNL     1     -17.495  -9.378  -2.758  1.00  0.00     0.005 C 
ENDBRANCH  38  39
ENDBRANCH  37  38
ENDBRANCH  36  37
ENDBRANCH  35  36
ENDBRANCH   6  35
BRANCH   1  41
HETATM   41  C   UNL     1     -18.847 -12.355  -7.798  1.00  0.00     0.009 C 
BRANCH  41  42
HETATM   42  C   UNL     1     -19.382 -13.593  -8.526  1.00  0.00     0.001 C 
BRANCH  42  43
HETATM   43  C   UNL     1     -18.478 -14.243  -9.578  1.00  0.00     0.000 C 
BRANCH  43  44
HETATM   44  C   UNL     1     -18.079 -15.628  -9.056  1.00  0.00    -0.000 C 
BRANCH  44  45
HETATM   45  C   UNL     1     -18.320 -16.760 -10.047  1.00  0.00    -0.005 C 
HETATM   46  C   UNL     1     -18.082 -16.271 -11.471  1.00  0.00     0.005 C 
ENDBRANCH  44  45
ENDBRANCH  43  44
ENDBRANCH  42  43
ENDBRANCH  41  42
ENDBRANCH   1  41
TORSDOF 31
BEGIN_RES ARG D 557
REMARK  4 active torsions:
REMARK  status: ('A' for Active; 'I' for Inactive)
REMARK    1  A    between atoms: CA   and  CB  
REMARK    2  A    between atoms: CB   and  CG  
REMARK    3  A    between atoms: CG   and  CD  
REMARK    4  A    between atoms: CD   and  NE  
REMARK       I    between atoms: NE   and  CZ  
REMARK       I    between atoms: CZ   and  NH1 
REMARK       I    between atoms: CZ   and  NH2 
ROOT
ATOM      1  CA  ARG D 557     -26.217   2.705 -17.014  1.00 35.49     0.159 C 
ENDROOT
BRANCH   1   2
ATOM      2  CB  ARG D 557     -26.789   1.319 -17.183  1.00 35.49     0.034 C 
BRANCH   2   3
ATOM      3  CG  ARG D 557     -28.224   1.228 -17.479  1.00 35.49     0.027 C 
BRANCH   3   4
ATOM      4  CD  ARG D 557     -28.919   0.253 -16.609  1.00 35.49     0.116 C 
BRANCH   4   5
ATOM      5  NE  ARG D 557     -28.050  -0.814 -16.187  1.00 35.49    -0.212 N 
ATOM      6  CZ  ARG D 557     -28.130  -2.068 -16.571  1.00 35.49     0.666 C 
ATOM      7  NH1 ARG D 557     -29.061  -2.496 -17.403  1.00 35.49    -0.235 N 
ATOM      8  NH2 ARG D 557     -27.243  -2.897 -16.102  1.00 35.49    -0.235 N 
ATOM      9  HH  ARG D 557     -29.654  -1.968 -17.725  1.00 35.49     0.174 HD
ATOM     10  HH  ARG D 557     -29.063  -3.325 -17.620  1.00 35.49     0.174 HD
ATOM     11  HH  ARG D 557     -26.650  -2.591 -15.572  1.00 35.49     0.174 HD
ATOM     12  HH  ARG D 557     -27.261  -3.714 -16.330  1.00 35.49     0.174 HD
ATOM     13  HE  ARG D 557     -27.466  -0.641 -15.593  1.00 35.49     0.178 HD
ENDBRANCH   4   5
ENDBRANCH   3   4
ENDBRANCH   2   3
ENDBRANCH   1   2
END_RES ARG D 557
BEGIN_RES GLU D 570
REMARK  3 active torsions:
REMARK  status: ('A' for Active; 'I' for Inactive)
REMARK    5  A    between atoms: CA   and  CB  
REMARK    6  A    between atoms: CB   and  CG  
REMARK    7  A    between atoms: CG   and  CD  
ROOT
ATOM     14  CA  GLU D 570     -18.033  -6.348 -13.375  1.00 32.92     0.160 C 
ENDROOT
BRANCH  14  15
ATOM     15  CB  GLU D 570     -19.500  -6.345 -13.794  1.00 32.92     0.043 C 
BRANCH  15  16
ATOM     16  CG  GLU D 570     -19.796  -6.349 -15.250  1.00 32.92     0.100 C 
BRANCH  16  17
ATOM     17  CD  GLU D 570     -20.909  -7.300 -15.623  1.00 32.92     0.185 C 
ATOM     18  OE1 GLU D 570     -20.678  -8.524 -15.640  1.00 32.92    -0.647 OA
ATOM     19  OE2 GLU D 570     -22.019  -6.815 -15.917  1.00 32.92    -0.647 OA
ENDBRANCH  16  17
ENDBRANCH  15  16
ENDBRANCH  14  15
END_RES GLU D 570
ENDMDL
MODEL 5
REMARK VINA RESULT:      -7.2      2.560      5.821
REMARK  31 active torsions:
REMARK  status: ('A' for Active; 'I' for Inactive)
REMARK    1  A    between atoms: C_2  and  C_3 
REMARK    2  A    between atoms: C_3  and  C_4 
REMARK    3  A    between atoms: C_4  and  C_5 
REMARK    4  A    between atoms: C_5  and  C_6 
REMARK    5  A    between atoms: C_6  and  C_7 
REMARK    6  A    between atoms: C_10  and  C_34 
REMARK    7  A    between atoms: C_11  and  C_19 
REMARK    8  A    between atoms: C_12  and  C_13 
REMARK    9  A    between atoms: C_13  and  C_14 
REMARK   10  A    between atoms: C_14  and  C_15 
REMARK   11  A    between atoms: C_15  and  C_16 
REMARK   12  A    between atoms: C_16  and  C_17 
REMARK   13  A    between atoms: C_20  and  C_21 
REMARK   14  A    between atoms: C_21  and  C_22 
REMARK   15  A    between atoms: C_22  and  C_23 
REMARK   16  A    between atoms: C_23  and  C_24 
REMARK   17  A    between atoms: C_24  and  C_25 
REMARK   18  A    between atoms: C_25  and  C_26 
REMARK   19  A    between atoms: C_26  and  C_27 
REMARK   20  A    between atoms: C_27  and  C_28 
REMARK   21  A    between atoms: C_28  and  O_30 
REMARK   22  A    between atoms: O_30  and  C_31 
REMARK   23  A    between atoms: C_34  and  C_35 
REMARK   24  A    between atoms: C_35  and  C_36 
REMARK   25  A    between atoms: C_36  and  C_37 
REMARK   26  A    between atoms: C_37  and  C_38 
REMARK   27  A    between atoms: C_38  and  C_39 
REMARK   28  A    between atoms: C_39  and  C_40 
REMARK   29  A    between atoms: C_40  and  C_41 
REMARK   30  A    between atoms: C_41  and  O_43 
REMARK   31  A    between atoms: O_43  and  C_44 
ROOT
HETATM    1  C   UNL     1     -18.597 -11.049  -2.322  1.00  0.00     0.012 C 
HETATM    2  C   UNL     1     -18.956 -12.370  -2.967  1.00  0.00    -0.025 C 
HETATM    3  C   UNL     1     -20.213 -12.811  -3.119  1.00  0.00    -0.025 C 
HETATM    4  C   UNL     1     -21.446 -12.034  -2.703  1.00  0.00     0.016 C 
HETATM    5  C   UNL     1     -21.103 -10.542  -2.411  1.00  0.00     0.020 C 
HETATM    6  C   UNL     1     -19.813 -10.474  -1.510  1.00  0.00     0.001 C 
ENDROOT
BRANCH   5   7
HETATM    7  C   UNL     1     -20.946  -9.736  -3.685  1.00  0.00    -0.025 C 
HETATM    8  C   UNL     1     -21.093  -8.408  -3.779  1.00  0.00    -0.030 C 
BRANCH   8   9
HETATM    9  C   UNL     1     -20.957  -7.688  -5.085  1.00  0.00     0.027 C 
BRANCH   9  10
HETATM   10  C   UNL     1     -21.882  -6.479  -5.134  1.00  0.00     0.004 C 
BRANCH  10  11
HETATM   11  C   UNL     1     -21.414  -5.502  -6.208  1.00  0.00     0.000 C 
BRANCH  11  12
HETATM   12  C   UNL     1     -20.051  -4.927  -5.854  1.00  0.00     0.000 C 
BRANCH  12  13
HETATM   13  C   UNL     1     -19.237  -4.633  -7.110  1.00  0.00     0.000 C 
BRANCH  13  14
HETATM   14  C   UNL     1     -20.136  -4.010  -8.168  1.00  0.00     0.010 C 
BRANCH  14  15
HETATM   15  C   UNL     1     -20.242  -4.872  -9.420  1.00  0.00     0.111 C 
BRANCH  15  16
HETATM   16  C   UNL     1     -20.661  -4.015 -10.592  1.00  0.00     0.259 C 
HETATM   17  O   UNL     1     -19.990  -3.821 -11.596  1.00  0.00    -0.265 OA
BRANCH  16  18
HETATM   18  O   UNL     1     -21.896  -3.490 -10.365  1.00  0.00    -0.317 OA
BRANCH  18  19
HETATM   19  C   UNL     1     -22.961  -4.457 -10.322  1.00  0.00     0.123 C 
HETATM   20  C   UNL     1     -24.119  -3.908  -9.493  1.00  0.00     0.040 C 
HETATM   21  C   UNL     1     -23.400  -4.726 -11.756  1.00  0.00     0.040 C 
ENDBRANCH  18  19
ENDBRANCH  16  18
ENDBRANCH  15  16
ENDBRANCH  14  15
ENDBRANCH  13  14
ENDBRANCH  12  13
ENDBRANCH  11  12
ENDBRANCH  10  11
ENDBRANCH   9  10
ENDBRANCH   8   9
ENDBRANCH   5   7
BRANCH   4  22
HETATM   22  C   UNL     1     -22.618 -12.202  -3.683  1.00  0.00     0.009 C 
BRANCH  22  23
HETATM   23  C   UNL     1     -22.381 -13.389  -4.619  1.00  0.00     0.001 C 
BRANCH  23  24
HETATM   24  C   UNL     1     -22.712 -13.044  -6.060  1.00  0.00     0.000 C 
BRANCH  24  25
HETATM   25  C   UNL     1     -21.976 -11.772  -6.458  1.00  0.00     0.000 C 
BRANCH  25  26
HETATM   26  C   UNL     1     -20.498 -12.053  -6.690  1.00  0.00     0.000 C 
BRANCH  26  27
HETATM   27  C   UNL     1     -20.334 -13.164  -7.716  1.00  0.00     0.010 C 
BRANCH  27  28
HETATM   28  C   UNL     1     -19.158 -14.073  -7.382  1.00  0.00     0.111 C 
BRANCH  28  29
HETATM   29  C   UNL     1     -17.884 -13.491  -7.944  1.00  0.00     0.259 C 
HETATM   30  O   UNL     1     -17.520 -13.592  -9.103  1.00  0.00    -0.265 OA
BRANCH  29  31
HETATM   31  O   UNL     1     -17.201 -12.833  -6.962  1.00  0.00    -0.317 OA
BRANCH  31  32
HETATM   32  C   UNL     1     -16.058 -13.540  -6.453  1.00  0.00     0.123 C 
HETATM   33  C   UNL     1     -14.787 -12.759  -6.774  1.00  0.00     0.040 C 
HETATM   34  C   UNL     1     -16.241 -13.685  -4.949  1.00  0.00     0.040 C 
ENDBRANCH  31  32
ENDBRANCH  29  31
ENDBRANCH  28  29
ENDBRANCH  27  28
ENDBRANCH  26  27
ENDBRANCH  25  26
ENDBRANCH  24  25
ENDBRANCH  23  24
ENDBRANCH  22  23
ENDBRANCH   4  22
BRANCH   6  35
HETATM   35  C   UNL     1     -20.156 -11.180  -0.159  1.00  0.00     0.006 C 
BRANCH  35  36
HETATM   36  C   UNL     1     -21.144 -10.521   0.799  1.00  0.00     0.000 C 
BRANCH  36  37
HETATM   37  C   UNL     1     -20.798  -9.090   1.178  1.00  0.00     0.000 C 
BRANCH  37  38
HETATM   38  C   UNL     1     -22.036  -8.205   1.156  1.00  0.00    -0.000 C 
BRANCH  38  39
HETATM   39  C   UNL     1     -22.650  -8.138  -0.236  1.00  0.00    -0.005 C 
HETATM   40  C   UNL     1     -22.299  -6.821  -0.901  1.00  0.00     0.005 C 
ENDBRANCH  38  39
ENDBRANCH  37  38
ENDBRANCH  36  37
ENDBRANCH  35  36
ENDBRANCH   6  35
BRANCH   1  41
HETATM   41  C   UNL     1     -17.265 -11.125  -1.557  1.00  0.00     0.009 C 
BRANCH  41  42
HETATM   42  C   UNL     1     -16.026 -10.571  -2.271  1.00  0.00     0.001 C 
BRANCH  42  43
HETATM   43  C   UNL     1     -16.244  -9.489  -3.332  1.00  0.00     0.000 C 
BRANCH  43  44
HETATM   44  C   UNL     1     -15.577  -9.968  -4.627  1.00  0.00    -0.000 C 
BRANCH  44  45
HETATM   45  C   UNL     1     -16.336  -9.593  -5.893  1.00  0.00    -0.005 C 
HETATM   46  C   UNL     1     -17.837  -9.717  -5.663  1.00  0.00     0.005 C 
ENDBRANCH  44  45
ENDBRANCH  43  44
ENDBRANCH  42  43
ENDBRANCH  41  42
ENDBRANCH   1  41
TORSDOF 31
BEGIN_RES ARG D 557
REMARK  4 active torsions:
REMARK  status: ('A' for Active; 'I' for Inactive)
REMARK    1  A    between atoms: CA   and  CB  
REMARK    2  A    between atoms: CB   and  CG  
REMARK    3  A    between atoms: CG   and  CD  
REMARK    4  A    between atoms: CD   and  NE  
REMARK       I    between atoms: NE   and  CZ  
REMARK       I    between atoms: CZ   and  NH1 
REMARK       I    between atoms: CZ   and  NH2 
ROOT
ATOM      1  CA  ARG D 557     -26.217   2.705 -17.014  1.00 35.49     0.159 C 
ENDROOT
BRANCH   1   2
ATOM      2  CB  ARG D 557     -26.789   1.319 -17.183  1.00 35.49     0.034 C 
BRANCH   2   3
ATOM      3  CG  ARG D 557     -28.225   1.160 -16.920  1.00 35.49     0.027 C 
BRANCH   3   4
ATOM      4  CD  ARG D 557     -28.609  -0.256 -16.724  1.00 35.49     0.116 C 
BRANCH   4   5
ATOM      5  NE  ARG D 557     -27.596  -1.001 -16.024  1.00 35.49    -0.212 N 
ATOM      6  CZ  ARG D 557     -27.423  -2.303 -16.080  1.00 35.49     0.666 C 
ATOM      7  NH1 ARG D 557     -28.198  -3.091 -16.802  1.00 35.49    -0.235 N 
ATOM      8  NH2 ARG D 557     -26.439  -2.807 -15.394  1.00 35.49    -0.235 N 
ATOM      9  HH  ARG D 557     -28.850  -2.780 -17.262  1.00 35.49     0.174 HD
ATOM     10  HH  ARG D 557     -28.035  -3.932 -16.802  1.00 35.49     0.174 HD
ATOM     11  HH  ARG D 557     -25.950  -2.273 -14.943  1.00 35.49     0.174 HD
ATOM     12  HH  ARG D 557     -26.293  -3.643 -15.409  1.00 35.49     0.174 HD
ATOM     13  HE  ARG D 557     -27.097  -0.581 -15.478  1.00 35.49     0.178 HD
ENDBRANCH   4   5
ENDBRANCH   3   4
ENDBRANCH   2   3
ENDBRANCH   1   2
END_RES ARG D 557
BEGIN_RES GLU D 570
REMARK  3 active torsions:
REMARK  status: ('A' for Active; 'I' for Inactive)
REMARK    5  A    between atoms: CA   and  CB  
REMARK    6  A    between atoms: CB   and  CG  
REMARK    7  A    between atoms: CG   and  CD  
ROOT
ATOM     14  CA  GLU D 570     -18.033  -6.348 -13.375  1.00 32.92     0.160 C 
ENDROOT
BRANCH  14  15
ATOM     15  CB  GLU D 570     -19.500  -6.345 -13.794  1.00 32.92     0.043 C 
BRANCH  15  16
ATOM     16  CG  GLU D 570     -19.796  -6.279 -15.248  1.00 32.92     0.100 C 
BRANCH  16  17
ATOM     17  CD  GLU D 570     -20.825  -7.295 -15.687  1.00 32.92     0.185 C 
ATOM     18  OE1 GLU D 570     -20.574  -8.508 -15.552  1.00 32.92    -0.647 OA
ATOM     19  OE2 GLU D 570     -21.887  -6.874 -16.186  1.00 32.92    -0.647 OA
ENDBRANCH  16  17
ENDBRANCH  15  16
ENDBRANCH  14  15
END_RES GLU D 570
ENDMDL
MODEL 6
REMARK VINA RESULT:      -7.2      2.523      5.434
REMARK  31 active torsions:
REMARK  status: ('A' for Active; 'I' for Inactive)
REMARK    1  A    between atoms: C_2  and  C_3 
REMARK    2  A    between atoms: C_3  and  C_4 
REMARK    3  A    between atoms: C_4  and  C_5 
REMARK    4  A    between atoms: C_5  and  C_6 
REMARK    5  A    between atoms: C_6  and  C_7 
REMARK    6  A    between atoms: C_10  and  C_34 
REMARK    7  A    between atoms: C_11  and  C_19 
REMARK    8  A    between atoms: C_12  and  C_13 
REMARK    9  A    between atoms: C_13  and  C_14 
REMARK   10  A    between atoms: C_14  and  C_15 
REMARK   11  A    between atoms: C_15  and  C_16 
REMARK   12  A    between atoms: C_16  and  C_17 
REMARK   13  A    between atoms: C_20  and  C_21 
REMARK   14  A    between atoms: C_21  and  C_22 
REMARK   15  A    between atoms: C_22  and  C_23 
REMARK   16  A    between atoms: C_23  and  C_24 
REMARK   17  A    between atoms: C_24  and  C_25 
REMARK   18  A    between atoms: C_25  and  C_26 
REMARK   19  A    between atoms: C_26  and  C_27 
REMARK   20  A    between atoms: C_27  and  C_28 
REMARK   21  A    between atoms: C_28  and  O_30 
REMARK   22  A    between atoms: O_30  and  C_31 
REMARK   23  A    between atoms: C_34  and  C_35 
REMARK   24  A    between atoms: C_35  and  C_36 
REMARK   25  A    between atoms: C_36  and  C_37 
REMARK   26  A    between atoms: C_37  and  C_38 
REMARK   27  A    between atoms: C_38  and  C_39 
REMARK   28  A    between atoms: C_39  and  C_40 
REMARK   29  A    between atoms: C_40  and  C_41 
REMARK   30  A    between atoms: C_41  and  O_43 
REMARK   31  A    between atoms: O_43  and  C_44 
ROOT
HETATM    1  C   UNL     1     -21.737 -10.422  -2.682  1.00  0.00     0.012 C 
HETATM    2  C   UNL     1     -20.307 -10.520  -2.198  1.00  0.00    -0.025 C 
HETATM    3  C   UNL     1     -19.237 -10.405  -2.996  1.00  0.00    -0.025 C 
HETATM    4  C   UNL     1     -19.310 -10.122  -4.483  1.00  0.00     0.016 C 
HETATM    5  C   UNL     1     -20.731  -9.637  -4.899  1.00  0.00     0.020 C 
HETATM    6  C   UNL     1     -21.811 -10.577  -4.244  1.00  0.00     0.001 C 
ENDROOT
BRANCH   5   7
HETATM    7  C   UNL     1     -20.961  -8.181  -4.545  1.00  0.00    -0.025 C 
HETATM    8  C   UNL     1     -21.230  -7.208  -5.425  1.00  0.00    -0.030 C 
BRANCH   8   9
HETATM    9  C   UNL     1     -21.408  -5.783  -4.999  1.00  0.00     0.027 C 
BRANCH   9  10
HETATM   10  C   UNL     1     -20.313  -4.903  -5.587  1.00  0.00     0.004 C 
BRANCH  10  11
HETATM   11  C   UNL     1     -19.932  -5.398  -6.979  1.00  0.00     0.000 C 
BRANCH  11  12
HETATM   12  C   UNL     1     -20.269  -4.354  -8.032  1.00  0.00     0.000 C 
BRANCH  12  13
HETATM   13  C   UNL     1     -21.570  -3.632  -7.691  1.00  0.00     0.000 C 
BRANCH  13  14
HETATM   14  C   UNL     1     -22.749  -4.407  -8.261  1.00  0.00     0.010 C 
BRANCH  14  15
HETATM   15  C   UNL     1     -23.800  -3.492  -8.880  1.00  0.00     0.111 C 
BRANCH  15  16
HETATM   16  C   UNL     1     -24.013  -3.870 -10.327  1.00  0.00     0.259 C 
HETATM   17  O   UNL     1     -24.796  -3.321 -11.089  1.00  0.00    -0.265 OA
BRANCH  16  18
HETATM   18  O   UNL     1     -23.202  -4.913 -10.658  1.00  0.00    -0.317 OA
BRANCH  18  19
HETATM   19  C   UNL     1     -22.255  -4.629 -11.702  1.00  0.00     0.123 C 
HETATM   20  C   UNL     1     -22.909  -4.851 -13.064  1.00  0.00     0.040 C 
HETATM   21  C   UNL     1     -21.811  -3.180 -11.544  1.00  0.00     0.040 C 
ENDBRANCH  18  19
ENDBRANCH  16  18
ENDBRANCH  15  16
ENDBRANCH  14  15
ENDBRANCH  13  14
ENDBRANCH  12  13
ENDBRANCH  11  12
ENDBRANCH  10  11
ENDBRANCH   9  10
ENDBRANCH   8   9
ENDBRANCH   5   7
BRANCH   4  22
HETATM   22  C   UNL     1     -18.188  -9.189  -4.970  1.00  0.00     0.009 C 
BRANCH  22  23
HETATM   23  C   UNL     1     -17.170  -9.955  -5.816  1.00  0.00     0.001 C 
BRANCH  23  24
HETATM   24  C   UNL     1     -15.783  -9.917  -5.199  1.00  0.00     0.000 C 
BRANCH  24  25
HETATM   25  C   UNL     1     -15.566 -11.174  -4.367  1.00  0.00     0.000 C 
BRANCH  25  26
HETATM   26  C   UNL     1     -15.471 -10.833  -2.887  1.00  0.00     0.000 C 
BRANCH  26  27
HETATM   27  C   UNL     1     -16.024 -11.978  -2.052  1.00  0.00     0.010 C 
BRANCH  27  28
HETATM   28  C   UNL     1     -16.121 -11.606  -0.578  1.00  0.00     0.111 C 
BRANCH  28  29
HETATM   29  C   UNL     1     -17.040 -12.567   0.135  1.00  0.00     0.259 C 
HETATM   30  O   UNL     1     -18.239 -12.407   0.286  1.00  0.00    -0.265 OA
BRANCH  29  31
HETATM   31  O   UNL     1     -16.330 -13.644   0.582  1.00  0.00    -0.317 OA
BRANCH  31  32
HETATM   32  C   UNL     1     -15.277 -13.323   1.506  1.00  0.00     0.123 C 
HETATM   33  C   UNL     1     -15.603 -13.905   2.879  1.00  0.00     0.040 C 
HETATM   34  C   UNL     1     -13.988 -13.917   0.956  1.00  0.00     0.040 C 
ENDBRANCH  31  32
ENDBRANCH  29  31
ENDBRANCH  28  29
ENDBRANCH  27  28
ENDBRANCH  26  27
ENDBRANCH  25  26
ENDBRANCH  24  25
ENDBRANCH  23  24
ENDBRANCH  22  23
ENDBRANCH   4  22
BRANCH   6  35
HETATM   35  C   UNL     1     -21.585 -12.012  -4.820  1.00  0.00     0.006 C 
BRANCH  35  36
HETATM   36  C   UNL     1     -22.229 -12.393  -6.151  1.00  0.00     0.000 C 
BRANCH  36  37
HETATM   37  C   UNL     1     -21.312 -13.136  -7.108  1.00  0.00     0.000 C 
BRANCH  37  38
HETATM   38  C   UNL     1     -19.861 -13.043  -6.656  1.00  0.00    -0.000 C 
BRANCH  38  39
HETATM   39  C   UNL     1     -18.965 -12.502  -7.763  1.00  0.00    -0.005 C 
HETATM   40  C   UNL     1     -19.182 -13.285  -9.043  1.00  0.00     0.005 C 
ENDBRANCH  38  39
ENDBRANCH  37  38
ENDBRANCH  36  37
ENDBRANCH  35  36
ENDBRANCH   6  35
BRANCH   1  41
HETATM   41  C   UNL     1     -22.681 -11.333  -1.879  1.00  0.00     0.009 C 
BRANCH  41  42
HETATM   42  C   UNL     1     -23.537 -10.661  -0.799  1.00  0.00     0.001 C 
BRANCH  42  43
HETATM   43  C   UNL     1     -22.808  -9.931   0.331  1.00  0.00     0.000 C 
BRANCH  43  44
HETATM   44  C   UNL     1     -23.150  -8.441   0.218  1.00  0.00    -0.000 C 
BRANCH  44  45
HETATM   45  C   UNL     1     -21.970  -7.559  -0.169  1.00  0.00    -0.005 C 
HETATM   46  C   UNL     1     -22.307  -6.745  -1.413  1.00  0.00     0.005 C 
ENDBRANCH  44  45
ENDBRANCH  43  44
ENDBRANCH  42  43
ENDBRANCH  41  42
ENDBRANCH   1  41
TORSDOF 31
BEGIN_RES ARG D 557
REMARK  4 active torsions:
REMARK  status: ('A' for Active; 'I' for Inactive)
REMARK    1  A    between atoms: CA   and  CB  
REMARK    2  A    between atoms: CB   and  CG  
REMARK    3  A    between atoms: CG   and  CD  
REMARK    4  A    between atoms: CD   and  NE  
REMARK       I    between atoms: NE   and  CZ  
REMARK       I    between atoms: CZ   and  NH1 
REMARK       I    between atoms: CZ   and  NH2 
ROOT
ATOM      1  CA  ARG D 557     -26.217   2.705 -17.014  1.00 35.49     0.159 C 
ENDROOT
BRANCH   1   2
ATOM      2  CB  ARG D 557     -26.789   1.319 -17.183  1.00 35.49     0.034 C 
BRANCH   2   3
ATOM      3  CG  ARG D 557     -25.832   0.206 -17.188  1.00 35.49     0.027 C 
BRANCH   3   4
ATOM      4  CD  ARG D 557     -24.719   0.414 -16.234  1.00 35.49     0.116 C 
BRANCH   4   5
ATOM      5  NE  ARG D 557     -24.862  -0.388 -15.048  1.00 35.49    -0.212 N 
ATOM      6  CZ  ARG D 557     -24.063  -1.363 -14.679  1.00 35.49     0.666 C 
ATOM      7  NH1 ARG D 557     -23.014  -1.730 -15.393  1.00 35.49    -0.235 N 
ATOM      8  NH2 ARG D 557     -24.333  -1.971 -13.560  1.00 35.49    -0.235 N 
ATOM      9  HH  ARG D 557     -22.816  -1.343 -16.132  1.00 35.49     0.174 HD
ATOM     10  HH  ARG D 557     -22.527  -2.371 -15.101  1.00 35.49     0.174 HD
ATOM     11  HH  ARG D 557     -25.012  -1.708 -13.116  1.00 35.49     0.174 HD
ATOM     12  HH  ARG D 557     -23.838  -2.602 -13.287  1.00 35.49     0.174 HD
ATOM     13  HE  ARG D 557     -25.553  -0.268 -14.567  1.00 35.49     0.178 HD
ENDBRANCH   4   5
ENDBRANCH   3   4
ENDBRANCH   2   3
ENDBRANCH   1   2
END_RES ARG D 557
BEGIN_RES GLU D 570
REMARK  3 active torsions:
REMARK  status: ('A' for Active; 'I' for Inactive)
REMARK    5  A    between atoms: CA   and  CB  
REMARK    6  A    between atoms: CB   and  CG  
REMARK    7  A    between atoms: CG   and  CD  
ROOT
ATOM     14  CA  GLU D 570     -18.033  -6.348 -13.375  1.00 32.92     0.160 C 
ENDROOT
BRANCH  14  15
ATOM     15  CB  GLU D 570     -19.500  -6.345 -13.794  1.00 32.92     0.043 C 
BRANCH  15  16
ATOM     16  CG  GLU D 570     -19.819  -5.871 -15.166  1.00 32.92     0.100 C 
BRANCH  16  17
ATOM     17  CD  GLU D 570     -21.121  -6.428 -15.693  1.00 32.92     0.185 C 
ATOM     18  OE1 GLU D 570     -21.861  -5.693 -16.376  1.00 32.92    -0.647 OA
ATOM     19  OE2 GLU D 570     -21.413  -7.606 -15.406  1.00 32.92    -0.647 OA
ENDBRANCH  16  17
ENDBRANCH  15  16
ENDBRANCH  14  15
END_RES GLU D 570
ENDMDL
MODEL 7
REMARK VINA RESULT:      -7.1      2.673      7.742
REMARK  31 active torsions:
REMARK  status: ('A' for Active; 'I' for Inactive)
REMARK    1  A    between atoms: C_2  and  C_3 
REMARK    2  A    between atoms: C_3  and  C_4 
REMARK    3  A    between atoms: C_4  and  C_5 
REMARK    4  A    between atoms: C_5  and  C_6 
REMARK    5  A    between atoms: C_6  and  C_7 
REMARK    6  A    between atoms: C_10  and  C_34 
REMARK    7  A    between atoms: C_11  and  C_19 
REMARK    8  A    between atoms: C_12  and  C_13 
REMARK    9  A    between atoms: C_13  and  C_14 
REMARK   10  A    between atoms: C_14  and  C_15 
REMARK   11  A    between atoms: C_15  and  C_16 
REMARK   12  A    between atoms: C_16  and  C_17 
REMARK   13  A    between atoms: C_20  and  C_21 
REMARK   14  A    between atoms: C_21  and  C_22 
REMARK   15  A    between atoms: C_22  and  C_23 
REMARK   16  A    between atoms: C_23  and  C_24 
REMARK   17  A    between atoms: C_24  and  C_25 
REMARK   18  A    between atoms: C_25  and  C_26 
REMARK   19  A    between atoms: C_26  and  C_27 
REMARK   20  A    between atoms: C_27  and  C_28 
REMARK   21  A    between atoms: C_28  and  O_30 
REMARK   22  A    between atoms: O_30  and  C_31 
REMARK   23  A    between atoms: C_34  and  C_35 
REMARK   24  A    between atoms: C_35  and  C_36 
REMARK   25  A    between atoms: C_36  and  C_37 
REMARK   26  A    between atoms: C_37  and  C_38 
REMARK   27  A    between atoms: C_38  and  C_39 
REMARK   28  A    between atoms: C_39  and  C_40 
REMARK   29  A    between atoms: C_40  and  C_41 
REMARK   30  A    between atoms: C_41  and  O_43 
REMARK   31  A    between atoms: O_43  and  C_44 
ROOT
HETATM    1  C   UNL     1     -23.373 -12.552  -1.072  1.00  0.00     0.012 C 
HETATM    2  C   UNL     1     -24.090 -11.332  -0.537  1.00  0.00    -0.025 C 
HETATM    3  C   UNL     1     -23.475 -10.311   0.076  1.00  0.00    -0.025 C 
HETATM    4  C   UNL     1     -21.977 -10.220   0.283  1.00  0.00     0.016 C 
HETATM    5  C   UNL     1     -21.218 -11.258  -0.597  1.00  0.00     0.020 C 
HETATM    6  C   UNL     1     -21.925 -12.659  -0.470  1.00  0.00     0.001 C 
ENDROOT
BRANCH   5   7
HETATM    7  C   UNL     1     -21.111 -10.808  -2.041  1.00  0.00    -0.025 C 
HETATM    8  C   UNL     1     -19.967 -10.681  -2.725  1.00  0.00    -0.030 C 
BRANCH   8   9
HETATM    9  C   UNL     1     -19.942 -10.195  -4.141  1.00  0.00     0.027 C 
BRANCH   9  10
HETATM   10  C   UNL     1     -18.740  -9.291  -4.380  1.00  0.00     0.004 C 
BRANCH  10  11
HETATM   11  C   UNL     1     -17.790  -9.356  -3.189  1.00  0.00     0.000 C 
BRANCH  11  12
HETATM   12  C   UNL     1     -16.386  -9.729  -3.641  1.00  0.00     0.000 C 
BRANCH  12  13
HETATM   13  C   UNL     1     -16.349 -10.004  -5.141  1.00  0.00     0.000 C 
BRANCH  13  14
HETATM   14  C   UNL     1     -15.904 -11.438  -5.387  1.00  0.00     0.010 C 
BRANCH  14  15
HETATM   15  C   UNL     1     -16.993 -12.450  -5.051  1.00  0.00     0.111 C 
BRANCH  15  16
HETATM   16  C   UNL     1     -17.129 -13.443  -6.181  1.00  0.00     0.259 C 
HETATM   17  O   UNL     1     -16.206 -14.063  -6.687  1.00  0.00    -0.265 OA
BRANCH  16  18
HETATM   18  O   UNL     1     -18.436 -13.546  -6.552  1.00  0.00    -0.317 OA
BRANCH  18  19
HETATM   19  C   UNL     1     -18.928 -12.440  -7.329  1.00  0.00     0.123 C 
HETATM   20  C   UNL     1     -18.618 -12.672  -8.806  1.00  0.00     0.040 C 
HETATM   21  C   UNL     1     -20.431 -12.345  -7.099  1.00  0.00     0.040 C 
ENDBRANCH  18  19
ENDBRANCH  16  18
ENDBRANCH  15  16
ENDBRANCH  14  15
ENDBRANCH  13  14
ENDBRANCH  12  13
ENDBRANCH  11  12
ENDBRANCH  10  11
ENDBRANCH   9  10
ENDBRANCH   8   9
ENDBRANCH   5   7
BRANCH   4  22
HETATM   22  C   UNL     1     -21.438  -8.788   0.126  1.00  0.00     0.009 C 
BRANCH  22  23
HETATM   23  C   UNL     1     -22.583  -7.774   0.098  1.00  0.00     0.001 C 
BRANCH  23  24
HETATM   24  C   UNL     1     -22.418  -6.769  -1.028  1.00  0.00     0.000 C 
BRANCH  24  25
HETATM   25  C   UNL     1     -21.343  -7.259  -1.990  1.00  0.00     0.000 C 
BRANCH  25  26
HETATM   26  C   UNL     1     -21.228  -6.332  -3.191  1.00  0.00     0.000 C 
BRANCH  26  27
HETATM   27  C   UNL     1     -21.713  -7.042  -4.445  1.00  0.00     0.010 C 
BRANCH  27  28
HETATM   28  C   UNL     1     -22.031  -6.058  -5.564  1.00  0.00     0.111 C 
BRANCH  28  29
HETATM   29  C   UNL     1     -20.880  -5.998  -6.538  1.00  0.00     0.259 C 
HETATM   30  O   UNL     1     -20.069  -6.891  -6.718  1.00  0.00    -0.265 OA
BRANCH  29  31
HETATM   31  O   UNL     1     -20.884  -4.799  -7.188  1.00  0.00    -0.317 OA
BRANCH  31  32
HETATM   32  C   UNL     1     -21.451  -4.836  -8.509  1.00  0.00     0.123 C 
HETATM   33  C   UNL     1     -22.604  -3.841  -8.601  1.00  0.00     0.040 C 
HETATM   34  C   UNL     1     -20.345  -4.480  -9.492  1.00  0.00     0.040 C 
ENDBRANCH  31  32
ENDBRANCH  29  31
ENDBRANCH  28  29
ENDBRANCH  27  28
ENDBRANCH  26  27
ENDBRANCH  25  26
ENDBRANCH  24  25
ENDBRANCH  23  24
ENDBRANCH  22  23
ENDBRANCH   4  22
BRANCH   6  35
HETATM   35  C   UNL     1     -21.815 -13.098   1.026  1.00  0.00     0.006 C 
BRANCH  35  36
HETATM   36  C   UNL     1     -21.228 -14.466   1.361  1.00  0.00     0.000 C 
BRANCH  36  37
HETATM   37  C   UNL     1     -20.185 -14.966   0.374  1.00  0.00     0.000 C 
BRANCH  37  38
HETATM   38  C   UNL     1     -18.788 -14.518   0.781  1.00  0.00    -0.000 C 
BRANCH  38  39
HETATM   39  C   UNL     1     -18.159 -13.621  -0.278  1.00  0.00    -0.005 C 
HETATM   40  C   UNL     1     -17.901 -12.239   0.292  1.00  0.00     0.005 C 
ENDBRANCH  38  39
ENDBRANCH  37  38
ENDBRANCH  36  37
ENDBRANCH  35  36
ENDBRANCH   6  35
BRANCH   1  41
HETATM   41  C   UNL     1     -24.234 -13.822  -0.958  1.00  0.00     0.009 C 
BRANCH  41  42
HETATM   42  C   UNL     1     -24.115 -14.841  -2.098  1.00  0.00     0.001 C 
BRANCH  42  43
HETATM   43  C   UNL     1     -22.748 -15.489  -2.330  1.00  0.00     0.000 C 
BRANCH  43  44
HETATM   44  C   UNL     1     -22.327 -15.181  -3.772  1.00  0.00    -0.000 C 
BRANCH  44  45
HETATM   45  C   UNL     1     -21.416 -13.968  -3.909  1.00  0.00    -0.005 C 
HETATM   46  C   UNL     1     -20.029 -14.287  -3.364  1.00  0.00     0.005 C 
ENDBRANCH  44  45
ENDBRANCH  43  44
ENDBRANCH  42  43
ENDBRANCH  41  42
ENDBRANCH   1  41
TORSDOF 31
BEGIN_RES ARG D 557
REMARK  4 active torsions:
REMARK  status: ('A' for Active; 'I' for Inactive)
REMARK    1  A    between atoms: CA   and  CB  
REMARK    2  A    between atoms: CB   and  CG  
REMARK    3  A    between atoms: CG   and  CD  
REMARK    4  A    between atoms: CD   and  NE  
REMARK       I    between atoms: NE   and  CZ  
REMARK       I    between atoms: CZ   and  NH1 
REMARK       I    between atoms: CZ   and  NH2 
ROOT
ATOM      1  CA  ARG D 557     -26.217   2.705 -17.014  1.00 35.49     0.159 C 
ENDROOT
BRANCH   1   2
ATOM      2  CB  ARG D 557     -26.789   1.319 -17.183  1.00 35.49     0.034 C 
BRANCH   2   3
ATOM      3  CG  ARG D 557     -28.213   1.149 -16.869  1.00 35.49     0.027 C 
BRANCH   3   4
ATOM      4  CD  ARG D 557     -28.588  -0.274 -16.703  1.00 35.49     0.116 C 
BRANCH   4   5
ATOM      5  NE  ARG D 557     -27.586  -1.019 -15.988  1.00 35.49    -0.212 N 
ATOM      6  CZ  ARG D 557     -27.397  -2.318 -16.060  1.00 35.49     0.666 C 
ATOM      7  NH1 ARG D 557     -28.144  -3.102 -16.814  1.00 35.49    -0.235 N 
ATOM      8  NH2 ARG D 557     -26.425  -2.823 -15.357  1.00 35.49    -0.235 N 
ATOM      9  HH  ARG D 557     -28.788  -2.791 -17.287  1.00 35.49     0.174 HD
ATOM     10  HH  ARG D 557     -27.972  -3.941 -16.824  1.00 35.49     0.174 HD
ATOM     11  HH  ARG D 557     -25.954  -2.291 -14.885  1.00 35.49     0.174 HD
ATOM     12  HH  ARG D 557     -26.270  -3.656 -15.381  1.00 35.49     0.174 HD
ATOM     13  HE  ARG D 557     -27.106  -0.603 -15.422  1.00 35.49     0.178 HD
ENDBRANCH   4   5
ENDBRANCH   3   4
ENDBRANCH   2   3
ENDBRANCH   1   2
END_RES ARG D 557
BEGIN_RES GLU D 570
REMARK  3 active torsions:
REMARK  status: ('A' for Active; 'I' for Inactive)
REMARK    5  A    between atoms: CA   and  CB  
REMARK    6  A    between atoms: CB   and  CG  
REMARK    7  A    between atoms: CG   and  CD  
ROOT
ATOM     14  CA  GLU D 570     -18.033  -6.348 -13.375  1.00 32.92     0.160 C 
ENDROOT
BRANCH  14  15
ATOM     15  CB  GLU D 570     -19.500  -6.345 -13.794  1.00 32.92     0.043 C 
BRANCH  15  16
ATOM     16  CG  GLU D 570     -19.815  -5.913 -15.180  1.00 32.92     0.100 C 
BRANCH  16  17
ATOM     17  CD  GLU D 570     -21.218  -5.371 -15.324  1.00 32.92     0.185 C 
ATOM     18  OE1 GLU D 570     -21.789  -4.896 -14.324  1.00 32.92    -0.647 OA
ATOM     19  OE2 GLU D 570     -21.759  -5.438 -16.446  1.00 32.92    -0.647 OA
ENDBRANCH  16  17
ENDBRANCH  15  16
ENDBRANCH  14  15
END_RES GLU D 570
ENDMDL
MODEL 8
REMARK VINA RESULT:      -7.1      1.620      2.373
REMARK  31 active torsions:
REMARK  status: ('A' for Active; 'I' for Inactive)
REMARK    1  A    between atoms: C_2  and  C_3 
REMARK    2  A    between atoms: C_3  and  C_4 
REMARK    3  A    between atoms: C_4  and  C_5 
REMARK    4  A    between atoms: C_5  and  C_6 
REMARK    5  A    between atoms: C_6  and  C_7 
REMARK    6  A    between atoms: C_10  and  C_34 
REMARK    7  A    between atoms: C_11  and  C_19 
REMARK    8  A    between atoms: C_12  and  C_13 
REMARK    9  A    between atoms: C_13  and  C_14 
REMARK   10  A    between atoms: C_14  and  C_15 
REMARK   11  A    between atoms: C_15  and  C_16 
REMARK   12  A    between atoms: C_16  and  C_17 
REMARK   13  A    between atoms: C_20  and  C_21 
REMARK   14  A    between atoms: C_21  and  C_22 
REMARK   15  A    between atoms: C_22  and  C_23 
REMARK   16  A    between atoms: C_23  and  C_24 
REMARK   17  A    between atoms: C_24  and  C_25 
REMARK   18  A    between atoms: C_25  and  C_26 
REMARK   19  A    between atoms: C_26  and  C_27 
REMARK   20  A    between atoms: C_27  and  C_28 
REMARK   21  A    between atoms: C_28  and  O_30 
REMARK   22  A    between atoms: O_30  and  C_31 
REMARK   23  A    between atoms: C_34  and  C_35 
REMARK   24  A    between atoms: C_35  and  C_36 
REMARK   25  A    between atoms: C_36  and  C_37 
REMARK   26  A    between atoms: C_37  and  C_38 
REMARK   27  A    between atoms: C_38  and  C_39 
REMARK   28  A    between atoms: C_39  and  C_40 
REMARK   29  A    between atoms: C_40  and  C_41 
REMARK   30  A    between atoms: C_41  and  O_43 
REMARK   31  A    between atoms: O_43  and  C_44 
ROOT
HETATM    1  C   UNL     1     -21.162 -10.106  -5.450  1.00  0.00     0.012 C 
HETATM    2  C   UNL     1     -21.733 -10.438  -4.088  1.00  0.00    -0.025 C 
HETATM    3  C   UNL     1     -21.390  -9.802  -2.958  1.00  0.00    -0.025 C 
HETATM    4  C   UNL     1     -20.416  -8.643  -2.894  1.00  0.00     0.016 C 
HETATM    5  C   UNL     1     -20.138  -8.057  -4.311  1.00  0.00     0.020 C 
HETATM    6  C   UNL     1     -19.859  -9.238  -5.314  1.00  0.00     0.001 C 
ENDROOT
BRANCH   5   7
HETATM    7  C   UNL     1     -21.268  -7.166  -4.789  1.00  0.00    -0.025 C 
HETATM    8  C   UNL     1     -21.254  -6.442  -5.915  1.00  0.00    -0.030 C 
BRANCH   8   9
HETATM    9  C   UNL     1     -22.398  -5.555  -6.300  1.00  0.00     0.027 C 
BRANCH   9  10
HETATM   10  C   UNL     1     -21.929  -4.443  -7.229  1.00  0.00     0.004 C 
BRANCH  10  11
HETATM   11  C   UNL     1     -20.488  -4.061  -6.905  1.00  0.00     0.000 C 
BRANCH  11  12
HETATM   12  C   UNL     1     -19.636  -4.061  -8.165  1.00  0.00     0.000 C 
BRANCH  12  13
HETATM   13  C   UNL     1     -20.409  -4.634  -9.349  1.00  0.00     0.000 C 
BRANCH  13  14
HETATM   14  C   UNL     1     -20.435  -3.620 -10.483  1.00  0.00     0.010 C 
BRANCH  14  15
HETATM   15  C   UNL     1     -21.066  -4.182 -11.751  1.00  0.00     0.111 C 
BRANCH  15  16
HETATM   16  C   UNL     1     -22.302  -3.386 -12.099  1.00  0.00     0.259 C 
HETATM   17  O   UNL     1     -22.660  -3.104 -13.233  1.00  0.00    -0.265 OA
BRANCH  16  18
HETATM   18  O   UNL     1     -22.959  -3.030 -10.961  1.00  0.00    -0.317 OA
BRANCH  18  19
HETATM   19  C   UNL     1     -24.182  -3.749 -10.724  1.00  0.00     0.123 C 
HETATM   20  C   UNL     1     -23.875  -5.230 -10.516  1.00  0.00     0.040 C 
HETATM   21  C   UNL     1     -24.838  -3.152  -9.485  1.00  0.00     0.040 C 
ENDBRANCH  18  19
ENDBRANCH  16  18
ENDBRANCH  15  16
ENDBRANCH  14  15
ENDBRANCH  13  14
ENDBRANCH  12  13
ENDBRANCH  11  12
ENDBRANCH  10  11
ENDBRANCH   9  10
ENDBRANCH   8   9
ENDBRANCH   5   7
BRANCH   4  22
HETATM   22  C   UNL     1     -20.827  -7.573  -1.869  1.00  0.00     0.009 C 
BRANCH  22  23
HETATM   23  C   UNL     1     -21.163  -8.210  -0.520  1.00  0.00     0.001 C 
BRANCH  23  24
HETATM   24  C   UNL     1     -22.367  -7.552   0.129  1.00  0.00     0.000 C 
BRANCH  24  25
HETATM   25  C   UNL     1     -23.427  -8.608   0.415  1.00  0.00     0.000 C 
BRANCH  25  26
HETATM   26  C   UNL     1     -23.123  -9.896  -0.337  1.00  0.00     0.000 C 
BRANCH  26  27
HETATM   27  C   UNL     1     -24.062 -11.001   0.123  1.00  0.00     0.010 C 
BRANCH  27  28
HETATM   28  C   UNL     1     -23.492 -12.383  -0.168  1.00  0.00     0.111 C 
BRANCH  28  29
HETATM   29  C   UNL     1     -22.925 -12.981   1.096  1.00  0.00     0.259 C 
HETATM   30  O   UNL     1     -23.535 -13.710   1.860  1.00  0.00    -0.265 OA
BRANCH  29  31
HETATM   31  O   UNL     1     -21.628 -12.587   1.255  1.00  0.00    -0.317 OA
BRANCH  31  32
HETATM   32  C   UNL     1     -20.784 -12.839   0.119  1.00  0.00     0.123 C 
HETATM   33  C   UNL     1     -19.801 -11.685  -0.056  1.00  0.00     0.040 C 
HETATM   34  C   UNL     1     -20.047 -14.146   0.377  1.00  0.00     0.040 C 
ENDBRANCH  31  32
ENDBRANCH  29  31
ENDBRANCH  28  29
ENDBRANCH  27  28
ENDBRANCH  26  27
ENDBRANCH  25  26
ENDBRANCH  24  25
ENDBRANCH  23  24
ENDBRANCH  22  23
ENDBRANCH   4  22
BRANCH   6  35
HETATM   35  C   UNL     1     -18.572  -9.972  -4.817  1.00  0.00     0.006 C 
BRANCH  35  36
HETATM   36  C   UNL     1     -17.328  -9.980  -5.701  1.00  0.00     0.000 C 
BRANCH  36  37
HETATM   37  C   UNL     1     -16.145 -10.738  -5.121  1.00  0.00     0.000 C 
BRANCH  37  38
HETATM   38  C   UNL     1     -16.545 -11.493  -3.861  1.00  0.00    -0.000 C 
BRANCH  38  39
HETATM   39  C   UNL     1     -15.451 -11.432  -2.802  1.00  0.00    -0.005 C 
HETATM   40  C   UNL     1     -16.064 -11.331  -1.419  1.00  0.00     0.005 C 
ENDBRANCH  38  39
ENDBRANCH  37  38
ENDBRANCH  36  37
ENDBRANCH  35  36
ENDBRANCH   6  35
BRANCH   1  41
HETATM   41  C   UNL     1     -21.038 -11.354  -6.341  1.00  0.00     0.009 C 
BRANCH  41  42
HETATM   42  C   UNL     1     -21.065 -12.714  -5.633  1.00  0.00     0.001 C 
BRANCH  42  43
HETATM   43  C   UNL     1     -19.727 -13.304  -5.180  1.00  0.00     0.000 C 
BRANCH  43  44
HETATM   44  C   UNL     1     -19.856 -13.659  -3.694  1.00  0.00    -0.000 C 
BRANCH  44  45
HETATM   45  C   UNL     1     -21.291 -13.858  -3.224  1.00  0.00    -0.005 C 
HETATM   46  C   UNL     1     -21.534 -15.323  -2.882  1.00  0.00     0.005 C 
ENDBRANCH  44  45
ENDBRANCH  43  44
ENDBRANCH  42  43
ENDBRANCH  41  42
ENDBRANCH   1  41
TORSDOF 31
BEGIN_RES ARG D 557
REMARK  4 active torsions:
REMARK  status: ('A' for Active; 'I' for Inactive)
REMARK    1  A    between atoms: CA   and  CB  
REMARK    2  A    between atoms: CB   and  CG  
REMARK    3  A    between atoms: CG   and  CD  
REMARK    4  A    between atoms: CD   and  NE  
REMARK       I    between atoms: NE   and  CZ  
REMARK       I    between atoms: CZ   and  NH1 
REMARK       I    between atoms: CZ   and  NH2 
ROOT
ATOM      1  CA  ARG D 557     -26.217   2.705 -17.014  1.00 35.49     0.159 C 
ENDROOT
BRANCH   1   2
ATOM      2  CB  ARG D 557     -26.789   1.319 -17.183  1.00 35.49     0.034 C 
BRANCH   2   3
ATOM      3  CG  ARG D 557     -25.990   0.206 -16.657  1.00 35.49     0.027 C 
BRANCH   3   4
ATOM      4  CD  ARG D 557     -26.830  -0.910 -16.165  1.00 35.49     0.116 C 
BRANCH   4   5
ATOM      5  NE  ARG D 557     -26.226  -1.594 -15.052  1.00 35.49    -0.212 N 
ATOM      6  CZ  ARG D 557     -26.248  -2.891 -14.845  1.00 35.49     0.666 C 
ATOM      7  NH1 ARG D 557     -26.861  -3.729 -15.659  1.00 35.49    -0.235 N 
ATOM      8  NH2 ARG D 557     -25.629  -3.341 -13.792  1.00 35.49    -0.235 N 
ATOM      9  HH  ARG D 557     -27.274  -3.456 -16.359  1.00 35.49     0.174 HD
ATOM     10  HH  ARG D 557     -26.840  -4.566 -15.474  1.00 35.49     0.174 HD
ATOM     11  HH  ARG D 557     -25.235  -2.777 -13.288  1.00 35.49     0.174 HD
ATOM     12  HH  ARG D 557     -25.618  -4.173 -13.627  1.00 35.49     0.174 HD
ATOM     13  HE  ARG D 557     -25.871  -1.123 -14.439  1.00 35.49     0.178 HD
ENDBRANCH   4   5
ENDBRANCH   3   4
ENDBRANCH   2   3
ENDBRANCH   1   2
END_RES ARG D 557
BEGIN_RES GLU D 570
REMARK  3 active torsions:
REMARK  status: ('A' for Active; 'I' for Inactive)
REMARK    5  A    between atoms: CA   and  CB  
REMARK    6  A    between atoms: CB   and  CG  
REMARK    7  A    between atoms: CG   and  CD  
ROOT
ATOM     14  CA  GLU D 570     -18.033  -6.348 -13.375  1.00 32.92     0.160 C 
ENDROOT
BRANCH  14  15
ATOM     15  CB  GLU D 570     -19.500  -6.345 -13.794  1.00 32.92     0.043 C 
BRANCH  15  16
ATOM     16  CG  GLU D 570     -20.087  -7.635 -14.240  1.00 32.92     0.100 C 
BRANCH  16  17
ATOM     17  CD  GLU D 570     -20.817  -7.526 -15.558  1.00 32.92     0.185 C 
ATOM     18  OE1 GLU D 570     -21.167  -8.568 -16.144  1.00 32.92    -0.647 OA
ATOM     19  OE2 GLU D 570     -21.027  -6.386 -16.018  1.00 32.92    -0.647 OA
ENDBRANCH  16  17
ENDBRANCH  15  16
ENDBRANCH  14  15
END_RES GLU D 570
ENDMDL
MODEL 9
REMARK VINA RESULT:      -7.1      2.803      9.085
REMARK  31 active torsions:
REMARK  status: ('A' for Active; 'I' for Inactive)
REMARK    1  A    between atoms: C_2  and  C_3 
REMARK    2  A    between atoms: C_3  and  C_4 
REMARK    3  A    between atoms: C_4  and  C_5 
REMARK    4  A    between atoms: C_5  and  C_6 
REMARK    5  A    between atoms: C_6  and  C_7 
REMARK    6  A    between atoms: C_10  and  C_34 
REMARK    7  A    between atoms: C_11  and  C_19 
REMARK    8  A    between atoms: C_12  and  C_13 
REMARK    9  A    between atoms: C_13  and  C_14 
REMARK   10  A    between atoms: C_14  and  C_15 
REMARK   11  A    between atoms: C_15  and  C_16 
REMARK   12  A    between atoms: C_16  and  C_17 
REMARK   13  A    between atoms: C_20  and  C_21 
REMARK   14  A    between atoms: C_21  and  C_22 
REMARK   15  A    between atoms: C_22  and  C_23 
REMARK   16  A    between atoms: C_23  and  C_24 
REMARK   17  A    between atoms: C_24  and  C_25 
REMARK   18  A    between atoms: C_25  and  C_26 
REMARK   19  A    between atoms: C_26  and  C_27 
REMARK   20  A    between atoms: C_27  and  C_28 
REMARK   21  A    between atoms: C_28  and  O_30 
REMARK   22  A    between atoms: O_30  and  C_31 
REMARK   23  A    between atoms: C_34  and  C_35 
REMARK   24  A    between atoms: C_35  and  C_36 
REMARK   25  A    between atoms: C_36  and  C_37 
REMARK   26  A    between atoms: C_37  and  C_38 
REMARK   27  A    between atoms: C_38  and  C_39 
REMARK   28  A    between atoms: C_39  and  C_40 
REMARK   29  A    between atoms: C_40  and  C_41 
REMARK   30  A    between atoms: C_41  and  O_43 
REMARK   31  A    between atoms: O_43  and  C_44 
ROOT
HETATM    1  C   UNL     1     -23.274 -12.418  -1.074  1.00  0.00     0.012 C 
HETATM    2  C   UNL     1     -24.050 -11.177  -0.692  1.00  0.00    -0.025 C 
HETATM    3  C   UNL     1     -23.501 -10.100  -0.112  1.00  0.00    -0.025 C 
HETATM    4  C   UNL     1     -22.026  -9.962   0.206  1.00  0.00     0.016 C 
HETATM    5  C   UNL     1     -21.184 -11.048  -0.530  1.00  0.00     0.020 C 
HETATM    6  C   UNL     1     -21.878 -12.450  -0.353  1.00  0.00     0.001 C 
ENDROOT
BRANCH   5   7
HETATM    7  C   UNL     1     -20.967 -10.705  -1.990  1.00  0.00    -0.025 C 
HETATM    8  C   UNL     1     -19.773 -10.551  -2.577  1.00  0.00    -0.030 C 
BRANCH   8   9
HETATM    9  C   UNL     1     -19.643 -10.175  -4.020  1.00  0.00     0.027 C 
BRANCH   9  10
HETATM   10  C   UNL     1     -18.329  -9.448  -4.273  1.00  0.00     0.004 C 
BRANCH  10  11
HETATM   11  C   UNL     1     -17.946  -9.552  -5.746  1.00  0.00     0.000 C 
BRANCH  11  12
HETATM   12  C   UNL     1     -17.061 -10.766  -5.986  1.00  0.00     0.000 C 
BRANCH  12  13
HETATM   13  C   UNL     1     -15.605 -10.458  -5.646  1.00  0.00     0.000 C 
BRANCH  13  14
HETATM   14  C   UNL     1     -14.766 -11.717  -5.805  1.00  0.00     0.010 C 
BRANCH  14  15
HETATM   15  C   UNL     1     -15.243 -12.851  -4.905  1.00  0.00     0.111 C 
BRANCH  15  16
HETATM   16  C   UNL     1     -14.411 -12.883  -3.645  1.00  0.00     0.259 C 
HETATM   17  O   UNL     1     -13.204 -12.693  -3.594  1.00  0.00    -0.265 OA
BRANCH  16  18
HETATM   18  O   UNL     1     -15.204 -13.155  -2.572  1.00  0.00    -0.317 OA
BRANCH  18  19
HETATM   19  C   UNL     1     -16.380 -12.333  -2.472  1.00  0.00     0.123 C 
HETATM   20  C   UNL     1     -17.426 -13.036  -1.610  1.00  0.00     0.040 C 
HETATM   21  C   UNL     1     -15.966 -11.006  -1.846  1.00  0.00     0.040 C 
ENDBRANCH  18  19
ENDBRANCH  16  18
ENDBRANCH  15  16
ENDBRANCH  14  15
ENDBRANCH  13  14
ENDBRANCH  12  13
ENDBRANCH  11  12
ENDBRANCH  10  11
ENDBRANCH   9  10
ENDBRANCH   8   9
ENDBRANCH   5   7
BRANCH   4  22
HETATM   22  C   UNL     1     -21.497  -8.535  -0.017  1.00  0.00     0.009 C 
BRANCH  22  23
HETATM   23  C   UNL     1     -22.635  -7.584  -0.390  1.00  0.00     0.001 C 
BRANCH  23  24
HETATM   24  C   UNL     1     -22.166  -6.483  -1.324  1.00  0.00     0.000 C 
BRANCH  24  25
HETATM   25  C   UNL     1     -21.392  -7.099  -2.482  1.00  0.00     0.000 C 
BRANCH  25  26
HETATM   26  C   UNL     1     -21.997  -6.687  -3.816  1.00  0.00     0.000 C 
BRANCH  26  27
HETATM   27  C   UNL     1     -20.987  -6.897  -4.933  1.00  0.00     0.010 C 
BRANCH  27  28
HETATM   28  C   UNL     1     -21.397  -6.172  -6.209  1.00  0.00     0.111 C 
BRANCH  28  29
HETATM   29  C   UNL     1     -20.703  -4.835  -6.285  1.00  0.00     0.259 C 
HETATM   30  O   UNL     1     -19.686  -4.538  -5.681  1.00  0.00    -0.265 OA
BRANCH  29  31
HETATM   31  O   UNL     1     -21.382  -4.007  -7.131  1.00  0.00    -0.317 OA
BRANCH  31  32
HETATM   32  C   UNL     1     -21.674  -4.576  -8.418  1.00  0.00     0.123 C 
HETATM   33  C   UNL     1     -22.950  -3.954  -8.978  1.00  0.00     0.040 C 
HETATM   34  C   UNL     1     -20.486  -4.289  -9.326  1.00  0.00     0.040 C 
ENDBRANCH  31  32
ENDBRANCH  29  31
ENDBRANCH  28  29
ENDBRANCH  27  28
ENDBRANCH  26  27
ENDBRANCH  25  26
ENDBRANCH  24  25
ENDBRANCH  23  24
ENDBRANCH  22  23
ENDBRANCH   4  22
BRANCH   6  35
HETATM   35  C   UNL     1     -21.882 -12.773   1.176  1.00  0.00     0.006 C 
BRANCH  35  36
HETATM   36  C   UNL     1     -21.553 -14.189   1.641  1.00  0.00     0.000 C 
BRANCH  36  37
HETATM   37  C   UNL     1     -22.315 -14.643   2.875  1.00  0.00     0.000 C 
BRANCH  37  38
HETATM   38  C   UNL     1     -23.818 -14.528   2.661  1.00  0.00    -0.000 C 
BRANCH  38  39
HETATM   39  C   UNL     1     -24.594 -15.016   3.878  1.00  0.00    -0.005 C 
HETATM   40  C   UNL     1     -23.655 -15.679   4.867  1.00  0.00     0.005 C 
ENDBRANCH  38  39
ENDBRANCH  37  38
ENDBRANCH  36  37
ENDBRANCH  35  36
ENDBRANCH   6  35
BRANCH   1  41
HETATM   41  C   UNL     1     -24.122 -13.693  -0.933  1.00  0.00     0.009 C 
BRANCH  41  42
HETATM   42  C   UNL     1     -23.960 -14.755  -2.027  1.00  0.00     0.001 C 
BRANCH  42  43
HETATM   43  C   UNL     1     -22.566 -14.944  -2.631  1.00  0.00     0.000 C 
BRANCH  43  44
HETATM   44  C   UNL     1     -22.630 -14.495  -4.095  1.00  0.00    -0.000 C 
BRANCH  44  45
HETATM   45  C   UNL     1     -21.713 -13.325  -4.428  1.00  0.00    -0.005 C 
HETATM   46  C   UNL     1     -22.474 -12.268  -5.219  1.00  0.00     0.005 C 
ENDBRANCH  44  45
ENDBRANCH  43  44
ENDBRANCH  42  43
ENDBRANCH  41  42
ENDBRANCH   1  41
TORSDOF 31
BEGIN_RES ARG D 557
REMARK  4 active torsions:
REMARK  status: ('A' for Active; 'I' for Inactive)
REMARK    1  A    between atoms: CA   and  CB  
REMARK    2  A    between atoms: CB   and  CG  
REMARK    3  A    between atoms: CG   and  CD  
REMARK    4  A    between atoms: CD   and  NE  
REMARK       I    between atoms: NE   and  CZ  
REMARK       I    between atoms: CZ   and  NH1 
REMARK       I    between atoms: CZ   and  NH2 
ROOT
ATOM      1  CA  ARG D 557     -26.217   2.705 -17.014  1.00 35.49     0.159 C 
ENDROOT
BRANCH   1   2
ATOM      2  CB  ARG D 557     -26.789   1.319 -17.183  1.00 35.49     0.034 C 
BRANCH   2   3
ATOM      3  CG  ARG D 557     -25.860   0.195 -17.011  1.00 35.49     0.027 C 
BRANCH   3   4
ATOM      4  CD  ARG D 557     -26.260  -0.703 -15.905  1.00 35.49     0.116 C 
BRANCH   4   5
ATOM      5  NE  ARG D 557     -25.204  -0.883 -14.943  1.00 35.49    -0.212 N 
ATOM      6  CZ  ARG D 557     -24.897  -2.010 -14.341  1.00 35.49     0.666 C 
ATOM      7  NH1 ARG D 557     -25.559  -3.131 -14.554  1.00 35.49    -0.235 N 
ATOM      8  NH2 ARG D 557     -23.893  -1.993 -13.512  1.00 35.49    -0.235 N 
ATOM      9  HH  ARG D 557     -26.222  -3.166 -15.097  1.00 35.49     0.174 HD
ATOM     10  HH  ARG D 557     -25.312  -3.836 -14.135  1.00 35.49     0.174 HD
ATOM     11  HH  ARG D 557     -23.479  -1.256 -13.400  1.00 35.49     0.174 HD
ATOM     12  HH  ARG D 557     -23.663  -2.702 -13.108  1.00 35.49     0.174 HD
ATOM     13  HE  ARG D 557     -24.772  -0.195 -14.692  1.00 35.49     0.178 HD
ENDBRANCH   4   5
ENDBRANCH   3   4
ENDBRANCH   2   3
ENDBRANCH   1   2
END_RES ARG D 557
BEGIN_RES GLU D 570
REMARK  3 active torsions:
REMARK  status: ('A' for Active; 'I' for Inactive)
REMARK    5  A    between atoms: CA   and  CB  
REMARK    6  A    between atoms: CB   and  CG  
REMARK    7  A    between atoms: CG   and  CD  
ROOT
ATOM     14  CA  GLU D 570     -18.033  -6.348 -13.375  1.00 32.92     0.160 C 
ENDROOT
BRANCH  14  15
ATOM     15  CB  GLU D 570     -19.500  -6.345 -13.794  1.00 32.92     0.043 C 
BRANCH  15  16
ATOM     16  CG  GLU D 570     -19.798  -6.202 -15.243  1.00 32.92     0.100 C 
BRANCH  16  17
ATOM     17  CD  GLU D 570     -21.252  -5.895 -15.518  1.00 32.92     0.185 C 
ATOM     18  OE1 GLU D 570     -21.567  -4.752 -15.899  1.00 32.92    -0.647 OA
ATOM     19  OE2 GLU D 570     -22.086  -6.804 -15.334  1.00 32.92    -0.647 OA
ENDBRANCH  16  17
ENDBRANCH  15  16
ENDBRANCH  14  15
END_RES GLU D 570
ENDMDL
